MODEL 1
REMARK VINA RESULT:    -4.509      0.000      0.000
REMARK INTER + INTRA:          -5.789
REMARK INTER:                  -6.355
REMARK INTRA:                   0.565
REMARK UNBOUND:                 0.565
REMARK SMILES CC1=CCC(=C(C)C)C(=O)CC(C)=CCC1
REMARK SMILES IDX 12 1 14 2 13 3 15 4 16 5 2 6 1 7 3 8 11 10 9 11 10 12 5 13
REMARK SMILES IDX 6 14 7 15 8 16 4 17
REMARK H PARENT
REMARK Flexibility Score: 60.00
ROOT
ATOM      1  C   UNL     1       6.821 -19.770  24.701  1.00  0.00    -0.070 C 
ATOM      2  C   UNL     1       6.955 -20.922  24.002  1.00  0.00    -0.027 C 
ATOM      3  C   UNL     1       7.121 -19.798  26.178  1.00  0.00     0.039 C 
ENDROOT
BRANCH   2   4
ATOM      4  C   UNL     1       6.755 -21.065  22.511  1.00  0.00     0.032 C 
BRANCH   4   5
ATOM      5  C   UNL     1       7.999 -21.652  21.827  1.00  0.00     0.034 C 
BRANCH   5   6
ATOM      6  C   UNL     1       9.220 -20.746  21.903  1.00  0.00    -0.077 C 
ATOM      7  C   UNL     1      10.520 -21.320  22.408  1.00  0.00     0.039 C 
ATOM      8  C   UNL     1       9.208 -19.447  21.523  1.00  0.00    -0.023 CG0
ATOM      9  G   UNL     1       7.991 -18.681  21.060  1.00  0.00     0.000 G0
ENDBRANCH   5   6
ENDBRANCH   4   5
ENDBRANCH   2   4
BRANCH   1  10
ATOM     10  C   UNL     1       6.381 -18.466  24.065  1.00  0.00     0.111 C 
BRANCH  10  11
ATOM     11  C   UNL     1       7.543 -17.754  23.431  1.00  0.00     0.163 C 
ATOM     12  O   UNL     1       8.500 -17.367  24.155  1.00  0.00    -0.294 OA
BRANCH  11  13
ATOM     13  C   UNL     1       7.597 -17.518  21.966  1.00  0.00    -0.002 C 
ATOM     14  C   UNL     1       7.299 -16.291  21.457  1.00  0.00    -0.069 C 
ATOM     15  C   UNL     1       7.297 -16.045  19.966  1.00  0.00     0.039 C 
ATOM     16  C   UNL     1       6.998 -15.119  22.365  1.00  0.00     0.039 C 
BRANCH  13  17
ATOM     17  C   UNL     1       7.992 -18.665  21.043  1.00  0.00     0.066 CG0
ATOM     18  G   UNL     1       9.194 -19.445  21.521  1.00  0.00     0.000 G0
ENDBRANCH  13  17
ENDBRANCH  11  13
ENDBRANCH  10  11
ENDBRANCH   1  10
TORSDOF 0
ENDMDL
MODEL 2
REMARK VINA RESULT:    -4.298      1.953      4.719
REMARK INTER + INTRA:          -5.492
REMARK INTER:                  -5.986
REMARK INTRA:                   0.494
REMARK UNBOUND:                 0.565
REMARK SMILES CC1=CCC(=C(C)C)C(=O)CC(C)=CCC1
REMARK SMILES IDX 12 1 14 2 13 3 15 4 16 5 2 6 1 7 3 8 11 10 9 11 10 12 5 13
REMARK SMILES IDX 6 14 7 15 8 16 4 17
REMARK H PARENT
REMARK Flexibility Score: 60.00
ROOT
ATOM      1  C   UNL     1       7.431 -16.259  20.827  1.00  0.00    -0.070 C 
ATOM      2  C   UNL     1       7.125 -15.661  22.003  1.00  0.00    -0.027 C 
ATOM      3  C   UNL     1       6.748 -15.761  19.579  1.00  0.00     0.039 C 
ENDROOT
BRANCH   2   4
ATOM      4  C   UNL     1       7.755 -15.989  23.337  1.00  0.00     0.032 C 
BRANCH   4   5
ATOM      5  C   UNL     1       7.144 -17.254  23.956  1.00  0.00     0.034 C 
BRANCH   5   6
ATOM      6  C   UNL     1       8.170 -18.333  24.271  1.00  0.00    -0.077 C 
ATOM      7  C   UNL     1       9.218 -18.057  25.319  1.00  0.00     0.039 C 
ATOM      8  C   UNL     1       8.184 -19.546  23.670  1.00  0.00    -0.023 CG0
ATOM      9  G   UNL     1       7.264 -19.980  22.553  1.00  0.00     0.000 G0
ENDBRANCH   5   6
ENDBRANCH   4   5
ENDBRANCH   2   4
BRANCH   1  10
ATOM     10  C   UNL     1       8.420 -17.403  20.716  1.00  0.00     0.111 C 
BRANCH  10  11
ATOM     11  C   UNL     1       7.728 -18.683  20.339  1.00  0.00     0.163 C 
ATOM     12  O   UNL     1       7.012 -18.715  19.301  1.00  0.00    -0.294 OA
BRANCH  11  13
ATOM     13  C   UNL     1       7.889 -19.916  21.151  1.00  0.00    -0.002 C 
ATOM     14  C   UNL     1       8.591 -20.974  20.660  1.00  0.00    -0.069 C 
ATOM     15  C   UNL     1       8.721 -22.257  21.449  1.00  0.00     0.039 C 
ATOM     16  C   UNL     1       9.300 -20.891  19.327  1.00  0.00     0.039 C 
BRANCH  13  17
ATOM     17  C   UNL     1       7.259 -19.979  22.538  1.00  0.00     0.066 CG0
ATOM     18  G   UNL     1       8.183 -19.530  23.646  1.00  0.00     0.000 G0
ENDBRANCH  13  17
ENDBRANCH  11  13
ENDBRANCH  10  11
ENDBRANCH   1  10
TORSDOF 0
ENDMDL
MODEL 3
REMARK VINA RESULT:    -4.292      1.712      2.638
REMARK INTER + INTRA:          -5.483
REMARK INTER:                  -6.036
REMARK INTRA:                   0.553
REMARK UNBOUND:                 0.565
REMARK SMILES CC1=CCC(=C(C)C)C(=O)CC(C)=CCC1
REMARK SMILES IDX 12 1 14 2 13 3 15 4 16 5 2 6 1 7 3 8 11 10 9 11 10 12 5 13
REMARK SMILES IDX 6 14 7 15 8 16 4 17
REMARK H PARENT
REMARK Flexibility Score: 60.00
ROOT
ATOM      1  C   UNL     1       6.858 -19.688  24.732  1.00  0.00    -0.070 C 
ATOM      2  C   UNL     1       7.008 -20.837  24.029  1.00  0.00    -0.027 C 
ATOM      3  C   UNL     1       7.074 -19.737  26.223  1.00  0.00     0.039 C 
ENDROOT
BRANCH   2   4
ATOM      4  C   UNL     1       6.891 -20.960  22.527  1.00  0.00     0.032 C 
BRANCH   4   5
ATOM      5  C   UNL     1       8.231 -21.347  21.885  1.00  0.00     0.034 C 
BRANCH   5   6
ATOM      6  C   UNL     1       8.925 -20.188  21.182  1.00  0.00    -0.077 C 
ATOM      7  C   UNL     1       8.868 -20.113  19.677  1.00  0.00     0.039 C 
ATOM      8  C   UNL     1       9.579 -19.203  21.839  1.00  0.00    -0.023 CG0
ATOM      9  G   UNL     1       9.801 -19.143  23.332  1.00  0.00     0.000 G0
ENDBRANCH   5   6
ENDBRANCH   4   5
ENDBRANCH   2   4
BRANCH   1  10
ATOM     10  C   UNL     1       6.482 -18.369  24.086  1.00  0.00     0.111 C 
BRANCH  10  11
ATOM     11  C   UNL     1       7.699 -17.654  23.569  1.00  0.00     0.163 C 
ATOM     12  O   UNL     1       7.558 -16.720  22.734  1.00  0.00    -0.294 OA
BRANCH  11  13
ATOM     13  C   UNL     1       9.063 -18.010  24.040  1.00  0.00    -0.002 C 
ATOM     14  C   UNL     1       9.623 -17.344  25.086  1.00  0.00    -0.069 C 
ATOM     15  C   UNL     1      11.028 -17.655  25.546  1.00  0.00     0.039 C 
ATOM     16  C   UNL     1       8.846 -16.297  25.853  1.00  0.00     0.039 C 
BRANCH  13  17
ATOM     17  C   UNL     1       9.822 -19.129  23.336  1.00  0.00     0.066 CG0
ATOM     18  G   UNL     1       9.583 -19.184  21.846  1.00  0.00     0.000 G0
ENDBRANCH  13  17
ENDBRANCH  11  13
ENDBRANCH  10  11
ENDBRANCH   1  10
TORSDOF 0
ENDMDL
MODEL 4
REMARK VINA RESULT:    -4.124      1.651      3.551
REMARK INTER + INTRA:          -5.247
REMARK INTER:                  -5.928
REMARK INTRA:                   0.682
REMARK UNBOUND:                 0.565
REMARK SMILES CC1=CCC(=C(C)C)C(=O)CC(C)=CCC1
REMARK SMILES IDX 12 1 14 2 13 3 15 4 16 5 2 6 1 7 3 8 11 10 9 11 10 12 5 13
REMARK SMILES IDX 6 14 7 15 8 16 4 17
REMARK H PARENT
REMARK Flexibility Score: 60.00
ROOT
ATOM      1  C   UNL     1       7.501 -20.681  22.695  1.00  0.00    -0.070 C 
ATOM      2  C   UNL     1       6.685 -20.343  23.722  1.00  0.00    -0.027 C 
ATOM      3  C   UNL     1       6.881 -21.311  21.474  1.00  0.00     0.039 C 
ENDROOT
BRANCH   2   4
ATOM      4  C   UNL     1       7.123 -19.651  24.991  1.00  0.00     0.032 C 
BRANCH   4   5
ATOM      5  C   UNL     1       6.723 -18.168  24.995  1.00  0.00     0.034 C 
BRANCH   5   6
ATOM      6  C   UNL     1       7.875 -17.227  24.672  1.00  0.00    -0.077 C 
ATOM      7  C   UNL     1       8.663 -16.626  25.809  1.00  0.00     0.039 C 
ATOM      8  C   UNL     1       8.247 -16.911  23.410  1.00  0.00    -0.023 CG0
ATOM      9  G   UNL     1       7.540 -17.356  22.152  1.00  0.00     0.000 G0
ENDBRANCH   5   6
ENDBRANCH   4   5
ENDBRANCH   2   4
BRANCH   1  10
ATOM     10  C   UNL     1       9.000 -20.458  22.725  1.00  0.00     0.111 C 
BRANCH  10  11
ATOM     11  C   UNL     1       9.375 -19.205  21.984  1.00  0.00     0.163 C 
ATOM     12  O   UNL     1      10.587 -18.865  21.920  1.00  0.00    -0.294 OA
BRANCH  11  13
ATOM     13  C   UNL     1       8.349 -18.371  21.307  1.00  0.00    -0.002 C 
ATOM     14  C   UNL     1       8.131 -18.502  19.970  1.00  0.00    -0.069 C 
ATOM     15  C   UNL     1       7.129 -17.627  19.254  1.00  0.00     0.039 C 
ATOM     16  C   UNL     1       8.853 -19.556  19.160  1.00  0.00     0.039 C 
BRANCH  13  17
ATOM     17  C   UNL     1       7.544 -17.371  22.130  1.00  0.00     0.066 CG0
ATOM     18  G   UNL     1       8.245 -16.914  23.388  1.00  0.00     0.000 G0
ENDBRANCH  13  17
ENDBRANCH  11  13
ENDBRANCH  10  11
ENDBRANCH   1  10
TORSDOF 0
ENDMDL
MODEL 5
REMARK VINA RESULT:    -4.111      1.959      3.717
REMARK INTER + INTRA:          -5.229
REMARK INTER:                  -5.550
REMARK INTRA:                   0.322
REMARK UNBOUND:                 0.565
REMARK SMILES CC1=CCC(=C(C)C)C(=O)CC(C)=CCC1
REMARK SMILES IDX 12 1 14 2 13 3 15 4 16 5 2 6 1 7 3 8 11 10 9 11 10 12 5 13
REMARK SMILES IDX 6 14 7 15 8 16 4 17
REMARK H PARENT
REMARK Flexibility Score: 60.00
ROOT
ATOM      1  C   UNL     1       9.159 -20.940  19.602  1.00  0.00    -0.070 C 
ATOM      2  C   UNL     1       9.330 -21.888  20.554  1.00  0.00    -0.027 C 
ATOM      3  C   UNL     1       9.967 -21.054  18.334  1.00  0.00     0.039 C 
ENDROOT
BRANCH   2   4
ATOM      4  C   UNL     1       8.564 -21.965  21.854  1.00  0.00     0.032 C 
BRANCH   4   5
ATOM      5  C   UNL     1       9.024 -20.887  22.847  1.00  0.00     0.034 C 
BRANCH   5   6
ATOM      6  C   UNL     1       7.878 -20.081  23.442  1.00  0.00    -0.077 C 
ATOM      7  C   UNL     1       6.774 -20.811  24.165  1.00  0.00     0.039 C 
ATOM      8  C   UNL     1       7.803 -18.731  23.376  1.00  0.00    -0.023 CG0
ATOM      9  G   UNL     1       8.772 -17.836  22.638  1.00  0.00     0.000 G0
ENDBRANCH   5   6
ENDBRANCH   4   5
ENDBRANCH   2   4
BRANCH   1  10
ATOM     10  C   UNL     1       8.201 -19.776  19.759  1.00  0.00     0.111 C 
BRANCH  10  11
ATOM     11  C   UNL     1       8.935 -18.516  20.125  1.00  0.00     0.163 C 
ATOM     12  O   UNL     1      10.010 -18.233  19.531  1.00  0.00    -0.294 OA
BRANCH  11  13
ATOM     13  C   UNL     1       8.406 -17.587  21.157  1.00  0.00    -0.002 C 
ATOM     14  C   UNL     1       7.606 -16.546  20.797  1.00  0.00    -0.069 C 
ATOM     15  C   UNL     1       7.101 -15.559  21.824  1.00  0.00     0.039 C 
ATOM     16  C   UNL     1       7.159 -16.362  19.364  1.00  0.00     0.039 C 
BRANCH  13  17
ATOM     17  C   UNL     1       8.770 -17.815  22.619  1.00  0.00     0.066 CG0
ATOM     18  G   UNL     1       7.809 -18.722  23.351  1.00  0.00     0.000 G0
ENDBRANCH  13  17
ENDBRANCH  11  13
ENDBRANCH  10  11
ENDBRANCH   1  10
TORSDOF 0
ENDMDL
MODEL 6
REMARK VINA RESULT:    -4.092      2.215      3.603
REMARK INTER + INTRA:          -5.202
REMARK INTER:                  -5.492
REMARK INTRA:                   0.290
REMARK UNBOUND:                 0.565
REMARK SMILES CC1=CCC(=C(C)C)C(=O)CC(C)=CCC1
REMARK SMILES IDX 12 1 14 2 13 3 15 4 16 5 2 6 1 7 3 8 11 10 9 11 10 12 5 13
REMARK SMILES IDX 6 14 7 15 8 16 4 17
REMARK H PARENT
REMARK Flexibility Score: 60.00
ROOT
ATOM      1  C   UNL     1       8.578 -22.412  21.684  1.00  0.00    -0.070 C 
ATOM      2  C   UNL     1       9.783 -23.005  21.501  1.00  0.00    -0.027 C 
ATOM      3  C   UNL     1       7.387 -22.988  20.962  1.00  0.00     0.039 C 
ENDROOT
BRANCH   2   4
ATOM      4  C   UNL     1      11.066 -22.601  22.189  1.00  0.00     0.032 C 
BRANCH   4   5
ATOM      5  C   UNL     1      11.657 -21.321  21.580  1.00  0.00     0.034 C 
BRANCH   5   6
ATOM      6  C   UNL     1      12.072 -20.289  22.618  1.00  0.00    -0.077 C 
ATOM      7  C   UNL     1      13.088 -20.678  23.663  1.00  0.00     0.039 C 
ATOM      8  C   UNL     1      11.592 -19.024  22.646  1.00  0.00    -0.023 CG0
ATOM      9  G   UNL     1      10.523 -18.474  21.730  1.00  0.00     0.000 G0
ENDBRANCH   5   6
ENDBRANCH   4   5
ENDBRANCH   2   4
BRANCH   1  10
ATOM     10  C   UNL     1       8.382 -21.201  22.574  1.00  0.00     0.111 C 
BRANCH  10  11
ATOM     11  C   UNL     1       8.373 -19.932  21.768  1.00  0.00     0.163 C 
ATOM     12  O   UNL     1       7.733 -19.895  20.683  1.00  0.00    -0.294 OA
BRANCH  11  13
ATOM     13  C   UNL     1       9.084 -18.715  22.236  1.00  0.00    -0.002 C 
ATOM     14  C   UNL     1       8.471 -17.846  23.085  1.00  0.00    -0.069 C 
ATOM     15  C   UNL     1       9.158 -16.576  23.531  1.00  0.00     0.039 C 
ATOM     16  C   UNL     1       7.097 -18.139  23.647  1.00  0.00     0.039 C 
BRANCH  13  17
ATOM     17  C   UNL     1      10.507 -18.455  21.754  1.00  0.00     0.066 CG0
ATOM     18  G   UNL     1      11.571 -19.023  22.663  1.00  0.00     0.000 G0
ENDBRANCH  13  17
ENDBRANCH  11  13
ENDBRANCH  10  11
ENDBRANCH   1  10
TORSDOF 0
ENDMDL
MODEL 7
REMARK VINA RESULT:    -4.083      2.551      4.544
REMARK INTER + INTRA:          -5.188
REMARK INTER:                  -5.749
REMARK INTRA:                   0.561
REMARK UNBOUND:                 0.565
REMARK SMILES CC1=CCC(=C(C)C)C(=O)CC(C)=CCC1
REMARK SMILES IDX 12 1 14 2 13 3 15 4 16 5 2 6 1 7 3 8 11 10 9 11 10 12 5 13
REMARK SMILES IDX 6 14 7 15 8 16 4 17
REMARK H PARENT
REMARK Flexibility Score: 60.00
ROOT
ATOM      1  C   UNL     1       7.998 -15.948  23.599  1.00  0.00    -0.070 C 
ATOM      2  C   UNL     1       8.914 -15.674  24.558  1.00  0.00    -0.027 C 
ATOM      3  C   UNL     1       7.511 -14.811  22.738  1.00  0.00     0.039 C 
ENDROOT
BRANCH   2   4
ATOM      4  C   UNL     1       9.555 -16.697  25.468  1.00  0.00     0.032 C 
BRANCH   4   5
ATOM      5  C   UNL     1      11.056 -16.852  25.177  1.00  0.00     0.034 C 
BRANCH   5   6
ATOM      6  C   UNL     1      11.392 -16.829  23.693  1.00  0.00    -0.077 C 
ATOM      7  C   UNL     1      12.115 -15.632  23.129  1.00  0.00     0.039 C 
ATOM      8  C   UNL     1      11.093 -17.841  22.846  1.00  0.00    -0.023 CG0
ATOM      9  G   UNL     1      10.314 -19.084  23.208  1.00  0.00     0.000 G0
ENDBRANCH   5   6
ENDBRANCH   4   5
ENDBRANCH   2   4
BRANCH   1  10
ATOM     10  C   UNL     1       7.444 -17.339  23.360  1.00  0.00     0.111 C 
BRANCH  10  11
ATOM     11  C   UNL     1       8.162 -18.020  22.229  1.00  0.00     0.163 C 
ATOM     12  O   UNL     1       8.079 -17.540  21.066  1.00  0.00    -0.294 OA
BRANCH  11  13
ATOM     13  C   UNL     1       8.987 -19.235  22.457  1.00  0.00    -0.002 C 
ATOM     14  C   UNL     1       8.562 -20.448  22.009  1.00  0.00    -0.069 C 
ATOM     15  C   UNL     1       9.360 -21.702  22.278  1.00  0.00     0.039 C 
ATOM     16  C   UNL     1       7.296 -20.579  21.191  1.00  0.00     0.039 C 
BRANCH  13  17
ATOM     17  C   UNL     1      10.313 -19.103  23.197  1.00  0.00     0.066 CG0
ATOM     18  G   UNL     1      11.075 -17.842  22.862  1.00  0.00     0.000 G0
ENDBRANCH  13  17
ENDBRANCH  11  13
ENDBRANCH  10  11
ENDBRANCH   1  10
TORSDOF 0
ENDMDL
MODEL 8
REMARK VINA RESULT:    -4.076      1.319      1.926
REMARK INTER + INTRA:          -5.178
REMARK INTER:                  -5.516
REMARK INTRA:                   0.338
REMARK UNBOUND:                 0.565
REMARK SMILES CC1=CCC(=C(C)C)C(=O)CC(C)=CCC1
REMARK SMILES IDX 12 1 14 2 13 3 15 4 16 5 2 6 1 7 3 8 11 10 9 11 10 12 5 13
REMARK SMILES IDX 6 14 7 15 8 16 4 17
REMARK H PARENT
REMARK Flexibility Score: 60.00
ROOT
ATOM      1  C   UNL     1       7.678 -17.899  24.957  1.00  0.00    -0.070 C 
ATOM      2  C   UNL     1       7.452 -19.220  25.159  1.00  0.00    -0.027 C 
ATOM      3  C   UNL     1       8.366 -17.123  26.050  1.00  0.00     0.039 C 
ENDROOT
BRANCH   2   4
ATOM      4  C   UNL     1       6.832 -20.161  24.152  1.00  0.00     0.032 C 
BRANCH   4   5
ATOM      5  C   UNL     1       7.888 -20.757  23.209  1.00  0.00     0.034 C 
BRANCH   5   6
ATOM      6  C   UNL     1       7.426 -20.850  21.762  1.00  0.00    -0.077 C 
ATOM      7  C   UNL     1       6.435 -21.921  21.382  1.00  0.00     0.039 C 
ATOM      8  C   UNL     1       7.845 -20.006  20.790  1.00  0.00    -0.023 CG0
ATOM      9  G   UNL     1       8.882 -18.920  20.962  1.00  0.00     0.000 G0
ENDBRANCH   5   6
ENDBRANCH   4   5
ENDBRANCH   2   4
BRANCH   1  10
ATOM     10  C   UNL     1       7.266 -17.176  23.690  1.00  0.00     0.111 C 
BRANCH  10  11
ATOM     11  C   UNL     1       8.413 -17.083  22.723  1.00  0.00     0.163 C 
ATOM     12  O   UNL     1       9.515 -16.612  23.115  1.00  0.00    -0.294 OA
BRANCH  11  13
ATOM     13  C   UNL     1       8.281 -17.556  21.321  1.00  0.00    -0.002 C 
ATOM     14  C   UNL     1       7.641 -16.791  20.395  1.00  0.00    -0.069 C 
ATOM     15  C   UNL     1       7.451 -17.277  18.977  1.00  0.00     0.039 C 
ATOM     16  C   UNL     1       7.134 -15.408  20.740  1.00  0.00     0.039 C 
BRANCH  13  17
ATOM     17  C   UNL     1       8.872 -18.908  20.935  1.00  0.00     0.066 CG0
ATOM     18  G   UNL     1       7.844 -20.008  20.810  1.00  0.00     0.000 G0
ENDBRANCH  13  17
ENDBRANCH  11  13
ENDBRANCH  10  11
ENDBRANCH   1  10
TORSDOF 0
ENDMDL
MODEL 9
REMARK VINA RESULT:    -4.007      2.019      2.942
REMARK INTER + INTRA:          -5.081
REMARK INTER:                  -5.339
REMARK INTRA:                   0.257
REMARK UNBOUND:                 0.565
REMARK SMILES CC1=CCC(=C(C)C)C(=O)CC(C)=CCC1
REMARK SMILES IDX 12 1 14 2 13 3 15 4 16 5 2 6 1 7 3 8 11 10 9 11 10 12 5 13
REMARK SMILES IDX 6 14 7 15 8 16 4 17
REMARK H PARENT
REMARK Flexibility Score: 60.00
ROOT
ATOM      1  C   UNL     1       7.522 -18.957  23.718  1.00  0.00    -0.070 C 
ATOM      2  C   UNL     1       6.711 -20.001  23.421  1.00  0.00    -0.027 C 
ATOM      3  C   UNL     1       6.900 -17.728  24.330  1.00  0.00     0.039 C 
ENDROOT
BRANCH   2   4
ATOM      4  C   UNL     1       7.169 -21.328  22.862  1.00  0.00     0.032 C 
BRANCH   4   5
ATOM      5  C   UNL     1       7.348 -21.269  21.338  1.00  0.00     0.034 C 
BRANCH   5   6
ATOM      6  C   UNL     1       8.696 -21.793  20.864  1.00  0.00    -0.077 C 
ATOM      7  C   UNL     1       9.010 -23.257  21.042  1.00  0.00     0.039 C 
ATOM      8  C   UNL     1       9.630 -21.016  20.267  1.00  0.00    -0.023 CG0
ATOM      9  G   UNL     1       9.526 -19.523  20.065  1.00  0.00     0.000 G0
ENDBRANCH   5   6
ENDBRANCH   4   5
ENDBRANCH   2   4
BRANCH   1  10
ATOM     10  C   UNL     1       9.015 -18.972  23.456  1.00  0.00     0.111 C 
BRANCH  10  11
ATOM     11  C   UNL     1       9.362 -18.139  22.254  1.00  0.00     0.163 C 
ATOM     12  O   UNL     1       8.948 -16.950  22.186  1.00  0.00    -0.294 OA
BRANCH  11  13
ATOM     13  C   UNL     1      10.203 -18.680  21.156  1.00  0.00    -0.002 C 
ATOM     14  C   UNL     1      11.543 -18.440  21.136  1.00  0.00    -0.069 C 
ATOM     15  C   UNL     1      12.407 -18.938  20.000  1.00  0.00     0.039 C 
ATOM     16  C   UNL     1      12.223 -17.704  22.268  1.00  0.00     0.039 C 
BRANCH  13  17
ATOM     17  C   UNL     1       9.546 -19.507  20.056  1.00  0.00     0.066 CG0
ATOM     18  G   UNL     1       9.645 -20.999  20.275  1.00  0.00     0.000 G0
ENDBRANCH  13  17
ENDBRANCH  11  13
ENDBRANCH  10  11
ENDBRANCH   1  10
TORSDOF 0
ENDMDL
