MODEL 1
REMARK VINA RESULT:    -4.508      0.000      0.000
REMARK INTER + INTRA:          -7.113
REMARK INTER:                  -6.616
REMARK INTRA:                  -0.498
REMARK UNBOUND:                -0.498
REMARK SMILES O=C([O-])CCCCCCCC(=O)[O-]
REMARK SMILES IDX 7 1 6 2 5 3 4 4 2 5 1 6 3 7 8 8 9 9 10 10 11 11 12 12 13 13
REMARK H PARENT
REMARK Flexibility Score: inf
ROOT
ATOM      1  C   UNL     1       6.073  12.137   6.891  1.00  0.00     0.000 C 
ENDROOT
BRANCH   1   2
ATOM      2  C   UNL     1       5.844  11.153   5.733  1.00  0.00     0.000 C 
BRANCH   2   3
ATOM      3  C   UNL     1       6.084  11.830   4.379  1.00  0.00     0.006 C 
BRANCH   3   4
ATOM      4  C   UNL     1       7.186  12.890   4.483  1.00  0.00     0.053 C 
BRANCH   4   5
ATOM      5  C   UNL     1       8.496  12.328   4.033  1.00  0.00     0.041 C 
ATOM      6  O   UNL     1       9.213  11.672   4.834  1.00  0.00    -0.550 OA
ATOM      7  O   UNL     1       8.951  12.572   2.744  1.00  0.00    -0.550 OA
ENDBRANCH   4   5
ENDBRANCH   3   4
ENDBRANCH   2   3
ENDBRANCH   1   2
BRANCH   1   8
ATOM      8  C   UNL     1       6.080  11.432   8.264  1.00  0.00     0.000 C 
BRANCH   8   9
ATOM      9  C   UNL     1       4.916  11.850   9.177  1.00  0.00     0.006 C 
BRANCH   9  10
ATOM     10  C   UNL     1       4.024  10.671   9.583  1.00  0.00     0.053 C 
BRANCH  10  11
ATOM     11  C   UNL     1       3.592   9.901   8.375  1.00  0.00     0.041 C 
ATOM     12  O   UNL     1       2.789  10.414   7.552  1.00  0.00    -0.550 OA
ATOM     13  O   UNL     1       4.113   8.637   8.133  1.00  0.00    -0.550 OA
ENDBRANCH  10  11
ENDBRANCH   9  10
ENDBRANCH   8   9
ENDBRANCH   1   8
TORSDOF 8
ENDMDL
MODEL 2
REMARK VINA RESULT:    -4.413      0.951      6.170
REMARK INTER + INTRA:          -6.975
REMARK INTER:                  -6.468
REMARK INTRA:                  -0.507
REMARK UNBOUND:                -0.498
REMARK SMILES O=C([O-])CCCCCCCC(=O)[O-]
REMARK SMILES IDX 7 1 6 2 5 3 4 4 2 5 1 6 3 7 8 8 9 9 10 10 11 11 12 12 13 13
REMARK H PARENT
REMARK Flexibility Score: inf
ROOT
ATOM      1  C   UNL     1       6.745  10.485   6.401  1.00  0.00     0.000 C 
ENDROOT
BRANCH   1   2
ATOM      2  C   UNL     1       6.499  10.852   7.873  1.00  0.00     0.000 C 
BRANCH   2   3
ATOM      3  C   UNL     1       5.332  11.838   8.006  1.00  0.00     0.006 C 
BRANCH   3   4
ATOM      4  C   UNL     1       4.539  11.580   9.291  1.00  0.00     0.053 C 
BRANCH   4   5
ATOM      5  C   UNL     1       3.328  10.752   9.002  1.00  0.00     0.041 C 
ATOM      6  O   UNL     1       2.957  10.564   7.813  1.00  0.00    -0.550 OA
ATOM      7  O   UNL     1       2.577  10.228  10.046  1.00  0.00    -0.550 OA
ENDBRANCH   4   5
ENDBRANCH   3   4
ENDBRANCH   2   3
ENDBRANCH   1   2
BRANCH   1   8
ATOM      8  C   UNL     1       5.664  11.064   5.466  1.00  0.00     0.000 C 
BRANCH   8   9
ATOM      9  C   UNL     1       6.232  11.924   4.325  1.00  0.00     0.006 C 
BRANCH   9  10
ATOM     10  C   UNL     1       7.414  12.796   4.766  1.00  0.00     0.053 C 
BRANCH  10  11
ATOM     11  C   UNL     1       8.677  12.336   4.110  1.00  0.00     0.041 C 
ATOM     12  O   UNL     1       8.721  12.180   2.861  1.00  0.00    -0.550 OA
ATOM     13  O   UNL     1       9.820  12.128   4.870  1.00  0.00    -0.550 OA
ENDBRANCH  10  11
ENDBRANCH   9  10
ENDBRANCH   8   9
ENDBRANCH   1   8
TORSDOF 8
ENDMDL
MODEL 3
REMARK VINA RESULT:    -4.400      1.742      2.186
REMARK INTER + INTRA:          -6.956
REMARK INTER:                  -6.663
REMARK INTRA:                  -0.292
REMARK UNBOUND:                -0.498
REMARK SMILES O=C([O-])CCCCCCCC(=O)[O-]
REMARK SMILES IDX 7 1 6 2 5 3 4 4 2 5 1 6 3 7 8 8 9 9 10 10 11 11 12 12 13 13
REMARK H PARENT
REMARK Flexibility Score: inf
ROOT
ATOM      1  C   UNL     1       4.446  10.252   6.813  1.00  0.00     0.000 C 
ENDROOT
BRANCH   1   2
ATOM      2  C   UNL     1       5.598  11.220   6.500  1.00  0.00     0.000 C 
BRANCH   2   3
ATOM      3  C   UNL     1       5.819  11.342   4.988  1.00  0.00     0.006 C 
BRANCH   3   4
ATOM      4  C   UNL     1       6.707  12.547   4.658  1.00  0.00     0.053 C 
BRANCH   4   5
ATOM      5  C   UNL     1       8.097  12.100   4.335  1.00  0.00     0.041 C 
ATOM      6  O   UNL     1       8.530  12.177   3.156  1.00  0.00    -0.550 OA
ATOM      7  O   UNL     1       8.898  11.550   5.327  1.00  0.00    -0.550 OA
ENDBRANCH   4   5
ENDBRANCH   3   4
ENDBRANCH   2   3
ENDBRANCH   1   2
BRANCH   1   8
ATOM      8  C   UNL     1       4.541   9.673   8.241  1.00  0.00     0.000 C 
BRANCH   8   9
ATOM      9  C   UNL     1       4.187  10.687   9.341  1.00  0.00     0.006 C 
BRANCH   9  10
ATOM     10  C   UNL     1       2.826  11.357   9.118  1.00  0.00     0.053 C 
BRANCH  10  11
ATOM     11  C   UNL     1       1.843  10.902  10.151  1.00  0.00     0.041 C 
ATOM     12  O   UNL     1       0.815  11.588  10.391  1.00  0.00    -0.550 OA
ATOM     13  O   UNL     1       2.037   9.697  10.812  1.00  0.00    -0.550 OA
ENDBRANCH  10  11
ENDBRANCH   9  10
ENDBRANCH   8   9
ENDBRANCH   1   8
TORSDOF 8
ENDMDL
MODEL 4
REMARK VINA RESULT:    -4.379      1.519      5.651
REMARK INTER + INTRA:          -6.925
REMARK INTER:                  -6.150
REMARK INTRA:                  -0.775
REMARK UNBOUND:                -0.498
REMARK SMILES O=C([O-])CCCCCCCC(=O)[O-]
REMARK SMILES IDX 7 1 6 2 5 3 4 4 2 5 1 6 3 7 8 8 9 9 10 10 11 11 12 12 13 13
REMARK H PARENT
REMARK Flexibility Score: inf
ROOT
ATOM      1  C   UNL     1       5.967  11.941   4.357  1.00  0.00     0.000 C 
ENDROOT
BRANCH   1   2
ATOM      2  C   UNL     1       5.794  10.919   5.491  1.00  0.00     0.000 C 
BRANCH   2   3
ATOM      3  C   UNL     1       5.731  11.616   6.856  1.00  0.00     0.006 C 
BRANCH   3   4
ATOM      4  C   UNL     1       6.114  10.652   7.984  1.00  0.00     0.053 C 
BRANCH   4   5
ATOM      5  C   UNL     1       4.889  10.058   8.603  1.00  0.00     0.041 C 
ATOM      6  O   UNL     1       4.296  10.659   9.537  1.00  0.00    -0.550 OA
ATOM      7  O   UNL     1       4.428   8.818   8.182  1.00  0.00    -0.550 OA
ENDBRANCH   4   5
ENDBRANCH   3   4
ENDBRANCH   2   3
ENDBRANCH   1   2
BRANCH   1   8
ATOM      8  C   UNL     1       6.947  13.072   4.735  1.00  0.00     0.000 C 
BRANCH   8   9
ATOM      9  C   UNL     1       8.375  12.851   4.209  1.00  0.00     0.006 C 
BRANCH   9  10
ATOM     10  C   UNL     1       9.440  12.976   5.304  1.00  0.00     0.053 C 
BRANCH  10  11
ATOM     11  C   UNL     1       9.364  11.814   6.244  1.00  0.00     0.041 C 
ATOM     12  O   UNL     1       9.295  10.640   5.794  1.00  0.00    -0.550 OA
ATOM     13  O   UNL     1       9.419  12.023   7.615  1.00  0.00    -0.550 OA
ENDBRANCH  10  11
ENDBRANCH   9  10
ENDBRANCH   8   9
ENDBRANCH   1   8
TORSDOF 8
ENDMDL
MODEL 5
REMARK VINA RESULT:    -4.341      1.815      6.668
REMARK INTER + INTRA:          -6.869
REMARK INTER:                  -6.589
REMARK INTRA:                  -0.280
REMARK UNBOUND:                -0.498
REMARK SMILES O=C([O-])CCCCCCCC(=O)[O-]
REMARK SMILES IDX 7 1 6 2 5 3 4 4 2 5 1 6 3 7 8 8 9 9 10 10 11 11 12 12 13 13
REMARK H PARENT
REMARK Flexibility Score: inf
ROOT
ATOM      1  C   UNL     1       4.541  10.486   6.655  1.00  0.00     0.000 C 
ENDROOT
BRANCH   1   2
ATOM      2  C   UNL     1       4.630   9.536   7.860  1.00  0.00     0.000 C 
BRANCH   2   3
ATOM      3  C   UNL     1       3.790  10.055   9.033  1.00  0.00     0.006 C 
BRANCH   3   4
ATOM      4  C   UNL     1       2.634  10.930   8.536  1.00  0.00     0.053 C 
BRANCH   4   5
ATOM      5  C   UNL     1       1.681  11.221   9.651  1.00  0.00     0.041 C 
ATOM      6  O   UNL     1       1.585  10.430  10.626  1.00  0.00    -0.550 OA
ATOM      7  O   UNL     1       0.861  12.340   9.591  1.00  0.00    -0.550 OA
ENDBRANCH   4   5
ENDBRANCH   3   4
ENDBRANCH   2   3
ENDBRANCH   1   2
BRANCH   1   8
ATOM      8  C   UNL     1       5.932  10.865   6.107  1.00  0.00     0.000 C 
BRANCH   8   9
ATOM      9  C   UNL     1       5.887  11.544   4.728  1.00  0.00     0.006 C 
BRANCH   9  10
ATOM     10  C   UNL     1       6.709  12.837   4.672  1.00  0.00     0.053 C 
BRANCH  10  11
ATOM     11  C   UNL     1       8.150  12.530   4.408  1.00  0.00     0.041 C 
ATOM     12  O   UNL     1       8.515  12.142   3.268  1.00  0.00    -0.550 OA
ATOM     13  O   UNL     1       9.095  12.720   5.407  1.00  0.00    -0.550 OA
ENDBRANCH  10  11
ENDBRANCH   9  10
ENDBRANCH   8   9
ENDBRANCH   1   8
TORSDOF 8
ENDMDL
MODEL 6
REMARK VINA RESULT:    -4.319      1.601      2.109
REMARK INTER + INTRA:          -6.837
REMARK INTER:                  -6.105
REMARK INTRA:                  -0.731
REMARK UNBOUND:                -0.498
REMARK SMILES O=C([O-])CCCCCCCC(=O)[O-]
REMARK SMILES IDX 7 1 6 2 5 3 4 4 2 5 1 6 3 7 8 8 9 9 10 10 11 11 12 12 13 13
REMARK H PARENT
REMARK Flexibility Score: inf
ROOT
ATOM      1  C   UNL     1       7.683  10.878   7.760  1.00  0.00     0.000 C 
ENDROOT
BRANCH   1   2
ATOM      2  C   UNL     1       8.971  11.665   7.472  1.00  0.00     0.000 C 
BRANCH   2   3
ATOM      3  C   UNL     1       9.462  11.413   6.041  1.00  0.00     0.006 C 
BRANCH   3   4
ATOM      4  C   UNL     1       8.304  10.995   5.129  1.00  0.00     0.053 C 
BRANCH   4   5
ATOM      5  C   UNL     1       7.908  12.126   4.235  1.00  0.00     0.041 C 
ATOM      6  O   UNL     1       6.873  12.799   4.483  1.00  0.00    -0.550 OA
ATOM      7  O   UNL     1       8.654  12.407   3.097  1.00  0.00    -0.550 OA
ENDBRANCH   4   5
ENDBRANCH   3   4
ENDBRANCH   2   3
ENDBRANCH   1   2
BRANCH   1   8
ATOM      8  C   UNL     1       6.649  11.716   8.542  1.00  0.00     0.000 C 
BRANCH   8   9
ATOM      9  C   UNL     1       5.357  11.989   7.755  1.00  0.00     0.006 C 
BRANCH   9  10
ATOM     10  C   UNL     1       4.979  10.841   6.811  1.00  0.00     0.053 C 
BRANCH  10  11
ATOM     11  C   UNL     1       3.935   9.971   7.437  1.00  0.00     0.041 C 
ATOM     12  O   UNL     1       2.716  10.176   7.201  1.00  0.00    -0.550 OA
ATOM     13  O   UNL     1       4.311   8.904   8.241  1.00  0.00    -0.550 OA
ENDBRANCH  10  11
ENDBRANCH   9  10
ENDBRANCH   8   9
ENDBRANCH   1   8
TORSDOF 8
ENDMDL
MODEL 7
REMARK VINA RESULT:    -4.241      1.783      2.668
REMARK INTER + INTRA:          -6.722
REMARK INTER:                  -5.953
REMARK INTRA:                  -0.768
REMARK UNBOUND:                -0.498
REMARK SMILES O=C([O-])CCCCCCCC(=O)[O-]
REMARK SMILES IDX 7 1 6 2 5 3 4 4 2 5 1 6 3 7 8 8 9 9 10 10 11 11 12 12 13 13
REMARK H PARENT
REMARK Flexibility Score: inf
ROOT
ATOM      1  C   UNL     1       5.717  11.159   4.747  1.00  0.00     0.000 C 
ENDROOT
BRANCH   1   2
ATOM      2  C   UNL     1       6.363  12.552   4.793  1.00  0.00     0.000 C 
BRANCH   2   3
ATOM      3  C   UNL     1       7.859  12.475   4.464  1.00  0.00     0.006 C 
BRANCH   3   4
ATOM      4  C   UNL     1       8.707  12.963   5.644  1.00  0.00     0.053 C 
BRANCH   4   5
ATOM      5  C   UNL     1       9.114  11.811   6.507  1.00  0.00     0.041 C 
ATOM      6  O   UNL     1       9.536  12.013   7.676  1.00  0.00    -0.550 OA
ATOM      7  O   UNL     1       9.074  10.518   6.004  1.00  0.00    -0.550 OA
ENDBRANCH   4   5
ENDBRANCH   3   4
ENDBRANCH   2   3
ENDBRANCH   1   2
BRANCH   1   8
ATOM      8  C   UNL     1       4.898  10.854   6.019  1.00  0.00     0.000 C 
BRANCH   8   9
ATOM      9  C   UNL     1       5.748  10.327   7.187  1.00  0.00     0.006 C 
BRANCH   9  10
ATOM     10  C   UNL     1       5.870  11.333   8.338  1.00  0.00     0.053 C 
BRANCH  10  11
ATOM     11  C   UNL     1       4.570  11.449   9.071  1.00  0.00     0.041 C 
ATOM     12  O   UNL     1       4.137  10.479   9.748  1.00  0.00    -0.550 OA
ATOM     13  O   UNL     1       3.863  12.643   9.048  1.00  0.00    -0.550 OA
ENDBRANCH  10  11
ENDBRANCH   9  10
ENDBRANCH   8   9
ENDBRANCH   1   8
TORSDOF 8
ENDMDL
MODEL 8
REMARK VINA RESULT:    -4.222      1.421      5.667
REMARK INTER + INTRA:          -6.695
REMARK INTER:                  -6.122
REMARK INTRA:                  -0.573
REMARK UNBOUND:                -0.498
REMARK SMILES O=C([O-])CCCCCCCC(=O)[O-]
REMARK SMILES IDX 7 1 6 2 5 3 4 4 2 5 1 6 3 7 8 8 9 9 10 10 11 11 12 12 13 13
REMARK H PARENT
REMARK Flexibility Score: inf
ROOT
ATOM      1  C   UNL     1       7.101  12.011   8.535  1.00  0.00     0.000 C 
ENDROOT
BRANCH   1   2
ATOM      2  C   UNL     1       5.780  12.430   7.871  1.00  0.00     0.000 C 
BRANCH   2   3
ATOM      3  C   UNL     1       4.623  12.394   8.877  1.00  0.00     0.006 C 
BRANCH   3   4
ATOM      4  C   UNL     1       4.351  10.962   9.350  1.00  0.00     0.053 C 
BRANCH   4   5
ATOM      5  C   UNL     1       3.890  10.113   8.208  1.00  0.00     0.041 C 
ATOM      6  O   UNL     1       2.834  10.404   7.587  1.00  0.00    -0.550 OA
ATOM      7  O   UNL     1       4.600   8.971   7.860  1.00  0.00    -0.550 OA
ENDBRANCH   4   5
ENDBRANCH   3   4
ENDBRANCH   2   3
ENDBRANCH   1   2
BRANCH   1   8
ATOM      8  C   UNL     1       7.802  10.869   7.769  1.00  0.00     0.000 C 
BRANCH   8   9
ATOM      9  C   UNL     1       8.735  11.360   6.650  1.00  0.00     0.006 C 
BRANCH   9  10
ATOM     10  C   UNL     1       8.319  10.857   5.263  1.00  0.00     0.053 C 
BRANCH  10  11
ATOM     11  C   UNL     1       8.054  12.010   4.346  1.00  0.00     0.041 C 
ATOM     12  O   UNL     1       8.789  12.202   3.342  1.00  0.00    -0.550 OA
ATOM     13  O   UNL     1       6.967  12.843   4.572  1.00  0.00    -0.550 OA
ENDBRANCH  10  11
ENDBRANCH   9  10
ENDBRANCH   8   9
ENDBRANCH   1   8
TORSDOF 8
ENDMDL
MODEL 9
REMARK VINA RESULT:    -4.217      1.741      2.539
REMARK INTER + INTRA:          -6.686
REMARK INTER:                  -5.938
REMARK INTRA:                  -0.749
REMARK UNBOUND:                -0.498
REMARK SMILES O=C([O-])CCCCCCCC(=O)[O-]
REMARK SMILES IDX 7 1 6 2 5 3 4 4 2 5 1 6 3 7 8 8 9 9 10 10 11 11 12 12 13 13
REMARK H PARENT
REMARK Flexibility Score: inf
ROOT
ATOM      1  C   UNL     1       6.983  12.501   8.985  1.00  0.00     0.000 C 
ENDROOT
BRANCH   1   2
ATOM      2  C   UNL     1       8.056  12.165   7.937  1.00  0.00     0.000 C 
BRANCH   2   3
ATOM      3  C   UNL     1       7.768  10.816   7.267  1.00  0.00     0.006 C 
BRANCH   3   4
ATOM      4  C   UNL     1       7.892  10.923   5.743  1.00  0.00     0.053 C 
BRANCH   4   5
ATOM      5  C   UNL     1       6.646  11.505   5.156  1.00  0.00     0.041 C 
ATOM      6  O   UNL     1       6.704  12.543   4.446  1.00  0.00    -0.550 OA
ATOM      7  O   UNL     1       5.413  10.930   5.434  1.00  0.00    -0.550 OA
ENDBRANCH   4   5
ENDBRANCH   3   4
ENDBRANCH   2   3
ENDBRANCH   1   2
BRANCH   1   8
ATOM      8  C   UNL     1       5.690  13.045   8.342  1.00  0.00     0.000 C 
BRANCH   8   9
ATOM      9  C   UNL     1       4.411  12.373   8.868  1.00  0.00     0.006 C 
BRANCH   9  10
ATOM     10  C   UNL     1       4.616  10.895   9.224  1.00  0.00     0.053 C 
BRANCH  10  11
ATOM     11  C   UNL     1       3.795  10.023   8.328  1.00  0.00     0.041 C 
ATOM     12  O   UNL     1       4.102   8.812   8.170  1.00  0.00    -0.550 OA
ATOM     13  O   UNL     1       2.663  10.533   7.707  1.00  0.00    -0.550 OA
ENDBRANCH  10  11
ENDBRANCH   9  10
ENDBRANCH   8   9
ENDBRANCH   1   8
TORSDOF 8
ENDMDL
