MODEL 1
REMARK VINA RESULT:    -4.184      0.000      0.000
REMARK INTER + INTRA:          -6.701
REMARK INTER:                  -6.385
REMARK INTRA:                  -0.316
REMARK UNBOUND:                -0.316
REMARK SMILES CC1=CCC[C@H](C)C(=O)C[C@H](C(C)C)C(=O)C1
REMARK SMILES IDX 8 1 9 2 6 3 7 4 5 5 4 6 3 7 2 8 1 9 10 11 11 12 15 13 16 14
REMARK SMILES IDX 17 15 12 17 13 18 14 19
REMARK H PARENT
REMARK Flexibility Score: 70.00
ROOT
ATOM      1  C   UNL     1     100.168 118.080 124.324  1.00  0.00     0.136 C 
ATOM      2  O   UNL     1      99.255 118.892 124.333  1.00  0.00    -0.299 OA
ENDROOT
BRANCH   1   3
ATOM      3  C   UNL     1     101.311 118.237 125.335  1.00  0.00     0.053 C 
ATOM      4  C   UNL     1     100.930 119.212 126.454  1.00  0.00     0.016 C 
BRANCH   3   5
ATOM      5  C   UNL     1     101.573 116.832 125.838  1.00  0.00     0.015 C 
BRANCH   5   6
ATOM      6  C   UNL     1     102.893 116.158 126.065  1.00  0.00     0.028 C 
BRANCH   6   7
ATOM      7  C   UNL     1     102.774 114.701 125.601  1.00  0.00    -0.028 C 
ATOM      8  C   UNL     1     102.980 114.141 124.351  1.00  0.00    -0.070 CG0
ATOM      9  C   UNL     1     102.853 112.635 124.286  1.00  0.00     0.039 C 
ATOM     10  G   UNL     1     103.309 114.866 123.013  1.00  0.00     0.000 G0
ENDBRANCH   6   7
ENDBRANCH   5   6
ENDBRANCH   3   5
ENDBRANCH   1   3
BRANCH   1  11
ATOM     11  C   UNL     1     100.138 116.941 123.287  1.00  0.00     0.087 C 
BRANCH  11  12
ATOM     12  C   UNL     1     101.439 116.788 122.412  1.00  0.00     0.066 C 
BRANCH  12  13
ATOM     13  C   UNL     1     102.071 115.376 122.256  1.00  0.00     0.140 C 
ATOM     14  O   UNL     1     101.482 114.578 121.541  1.00  0.00    -0.299 OA
BRANCH  13  15
ATOM     15  C   UNL     1     103.307 114.858 123.005  1.00  0.00     0.106 CG0
ATOM     16  G   UNL     1     102.990 114.137 124.349  1.00  0.00     0.000 G0
ENDBRANCH  13  15
ENDBRANCH  12  13
BRANCH  12  17
ATOM     17  C   UNL     1     101.286 117.517 121.039  1.00  0.00    -0.006 C 
ATOM     18  C   UNL     1     102.509 118.355 120.635  1.00  0.00     0.008 C 
ATOM     19  C   UNL     1     100.012 118.375 120.983  1.00  0.00     0.008 C 
ENDBRANCH  12  17
ENDBRANCH  11  12
ENDBRANCH   1  11
TORSDOF 1
ENDMDL
MODEL 2
REMARK VINA RESULT:    -4.070      2.053      2.878
REMARK INTER + INTRA:          -6.528
REMARK INTER:                  -5.960
REMARK INTRA:                  -0.568
REMARK UNBOUND:                -0.316
REMARK SMILES CC1=CCC[C@H](C)C(=O)C[C@H](C(C)C)C(=O)C1
REMARK SMILES IDX 8 1 9 2 6 3 7 4 5 5 4 6 3 7 2 8 1 9 10 11 11 12 15 13 16 14
REMARK SMILES IDX 17 15 12 17 13 18 14 19
REMARK H PARENT
REMARK Flexibility Score: 70.00
ROOT
ATOM      1  C   UNL     1     100.648 118.475 122.892  1.00  0.00     0.136 C 
ATOM      2  O   UNL     1     100.767 119.690 122.930  1.00  0.00    -0.299 OA
ENDROOT
BRANCH   1   3
ATOM      3  C   UNL     1     101.251 117.635 124.025  1.00  0.00     0.053 C 
ATOM      4  C   UNL     1     100.904 118.224 125.397  1.00  0.00     0.016 C 
BRANCH   3   5
ATOM      5  C   UNL     1     100.682 116.246 123.817  1.00  0.00     0.015 C 
BRANCH   5   6
ATOM      6  C   UNL     1     101.367 115.036 123.255  1.00  0.00     0.028 C 
BRANCH   6   7
ATOM      7  C   UNL     1     102.836 115.395 122.994  1.00  0.00    -0.028 C 
ATOM      8  C   UNL     1     103.443 115.908 121.860  1.00  0.00    -0.070 CG0
ATOM      9  C   UNL     1     104.916 116.222 121.997  1.00  0.00     0.039 C 
ATOM     10  G   UNL     1     102.803 116.186 120.467  1.00  0.00     0.000 G0
ENDBRANCH   6   7
ENDBRANCH   5   6
ENDBRANCH   3   5
ENDBRANCH   1   3
BRANCH   1  11
ATOM     11  C   UNL     1      99.910 117.838 121.699  1.00  0.00     0.087 C 
BRANCH  11  12
ATOM     12  C   UNL     1     100.669 117.905 120.320  1.00  0.00     0.066 C 
BRANCH  12  13
ATOM     13  C   UNL     1     102.189 117.580 120.287  1.00  0.00     0.140 C 
ATOM     14  O   UNL     1     102.948 118.498 120.016  1.00  0.00    -0.299 OA
BRANCH  13  15
ATOM     15  C   UNL     1     102.812 116.187 120.455  1.00  0.00     0.106 CG0
ATOM     16  G   UNL     1     103.444 115.927 121.854  1.00  0.00     0.000 G0
ENDBRANCH  13  15
ENDBRANCH  12  13
BRANCH  12  17
ATOM     17  C   UNL     1      99.882 117.146 119.205  1.00  0.00    -0.006 C 
ATOM     18  C   UNL     1     100.598 117.109 117.845  1.00  0.00     0.008 C 
ATOM     19  C   UNL     1      98.453 117.687 119.038  1.00  0.00     0.008 C 
ENDBRANCH  12  17
ENDBRANCH  11  12
ENDBRANCH   1  11
TORSDOF 1
ENDMDL
MODEL 3
REMARK VINA RESULT:    -4.008      2.241      4.516
REMARK INTER + INTRA:          -6.434
REMARK INTER:                  -5.941
REMARK INTRA:                  -0.492
REMARK UNBOUND:                -0.316
REMARK SMILES CC1=CCC[C@H](C)C(=O)C[C@H](C(C)C)C(=O)C1
REMARK SMILES IDX 8 1 9 2 6 3 7 4 5 5 4 6 3 7 2 8 1 9 10 11 11 12 15 13 16 14
REMARK SMILES IDX 17 15 12 17 13 18 14 19
REMARK H PARENT
REMARK Flexibility Score: 70.00
ROOT
ATOM      1  C   UNL     1     103.103 115.135 124.190  1.00  0.00     0.136 C 
ATOM      2  O   UNL     1     103.943 115.821 123.628  1.00  0.00    -0.299 OA
ENDROOT
BRANCH   1   3
ATOM      3  C   UNL     1     102.246 115.768 125.294  1.00  0.00     0.053 C 
ATOM      4  C   UNL     1     103.121 116.327 126.422  1.00  0.00     0.016 C 
BRANCH   3   5
ATOM      5  C   UNL     1     101.439 116.838 124.588  1.00  0.00     0.015 C 
BRANCH   5   6
ATOM      6  C   UNL     1     100.424 116.667 123.497  1.00  0.00     0.028 C 
BRANCH   6   7
ATOM      7  C   UNL     1     101.006 117.255 122.205  1.00  0.00    -0.028 C 
ATOM      8  C   UNL     1     101.276 116.649 120.989  1.00  0.00    -0.070 CG0
ATOM      9  C   UNL     1     101.771 117.574 119.899  1.00  0.00     0.039 C 
ATOM     10  G   UNL     1     101.148 115.143 120.614  1.00  0.00     0.000 G0
ENDBRANCH   6   7
ENDBRANCH   5   6
ENDBRANCH   3   5
ENDBRANCH   1   3
BRANCH   1  11
ATOM     11  C   UNL     1     102.950 113.659 123.776  1.00  0.00     0.087 C 
BRANCH  11  12
ATOM     12  C   UNL     1     101.983 113.394 122.561  1.00  0.00     0.066 C 
BRANCH  12  13
ATOM     13  C   UNL     1     102.185 114.211 121.254  1.00  0.00     0.140 C 
ATOM     14  O   UNL     1     103.297 114.180 120.745  1.00  0.00    -0.299 OA
BRANCH  13  15
ATOM     15  C   UNL     1     101.149 115.141 120.607  1.00  0.00     0.106 CG0
ATOM     16  G   UNL     1     101.289 116.639 121.008  1.00  0.00     0.000 G0
ENDBRANCH  13  15
ENDBRANCH  12  13
BRANCH  12  17
ATOM     17  C   UNL     1     101.834 111.865 122.281  1.00  0.00    -0.006 C 
ATOM     18  C   UNL     1     103.120 111.056 122.515  1.00  0.00     0.008 C 
ATOM     19  C   UNL     1     101.282 111.588 120.873  1.00  0.00     0.008 C 
ENDBRANCH  12  17
ENDBRANCH  11  12
ENDBRANCH   1  11
TORSDOF 1
ENDMDL
MODEL 4
REMARK VINA RESULT:    -4.008      2.009      4.367
REMARK INTER + INTRA:          -6.433
REMARK INTER:                  -6.330
REMARK INTRA:                  -0.104
REMARK UNBOUND:                -0.316
REMARK SMILES CC1=CCC[C@H](C)C(=O)C[C@H](C(C)C)C(=O)C1
REMARK SMILES IDX 8 1 9 2 6 3 7 4 5 5 4 6 3 7 2 8 1 9 10 11 11 12 15 13 16 14
REMARK SMILES IDX 17 15 12 17 13 18 14 19
REMARK H PARENT
REMARK Flexibility Score: 70.00
ROOT
ATOM      1  C   UNL     1     101.825 116.841 125.414  1.00  0.00     0.136 C 
ATOM      2  O   UNL     1     102.379 116.346 126.384  1.00  0.00    -0.299 OA
ENDROOT
BRANCH   1   3
ATOM      3  C   UNL     1     100.571 117.697 125.631  1.00  0.00     0.053 C 
ATOM      4  C   UNL     1     100.891 118.948 126.457  1.00  0.00     0.016 C 
BRANCH   3   5
ATOM      5  C   UNL     1     100.081 118.020 124.235  1.00  0.00     0.015 C 
BRANCH   5   6
ATOM      6  C   UNL     1     100.376 119.233 123.404  1.00  0.00     0.028 C 
BRANCH   6   7
ATOM      7  C   UNL     1      99.819 118.996 121.994  1.00  0.00    -0.028 C 
ATOM      8  C   UNL     1     100.262 118.155 120.988  1.00  0.00    -0.070 CG0
ATOM      9  C   UNL     1      99.400 118.120 119.745  1.00  0.00     0.039 C 
ATOM     10  G   UNL     1     101.535 117.258 120.973  1.00  0.00     0.000 G0
ENDBRANCH   6   7
ENDBRANCH   5   6
ENDBRANCH   3   5
ENDBRANCH   1   3
BRANCH   1  11
ATOM     11  C   UNL     1     102.403 116.571 124.012  1.00  0.00     0.087 C 
BRANCH  11  12
ATOM     12  C   UNL     1     101.584 115.558 123.125  1.00  0.00     0.066 C 
BRANCH  12  13
ATOM     13  C   UNL     1     101.401 115.869 121.613  1.00  0.00     0.140 C 
ATOM     14  O   UNL     1     101.204 114.918 120.870  1.00  0.00    -0.299 OA
BRANCH  13  15
ATOM     15  C   UNL     1     101.556 117.247 120.955  1.00  0.00     0.106 CG0
ATOM     16  G   UNL     1     100.273 118.129 120.996  1.00  0.00     0.000 G0
ENDBRANCH  13  15
ENDBRANCH  12  13
BRANCH  12  17
ATOM     17  C   UNL     1     102.051 114.088 123.370  1.00  0.00    -0.006 C 
ATOM     18  C   UNL     1     101.052 113.237 124.169  1.00  0.00     0.008 C 
ATOM     19  C   UNL     1     103.442 114.026 124.023  1.00  0.00     0.008 C 
ENDBRANCH  12  17
ENDBRANCH  11  12
ENDBRANCH   1  11
TORSDOF 1
ENDMDL
MODEL 5
REMARK VINA RESULT:    -3.963      2.228      4.463
REMARK INTER + INTRA:          -6.364
REMARK INTER:                  -5.706
REMARK INTRA:                  -0.659
REMARK UNBOUND:                -0.316
REMARK SMILES CC1=CCC[C@H](C)C(=O)C[C@H](C(C)C)C(=O)C1
REMARK SMILES IDX 8 1 9 2 6 3 7 4 5 5 4 6 3 7 2 8 1 9 10 11 11 12 15 13 16 14
REMARK SMILES IDX 17 15 12 17 13 18 14 19
REMARK H PARENT
REMARK Flexibility Score: 70.00
ROOT
ATOM      1  C   UNL     1     100.038 117.146 120.116  1.00  0.00     0.136 C 
ATOM      2  O   UNL     1      99.152 116.333 119.897  1.00  0.00    -0.299 OA
ENDROOT
BRANCH   1   3
ATOM      3  C   UNL     1     101.276 117.155 119.211  1.00  0.00     0.053 C 
ATOM      4  C   UNL     1     100.880 117.146 117.730  1.00  0.00     0.016 C 
BRANCH   3   5
ATOM      5  C   UNL     1     102.034 118.404 119.612  1.00  0.00     0.015 C 
BRANCH   5   6
ATOM      6  C   UNL     1     103.423 118.508 120.170  1.00  0.00     0.028 C 
BRANCH   6   7
ATOM      7  C   UNL     1     103.935 117.090 120.450  1.00  0.00    -0.028 C 
ATOM      8  C   UNL     1     103.707 116.254 121.530  1.00  0.00    -0.070 CG0
ATOM      9  C   UNL     1     104.314 114.873 121.422  1.00  0.00     0.039 C 
ATOM     10  G   UNL     1     102.920 116.564 122.838  1.00  0.00     0.000 G0
ENDBRANCH   6   7
ENDBRANCH   5   6
ENDBRANCH   3   5
ENDBRANCH   1   3
BRANCH   1  11
ATOM     11  C   UNL     1      99.878 118.117 121.301  1.00  0.00     0.087 C 
BRANCH  11  12
ATOM     12  C   UNL     1     100.372 117.571 122.694  1.00  0.00     0.066 C 
BRANCH  12  13
ATOM     13  C   UNL     1     101.397 116.402 122.717  1.00  0.00     0.140 C 
ATOM     14  O   UNL     1     100.945 115.266 122.727  1.00  0.00    -0.299 OA
BRANCH  13  15
ATOM     15  C   UNL     1     102.920 116.546 122.841  1.00  0.00     0.106 CG0
ATOM     16  G   UNL     1     103.705 116.249 121.529  1.00  0.00     0.000 G0
ENDBRANCH  13  15
ENDBRANCH  12  13
BRANCH  12  17
ATOM     17  C   UNL     1     100.794 118.740 123.641  1.00  0.00    -0.006 C 
ATOM     18  C   UNL     1     100.627 118.427 125.136  1.00  0.00     0.008 C 
ATOM     19  C   UNL     1     100.076 120.053 123.289  1.00  0.00     0.008 C 
ENDBRANCH  12  17
ENDBRANCH  11  12
ENDBRANCH   1  11
TORSDOF 1
ENDMDL
MODEL 6
REMARK VINA RESULT:    -3.845      1.957      4.392
REMARK INTER + INTRA:          -6.184
REMARK INTER:                  -5.578
REMARK INTRA:                  -0.607
REMARK UNBOUND:                -0.316
REMARK SMILES CC1=CCC[C@H](C)C(=O)C[C@H](C(C)C)C(=O)C1
REMARK SMILES IDX 8 1 9 2 6 3 7 4 5 5 4 6 3 7 2 8 1 9 10 11 11 12 15 13 16 14
REMARK SMILES IDX 17 15 12 17 13 18 14 19
REMARK H PARENT
REMARK Flexibility Score: 70.00
ROOT
ATOM      1  C   UNL     1     100.863 117.061 122.927  1.00  0.00     0.136 C 
ATOM      2  O   UNL     1      99.873 116.617 123.489  1.00  0.00    -0.299 OA
ENDROOT
BRANCH   1   3
ATOM      3  C   UNL     1     100.682 117.899 121.656  1.00  0.00     0.053 C 
ATOM      4  C   UNL     1      99.500 118.866 121.793  1.00  0.00     0.016 C 
BRANCH   3   5
ATOM      5  C   UNL     1     102.008 118.609 121.472  1.00  0.00     0.015 C 
BRANCH   5   6
ATOM      6  C   UNL     1     102.916 118.587 120.279  1.00  0.00     0.028 C 
BRANCH   6   7
ATOM      7  C   UNL     1     102.873 117.180 119.669  1.00  0.00    -0.028 C 
ATOM      8  C   UNL     1     103.449 115.999 120.105  1.00  0.00    -0.070 CG0
ATOM      9  C   UNL     1     103.116 114.773 119.285  1.00  0.00     0.039 C 
ATOM     10  G   UNL     1     104.401 115.782 121.319  1.00  0.00     0.000 G0
ENDBRANCH   6   7
ENDBRANCH   5   6
ENDBRANCH   3   5
ENDBRANCH   1   3
BRANCH   1  11
ATOM     11  C   UNL     1     102.253 116.745 123.512  1.00  0.00     0.087 C 
BRANCH  11  12
ATOM     12  C   UNL     1     102.701 115.237 123.417  1.00  0.00     0.066 C 
BRANCH  12  13
ATOM     13  C   UNL     1     103.837 114.858 122.426  1.00  0.00     0.140 C 
ATOM     14  O   UNL     1     104.381 113.776 122.590  1.00  0.00    -0.299 OA
BRANCH  13  15
ATOM     15  C   UNL     1     104.412 115.767 121.330  1.00  0.00     0.106 CG0
ATOM     16  G   UNL     1     103.465 115.989 120.113  1.00  0.00     0.000 G0
ENDBRANCH  13  15
ENDBRANCH  12  13
BRANCH  12  17
ATOM     17  C   UNL     1     102.932 114.626 124.836  1.00  0.00    -0.006 C 
ATOM     18  C   UNL     1     102.153 113.326 125.092  1.00  0.00     0.008 C 
ATOM     19  C   UNL     1     102.651 115.643 125.954  1.00  0.00     0.008 C 
ENDBRANCH  12  17
ENDBRANCH  11  12
ENDBRANCH   1  11
TORSDOF 1
ENDMDL
MODEL 7
REMARK VINA RESULT:    -3.822      2.044      3.443
REMARK INTER + INTRA:          -6.149
REMARK INTER:                  -5.817
REMARK INTRA:                  -0.332
REMARK UNBOUND:                -0.316
REMARK SMILES CC1=CCC[C@H](C)C(=O)C[C@H](C(C)C)C(=O)C1
REMARK SMILES IDX 8 1 9 2 6 3 7 4 5 5 4 6 3 7 2 8 1 9 10 11 11 12 15 13 16 14
REMARK SMILES IDX 17 15 12 17 13 18 14 19
REMARK H PARENT
REMARK Flexibility Score: 70.00
ROOT
ATOM      1  C   UNL     1     101.827 116.281 124.869  1.00  0.00     0.136 C 
ATOM      2  O   UNL     1     102.150 116.940 125.846  1.00  0.00    -0.299 OA
ENDROOT
BRANCH   1   3
ATOM      3  C   UNL     1     102.426 114.881 124.688  1.00  0.00     0.053 C 
ATOM      4  C   UNL     1     102.695 114.214 126.042  1.00  0.00     0.016 C 
BRANCH   3   5
ATOM      5  C   UNL     1     101.408 114.132 123.853  1.00  0.00     0.015 C 
BRANCH   5   6
ATOM      6  C   UNL     1     101.655 113.125 122.770  1.00  0.00     0.028 C 
BRANCH   6   7
ATOM      7  C   UNL     1     102.652 113.728 121.772  1.00  0.00    -0.028 C 
ATOM      8  C   UNL     1     102.562 114.874 121.000  1.00  0.00    -0.070 CG0
ATOM      9  C   UNL     1     103.793 115.206 120.187  1.00  0.00     0.039 C 
ATOM     10  G   UNL     1     101.354 115.847 120.858  1.00  0.00     0.000 G0
ENDBRANCH   6   7
ENDBRANCH   5   6
ENDBRANCH   3   5
ENDBRANCH   1   3
BRANCH   1  11
ATOM     11  C   UNL     1     100.843 116.891 123.853  1.00  0.00     0.087 C 
BRANCH  11  12
ATOM     12  C   UNL     1     101.490 117.823 122.759  1.00  0.00     0.066 C 
BRANCH  12  13
ATOM     13  C   UNL     1     101.613 117.290 121.304  1.00  0.00     0.140 C 
ATOM     14  O   UNL     1     101.870 118.108 120.432  1.00  0.00    -0.299 OA
BRANCH  13  15
ATOM     15  C   UNL     1     101.332 115.852 120.848  1.00  0.00     0.106 CG0
ATOM     16  G   UNL     1     102.543 114.882 120.987  1.00  0.00     0.000 G0
ENDBRANCH  13  15
ENDBRANCH  12  13
BRANCH  12  17
ATOM     17  C   UNL     1     100.880 119.260 122.809  1.00  0.00    -0.006 C 
ATOM     18  C   UNL     1     100.745 119.835 124.228  1.00  0.00     0.008 C 
ATOM     19  C   UNL     1      99.533 119.339 122.073  1.00  0.00     0.008 C 
ENDBRANCH  12  17
ENDBRANCH  11  12
ENDBRANCH   1  11
TORSDOF 1
ENDMDL
MODEL 8
REMARK VINA RESULT:    -3.803      1.657      4.067
REMARK INTER + INTRA:          -6.119
REMARK INTER:                  -5.586
REMARK INTRA:                  -0.533
REMARK UNBOUND:                -0.316
REMARK SMILES CC1=CCC[C@H](C)C(=O)C[C@H](C(C)C)C(=O)C1
REMARK SMILES IDX 8 1 9 2 6 3 7 4 5 5 4 6 3 7 2 8 1 9 10 11 11 12 15 13 16 14
REMARK SMILES IDX 17 15 12 17 13 18 14 19
REMARK H PARENT
REMARK Flexibility Score: 70.00
ROOT
ATOM      1  C   UNL     1     100.799 117.178 122.459  1.00  0.00     0.136 C 
ATOM      2  O   UNL     1      99.716 117.585 122.850  1.00  0.00    -0.299 OA
ENDROOT
BRANCH   1   3
ATOM      3  C   UNL     1     100.959 116.793 120.982  1.00  0.00     0.053 C 
ATOM      4  C   UNL     1      99.978 117.572 120.098  1.00  0.00     0.016 C 
BRANCH   3   5
ATOM      5  C   UNL     1     102.409 117.092 120.662  1.00  0.00     0.015 C 
BRANCH   5   6
ATOM      6  C   UNL     1     103.498 116.127 120.301  1.00  0.00     0.028 C 
BRANCH   6   7
ATOM      7  C   UNL     1     102.988 114.705 120.569  1.00  0.00    -0.028 C 
ATOM      8  C   UNL     1     102.998 113.957 121.735  1.00  0.00    -0.070 CG0
ATOM      9  C   UNL     1     102.320 112.608 121.646  1.00  0.00     0.039 C 
ATOM     10  G   UNL     1     103.629 114.326 123.111  1.00  0.00     0.000 G0
ENDBRANCH   6   7
ENDBRANCH   5   6
ENDBRANCH   3   5
ENDBRANCH   1   3
BRANCH   1  11
ATOM     11  C   UNL     1     101.955 117.055 123.469  1.00  0.00     0.087 C 
BRANCH  11  12
ATOM     12  C   UNL     1     101.824 115.878 124.509  1.00  0.00     0.066 C 
BRANCH  12  13
ATOM     13  C   UNL     1     102.591 114.554 124.237  1.00  0.00     0.140 C 
ATOM     14  O   UNL     1     102.426 113.642 125.034  1.00  0.00    -0.299 OA
BRANCH  13  15
ATOM     15  C   UNL     1     103.622 114.326 123.123  1.00  0.00     0.106 CG0
ATOM     16  G   UNL     1     103.006 113.975 121.736  1.00  0.00     0.000 G0
ENDBRANCH  13  15
ENDBRANCH  12  13
BRANCH  12  17
ATOM     17  C   UNL     1     102.033 116.389 125.970  1.00  0.00    -0.006 C 
ATOM     18  C   UNL     1     101.338 117.725 126.273  1.00  0.00     0.008 C 
ATOM     19  C   UNL     1     103.522 116.468 126.344  1.00  0.00     0.008 C 
ENDBRANCH  12  17
ENDBRANCH  11  12
ENDBRANCH   1  11
TORSDOF 1
ENDMDL
MODEL 9
REMARK VINA RESULT:    -3.763      9.683     12.238
REMARK INTER + INTRA:          -6.059
REMARK INTER:                  -5.584
REMARK INTRA:                  -0.475
REMARK UNBOUND:                -0.316
REMARK SMILES CC1=CCC[C@H](C)C(=O)C[C@H](C(C)C)C(=O)C1
REMARK SMILES IDX 8 1 9 2 6 3 7 4 5 5 4 6 3 7 2 8 1 9 10 11 11 12 15 13 16 14
REMARK SMILES IDX 17 15 12 17 13 18 14 19
REMARK H PARENT
REMARK Flexibility Score: 70.00
ROOT
ATOM      1  C   UNL     1      99.618 108.165 114.247  1.00  0.00     0.136 C 
ATOM      2  O   UNL     1      99.049 109.240 114.364  1.00  0.00    -0.299 OA
ENDROOT
BRANCH   1   3
ATOM      3  C   UNL     1     100.151 107.753 112.869  1.00  0.00     0.053 C 
ATOM      4  C   UNL     1      99.038 107.777 111.815  1.00  0.00     0.016 C 
BRANCH   3   5
ATOM      5  C   UNL     1     101.262 108.740 112.577  1.00  0.00     0.015 C 
BRANCH   5   6
ATOM      6  C   UNL     1     102.467 109.056 113.412  1.00  0.00     0.028 C 
BRANCH   6   7
ATOM      7  C   UNL     1     102.273 110.447 114.029  1.00  0.00    -0.028 C 
ATOM      8  C   UNL     1     102.273 110.845 115.355  1.00  0.00    -0.070 CG0
ATOM      9  C   UNL     1     102.135 112.333 115.586  1.00  0.00     0.039 C 
ATOM     10  G   UNL     1     102.384 109.954 116.628  1.00  0.00     0.000 G0
ENDBRANCH   6   7
ENDBRANCH   5   6
ENDBRANCH   3   5
ENDBRANCH   1   3
BRANCH   1  11
ATOM     11  C   UNL     1      99.761 107.263 115.487  1.00  0.00     0.087 C 
BRANCH  11  12
ATOM     12  C   UNL     1     100.966 107.610 116.442  1.00  0.00     0.066 C 
BRANCH  12  13
ATOM     13  C   UNL     1     101.144 109.081 116.914  1.00  0.00     0.140 C 
ATOM     14  O   UNL     1     100.189 109.606 117.468  1.00  0.00    -0.299 OA
BRANCH  13  15
ATOM     15  C   UNL     1     102.368 109.967 116.647  1.00  0.00     0.106 CG0
ATOM     16  G   UNL     1     102.265 110.840 115.361  1.00  0.00     0.000 G0
ENDBRANCH  13  15
ENDBRANCH  12  13
BRANCH  12  17
ATOM     17  C   UNL     1     101.058 106.598 117.627  1.00  0.00    -0.006 C 
ATOM     18  C   UNL     1     102.054 107.005 118.724  1.00  0.00     0.008 C 
ATOM     19  C   UNL     1     101.355 105.170 117.143  1.00  0.00     0.008 C 
ENDBRANCH  12  17
ENDBRANCH  11  12
ENDBRANCH   1  11
TORSDOF 1
ENDMDL
