MODEL 1
REMARK VINA RESULT:    -5.659      0.000      0.000
REMARK INTER + INTRA:         -10.916
REMARK INTER:                 -10.291
REMARK INTRA:                  -0.625
REMARK UNBOUND:                -0.625
REMARK SMILES CCCCCCCCCCCCCC[C@@H](C)C(=O)[O-]
REMARK SMILES IDX 9 1 10 2 11 3 12 4 13 5 14 6 15 7 16 8 17 9 18 10 19 11 8 12
REMARK SMILES IDX 7 13 6 14 5 15 4 16 3 17 2 18 1 19
REMARK H PARENT
REMARK Flexibility Score: inf
ROOT
ATOM      1  C   UNL     1      21.580 -12.515  21.241  1.00  0.00     0.000 C 
ENDROOT
BRANCH   1   2
ATOM      2  C   UNL     1      22.424 -11.459  21.976  1.00  0.00     0.000 C 
BRANCH   2   3
ATOM      3  C   UNL     1      21.619 -10.457  22.828  1.00  0.00     0.000 C 
BRANCH   3   4
ATOM      4  C   UNL     1      20.816 -11.080  23.985  1.00  0.00     0.000 C 
BRANCH   4   5
ATOM      5  C   UNL     1      20.409 -10.053  25.051  1.00  0.00     0.001 C 
BRANCH   5   6
ATOM      6  C   UNL     1      20.695  -8.620  24.567  1.00  0.00     0.009 C 
BRANCH   6   7
ATOM      7  C   UNL     1      20.187  -7.513  25.518  1.00  0.00     0.032 C 
ATOM      8  C   UNL     1      21.171  -7.207  26.657  1.00  0.00     0.014 C 
BRANCH   7   9
ATOM      9  C   UNL     1      19.796  -6.268  24.764  1.00  0.00     0.044 C 
ATOM     10  O   UNL     1      20.659  -5.585  24.150  1.00  0.00    -0.550 OA
ATOM     11  O   UNL     1      18.460  -5.893  24.701  1.00  0.00    -0.550 OA
ENDBRANCH   7   9
ENDBRANCH   6   7
ENDBRANCH   5   6
ENDBRANCH   4   5
ENDBRANCH   3   4
ENDBRANCH   2   3
ENDBRANCH   1   2
BRANCH   1  12
ATOM     12  C   UNL     1      22.383 -13.774  20.880  1.00  0.00     0.000 C 
BRANCH  12  13
ATOM     13  C   UNL     1      21.875 -14.391  19.569  1.00  0.00    -0.000 C 
BRANCH  13  14
ATOM     14  C   UNL     1      22.878 -15.374  18.938  1.00  0.00    -0.000 C 
BRANCH  14  15
ATOM     15  C   UNL     1      23.080 -16.691  19.712  1.00  0.00    -0.000 C 
BRANCH  15  16
ATOM     16  C   UNL     1      23.067 -17.928  18.798  1.00  0.00    -0.000 C 
BRANCH  16  17
ATOM     17  C   UNL     1      23.019 -17.560  17.307  1.00  0.00    -0.000 C 
BRANCH  17  18
ATOM     18  C   UNL     1      22.492 -18.705  16.430  1.00  0.00    -0.003 C 
ATOM     19  C   UNL     1      22.683 -20.055  17.115  1.00  0.00     0.004 C 
ENDBRANCH  17  18
ENDBRANCH  16  17
ENDBRANCH  15  16
ENDBRANCH  14  15
ENDBRANCH  13  14
ENDBRANCH  12  13
ENDBRANCH   1  12
TORSDOF 14
ENDMDL
MODEL 2
REMARK VINA RESULT:    -5.339      4.449     10.880
REMARK INTER + INTRA:         -10.334
REMARK INTER:                  -9.757
REMARK INTRA:                  -0.577
REMARK UNBOUND:                -0.625
REMARK SMILES CCCCCCCCCCCCCC[C@@H](C)C(=O)[O-]
REMARK SMILES IDX 9 1 10 2 11 3 12 4 13 5 14 6 15 7 16 8 17 9 18 10 19 11 8 12
REMARK SMILES IDX 7 13 6 14 5 15 4 16 3 17 2 18 1 19
REMARK H PARENT
REMARK Flexibility Score: inf
ROOT
ATOM      1  C   UNL     1      20.735 -11.175  23.373  1.00  0.00     0.000 C 
ENDROOT
BRANCH   1   2
ATOM      2  C   UNL     1      21.877 -10.682  22.468  1.00  0.00     0.000 C 
BRANCH   2   3
ATOM      3  C   UNL     1      22.772 -11.792  21.880  1.00  0.00     0.000 C 
BRANCH   3   4
ATOM      4  C   UNL     1      22.016 -12.940  21.186  1.00  0.00     0.000 C 
BRANCH   4   5
ATOM      5  C   UNL     1      22.931 -14.113  20.804  1.00  0.00     0.001 C 
BRANCH   5   6
ATOM      6  C   UNL     1      22.283 -14.976  19.707  1.00  0.00     0.009 C 
BRANCH   6   7
ATOM      7  C   UNL     1      23.179 -16.123  19.186  1.00  0.00     0.032 C 
ATOM      8  C   UNL     1      22.997 -17.427  19.977  1.00  0.00     0.014 C 
BRANCH   7   9
ATOM      9  C   UNL     1      23.007 -16.335  17.705  1.00  0.00     0.044 C 
ATOM     10  O   UNL     1      23.043 -17.493  17.208  1.00  0.00    -0.550 OA
ATOM     11  O   UNL     1      22.754 -15.247  16.879  1.00  0.00    -0.550 OA
ENDBRANCH   7   9
ENDBRANCH   6   7
ENDBRANCH   5   6
ENDBRANCH   4   5
ENDBRANCH   3   4
ENDBRANCH   2   3
ENDBRANCH   1   2
BRANCH   1  12
ATOM     12  C   UNL     1      20.590 -10.344  24.657  1.00  0.00     0.000 C 
BRANCH  12  13
ATOM     13  C   UNL     1      21.089  -8.908  24.440  1.00  0.00    -0.000 C 
BRANCH  13  14
ATOM     14  C   UNL     1      20.785  -7.979  25.629  1.00  0.00    -0.000 C 
BRANCH  14  15
ATOM     15  C   UNL     1      19.584  -7.035  25.433  1.00  0.00    -0.000 C 
BRANCH  15  16
ATOM     16  C   UNL     1      19.736  -6.121  24.205  1.00  0.00    -0.000 C 
BRANCH  16  17
ATOM     17  C   UNL     1      18.553  -5.154  24.040  1.00  0.00    -0.000 C 
BRANCH  17  18
ATOM     18  C   UNL     1      18.844  -4.027  23.039  1.00  0.00    -0.003 C 
ATOM     19  C   UNL     1      20.237  -3.442  23.259  1.00  0.00     0.004 C 
ENDBRANCH  17  18
ENDBRANCH  16  17
ENDBRANCH  15  16
ENDBRANCH  14  15
ENDBRANCH  13  14
ENDBRANCH  12  13
ENDBRANCH   1  12
TORSDOF 14
ENDMDL
MODEL 3
REMARK VINA RESULT:    -5.218      1.836      2.642
REMARK INTER + INTRA:         -10.115
REMARK INTER:                  -9.433
REMARK INTRA:                  -0.682
REMARK UNBOUND:                -0.625
REMARK SMILES CCCCCCCCCCCCCC[C@@H](C)C(=O)[O-]
REMARK SMILES IDX 9 1 10 2 11 3 12 4 13 5 14 6 15 7 16 8 17 9 18 10 19 11 8 12
REMARK SMILES IDX 7 13 6 14 5 15 4 16 3 17 2 18 1 19
REMARK H PARENT
REMARK Flexibility Score: inf
ROOT
ATOM      1  C   UNL     1      21.782 -11.873  21.937  1.00  0.00     0.000 C 
ENDROOT
BRANCH   1   2
ATOM      2  C   UNL     1      21.629 -10.512  22.639  1.00  0.00     0.000 C 
BRANCH   2   3
ATOM      3  C   UNL     1      20.640 -10.494  23.822  1.00  0.00     0.000 C 
BRANCH   3   4
ATOM      4  C   UNL     1      20.979  -9.491  24.941  1.00  0.00     0.000 C 
BRANCH   4   5
ATOM      5  C   UNL     1      20.398  -8.093  24.686  1.00  0.00     0.001 C 
BRANCH   5   6
ATOM      6  C   UNL     1      20.847  -7.107  25.779  1.00  0.00     0.009 C 
BRANCH   6   7
ATOM      7  C   UNL     1      22.328  -7.249  26.196  1.00  0.00     0.032 C 
ATOM      8  C   UNL     1      23.297  -6.648  25.167  1.00  0.00     0.014 C 
BRANCH   7   9
ATOM      9  C   UNL     1      22.571  -6.707  27.580  1.00  0.00     0.044 C 
ATOM     10  O   UNL     1      21.612  -6.331  28.307  1.00  0.00    -0.550 OA
ATOM     11  O   UNL     1      23.865  -6.666  28.086  1.00  0.00    -0.550 OA
ENDBRANCH   7   9
ENDBRANCH   6   7
ENDBRANCH   5   6
ENDBRANCH   4   5
ENDBRANCH   3   4
ENDBRANCH   2   3
ENDBRANCH   1   2
BRANCH   1  12
ATOM     12  C   UNL     1      23.249 -12.300  21.775  1.00  0.00     0.000 C 
BRANCH  12  13
ATOM     13  C   UNL     1      23.347 -13.765  21.326  1.00  0.00    -0.000 C 
BRANCH  13  14
ATOM     14  C   UNL     1      22.214 -14.176  20.368  1.00  0.00    -0.000 C 
BRANCH  14  15
ATOM     15  C   UNL     1      22.597 -15.238  19.319  1.00  0.00    -0.000 C 
BRANCH  15  16
ATOM     16  C   UNL     1      23.120 -16.540  19.950  1.00  0.00    -0.000 C 
BRANCH  16  17
ATOM     17  C   UNL     1      23.467 -17.606  18.899  1.00  0.00    -0.000 C 
BRANCH  17  18
ATOM     18  C   UNL     1      23.076 -17.183  17.475  1.00  0.00    -0.003 C 
ATOM     19  C   UNL     1      22.615 -18.383  16.652  1.00  0.00     0.004 C 
ENDBRANCH  17  18
ENDBRANCH  16  17
ENDBRANCH  15  16
ENDBRANCH  14  15
ENDBRANCH  13  14
ENDBRANCH  12  13
ENDBRANCH   1  12
TORSDOF 14
ENDMDL
MODEL 4
REMARK VINA RESULT:    -5.121      1.502      3.334
REMARK INTER + INTRA:          -9.937
REMARK INTER:                  -9.180
REMARK INTRA:                  -0.757
REMARK UNBOUND:                -0.625
REMARK SMILES CCCCCCCCCCCCCC[C@@H](C)C(=O)[O-]
REMARK SMILES IDX 9 1 10 2 11 3 12 4 13 5 14 6 15 7 16 8 17 9 18 10 19 11 8 12
REMARK SMILES IDX 7 13 6 14 5 15 4 16 3 17 2 18 1 19
REMARK H PARENT
REMARK Flexibility Score: inf
ROOT
ATOM      1  C   UNL     1      21.097 -10.844  23.773  1.00  0.00     0.000 C 
ENDROOT
BRANCH   1   2
ATOM      2  C   UNL     1      20.786  -9.536  24.521  1.00  0.00     0.000 C 
BRANCH   2   3
ATOM      3  C   UNL     1      21.571  -8.301  24.035  1.00  0.00     0.000 C 
BRANCH   3   4
ATOM      4  C   UNL     1      22.299  -7.514  25.139  1.00  0.00     0.000 C 
BRANCH   4   5
ATOM      5  C   UNL     1      21.418  -6.436  25.785  1.00  0.00     0.001 C 
BRANCH   5   6
ATOM      6  C   UNL     1      21.239  -5.236  24.838  1.00  0.00     0.009 C 
BRANCH   6   7
ATOM      7  C   UNL     1      19.854  -5.164  24.155  1.00  0.00     0.032 C 
ATOM      8  C   UNL     1      18.851  -6.171  24.736  1.00  0.00     0.014 C 
BRANCH   7   9
ATOM      9  C   UNL     1      19.306  -3.761  24.156  1.00  0.00     0.044 C 
ATOM     10  O   UNL     1      19.793  -2.875  24.909  1.00  0.00    -0.550 OA
ATOM     11  O   UNL     1      18.284  -3.421  23.278  1.00  0.00    -0.550 OA
ENDBRANCH   7   9
ENDBRANCH   6   7
ENDBRANCH   5   6
ENDBRANCH   4   5
ENDBRANCH   3   4
ENDBRANCH   2   3
ENDBRANCH   1   2
BRANCH   1  12
ATOM     12  C   UNL     1      22.014 -10.633  22.559  1.00  0.00     0.000 C 
BRANCH  12  13
ATOM     13  C   UNL     1      22.300 -11.965  21.850  1.00  0.00    -0.000 C 
BRANCH  13  14
ATOM     14  C   UNL     1      21.037 -12.614  21.256  1.00  0.00    -0.000 C 
BRANCH  14  15
ATOM     15  C   UNL     1      21.296 -13.710  20.206  1.00  0.00    -0.000 C 
BRANCH  15  16
ATOM     16  C   UNL     1      22.586 -14.504  20.475  1.00  0.00    -0.000 C 
BRANCH  16  17
ATOM     17  C   UNL     1      22.949 -15.448  19.318  1.00  0.00    -0.000 C 
BRANCH  17  18
ATOM     18  C   UNL     1      23.271 -16.872  19.794  1.00  0.00    -0.003 C 
ATOM     19  C   UNL     1      22.765 -17.912  18.797  1.00  0.00     0.004 C 
ENDBRANCH  17  18
ENDBRANCH  16  17
ENDBRANCH  15  16
ENDBRANCH  14  15
ENDBRANCH  13  14
ENDBRANCH  12  13
ENDBRANCH   1  12
TORSDOF 14
ENDMDL
MODEL 5
REMARK VINA RESULT:    -5.066      7.421     12.913
REMARK INTER + INTRA:          -9.838
REMARK INTER:                  -8.833
REMARK INTRA:                  -1.005
REMARK UNBOUND:                -0.625
REMARK SMILES CCCCCCCCCCCCCC[C@@H](C)C(=O)[O-]
REMARK SMILES IDX 9 1 10 2 11 3 12 4 13 5 14 6 15 7 16 8 17 9 18 10 19 11 8 12
REMARK SMILES IDX 7 13 6 14 5 15 4 16 3 17 2 18 1 19
REMARK H PARENT
REMARK Flexibility Score: inf
ROOT
ATOM      1  C   UNL     1      20.344 -20.441  17.843  1.00  0.00     0.000 C 
ENDROOT
BRANCH   1   2
ATOM      2  C   UNL     1      18.956 -21.041  17.559  1.00  0.00     0.000 C 
BRANCH   2   3
ATOM      3  C   UNL     1      18.927 -22.142  16.480  1.00  0.00     0.000 C 
BRANCH   3   4
ATOM      4  C   UNL     1      17.608 -22.251  15.694  1.00  0.00     0.000 C 
BRANCH   4   5
ATOM      5  C   UNL     1      17.819 -22.285  14.174  1.00  0.00     0.001 C 
BRANCH   5   6
ATOM      6  C   UNL     1      18.842 -21.219  13.740  1.00  0.00     0.009 C 
BRANCH   6   7
ATOM      7  C   UNL     1      18.472 -20.474  12.438  1.00  0.00     0.032 C 
ATOM      8  C   UNL     1      18.700 -21.325  11.179  1.00  0.00     0.014 C 
BRANCH   7   9
ATOM      9  C   UNL     1      17.073 -19.917  12.493  1.00  0.00     0.044 C 
ATOM     10  O   UNL     1      16.857 -18.749  12.915  1.00  0.00    -0.550 OA
ATOM     11  O   UNL     1      16.010 -20.680  12.027  1.00  0.00    -0.550 OA
ENDBRANCH   7   9
ENDBRANCH   6   7
ENDBRANCH   5   6
ENDBRANCH   4   5
ENDBRANCH   3   4
ENDBRANCH   2   3
ENDBRANCH   1   2
BRANCH   1  12
ATOM     12  C   UNL     1      21.323 -20.622  16.673  1.00  0.00     0.000 C 
BRANCH  12  13
ATOM     13  C   UNL     1      22.645 -19.891  16.947  1.00  0.00    -0.000 C 
BRANCH  13  14
ATOM     14  C   UNL     1      22.629 -18.424  16.483  1.00  0.00    -0.000 C 
BRANCH  14  15
ATOM     15  C   UNL     1      23.123 -17.402  17.525  1.00  0.00    -0.000 C 
BRANCH  15  16
ATOM     16  C   UNL     1      23.003 -17.916  18.970  1.00  0.00    -0.000 C 
BRANCH  16  17
ATOM     17  C   UNL     1      23.205 -16.802  20.010  1.00  0.00    -0.000 C 
BRANCH  17  18
ATOM     18  C   UNL     1      22.818 -15.415  19.476  1.00  0.00    -0.003 C 
ATOM     19  C   UNL     1      22.779 -14.384  20.600  1.00  0.00     0.004 C 
ENDBRANCH  17  18
ENDBRANCH  16  17
ENDBRANCH  15  16
ENDBRANCH  14  15
ENDBRANCH  13  14
ENDBRANCH  12  13
ENDBRANCH   1  12
TORSDOF 14
ENDMDL
MODEL 6
REMARK VINA RESULT:    -5.057      5.231     11.376
REMARK INTER + INTRA:          -9.822
REMARK INTER:                  -8.859
REMARK INTRA:                  -0.963
REMARK UNBOUND:                -0.625
REMARK SMILES CCCCCCCCCCCCCC[C@@H](C)C(=O)[O-]
REMARK SMILES IDX 9 1 10 2 11 3 12 4 13 5 14 6 15 7 16 8 17 9 18 10 19 11 8 12
REMARK SMILES IDX 7 13 6 14 5 15 4 16 3 17 2 18 1 19
REMARK H PARENT
REMARK Flexibility Score: inf
ROOT
ATOM      1  C   UNL     1      19.319  -5.530  23.194  1.00  0.00     0.000 C 
ENDROOT
BRANCH   1   2
ATOM      2  C   UNL     1      19.826  -5.581  24.646  1.00  0.00     0.000 C 
BRANCH   2   3
ATOM      3  C   UNL     1      19.606  -6.926  25.369  1.00  0.00     0.000 C 
BRANCH   3   4
ATOM      4  C   UNL     1      20.892  -7.638  25.828  1.00  0.00     0.000 C 
BRANCH   4   5
ATOM      5  C   UNL     1      21.713  -8.201  24.660  1.00  0.00     0.001 C 
BRANCH   5   6
ATOM      6  C   UNL     1      21.120  -9.533  24.166  1.00  0.00     0.009 C 
BRANCH   6   7
ATOM      7  C   UNL     1      21.485  -9.892  22.709  1.00  0.00     0.032 C 
ATOM      8  C   UNL     1      22.920  -9.488  22.337  1.00  0.00     0.014 C 
BRANCH   7   9
ATOM      9  C   UNL     1      21.215 -11.344  22.409  1.00  0.00     0.044 C 
ATOM     10  O   UNL     1      22.101 -12.073  21.888  1.00  0.00    -0.550 OA
ATOM     11  O   UNL     1      19.992 -11.902  22.757  1.00  0.00    -0.550 OA
ENDBRANCH   7   9
ENDBRANCH   6   7
ENDBRANCH   5   6
ENDBRANCH   4   5
ENDBRANCH   3   4
ENDBRANCH   2   3
ENDBRANCH   1   2
BRANCH   1  12
ATOM     12  C   UNL     1      18.490  -4.272  22.895  1.00  0.00     0.000 C 
BRANCH  12  13
ATOM     13  C   UNL     1      18.167  -3.509  24.188  1.00  0.00    -0.000 C 
BRANCH  13  14
ATOM     14  C   UNL     1      16.688  -3.622  24.598  1.00  0.00    -0.000 C 
BRANCH  14  15
ATOM     15  C   UNL     1      16.236  -5.026  25.041  1.00  0.00    -0.000 C 
BRANCH  15  16
ATOM     16  C   UNL     1      14.769  -5.065  25.503  1.00  0.00    -0.000 C 
BRANCH  16  17
ATOM     17  C   UNL     1      14.568  -4.408  26.878  1.00  0.00    -0.000 C 
BRANCH  17  18
ATOM     18  C   UNL     1      13.840  -5.326  27.872  1.00  0.00    -0.003 C 
ATOM     19  C   UNL     1      12.418  -4.836  28.132  1.00  0.00     0.004 C 
ENDBRANCH  17  18
ENDBRANCH  16  17
ENDBRANCH  15  16
ENDBRANCH  14  15
ENDBRANCH  13  14
ENDBRANCH  12  13
ENDBRANCH   1  12
TORSDOF 14
ENDMDL
MODEL 7
REMARK VINA RESULT:    -5.052     11.386     14.395
REMARK INTER + INTRA:          -9.812
REMARK INTER:                  -7.683
REMARK INTRA:                  -2.129
REMARK UNBOUND:                -0.625
REMARK SMILES CCCCCCCCCCCCCC[C@@H](C)C(=O)[O-]
REMARK SMILES IDX 9 1 10 2 11 3 12 4 13 5 14 6 15 7 16 8 17 9 18 10 19 11 8 12
REMARK SMILES IDX 7 13 6 14 5 15 4 16 3 17 2 18 1 19
REMARK H PARENT
REMARK Flexibility Score: inf
ROOT
ATOM      1  C   UNL     1      18.405 -20.876  13.686  1.00  0.00     0.000 C 
ENDROOT
BRANCH   1   2
ATOM      2  C   UNL     1      18.618 -20.278  12.284  1.00  0.00     0.000 C 
BRANCH   2   3
ATOM      3  C   UNL     1      18.790 -21.309  11.151  1.00  0.00     0.000 C 
BRANCH   3   4
ATOM      4  C   UNL     1      17.536 -21.548  10.290  1.00  0.00     0.000 C 
BRANCH   4   5
ATOM      5  C   UNL     1      16.334 -22.041  11.107  1.00  0.00     0.001 C 
BRANCH   5   6
ATOM      6  C   UNL     1      15.103 -21.149  10.863  1.00  0.00     0.009 C 
BRANCH   6   7
ATOM      7  C   UNL     1      14.393 -20.676  12.152  1.00  0.00     0.032 C 
ATOM      8  C   UNL     1      14.841 -21.454  13.398  1.00  0.00     0.014 C 
BRANCH   7   9
ATOM      9  C   UNL     1      14.521 -19.187  12.343  1.00  0.00     0.044 C 
ATOM     10  O   UNL     1      15.612 -18.672  12.709  1.00  0.00    -0.550 OA
ATOM     11  O   UNL     1      13.438 -18.362  12.065  1.00  0.00    -0.550 OA
ENDBRANCH   7   9
ENDBRANCH   6   7
ENDBRANCH   5   6
ENDBRANCH   4   5
ENDBRANCH   3   4
ENDBRANCH   2   3
ENDBRANCH   1   2
BRANCH   1  12
ATOM     12  C   UNL     1      19.103 -22.233  13.867  1.00  0.00     0.000 C 
BRANCH  12  13
ATOM     13  C   UNL     1      18.342 -23.111  14.870  1.00  0.00    -0.000 C 
BRANCH  13  14
ATOM     14  C   UNL     1      17.398 -22.304  15.780  1.00  0.00    -0.000 C 
BRANCH  14  15
ATOM     15  C   UNL     1      17.277 -22.825  17.225  1.00  0.00    -0.000 C 
BRANCH  15  16
ATOM     16  C   UNL     1      18.505 -22.485  18.087  1.00  0.00    -0.000 C 
BRANCH  16  17
ATOM     17  C   UNL     1      19.084 -21.098  17.767  1.00  0.00    -0.000 C 
BRANCH  17  18
ATOM     18  C   UNL     1      20.606 -21.125  17.559  1.00  0.00    -0.003 C 
ATOM     19  C   UNL     1      21.026 -20.168  16.447  1.00  0.00     0.004 C 
ENDBRANCH  17  18
ENDBRANCH  16  17
ENDBRANCH  15  16
ENDBRANCH  14  15
ENDBRANCH  13  14
ENDBRANCH  12  13
ENDBRANCH   1  12
TORSDOF 14
ENDMDL
MODEL 8
REMARK VINA RESULT:    -5.023      8.087     13.339
REMARK INTER + INTRA:          -9.759
REMARK INTER:                  -9.025
REMARK INTRA:                  -0.733
REMARK UNBOUND:                -0.625
REMARK SMILES CCCCCCCCCCCCCC[C@@H](C)C(=O)[O-]
REMARK SMILES IDX 9 1 10 2 11 3 12 4 13 5 14 6 15 7 16 8 17 9 18 10 19 11 8 12
REMARK SMILES IDX 7 13 6 14 5 15 4 16 3 17 2 18 1 19
REMARK H PARENT
REMARK Flexibility Score: inf
ROOT
ATOM      1  C   UNL     1      21.450 -20.292  17.650  1.00  0.00     0.000 C 
ENDROOT
BRANCH   1   2
ATOM      2  C   UNL     1      20.665 -21.195  16.683  1.00  0.00     0.000 C 
BRANCH   2   3
ATOM      3  C   UNL     1      19.160 -20.878  16.567  1.00  0.00     0.000 C 
BRANCH   3   4
ATOM      4  C   UNL     1      18.292 -22.025  16.017  1.00  0.00     0.000 C 
BRANCH   4   5
ATOM      5  C   UNL     1      17.557 -21.649  14.723  1.00  0.00     0.001 C 
BRANCH   5   6
ATOM      6  C   UNL     1      18.537 -21.579  13.538  1.00  0.00     0.009 C 
BRANCH   6   7
ATOM      7  C   UNL     1      17.984 -20.845  12.296  1.00  0.00     0.032 C 
ATOM      8  C   UNL     1      18.954 -19.786  11.749  1.00  0.00     0.014 C 
BRANCH   7   9
ATOM      9  C   UNL     1      17.546 -21.811  11.227  1.00  0.00     0.044 C 
ATOM     10  O   UNL     1      18.382 -22.546  10.635  1.00  0.00    -0.550 OA
ATOM     11  O   UNL     1      16.196 -21.934  10.921  1.00  0.00    -0.550 OA
ENDBRANCH   7   9
ENDBRANCH   6   7
ENDBRANCH   5   6
ENDBRANCH   4   5
ENDBRANCH   3   4
ENDBRANCH   2   3
ENDBRANCH   1   2
BRANCH   1  12
ATOM     12  C   UNL     1      22.846 -19.926  17.124  1.00  0.00     0.000 C 
BRANCH  12  13
ATOM     13  C   UNL     1      22.804 -18.616  16.323  1.00  0.00    -0.000 C 
BRANCH  13  14
ATOM     14  C   UNL     1      23.036 -17.370  17.197  1.00  0.00    -0.000 C 
BRANCH  14  15
ATOM     15  C   UNL     1      23.704 -17.639  18.558  1.00  0.00    -0.000 C 
BRANCH  15  16
ATOM     16  C   UNL     1      23.037 -16.873  19.714  1.00  0.00    -0.000 C 
BRANCH  16  17
ATOM     17  C   UNL     1      22.840 -15.382  19.395  1.00  0.00    -0.000 C 
BRANCH  17  18
ATOM     18  C   UNL     1      22.888 -14.497  20.649  1.00  0.00    -0.003 C 
ATOM     19  C   UNL     1      21.669 -13.581  20.722  1.00  0.00     0.004 C 
ENDBRANCH  17  18
ENDBRANCH  16  17
ENDBRANCH  15  16
ENDBRANCH  14  15
ENDBRANCH  13  14
ENDBRANCH  12  13
ENDBRANCH   1  12
TORSDOF 14
ENDMDL
MODEL 9
REMARK VINA RESULT:    -4.935      8.990     13.957
REMARK INTER + INTRA:          -9.599
REMARK INTER:                  -8.583
REMARK INTRA:                  -1.016
REMARK UNBOUND:                -0.625
REMARK SMILES CCCCCCCCCCCCCC[C@@H](C)C(=O)[O-]
REMARK SMILES IDX 9 1 10 2 11 3 12 4 13 5 14 6 15 7 16 8 17 9 18 10 19 11 8 12
REMARK SMILES IDX 7 13 6 14 5 15 4 16 3 17 2 18 1 19
REMARK H PARENT
REMARK Flexibility Score: inf
ROOT
ATOM      1  C   UNL     1      18.519 -21.373  14.241  1.00  0.00     0.000 C 
ENDROOT
BRANCH   1   2
ATOM      2  C   UNL     1      18.869 -21.999  12.880  1.00  0.00     0.000 C 
BRANCH   2   3
ATOM      3  C   UNL     1      18.862 -21.020  11.688  1.00  0.00     0.000 C 
BRANCH   3   4
ATOM      4  C   UNL     1      17.764 -21.276  10.640  1.00  0.00     0.000 C 
BRANCH   4   5
ATOM      5  C   UNL     1      16.542 -22.002  11.219  1.00  0.00     0.001 C 
BRANCH   5   6
ATOM      6  C   UNL     1      15.239 -21.285  10.820  1.00  0.00     0.009 C 
BRANCH   6   7
ATOM      7  C   UNL     1      14.415 -20.748  12.012  1.00  0.00     0.032 C 
ATOM      8  C   UNL     1      14.465 -21.675  13.236  1.00  0.00     0.014 C 
BRANCH   7   9
ATOM      9  C   UNL     1      14.800 -19.334  12.362  1.00  0.00     0.044 C 
ATOM     10  O   UNL     1      13.959 -18.398  12.290  1.00  0.00    -0.550 OA
ATOM     11  O   UNL     1      16.083 -19.063  12.820  1.00  0.00    -0.550 OA
ENDBRANCH   7   9
ENDBRANCH   6   7
ENDBRANCH   5   6
ENDBRANCH   4   5
ENDBRANCH   3   4
ENDBRANCH   2   3
ENDBRANCH   1   2
BRANCH   1  12
ATOM     12  C   UNL     1      19.485 -21.795  15.358  1.00  0.00     0.000 C 
BRANCH  12  13
ATOM     13  C   UNL     1      18.994 -21.297  16.725  1.00  0.00    -0.000 C 
BRANCH  13  14
ATOM     14  C   UNL     1      20.101 -20.615  17.550  1.00  0.00    -0.000 C 
BRANCH  14  15
ATOM     15  C   UNL     1      21.310 -20.116  16.737  1.00  0.00    -0.000 C 
BRANCH  15  16
ATOM     16  C   UNL     1      22.297 -19.289  17.579  1.00  0.00    -0.000 C 
BRANCH  16  17
ATOM     17  C   UNL     1      23.031 -18.224  16.749  1.00  0.00    -0.000 C 
BRANCH  17  18
ATOM     18  C   UNL     1      23.065 -16.853  17.440  1.00  0.00    -0.003 C 
ATOM     19  C   UNL     1      23.113 -17.003  18.959  1.00  0.00     0.004 C 
ENDBRANCH  17  18
ENDBRANCH  16  17
ENDBRANCH  15  16
ENDBRANCH  14  15
ENDBRANCH  13  14
ENDBRANCH  12  13
ENDBRANCH   1  12
TORSDOF 14
ENDMDL
