MODEL 1
REMARK VINA RESULT:    -6.884      0.000      0.000
REMARK INTER + INTRA:         -14.500
REMARK INTER:                 -14.531
REMARK INTRA:                   0.032
REMARK UNBOUND:                 0.032
REMARK SMILES CCC(=O)CCCCC[C@H]1NC(=O)[C@H]2CCCCN2C(=O)[C@H]([C@@H](C)CC)NC(=O)[C@H](Cc2cn(OC)c3ccccc23)NC1=O
REMARK SMILES IDX 9 1 10 2 44 3 43 4 45 6 30 7 28 8 27 9 29 11 22 12 23 14
REMARK SMILES IDX 24 15 25 16 26 17 31 18 32 19 33 20 42 21 34 22 37 23 41 24
REMARK SMILES IDX 38 25 40 26 39 27 35 28 36 29 11 30 12 31 13 33 14 34 19 35
REMARK SMILES IDX 15 36 18 37 16 38 17 39 20 40 21 41 8 43 7 44 6 45 5 46 3 47
REMARK SMILES IDX 4 48 2 49 1 50
REMARK H PARENT 43 5 27 10 11 32
REMARK Flexibility Score: 80.00
ROOT
ATOM      1  C   UNL     1      15.848  72.000  72.531  1.00  0.00     0.035 C 
ENDROOT
BRANCH   1   2
ATOM      2  C   UNL     1      16.491  71.155  73.646  1.00  0.00     0.171 C 
BRANCH   2   3
ATOM      3  C   UNL     1      16.408  71.848  74.975  1.00  0.00     0.243 C 
ATOM      4  N   UNL     1      16.045  71.096  76.138  1.00  0.00    -0.342 N 
ATOM      5  H   UNL     1      15.435  70.262  76.003  1.00  0.00     0.164 HD
ATOM      6  O   UNL     1      16.765  73.053  75.088  1.00  0.00    -0.273 OA
BRANCH   4   7
ATOM      7  C   UNL     1      16.765  71.271  77.400  1.00  0.00     0.175 C 
BRANCH   7   8
ATOM      8  C   UNL     1      18.213  71.603  77.136  1.00  0.00     0.243 C 
ATOM      9  N   UNL     1      19.033  70.730  76.336  1.00  0.00    -0.342 N 
ATOM     10  H   UNL     1      18.579  69.891  75.909  1.00  0.00     0.164 HD
ATOM     11  O   UNL     1      18.703  72.645  77.648  1.00  0.00    -0.273 OA
BRANCH   9  12
ATOM     12  C   UNL     1      20.426  71.023  75.993  1.00  0.00     0.174 CG0
ATOM     13  G   UNL     1      20.465  71.782  74.674  1.00  0.00     0.000 G0
BRANCH  12  14
ATOM     14  C   UNL     1      21.305  69.734  76.142  1.00  0.00     0.018 C 
ATOM     15  C   UNL     1      22.807  69.994  76.366  1.00  0.00     0.010 C 
BRANCH  14  16
ATOM     16  C   UNL     1      20.718  68.762  77.189  1.00  0.00     0.002 C 
ATOM     17  C   UNL     1      21.402  68.860  78.556  1.00  0.00     0.004 C 
ENDBRANCH  14  16
ENDBRANCH  12  14
ENDBRANCH   9  12
ENDBRANCH   7   8
BRANCH   7  18
ATOM     18  C   UNL     1      16.622  70.032  78.312  1.00  0.00     0.073 C 
BRANCH  18  19
ATOM     19  C   UNL     1      16.918  70.305  79.765  1.00  0.00    -0.016 A 
ATOM     20  C   UNL     1      16.500  71.416  80.492  1.00  0.00     0.134 A 
ATOM     21  C   UNL     1      17.707  69.563  80.633  1.00  0.00     0.006 A 
ATOM     22  N   UNL     1      17.000  71.362  81.744  1.00  0.00    -0.191 N 
ATOM     23  C   UNL     1      17.745  70.244  81.826  1.00  0.00     0.087 A 
ATOM     24  C   UNL     1      18.401  68.366  80.443  1.00  0.00     0.011 A 
ATOM     25  C   UNL     1      18.533  69.805  82.894  1.00  0.00     0.030 A 
ATOM     26  C   UNL     1      19.179  67.886  81.516  1.00  0.00     0.001 A 
ATOM     27  C   UNL     1      19.250  68.606  82.730  1.00  0.00     0.002 A 
BRANCH  22  28
ATOM     28  O   UNL     1      16.804  72.320  82.716  1.00  0.00    -0.417 OA
ATOM     29  C   UNL     1      17.866  73.155  83.157  1.00  0.00     0.313 C 
ENDBRANCH  22  28
ENDBRANCH  18  19
ENDBRANCH   7  18
ENDBRANCH   4   7
ENDBRANCH   2   3
BRANCH   2  30
ATOM     30  N   UNL     1      17.903  70.907  73.343  1.00  0.00    -0.343 N 
ATOM     31  C   UNL     1      18.638  71.647  72.355  1.00  0.00     0.243 C 
ATOM     32  H   UNL     1      18.405  70.202  73.928  1.00  0.00     0.164 HD
ATOM     33  O   UNL     1      18.053  72.525  71.665  1.00  0.00    -0.273 OA
BRANCH  31  34
ATOM     34  C   UNL     1      20.127  71.431  72.154  1.00  0.00     0.174 C 
ATOM     35  N   UNL     1      20.894  71.266  73.410  1.00  0.00    -0.329 N 
ATOM     36  C   UNL     1      20.743  72.558  71.303  1.00  0.00     0.035 C 
ATOM     37  C   UNL     1      22.337  71.033  73.253  1.00  0.00     0.120 C 
ATOM     38  C   UNL     1      22.236  72.306  71.069  1.00  0.00     0.004 C 
ATOM     39  C   UNL     1      22.975  72.140  72.403  1.00  0.00     0.022 C 
BRANCH  35  40
ATOM     40  C   UNL     1      20.448  71.803  74.665  1.00  0.00     0.246 CG0
ATOM     41  O   UNL     1      20.047  73.000  74.695  1.00  0.00    -0.272 OA
ATOM     42  G   UNL     1      20.427  71.009  75.963  1.00  0.00     0.000 G0
ENDBRANCH  35  40
ENDBRANCH  31  34
ENDBRANCH   2  30
ENDBRANCH   1   2
BRANCH   1  43
ATOM     43  C   UNL     1      14.339  72.182  72.765  1.00  0.00     0.003 C 
BRANCH  43  44
ATOM     44  C   UNL     1      13.733  73.303  71.896  1.00  0.00     0.001 C 
BRANCH  44  45
ATOM     45  C   UNL     1      12.194  73.372  71.947  1.00  0.00     0.008 C 
BRANCH  45  46
ATOM     46  C   UNL     1      11.543  71.994  72.116  1.00  0.00     0.075 C 
BRANCH  46  47
ATOM     47  C   UNL     1      10.856  71.563  70.849  1.00  0.00     0.132 C 
ATOM     48  O   UNL     1      11.131  72.122  69.796  1.00  0.00    -0.300 OA
BRANCH  47  49
ATOM     49  C   UNL     1       9.882  70.409  70.868  1.00  0.00     0.072 C 
ATOM     50  C   UNL     1       8.698  70.647  71.807  1.00  0.00     0.012 C 
ENDBRANCH  47  49
ENDBRANCH  46  47
ENDBRANCH  45  46
ENDBRANCH  44  45
ENDBRANCH  43  44
ENDBRANCH   1  43
TORSDOF 12
ENDMDL
MODEL 2
REMARK VINA RESULT:    -6.126      2.044      8.365
REMARK INTER + INTRA:         -12.899
REMARK INTER:                 -11.838
REMARK INTRA:                  -1.061
REMARK UNBOUND:                 0.032
REMARK SMILES CCC(=O)CCCCC[C@H]1NC(=O)[C@H]2CCCCN2C(=O)[C@H]([C@@H](C)CC)NC(=O)[C@H](Cc2cn(OC)c3ccccc23)NC1=O
REMARK SMILES IDX 9 1 10 2 44 3 43 4 45 6 30 7 28 8 27 9 29 11 22 12 23 14
REMARK SMILES IDX 24 15 25 16 26 17 31 18 32 19 33 20 42 21 34 22 37 23 41 24
REMARK SMILES IDX 38 25 40 26 39 27 35 28 36 29 11 30 12 31 13 33 14 34 19 35
REMARK SMILES IDX 15 36 18 37 16 38 17 39 20 40 21 41 8 43 7 44 6 45 5 46 3 47
REMARK SMILES IDX 4 48 2 49 1 50
REMARK H PARENT 43 5 27 10 11 32
REMARK Flexibility Score: 80.00
ROOT
ATOM      1  C   UNL     1      15.896  70.439  78.441  1.00  0.00     0.035 C 
ENDROOT
BRANCH   1   2
ATOM      2  C   UNL     1      16.214  71.159  77.118  1.00  0.00     0.171 C 
BRANCH   2   3
ATOM      3  C   UNL     1      15.233  70.790  76.044  1.00  0.00     0.243 C 
ATOM      4  N   UNL     1      14.996  71.700  74.964  1.00  0.00    -0.342 N 
ATOM      5  H   UNL     1      15.128  72.716  75.153  1.00  0.00     0.164 HD
ATOM      6  O   UNL     1      14.708  69.641  76.029  1.00  0.00    -0.273 OA
BRANCH   4   7
ATOM      7  C   UNL     1      14.917  71.223  73.584  1.00  0.00     0.175 C 
BRANCH   7   8
ATOM      8  C   UNL     1      16.299  71.086  72.995  1.00  0.00     0.243 C 
ATOM      9  N   UNL     1      17.447  71.612  73.687  1.00  0.00    -0.342 N 
ATOM     10  H   UNL     1      17.295  72.046  74.625  1.00  0.00     0.164 HD
ATOM     11  O   UNL     1      16.432  70.525  71.874  1.00  0.00    -0.273 OA
BRANCH   9  12
ATOM     12  C   UNL     1      18.820  71.460  73.200  1.00  0.00     0.174 CG0
ATOM     13  G   UNL     1      19.747  72.318  74.050  1.00  0.00     0.000 G0
BRANCH  12  14
ATOM     14  C   UNL     1      18.866  71.625  71.642  1.00  0.00     0.018 C 
ATOM     15  C   UNL     1      18.564  73.047  71.130  1.00  0.00     0.010 C 
BRANCH  14  16
ATOM     16  C   UNL     1      20.172  71.055  71.046  1.00  0.00     0.002 C 
ATOM     17  C   UNL     1      19.994  69.672  70.411  1.00  0.00     0.004 C 
ENDBRANCH  14  16
ENDBRANCH  12  14
ENDBRANCH   9  12
ENDBRANCH   7   8
BRANCH   7  18
ATOM     18  C   UNL     1      14.017  72.134  72.718  1.00  0.00     0.073 C 
BRANCH  18  19
ATOM     19  C   UNL     1      12.542  71.956  72.973  1.00  0.00    -0.016 A 
ATOM     20  C   UNL     1      11.880  72.213  74.171  1.00  0.00     0.134 A 
ATOM     21  C   UNL     1      11.579  71.445  72.113  1.00  0.00     0.006 A 
ATOM     22  N   UNL     1      10.576  71.883  74.056  1.00  0.00    -0.191 N 
ATOM     23  C   UNL     1      10.397  71.403  72.812  1.00  0.00     0.087 A 
ATOM     24  C   UNL     1      11.675  71.000  70.793  1.00  0.00     0.011 A 
ATOM     25  C   UNL     1       9.238  70.853  72.255  1.00  0.00     0.030 A 
ATOM     26  C   UNL     1      10.512  70.469  70.198  1.00  0.00     0.001 A 
ATOM     27  C   UNL     1       9.305  70.389  70.928  1.00  0.00     0.002 A 
BRANCH  22  28
ATOM     28  O   UNL     1       9.643  71.984  75.066  1.00  0.00    -0.417 OA
ATOM     29  C   UNL     1       9.952  72.620  76.298  1.00  0.00     0.313 C 
ENDBRANCH  22  28
ENDBRANCH  18  19
ENDBRANCH   7  18
ENDBRANCH   4   7
ENDBRANCH   2   3
BRANCH   2  30
ATOM     30  N   UNL     1      17.559  70.802  76.657  1.00  0.00    -0.343 N 
ATOM     31  C   UNL     1      18.684  71.689  76.752  1.00  0.00     0.243 C 
ATOM     32  H   UNL     1      17.707  69.828  76.310  1.00  0.00     0.164 HD
ATOM     33  O   UNL     1      18.527  72.856  77.201  1.00  0.00    -0.273 OA
BRANCH  31  34
ATOM     34  C   UNL     1      20.081  71.236  76.365  1.00  0.00     0.174 C 
ATOM     35  N   UNL     1      20.591  71.836  75.112  1.00  0.00    -0.329 N 
ATOM     36  C   UNL     1      20.165  69.699  76.288  1.00  0.00     0.035 C 
ATOM     37  C   UNL     1      21.949  71.437  74.717  1.00  0.00     0.120 C 
ATOM     38  C   UNL     1      21.589  69.253  75.941  1.00  0.00     0.004 C 
ATOM     39  C   UNL     1      22.063  69.908  74.638  1.00  0.00     0.022 C 
BRANCH  35  40
ATOM     40  C   UNL     1      19.722  72.321  74.077  1.00  0.00     0.246 CG0
ATOM     41  O   UNL     1      19.696  73.563  73.849  1.00  0.00    -0.272 OA
ATOM     42  G   UNL     1      18.831  71.421  73.232  1.00  0.00     0.000 G0
ENDBRANCH  35  40
ENDBRANCH  31  34
ENDBRANCH   2  30
ENDBRANCH   1   2
BRANCH   1  43
ATOM     43  C   UNL     1      16.033  71.389  79.642  1.00  0.00     0.003 C 
BRANCH  43  44
ATOM     44  C   UNL     1      17.466  71.423  80.214  1.00  0.00     0.001 C 
BRANCH  44  45
ATOM     45  C   UNL     1      17.585  70.848  81.639  1.00  0.00     0.008 C 
BRANCH  45  46
ATOM     46  C   UNL     1      19.012  70.401  81.982  1.00  0.00     0.075 C 
BRANCH  46  47
ATOM     47  C   UNL     1      19.243  68.972  81.571  1.00  0.00     0.132 C 
ATOM     48  O   UNL     1      18.971  68.071  82.351  1.00  0.00    -0.300 OA
BRANCH  47  49
ATOM     49  C   UNL     1      19.750  68.654  80.184  1.00  0.00     0.072 C 
ATOM     50  C   UNL     1      18.671  68.052  79.281  1.00  0.00     0.012 C 
ENDBRANCH  47  49
ENDBRANCH  46  47
ENDBRANCH  45  46
ENDBRANCH  44  45
ENDBRANCH  43  44
ENDBRANCH   1  43
TORSDOF 12
ENDMDL
MODEL 3
REMARK VINA RESULT:    -6.044      2.472      7.773
REMARK INTER + INTRA:         -12.725
REMARK INTER:                 -12.882
REMARK INTRA:                   0.157
REMARK UNBOUND:                 0.032
REMARK SMILES CCC(=O)CCCCC[C@H]1NC(=O)[C@H]2CCCCN2C(=O)[C@H]([C@@H](C)CC)NC(=O)[C@H](Cc2cn(OC)c3ccccc23)NC1=O
REMARK SMILES IDX 9 1 10 2 44 3 43 4 45 6 30 7 28 8 27 9 29 11 22 12 23 14
REMARK SMILES IDX 24 15 25 16 26 17 31 18 32 19 33 20 42 21 34 22 37 23 41 24
REMARK SMILES IDX 38 25 40 26 39 27 35 28 36 29 11 30 12 31 13 33 14 34 19 35
REMARK SMILES IDX 15 36 18 37 16 38 17 39 20 40 21 41 8 43 7 44 6 45 5 46 3 47
REMARK SMILES IDX 4 48 2 49 1 50
REMARK H PARENT 43 5 27 10 11 32
REMARK Flexibility Score: 80.00
ROOT
ATOM      1  C   UNL     1      20.253  73.102  71.927  1.00  0.00     0.035 C 
ENDROOT
BRANCH   1   2
ATOM      2  C   UNL     1      19.135  72.044  71.913  1.00  0.00     0.171 C 
BRANCH   2   3
ATOM      3  C   UNL     1      17.786  72.670  72.119  1.00  0.00     0.243 C 
ATOM      4  N   UNL     1      16.608  71.880  71.931  1.00  0.00    -0.342 N 
ATOM      5  H   UNL     1      16.661  71.087  71.257  1.00  0.00     0.164 HD
ATOM      6  O   UNL     1      17.693  73.848  72.564  1.00  0.00    -0.273 OA
BRANCH   4   7
ATOM      7  C   UNL     1      15.497  71.951  72.880  1.00  0.00     0.175 C 
BRANCH   7   8
ATOM      8  C   UNL     1      16.006  72.291  74.260  1.00  0.00     0.243 C 
ATOM      9  N   UNL     1      16.659  71.294  75.068  1.00  0.00    -0.342 N 
ATOM     10  H   UNL     1      16.808  70.348  74.650  1.00  0.00     0.164 HD
ATOM     11  O   UNL     1      15.828  73.457  74.704  1.00  0.00    -0.273 OA
BRANCH   9  12
ATOM     12  C   UNL     1      17.228  71.574  76.388  1.00  0.00     0.174 CG0
ATOM     13  G   UNL     1      18.744  71.469  76.309  1.00  0.00     0.000 G0
BRANCH  12  14
ATOM     14  C   UNL     1      16.476  70.749  77.489  1.00  0.00     0.018 C 
ATOM     15  C   UNL     1      16.889  71.073  78.938  1.00  0.00     0.010 C 
BRANCH  14  16
ATOM     16  C   UNL     1      14.945  70.800  77.293  1.00  0.00     0.002 C 
ATOM     17  C   UNL     1      14.396  69.604  76.507  1.00  0.00     0.004 C 
ENDBRANCH  14  16
ENDBRANCH  12  14
ENDBRANCH   9  12
ENDBRANCH   7   8
BRANCH   7  18
ATOM     18  C   UNL     1      14.669  70.646  72.885  1.00  0.00     0.073 C 
BRANCH  18  19
ATOM     19  C   UNL     1      13.194  70.857  72.650  1.00  0.00    -0.016 A 
ATOM     20  C   UNL     1      12.538  70.761  71.426  1.00  0.00     0.134 A 
ATOM     21  C   UNL     1      12.228  71.251  73.565  1.00  0.00     0.006 A 
ATOM     22  N   UNL     1      11.234  71.075  71.577  1.00  0.00    -0.191 N 
ATOM     23  C   UNL     1      11.049  71.386  72.873  1.00  0.00     0.087 A 
ATOM     24  C   UNL     1      12.318  71.517  74.933  1.00  0.00     0.011 A 
ATOM     25  C   UNL     1       9.887  71.858  73.493  1.00  0.00     0.030 A 
ATOM     26  C   UNL     1      11.152  71.966  75.588  1.00  0.00     0.001 A 
ATOM     27  C   UNL     1       9.949  72.143  74.870  1.00  0.00     0.002 A 
BRANCH  22  28
ATOM     28  O   UNL     1      10.305  71.108  70.559  1.00  0.00    -0.417 OA
ATOM     29  C   UNL     1      10.188  72.235  69.701  1.00  0.00     0.313 C 
ENDBRANCH  22  28
ENDBRANCH  18  19
ENDBRANCH   7  18
ENDBRANCH   4   7
ENDBRANCH   2   3
BRANCH   2  30
ATOM     30  N   UNL     1      19.354  71.061  72.978  1.00  0.00    -0.343 N 
ATOM     31  C   UNL     1      20.446  71.139  73.908  1.00  0.00     0.243 C 
ATOM     32  H   UNL     1      18.636  70.312  73.098  1.00  0.00     0.164 HD
ATOM     33  O   UNL     1      21.302  72.057  73.795  1.00  0.00    -0.273 OA
BRANCH  31  34
ATOM     34  C   UNL     1      20.570  70.161  75.062  1.00  0.00     0.174 C 
ATOM     35  N   UNL     1      19.498  70.277  76.077  1.00  0.00    -0.329 N 
ATOM     36  C   UNL     1      21.951  70.270  75.738  1.00  0.00     0.035 C 
ATOM     37  C   UNL     1      19.573  69.332  77.199  1.00  0.00     0.120 C 
ATOM     38  C   UNL     1      22.080  69.248  76.872  1.00  0.00     0.004 C 
ATOM     39  C   UNL     1      20.943  69.415  77.887  1.00  0.00     0.022 C 
BRANCH  35  40
ATOM     40  C   UNL     1      18.763  71.492  76.290  1.00  0.00     0.246 CG0
ATOM     41  O   UNL     1      19.411  72.570  76.407  1.00  0.00    -0.272 OA
ATOM     42  G   UNL     1      17.246  71.557  76.379  1.00  0.00     0.000 G0
ENDBRANCH  35  40
ENDBRANCH  31  34
ENDBRANCH   2  30
ENDBRANCH   1   2
BRANCH   1  43
ATOM     43  C   UNL     1      20.534  73.639  70.514  1.00  0.00     0.003 C 
BRANCH  43  44
ATOM     44  C   UNL     1      22.031  73.583  70.143  1.00  0.00     0.001 C 
BRANCH  44  45
ATOM     45  C   UNL     1      22.562  72.156  69.900  1.00  0.00     0.008 C 
BRANCH  45  46
ATOM     46  C   UNL     1      21.471  71.188  69.427  1.00  0.00     0.075 C 
BRANCH  46  47
ATOM     47  C   UNL     1      21.296  70.055  70.401  1.00  0.00     0.132 C 
ATOM     48  O   UNL     1      21.886  70.086  71.472  1.00  0.00    -0.300 OA
BRANCH  47  49
ATOM     49  C   UNL     1      20.353  68.919  70.083  1.00  0.00     0.072 C 
ATOM     50  C   UNL     1      20.405  68.497  68.613  1.00  0.00     0.012 C 
ENDBRANCH  47  49
ENDBRANCH  46  47
ENDBRANCH  45  46
ENDBRANCH  44  45
ENDBRANCH  43  44
ENDBRANCH   1  43
TORSDOF 12
ENDMDL
MODEL 4
REMARK VINA RESULT:    -6.038      2.131      7.314
REMARK INTER + INTRA:         -12.713
REMARK INTER:                 -14.513
REMARK INTRA:                   1.799
REMARK UNBOUND:                 0.032
REMARK SMILES CCC(=O)CCCCC[C@H]1NC(=O)[C@H]2CCCCN2C(=O)[C@H]([C@@H](C)CC)NC(=O)[C@H](Cc2cn(OC)c3ccccc23)NC1=O
REMARK SMILES IDX 9 1 10 2 44 3 43 4 45 6 30 7 28 8 27 9 29 11 22 12 23 14
REMARK SMILES IDX 24 15 25 16 26 17 31 18 32 19 33 20 42 21 34 22 37 23 41 24
REMARK SMILES IDX 38 25 40 26 39 27 35 28 36 29 11 30 12 31 13 33 14 34 19 35
REMARK SMILES IDX 15 36 18 37 16 38 17 39 20 40 21 41 8 43 7 44 6 45 5 46 3 47
REMARK SMILES IDX 4 48 2 49 1 50
REMARK H PARENT 43 5 27 10 11 32
REMARK Flexibility Score: 80.00
ROOT
ATOM      1  C   UNL     1      15.300  70.311  75.671  1.00  0.00     0.035 C 
ENDROOT
BRANCH   1   2
ATOM      2  C   UNL     1      16.022  71.670  75.609  1.00  0.00     0.171 C 
BRANCH   2   3
ATOM      3  C   UNL     1      17.089  71.675  74.554  1.00  0.00     0.243 C 
ATOM      4  N   UNL     1      18.397  72.159  74.878  1.00  0.00    -0.342 N 
ATOM      5  H   UNL     1      18.473  72.878  75.628  1.00  0.00     0.164 HD
ATOM      6  O   UNL     1      16.871  71.152  73.426  1.00  0.00    -0.273 OA
BRANCH   4   7
ATOM      7  C   UNL     1      19.594  71.441  74.439  1.00  0.00     0.175 C 
BRANCH   7   8
ATOM      8  C   UNL     1      19.914  70.318  75.395  1.00  0.00     0.243 C 
ATOM      9  N   UNL     1      19.506  70.390  76.774  1.00  0.00    -0.342 N 
ATOM     10  H   UNL     1      18.944  71.219  77.074  1.00  0.00     0.164 HD
ATOM     11  O   UNL     1      20.566  69.326  74.974  1.00  0.00    -0.273 OA
BRANCH   9  12
ATOM     12  C   UNL     1      19.731  69.311  77.738  1.00  0.00     0.174 CG0
ATOM     13  G   UNL     1      18.701  69.415  78.853  1.00  0.00     0.000 G0
BRANCH  12  14
ATOM     14  C   UNL     1      21.249  69.237  78.125  1.00  0.00     0.018 C 
ATOM     15  C   UNL     1      21.589  68.215  79.227  1.00  0.00     0.010 C 
BRANCH  14  16
ATOM     16  C   UNL     1      22.148  69.074  76.879  1.00  0.00     0.002 C 
ATOM     17  C   UNL     1      23.335  70.042  76.859  1.00  0.00     0.004 C 
ENDBRANCH  14  16
ENDBRANCH  12  14
ENDBRANCH   9  12
ENDBRANCH   7   8
BRANCH   7  18
ATOM     18  C   UNL     1      20.795  72.396  74.260  1.00  0.00     0.073 C 
BRANCH  18  19
ATOM     19  C   UNL     1      21.470  72.284  72.915  1.00  0.00    -0.016 A 
ATOM     20  C   UNL     1      22.552  73.041  72.476  1.00  0.00     0.134 A 
ATOM     21  C   UNL     1      21.114  71.477  71.843  1.00  0.00     0.006 A 
ATOM     22  N   UNL     1      22.853  72.717  71.201  1.00  0.00    -0.191 N 
ATOM     23  C   UNL     1      21.971  71.778  70.812  1.00  0.00     0.087 A 
ATOM     24  C   UNL     1      20.094  70.534  71.706  1.00  0.00     0.011 A 
ATOM     25  C   UNL     1      21.826  71.197  69.548  1.00  0.00     0.030 A 
ATOM     26  C   UNL     1      19.946  69.911  70.450  1.00  0.00     0.001 A 
ATOM     27  C   UNL     1      20.802  70.248  69.377  1.00  0.00     0.002 A 
BRANCH  22  28
ATOM     28  O   UNL     1      23.854  73.299  70.452  1.00  0.00    -0.417 OA
ATOM     29  C   UNL     1      23.722  73.472  69.048  1.00  0.00     0.313 C 
ENDBRANCH  22  28
ENDBRANCH  18  19
ENDBRANCH   7  18
ENDBRANCH   4   7
ENDBRANCH   2   3
BRANCH   2  30
ATOM     30  N   UNL     1      16.647  71.971  76.899  1.00  0.00    -0.343 N 
ATOM     31  C   UNL     1      16.429  71.185  78.082  1.00  0.00     0.243 C 
ATOM     32  H   UNL     1      17.336  72.755  76.931  1.00  0.00     0.164 HD
ATOM     33  O   UNL     1      15.626  70.214  78.051  1.00  0.00    -0.273 OA
BRANCH  31  34
ATOM     34  C   UNL     1      17.184  71.468  79.368  1.00  0.00     0.174 C 
ATOM     35  N   UNL     1      18.453  70.717  79.508  1.00  0.00    -0.329 N 
ATOM     36  C   UNL     1      16.291  71.231  80.601  1.00  0.00     0.035 C 
ATOM     37  C   UNL     1      19.222  70.982  80.731  1.00  0.00     0.120 C 
ATOM     38  C   UNL     1      17.050  71.563  81.890  1.00  0.00     0.004 C 
ATOM     39  C   UNL     1      18.353  70.759  81.977  1.00  0.00     0.022 C 
BRANCH  35  40
ATOM     40  C   UNL     1      18.689  69.468  78.841  1.00  0.00     0.246 CG0
ATOM     41  O   UNL     1      17.996  68.468  79.180  1.00  0.00    -0.272 OA
ATOM     42  G   UNL     1      19.726  69.280  77.743  1.00  0.00     0.000 G0
ENDBRANCH  35  40
ENDBRANCH  31  34
ENDBRANCH   2  30
ENDBRANCH   1   2
BRANCH   1  43
ATOM     43  C   UNL     1      13.833  70.436  75.230  1.00  0.00     0.003 C 
BRANCH  43  44
ATOM     44  C   UNL     1      13.688  70.713  73.719  1.00  0.00     0.001 C 
BRANCH  44  45
ATOM     45  C   UNL     1      12.931  72.015  73.391  1.00  0.00     0.008 C 
BRANCH  45  46
ATOM     46  C   UNL     1      12.941  72.348  71.894  1.00  0.00     0.075 C 
BRANCH  46  47
ATOM     47  C   UNL     1      11.555  72.666  71.402  1.00  0.00     0.132 C 
ATOM     48  O   UNL     1      11.343  73.739  70.855  1.00  0.00    -0.300 OA
BRANCH  47  49
ATOM     49  C   UNL     1      10.452  71.643  71.529  1.00  0.00     0.072 C 
ATOM     50  C   UNL     1      10.671  70.418  70.638  1.00  0.00     0.012 C 
ENDBRANCH  47  49
ENDBRANCH  46  47
ENDBRANCH  45  46
ENDBRANCH  44  45
ENDBRANCH  43  44
ENDBRANCH   1  43
TORSDOF 12
ENDMDL
MODEL 5
REMARK VINA RESULT:    -5.918      2.042      8.517
REMARK INTER + INTRA:         -12.461
REMARK INTER:                 -12.092
REMARK INTRA:                  -0.368
REMARK UNBOUND:                 0.032
REMARK SMILES CCC(=O)CCCCC[C@H]1NC(=O)[C@H]2CCCCN2C(=O)[C@H]([C@@H](C)CC)NC(=O)[C@H](Cc2cn(OC)c3ccccc23)NC1=O
REMARK SMILES IDX 9 1 10 2 44 3 43 4 45 6 30 7 28 8 27 9 29 11 22 12 23 14
REMARK SMILES IDX 24 15 25 16 26 17 31 18 32 19 33 20 42 21 34 22 37 23 41 24
REMARK SMILES IDX 38 25 40 26 39 27 35 28 36 29 11 30 12 31 13 33 14 34 19 35
REMARK SMILES IDX 15 36 18 37 16 38 17 39 20 40 21 41 8 43 7 44 6 45 5 46 3 47
REMARK SMILES IDX 4 48 2 49 1 50
REMARK H PARENT 43 5 27 10 11 32
REMARK Flexibility Score: 80.00
ROOT
ATOM      1  C   UNL     1      16.123  70.536  78.532  1.00  0.00     0.035 C 
ENDROOT
BRANCH   1   2
ATOM      2  C   UNL     1      16.402  71.245  77.194  1.00  0.00     0.171 C 
BRANCH   2   3
ATOM      3  C   UNL     1      15.358  70.912  76.169  1.00  0.00     0.243 C 
ATOM      4  N   UNL     1      15.042  71.867  75.150  1.00  0.00    -0.342 N 
ATOM      5  H   UNL     1      15.175  72.876  75.377  1.00  0.00     0.164 HD
ATOM      6  O   UNL     1      14.845  69.759  76.135  1.00  0.00    -0.273 OA
BRANCH   4   7
ATOM      7  C   UNL     1      14.878  71.453  73.757  1.00  0.00     0.175 C 
BRANCH   7   8
ATOM      8  C   UNL     1      16.225  71.279  73.099  1.00  0.00     0.243 C 
ATOM      9  N   UNL     1      17.438  71.549  73.827  1.00  0.00    -0.342 N 
ATOM     10  H   UNL     1      17.353  71.822  74.832  1.00  0.00     0.164 HD
ATOM     11  O   UNL     1      16.272  70.915  71.894  1.00  0.00    -0.273 OA
BRANCH   9  12
ATOM     12  C   UNL     1      18.776  71.343  73.268  1.00  0.00     0.174 CG0
ATOM     13  G   UNL     1      19.769  72.217  74.018  1.00  0.00     0.000 G0
BRANCH  12  14
ATOM     14  C   UNL     1      18.730  71.433  71.703  1.00  0.00     0.018 C 
ATOM     15  C   UNL     1      18.715  72.866  71.136  1.00  0.00     0.010 C 
BRANCH  14  16
ATOM     16  C   UNL     1      19.822  70.558  71.049  1.00  0.00     0.002 C 
ATOM     17  C   UNL     1      21.100  71.334  70.715  1.00  0.00     0.004 C 
ENDBRANCH  14  16
ENDBRANCH  12  14
ENDBRANCH   9  12
ENDBRANCH   7   8
BRANCH   7  18
ATOM     18  C   UNL     1      13.985  72.439  72.972  1.00  0.00     0.073 C 
BRANCH  18  19
ATOM     19  C   UNL     1      12.603  71.912  72.680  1.00  0.00    -0.016 A 
ATOM     20  C   UNL     1      12.153  71.422  71.457  1.00  0.00     0.134 A 
ATOM     21  C   UNL     1      11.504  71.875  73.527  1.00  0.00     0.006 A 
ATOM     22  N   UNL     1      10.847  71.096  71.543  1.00  0.00    -0.191 N 
ATOM     23  C   UNL     1      10.449  71.384  72.796  1.00  0.00     0.087 A 
ATOM     24  C   UNL     1      11.364  72.258  74.862  1.00  0.00     0.011 A 
ATOM     25  C   UNL     1       9.161  71.301  73.336  1.00  0.00     0.030 A 
ATOM     26  C   UNL     1      10.081  72.156  75.439  1.00  0.00     0.001 A 
ATOM     27  C   UNL     1       8.987  71.688  74.678  1.00  0.00     0.002 A 
BRANCH  22  28
ATOM     28  O   UNL     1      10.082  70.608  70.504  1.00  0.00    -0.417 OA
ATOM     29  C   UNL     1       9.392  71.481  69.620  1.00  0.00     0.313 C 
ENDBRANCH  22  28
ENDBRANCH  18  19
ENDBRANCH   7  18
ENDBRANCH   4   7
ENDBRANCH   2   3
BRANCH   2  30
ATOM     30  N   UNL     1      17.709  70.840  76.669  1.00  0.00    -0.343 N 
ATOM     31  C   UNL     1      18.885  71.659  76.769  1.00  0.00     0.243 C 
ATOM     32  H   UNL     1      17.791  69.879  76.268  1.00  0.00     0.164 HD
ATOM     33  O   UNL     1      18.808  72.808  77.282  1.00  0.00    -0.273 OA
BRANCH  31  34
ATOM     34  C   UNL     1      20.241  71.152  76.311  1.00  0.00     0.174 C 
ATOM     35  N   UNL     1      20.697  71.713  75.019  1.00  0.00    -0.329 N 
ATOM     36  C   UNL     1      20.269  69.612  76.259  1.00  0.00     0.035 C 
ATOM     37  C   UNL     1      22.016  71.260  74.555  1.00  0.00     0.120 C 
ATOM     38  C   UNL     1      21.655  69.111  75.839  1.00  0.00     0.004 C 
ATOM     39  C   UNL     1      22.074  69.727  74.499  1.00  0.00     0.022 C 
BRANCH  35  40
ATOM     40  C   UNL     1      19.786  72.209  74.027  1.00  0.00     0.246 CG0
ATOM     41  O   UNL     1      19.819  73.440  73.746  1.00  0.00    -0.272 OA
ATOM     42  G   UNL     1      18.784  71.334  73.288  1.00  0.00     0.000 G0
ENDBRANCH  35  40
ENDBRANCH  31  34
ENDBRANCH   2  30
ENDBRANCH   1   2
BRANCH   1  43
ATOM     43  C   UNL     1      16.580  71.392  79.725  1.00  0.00     0.003 C 
BRANCH  43  44
ATOM     44  C   UNL     1      16.336  70.698  81.082  1.00  0.00     0.001 C 
BRANCH  44  45
ATOM     45  C   UNL     1      17.628  70.342  81.844  1.00  0.00     0.008 C 
BRANCH  45  46
ATOM     46  C   UNL     1      17.727  68.848  82.178  1.00  0.00     0.075 C 
BRANCH  46  47
ATOM     47  C   UNL     1      19.012  68.263  81.658  1.00  0.00     0.132 C 
ATOM     48  O   UNL     1      19.498  67.288  82.213  1.00  0.00    -0.300 OA
BRANCH  47  49
ATOM     49  C   UNL     1      19.662  68.839  80.422  1.00  0.00     0.072 C 
ATOM     50  C   UNL     1      19.046  68.310  79.125  1.00  0.00     0.012 C 
ENDBRANCH  47  49
ENDBRANCH  46  47
ENDBRANCH  45  46
ENDBRANCH  44  45
ENDBRANCH  43  44
ENDBRANCH   1  43
TORSDOF 12
ENDMDL
MODEL 6
REMARK VINA RESULT:    -5.739      3.162      8.022
REMARK INTER + INTRA:         -12.082
REMARK INTER:                 -14.810
REMARK INTRA:                   2.729
REMARK UNBOUND:                 0.032
REMARK SMILES CCC(=O)CCCCC[C@H]1NC(=O)[C@H]2CCCCN2C(=O)[C@H]([C@@H](C)CC)NC(=O)[C@H](Cc2cn(OC)c3ccccc23)NC1=O
REMARK SMILES IDX 9 1 10 2 44 3 43 4 45 6 30 7 28 8 27 9 29 11 22 12 23 14
REMARK SMILES IDX 24 15 25 16 26 17 31 18 32 19 33 20 42 21 34 22 37 23 41 24
REMARK SMILES IDX 38 25 40 26 39 27 35 28 36 29 11 30 12 31 13 33 14 34 19 35
REMARK SMILES IDX 15 36 18 37 16 38 17 39 20 40 21 41 8 43 7 44 6 45 5 46 3 47
REMARK SMILES IDX 4 48 2 49 1 50
REMARK H PARENT 43 5 27 10 11 32
REMARK Flexibility Score: 80.00
ROOT
ATOM      1  C   UNL     1      15.098  71.031  78.219  1.00  0.00     0.035 C 
ENDROOT
BRANCH   1   2
ATOM      2  C   UNL     1      16.433  71.166  78.973  1.00  0.00     0.171 C 
BRANCH   2   3
ATOM      3  C   UNL     1      17.256  69.917  78.858  1.00  0.00     0.243 C 
ATOM      4  N   UNL     1      18.661  70.021  78.600  1.00  0.00    -0.342 N 
ATOM      5  H   UNL     1      18.993  70.854  78.070  1.00  0.00     0.164 HD
ATOM      6  O   UNL     1      16.740  68.791  79.101  1.00  0.00    -0.273 OA
BRANCH   4   7
ATOM      7  C   UNL     1      19.622  69.197  79.333  1.00  0.00     0.175 C 
BRANCH   7   8
ATOM      8  C   UNL     1      19.529  69.473  80.814  1.00  0.00     0.243 C 
ATOM      9  N   UNL     1      19.176  70.783  81.296  1.00  0.00    -0.342 N 
ATOM     10  H   UNL     1      18.944  71.517  80.589  1.00  0.00     0.164 HD
ATOM     11  O   UNL     1      19.788  68.544  81.625  1.00  0.00    -0.273 OA
BRANCH   9  12
ATOM     12  C   UNL     1      19.010  71.102  82.715  1.00  0.00     0.174 CG0
ATOM     13  G   UNL     1      17.525  71.154  83.043  1.00  0.00     0.000 G0
BRANCH  12  14
ATOM     14  C   UNL     1      19.907  72.327  83.105  1.00  0.00     0.018 C 
ATOM     15  C   UNL     1      19.509  73.660  82.443  1.00  0.00     0.010 C 
BRANCH  14  16
ATOM     16  C   UNL     1      20.059  72.458  84.637  1.00  0.00     0.002 C 
ATOM     17  C   UNL     1      21.506  72.311  85.116  1.00  0.00     0.004 C 
ENDBRANCH  14  16
ENDBRANCH  12  14
ENDBRANCH   9  12
ENDBRANCH   7   8
BRANCH   7  18
ATOM     18  C   UNL     1      21.060  69.397  78.807  1.00  0.00     0.073 C 
BRANCH  18  19
ATOM     19  C   UNL     1      21.137  69.663  77.324  1.00  0.00    -0.016 A 
ATOM     20  C   UNL     1      22.191  69.317  76.483  1.00  0.00     0.134 A 
ATOM     21  C   UNL     1      20.232  70.353  76.530  1.00  0.00     0.006 A 
ATOM     22  N   UNL     1      21.948  69.765  75.233  1.00  0.00    -0.191 N 
ATOM     23  C   UNL     1      20.766  70.407  75.265  1.00  0.00     0.087 A 
ATOM     24  C   UNL     1      19.007  70.947  76.842  1.00  0.00     0.011 A 
ATOM     25  C   UNL     1      20.137  71.115  74.235  1.00  0.00     0.030 A 
ATOM     26  C   UNL     1      18.338  71.641  75.813  1.00  0.00     0.001 A 
ATOM     27  C   UNL     1      18.904  71.730  74.522  1.00  0.00     0.002 A 
BRANCH  22  28
ATOM     28  O   UNL     1      22.802  69.618  74.161  1.00  0.00    -0.417 OA
ATOM     29  C   UNL     1      23.350  70.745  73.491  1.00  0.00     0.313 C 
ENDBRANCH  22  28
ENDBRANCH  18  19
ENDBRANCH   7  18
ENDBRANCH   4   7
ENDBRANCH   2   3
BRANCH   2  30
ATOM     30  N   UNL     1      16.188  71.429  80.393  1.00  0.00    -0.343 N 
ATOM     31  C   UNL     1      16.206  72.747  80.964  1.00  0.00     0.243 C 
ATOM     32  H   UNL     1      15.920  70.618  80.995  1.00  0.00     0.164 HD
ATOM     33  O   UNL     1      16.495  73.740  80.242  1.00  0.00    -0.273 OA
BRANCH  31  34
ATOM     34  C   UNL     1      15.837  72.983  82.418  1.00  0.00     0.174 C 
ATOM     35  N   UNL     1      16.729  72.311  83.390  1.00  0.00    -0.329 N 
ATOM     36  C   UNL     1      14.371  72.593  82.689  1.00  0.00     0.035 C 
ATOM     37  C   UNL     1      16.414  72.534  84.808  1.00  0.00     0.120 C 
ATOM     38  C   UNL     1      13.996  72.877  84.147  1.00  0.00     0.004 C 
ATOM     39  C   UNL     1      14.955  72.158  85.105  1.00  0.00     0.022 C 
BRANCH  35  40
ATOM     40  C   UNL     1      17.484  71.135  83.062  1.00  0.00     0.246 CG0
ATOM     41  O   UNL     1      16.887  70.022  83.059  1.00  0.00    -0.272 OA
ATOM     42  G   UNL     1      18.964  71.152  82.712  1.00  0.00     0.000 G0
ENDBRANCH  35  40
ENDBRANCH  31  34
ENDBRANCH   2  30
ENDBRANCH   1   2
BRANCH   1  43
ATOM     43  C   UNL     1      15.312  70.493  76.794  1.00  0.00     0.003 C 
BRANCH  43  44
ATOM     44  C   UNL     1      14.004  69.994  76.144  1.00  0.00     0.001 C 
BRANCH  44  45
ATOM     45  C   UNL     1      13.666  70.684  74.808  1.00  0.00     0.008 C 
BRANCH  45  46
ATOM     46  C   UNL     1      14.873  71.400  74.187  1.00  0.00     0.075 C 
BRANCH  46  47
ATOM     47  C   UNL     1      15.180  70.852  72.820  1.00  0.00     0.132 C 
ATOM     48  O   UNL     1      14.521  69.918  72.384  1.00  0.00    -0.300 OA
BRANCH  47  49
ATOM     49  C   UNL     1      16.252  71.491  71.970  1.00  0.00     0.072 C 
ATOM     50  C   UNL     1      16.628  72.896  72.443  1.00  0.00     0.012 C 
ENDBRANCH  47  49
ENDBRANCH  46  47
ENDBRANCH  45  46
ENDBRANCH  44  45
ENDBRANCH  43  44
ENDBRANCH   1  43
TORSDOF 12
ENDMDL
MODEL 7
REMARK VINA RESULT:    -5.645      1.996      8.049
REMARK INTER + INTRA:         -11.883
REMARK INTER:                 -13.056
REMARK INTRA:                   1.173
REMARK UNBOUND:                 0.032
REMARK SMILES CCC(=O)CCCCC[C@H]1NC(=O)[C@H]2CCCCN2C(=O)[C@H]([C@@H](C)CC)NC(=O)[C@H](Cc2cn(OC)c3ccccc23)NC1=O
REMARK SMILES IDX 9 1 10 2 44 3 43 4 45 6 30 7 28 8 27 9 29 11 22 12 23 14
REMARK SMILES IDX 24 15 25 16 26 17 31 18 32 19 33 20 42 21 34 22 37 23 41 24
REMARK SMILES IDX 38 25 40 26 39 27 35 28 36 29 11 30 12 31 13 33 14 34 19 35
REMARK SMILES IDX 15 36 18 37 16 38 17 39 20 40 21 41 8 43 7 44 6 45 5 46 3 47
REMARK SMILES IDX 4 48 2 49 1 50
REMARK H PARENT 43 5 27 10 11 32
REMARK Flexibility Score: 80.00
ROOT
ATOM      1  C   UNL     1      15.756  70.382  78.295  1.00  0.00     0.035 C 
ENDROOT
BRANCH   1   2
ATOM      2  C   UNL     1      16.143  71.123  77.002  1.00  0.00     0.171 C 
BRANCH   2   3
ATOM      3  C   UNL     1      15.210  70.783  75.876  1.00  0.00     0.243 C 
ATOM      4  N   UNL     1      14.999  71.732  74.826  1.00  0.00    -0.342 N 
ATOM      5  H   UNL     1      15.104  72.742  75.061  1.00  0.00     0.164 HD
ATOM      6  O   UNL     1      14.707  69.627  75.794  1.00  0.00    -0.273 OA
BRANCH   4   7
ATOM      7  C   UNL     1      14.980  71.312  73.425  1.00  0.00     0.175 C 
BRANCH   7   8
ATOM      8  C   UNL     1      16.382  71.281  72.868  1.00  0.00     0.243 C 
ATOM      9  N   UNL     1      17.521  71.421  73.737  1.00  0.00    -0.342 N 
ATOM     10  H   UNL     1      17.344  71.497  74.764  1.00  0.00     0.164 HD
ATOM     11  O   UNL     1      16.541  71.155  71.624  1.00  0.00    -0.273 OA
BRANCH   9  12
ATOM     12  C   UNL     1      18.907  71.341  73.270  1.00  0.00     0.174 CG0
ATOM     13  G   UNL     1      19.783  72.211  74.159  1.00  0.00     0.000 G0
BRANCH  12  14
ATOM     14  C   UNL     1      18.969  71.553  71.718  1.00  0.00     0.018 C 
ATOM     15  C   UNL     1      18.622  72.977  71.242  1.00  0.00     0.010 C 
BRANCH  14  16
ATOM     16  C   UNL     1      20.304  71.049  71.127  1.00  0.00     0.002 C 
ATOM     17  C   UNL     1      20.392  69.521  71.048  1.00  0.00     0.004 C 
ENDBRANCH  14  16
ENDBRANCH  12  14
ENDBRANCH   9  12
ENDBRANCH   7   8
BRANCH   7  18
ATOM     18  C   UNL     1      14.050  72.205  72.575  1.00  0.00     0.073 C 
BRANCH  18  19
ATOM     19  C   UNL     1      12.585  72.045  72.898  1.00  0.00    -0.016 A 
ATOM     20  C   UNL     1      11.960  72.430  74.081  1.00  0.00     0.134 A 
ATOM     21  C   UNL     1      11.602  71.432  72.135  1.00  0.00     0.006 A 
ATOM     22  N   UNL     1      10.657  72.078  74.049  1.00  0.00    -0.191 N 
ATOM     23  C   UNL     1      10.443  71.459  72.873  1.00  0.00     0.087 A 
ATOM     24  C   UNL     1      11.659  70.841  70.871  1.00  0.00     0.011 A 
ATOM     25  C   UNL     1       9.274  70.839  72.421  1.00  0.00     0.030 A 
ATOM     26  C   UNL     1      10.485  70.236  70.379  1.00  0.00     0.001 A 
ATOM     27  C   UNL     1       9.303  70.229  71.154  1.00  0.00     0.002 A 
BRANCH  22  28
ATOM     28  O   UNL     1       9.757  72.284  75.072  1.00  0.00    -0.417 OA
ATOM     29  C   UNL     1      10.041  71.875  76.403  1.00  0.00     0.313 C 
ENDBRANCH  22  28
ENDBRANCH  18  19
ENDBRANCH   7  18
ENDBRANCH   4   7
ENDBRANCH   2   3
BRANCH   2  30
ATOM     30  N   UNL     1      17.504  70.762  76.598  1.00  0.00    -0.343 N 
ATOM     31  C   UNL     1      18.634  71.631  76.778  1.00  0.00     0.243 C 
ATOM     32  H   UNL     1      17.658  69.798  76.227  1.00  0.00     0.164 HD
ATOM     33  O   UNL     1      18.469  72.785  77.256  1.00  0.00    -0.273 OA
BRANCH  31  34
ATOM     34  C   UNL     1      20.043  71.171  76.447  1.00  0.00     0.174 C 
ATOM     35  N   UNL     1      20.600  71.756  75.207  1.00  0.00    -0.329 N 
ATOM     36  C   UNL     1      20.127  69.633  76.390  1.00  0.00     0.035 C 
ATOM     37  C   UNL     1      21.971  71.350  74.867  1.00  0.00     0.120 C 
ATOM     38  C   UNL     1      21.561  69.180  76.100  1.00  0.00     0.004 C 
ATOM     39  C   UNL     1      22.084  69.820  74.809  1.00  0.00     0.022 C 
BRANCH  35  40
ATOM     40  C   UNL     1      19.771  72.231  74.136  1.00  0.00     0.246 CG0
ATOM     41  O   UNL     1      19.745  73.472  73.903  1.00  0.00    -0.272 OA
ATOM     42  G   UNL     1      18.922  71.322  73.259  1.00  0.00     0.000 G0
ENDBRANCH  35  40
ENDBRANCH  31  34
ENDBRANCH   2  30
ENDBRANCH   1   2
BRANCH   1  43
ATOM     43  C   UNL     1      17.000  70.006  79.118  1.00  0.00     0.003 C 
BRANCH  43  44
ATOM     44  C   UNL     1      16.654  69.597  80.564  1.00  0.00     0.001 C 
BRANCH  44  45
ATOM     45  C   UNL     1      17.229  70.542  81.637  1.00  0.00     0.008 C 
BRANCH  45  46
ATOM     46  C   UNL     1      17.626  71.912  81.071  1.00  0.00     0.075 C 
BRANCH  46  47
ATOM     47  C   UNL     1      16.505  72.904  81.225  1.00  0.00     0.132 C 
ATOM     48  O   UNL     1      16.753  74.101  81.188  1.00  0.00    -0.300 OA
BRANCH  47  49
ATOM     49  C   UNL     1      15.080  72.424  81.363  1.00  0.00     0.072 C 
ATOM     50  C   UNL     1      14.225  73.344  82.237  1.00  0.00     0.012 C 
ENDBRANCH  47  49
ENDBRANCH  46  47
ENDBRANCH  45  46
ENDBRANCH  44  45
ENDBRANCH  43  44
ENDBRANCH   1  43
TORSDOF 12
ENDMDL
MODEL 8
REMARK VINA RESULT:    -5.363      2.115      8.345
REMARK INTER + INTRA:         -11.288
REMARK INTER:                 -11.723
REMARK INTRA:                   0.435
REMARK UNBOUND:                 0.032
REMARK SMILES CCC(=O)CCCCC[C@H]1NC(=O)[C@H]2CCCCN2C(=O)[C@H]([C@@H](C)CC)NC(=O)[C@H](Cc2cn(OC)c3ccccc23)NC1=O
REMARK SMILES IDX 9 1 10 2 44 3 43 4 45 6 30 7 28 8 27 9 29 11 22 12 23 14
REMARK SMILES IDX 24 15 25 16 26 17 31 18 32 19 33 20 42 21 34 22 37 23 41 24
REMARK SMILES IDX 38 25 40 26 39 27 35 28 36 29 11 30 12 31 13 33 14 34 19 35
REMARK SMILES IDX 15 36 18 37 16 38 17 39 20 40 21 41 8 43 7 44 6 45 5 46 3 47
REMARK SMILES IDX 4 48 2 49 1 50
REMARK H PARENT 43 5 27 10 11 32
REMARK Flexibility Score: 80.00
ROOT
ATOM      1  C   UNL     1      15.798  70.365  78.286  1.00  0.00     0.035 C 
ENDROOT
BRANCH   1   2
ATOM      2  C   UNL     1      16.122  71.148  77.001  1.00  0.00     0.171 C 
BRANCH   2   3
ATOM      3  C   UNL     1      15.134  70.849  75.912  1.00  0.00     0.243 C 
ATOM      4  N   UNL     1      14.890  71.826  74.895  1.00  0.00    -0.342 N 
ATOM      5  H   UNL     1      15.022  72.828  75.148  1.00  0.00     0.164 HD
ATOM      6  O   UNL     1      14.609  69.703  75.827  1.00  0.00    -0.273 OA
BRANCH   4   7
ATOM      7  C   UNL     1      14.800  71.439  73.487  1.00  0.00     0.175 C 
BRANCH   7   8
ATOM      8  C   UNL     1      16.176  71.383  72.870  1.00  0.00     0.243 C 
ATOM      9  N   UNL     1      17.347  71.665  73.659  1.00  0.00    -0.342 N 
ATOM     10  H   UNL     1      17.213  71.862  74.676  1.00  0.00     0.164 HD
ATOM     11  O   UNL     1      16.283  71.109  71.645  1.00  0.00    -0.273 OA
BRANCH   9  12
ATOM     12  C   UNL     1      18.712  71.571  73.137  1.00  0.00     0.174 CG0
ATOM     13  G   UNL     1      19.639  72.398  74.016  1.00  0.00     0.000 G0
BRANCH  12  14
ATOM     14  C   UNL     1      18.721  71.824  71.590  1.00  0.00     0.018 C 
ATOM     15  C   UNL     1      18.473  73.286  71.170  1.00  0.00     0.010 C 
BRANCH  14  16
ATOM     16  C   UNL     1      19.981  71.230  70.922  1.00  0.00     0.002 C 
ATOM     17  C   UNL     1      20.133  69.723  71.151  1.00  0.00     0.004 C 
ENDBRANCH  14  16
ENDBRANCH  12  14
ENDBRANCH   9  12
ENDBRANCH   7   8
BRANCH   7  18
ATOM     18  C   UNL     1      13.860  72.377  72.698  1.00  0.00     0.073 C 
BRANCH  18  19
ATOM     19  C   UNL     1      12.501  71.787  72.418  1.00  0.00    -0.016 A 
ATOM     20  C   UNL     1      12.094  71.194  71.226  1.00  0.00     0.134 A 
ATOM     21  C   UNL     1      11.385  71.777  73.243  1.00  0.00     0.006 A 
ATOM     22  N   UNL     1      10.797  70.834  71.310  1.00  0.00    -0.191 N 
ATOM     23  C   UNL     1      10.362  71.201  72.529  1.00  0.00     0.087 A 
ATOM     24  C   UNL     1      11.202  72.254  74.543  1.00  0.00     0.011 A 
ATOM     25  C   UNL     1       9.065  71.118  73.047  1.00  0.00     0.030 A 
ATOM     26  C   UNL     1       9.911  72.154  75.099  1.00  0.00     0.001 A 
ATOM     27  C   UNL     1       8.849  71.597  74.352  1.00  0.00     0.002 A 
BRANCH  22  28
ATOM     28  O   UNL     1      10.072  70.248  70.294  1.00  0.00    -0.417 OA
ATOM     29  C   UNL     1       8.872  70.833  69.808  1.00  0.00     0.313 C 
ENDBRANCH  22  28
ENDBRANCH  18  19
ENDBRANCH   7  18
ENDBRANCH   4   7
ENDBRANCH   2   3
BRANCH   2  30
ATOM     30  N   UNL     1      17.461  70.797  76.518  1.00  0.00    -0.343 N 
ATOM     31  C   UNL     1      18.601  71.658  76.667  1.00  0.00     0.243 C 
ATOM     32  H   UNL     1      17.593  69.845  76.111  1.00  0.00     0.164 HD
ATOM     33  O   UNL     1      18.464  72.798  77.188  1.00  0.00    -0.273 OA
BRANCH  31  34
ATOM     34  C   UNL     1      19.990  71.207  76.252  1.00  0.00     0.174 C 
ATOM     35  N   UNL     1      20.498  71.851  75.020  1.00  0.00    -0.329 N 
ATOM     36  C   UNL     1      20.057  69.673  76.113  1.00  0.00     0.035 C 
ATOM     37  C   UNL     1      21.849  71.453  74.600  1.00  0.00     0.120 C 
ATOM     38  C   UNL     1      21.474  69.226  75.738  1.00  0.00     0.004 C 
ATOM     39  C   UNL     1      21.945  69.928  74.458  1.00  0.00     0.022 C 
BRANCH  35  40
ATOM     40  C   UNL     1      19.627  72.386  74.012  1.00  0.00     0.246 CG0
ATOM     41  O   UNL     1      19.612  73.636  73.835  1.00  0.00    -0.272 OA
ATOM     42  G   UNL     1      18.721  71.530  73.138  1.00  0.00     0.000 G0
ENDBRANCH  35  40
ENDBRANCH  31  34
ENDBRANCH   2  30
ENDBRANCH   1   2
BRANCH   1  43
ATOM     43  C   UNL     1      16.933  70.484  79.316  1.00  0.00     0.003 C 
BRANCH  43  44
ATOM     44  C   UNL     1      16.964  71.861  80.011  1.00  0.00     0.001 C 
BRANCH  44  45
ATOM     45  C   UNL     1      17.021  71.785  81.549  1.00  0.00     0.008 C 
BRANCH  45  46
ATOM     46  C   UNL     1      15.842  71.008  82.150  1.00  0.00     0.075 C 
BRANCH  46  47
ATOM     47  C   UNL     1      14.833  71.944  82.759  1.00  0.00     0.132 C 
ATOM     48  O   UNL     1      14.507  71.799  83.928  1.00  0.00    -0.300 OA
BRANCH  47  49
ATOM     49  C   UNL     1      14.277  73.091  81.949  1.00  0.00     0.072 C 
ATOM     50  C   UNL     1      12.883  73.523  82.410  1.00  0.00     0.012 C 
ENDBRANCH  47  49
ENDBRANCH  46  47
ENDBRANCH  45  46
ENDBRANCH  44  45
ENDBRANCH  43  44
ENDBRANCH   1  43
TORSDOF 12
ENDMDL
MODEL 9
REMARK VINA RESULT:    -5.062      2.517      6.373
REMARK INTER + INTRA:         -10.652
REMARK INTER:                 -10.065
REMARK INTRA:                  -0.587
REMARK UNBOUND:                 0.032
REMARK SMILES CCC(=O)CCCCC[C@H]1NC(=O)[C@H]2CCCCN2C(=O)[C@H]([C@@H](C)CC)NC(=O)[C@H](Cc2cn(OC)c3ccccc23)NC1=O
REMARK SMILES IDX 9 1 10 2 44 3 43 4 45 6 30 7 28 8 27 9 29 11 22 12 23 14
REMARK SMILES IDX 24 15 25 16 26 17 31 18 32 19 33 20 42 21 34 22 37 23 41 24
REMARK SMILES IDX 38 25 40 26 39 27 35 28 36 29 11 30 12 31 13 33 14 34 19 35
REMARK SMILES IDX 15 36 18 37 16 38 17 39 20 40 21 41 8 43 7 44 6 45 5 46 3 47
REMARK SMILES IDX 4 48 2 49 1 50
REMARK H PARENT 43 5 27 10 11 32
REMARK Flexibility Score: 80.00
ROOT
ATOM      1  C   UNL     1      20.023  69.904  75.381  1.00  0.00     0.035 C 
ENDROOT
BRANCH   1   2
ATOM      2  C   UNL     1      19.771  71.180  76.204  1.00  0.00     0.171 C 
BRANCH   2   3
ATOM      3  C   UNL     1      19.049  70.873  77.484  1.00  0.00     0.243 C 
ATOM      4  N   UNL     1      17.988  71.731  77.916  1.00  0.00    -0.342 N 
ATOM      5  H   UNL     1      18.028  72.731  77.627  1.00  0.00     0.164 HD
ATOM      6  O   UNL     1      19.296  69.806  78.113  1.00  0.00    -0.273 OA
BRANCH   4   7
ATOM      7  C   UNL     1      16.738  71.175  78.436  1.00  0.00     0.175 C 
BRANCH   7   8
ATOM      8  C   UNL     1      15.962  70.504  77.329  1.00  0.00     0.243 C 
ATOM      9  N   UNL     1      15.802  71.146  76.050  1.00  0.00    -0.342 N 
ATOM     10  H   UNL     1      16.278  72.064  75.903  1.00  0.00     0.164 HD
ATOM     11  O   UNL     1      15.435  69.381  77.550  1.00  0.00    -0.273 OA
BRANCH   9  12
ATOM     12  C   UNL     1      15.114  70.524  74.917  1.00  0.00     0.174 CG0
ATOM     13  G   UNL     1      15.677  71.089  73.622  1.00  0.00     0.000 G0
BRANCH  12  14
ATOM     14  C   UNL     1      13.562  70.560  75.138  1.00  0.00     0.018 C 
ATOM     15  C   UNL     1      13.087  71.515  76.251  1.00  0.00     0.010 C 
BRANCH  14  16
ATOM     16  C   UNL     1      12.802  70.783  73.812  1.00  0.00     0.002 C 
ATOM     17  C   UNL     1      11.780  71.922  73.885  1.00  0.00     0.004 C 
ENDBRANCH  14  16
ENDBRANCH  12  14
ENDBRANCH   9  12
ENDBRANCH   7   8
BRANCH   7  18
ATOM     18  C   UNL     1      15.892  72.252  79.151  1.00  0.00     0.073 C 
BRANCH  18  19
ATOM     19  C   UNL     1      16.064  72.269  80.649  1.00  0.00    -0.016 A 
ATOM     20  C   UNL     1      17.210  71.896  81.347  1.00  0.00     0.134 A 
ATOM     21  C   UNL     1      15.120  72.583  81.617  1.00  0.00     0.006 A 
ATOM     22  N   UNL     1      16.987  71.978  82.675  1.00  0.00    -0.191 N 
ATOM     23  C   UNL     1      15.714  72.382  82.839  1.00  0.00     0.087 A 
ATOM     24  C   UNL     1      13.793  73.001  81.499  1.00  0.00     0.011 A 
ATOM     25  C   UNL     1      14.999  72.526  84.033  1.00  0.00     0.030 A 
ATOM     26  C   UNL     1      13.058  73.184  82.689  1.00  0.00     0.001 A 
ATOM     27  C   UNL     1      13.656  72.939  83.946  1.00  0.00     0.002 A 
BRANCH  22  28
ATOM     28  O   UNL     1      17.903  71.652  83.653  1.00  0.00    -0.417 OA
ATOM     29  C   UNL     1      18.262  70.301  83.909  1.00  0.00     0.313 C 
ENDBRANCH  22  28
ENDBRANCH  18  19
ENDBRANCH   7  18
ENDBRANCH   4   7
ENDBRANCH   2   3
BRANCH   2  30
ATOM     30  N   UNL     1      18.962  72.129  75.435  1.00  0.00    -0.343 N 
ATOM     31  C   UNL     1      18.485  71.860  74.106  1.00  0.00     0.243 C 
ATOM     32  H   UNL     1      18.667  73.010  75.912  1.00  0.00     0.164 HD
ATOM     33  O   UNL     1      18.805  70.785  73.531  1.00  0.00    -0.273 OA
BRANCH  31  34
ATOM     34  C   UNL     1      17.557  72.825  73.391  1.00  0.00     0.174 C 
ATOM     35  N   UNL     1      16.127  72.442  73.436  1.00  0.00    -0.329 N 
ATOM     36  C   UNL     1      18.000  73.043  71.931  1.00  0.00     0.035 C 
ATOM     37  C   UNL     1      15.197  73.365  72.771  1.00  0.00     0.120 C 
ATOM     38  C   UNL     1      17.083  74.052  71.233  1.00  0.00     0.004 C 
ATOM     39  C   UNL     1      15.618  73.605  71.315  1.00  0.00     0.022 C 
BRANCH  35  40
ATOM     40  C   UNL     1      15.695  71.083  73.607  1.00  0.00     0.246 CG0
ATOM     41  O   UNL     1      15.792  70.296  72.624  1.00  0.00    -0.272 OA
ATOM     42  G   UNL     1      15.130  70.535  74.909  1.00  0.00     0.000 G0
ENDBRANCH  35  40
ENDBRANCH  31  34
ENDBRANCH   2  30
ENDBRANCH   1   2
BRANCH   1  43
ATOM     43  C   UNL     1      21.527  69.640  75.204  1.00  0.00     0.003 C 
BRANCH  43  44
ATOM     44  C   UNL     1      22.322  70.923  74.880  1.00  0.00     0.001 C 
BRANCH  44  45
ATOM     45  C   UNL     1      22.130  71.431  73.438  1.00  0.00     0.008 C 
BRANCH  45  46
ATOM     46  C   UNL     1      22.179  70.303  72.399  1.00  0.00     0.075 C 
BRANCH  46  47
ATOM     47  C   UNL     1      21.165  70.529  71.310  1.00  0.00     0.132 C 
ATOM     48  O   UNL     1      21.182  71.578  70.681  1.00  0.00    -0.300 OA
BRANCH  47  49
ATOM     49  C   UNL     1      20.177  69.443  70.956  1.00  0.00     0.072 C 
ATOM     50  C   UNL     1      20.530  68.719  69.656  1.00  0.00     0.012 C 
ENDBRANCH  47  49
ENDBRANCH  46  47
ENDBRANCH  45  46
ENDBRANCH  44  45
ENDBRANCH  43  44
ENDBRANCH   1  43
TORSDOF 12
ENDMDL
