MODEL 1
REMARK VINA RESULT:    -4.271      0.000      0.000
REMARK INTER + INTRA:          -7.650
REMARK INTER:                  -7.268
REMARK INTRA:                  -0.382
REMARK UNBOUND:                -0.382
REMARK SMILES CCCCCCCCCCCCCC(=O)[O-]
REMARK SMILES IDX 8 1 9 2 10 3 11 4 12 5 13 6 14 7 15 8 16 9 7 10 6 11 5 12
REMARK SMILES IDX 4 13 3 14 2 15 1 16
REMARK H PARENT
REMARK Flexibility Score: inf
ROOT
ATOM      1  C   UNL     1     -18.315 -18.380  -3.322  1.00  0.00     0.000 C 
ENDROOT
BRANCH   1   2
ATOM      2  C   UNL     1     -17.548 -17.098  -3.695  1.00  0.00     0.000 C 
BRANCH   2   3
ATOM      3  C   UNL     1     -16.066 -17.152  -3.290  1.00  0.00     0.000 C 
BRANCH   3   4
ATOM      4  C   UNL     1     -15.422 -15.759  -3.181  1.00  0.00     0.000 C 
BRANCH   4   5
ATOM      5  C   UNL     1     -16.180 -14.621  -3.894  1.00  0.00     0.006 C 
BRANCH   5   6
ATOM      6  C   UNL     1     -16.013 -14.616  -5.425  1.00  0.00     0.053 C 
BRANCH   6   7
ATOM      7  C   UNL     1     -16.355 -13.292  -6.039  1.00  0.00     0.041 C 
ATOM      8  O   UNL     1     -17.272 -13.209  -6.900  1.00  0.00    -0.550 OA
ATOM      9  O   UNL     1     -15.692 -12.141  -5.632  1.00  0.00    -0.550 OA
ENDBRANCH   6   7
ENDBRANCH   5   6
ENDBRANCH   4   5
ENDBRANCH   3   4
ENDBRANCH   2   3
ENDBRANCH   1   2
BRANCH   1  10
ATOM     10  C   UNL     1     -18.917 -19.153  -4.512  1.00  0.00     0.000 C 
BRANCH  10  11
ATOM     11  C   UNL     1     -20.408 -19.520  -4.369  1.00  0.00    -0.000 C 
BRANCH  11  12
ATOM     12  C   UNL     1     -20.750 -20.992  -4.662  1.00  0.00    -0.000 C 
BRANCH  12  13
ATOM     13  C   UNL     1     -22.031 -21.151  -5.498  1.00  0.00    -0.000 C 
BRANCH  13  14
ATOM     14  C   UNL     1     -22.460 -19.838  -6.175  1.00  0.00    -0.000 C 
BRANCH  14  15
ATOM     15  C   UNL     1     -23.960 -19.550  -6.014  1.00  0.00    -0.003 C 
ATOM     16  C   UNL     1     -24.742 -20.837  -5.763  1.00  0.00     0.004 C 
ENDBRANCH  14  15
ENDBRANCH  13  14
ENDBRANCH  12  13
ENDBRANCH  11  12
ENDBRANCH  10  11
ENDBRANCH   1  10
TORSDOF 12
ENDMDL
MODEL 2
REMARK VINA RESULT:    -4.205     11.255     11.784
REMARK INTER + INTRA:          -7.538
REMARK INTER:                  -5.901
REMARK INTRA:                  -1.637
REMARK UNBOUND:                -0.382
REMARK SMILES CCCCCCCCCCCCCC(=O)[O-]
REMARK SMILES IDX 8 1 9 2 10 3 11 4 12 5 13 6 14 7 15 8 16 9 7 10 6 11 5 12
REMARK SMILES IDX 4 13 3 14 2 15 1 16
REMARK H PARENT
REMARK Flexibility Score: inf
ROOT
ATOM      1  C   UNL     1     -24.162 -13.844   5.265  1.00  0.00     0.000 C 
ENDROOT
BRANCH   1   2
ATOM      2  C   UNL     1     -24.176 -12.373   5.718  1.00  0.00     0.000 C 
BRANCH   2   3
ATOM      3  C   UNL     1     -24.289 -11.388   4.542  1.00  0.00     0.000 C 
BRANCH   3   4
ATOM      4  C   UNL     1     -23.484 -10.096   4.762  1.00  0.00     0.000 C 
BRANCH   4   5
ATOM      5  C   UNL     1     -22.039 -10.291   5.260  1.00  0.00     0.006 C 
BRANCH   5   6
ATOM      6  C   UNL     1     -20.966 -10.077   4.175  1.00  0.00     0.053 C 
BRANCH   6   7
ATOM      7  C   UNL     1     -20.234 -11.339   3.829  1.00  0.00     0.041 C 
ATOM      8  O   UNL     1     -18.985 -11.324   3.663  1.00  0.00    -0.550 OA
ATOM      9  O   UNL     1     -20.925 -12.540   3.729  1.00  0.00    -0.550 OA
ENDBRANCH   6   7
ENDBRANCH   5   6
ENDBRANCH   4   5
ENDBRANCH   3   4
ENDBRANCH   2   3
ENDBRANCH   1   2
BRANCH   1  10
ATOM     10  C   UNL     1     -24.106 -14.058   3.739  1.00  0.00     0.000 C 
BRANCH  10  11
ATOM     11  C   UNL     1     -24.798 -15.340   3.231  1.00  0.00    -0.000 C 
BRANCH  11  12
ATOM     12  C   UNL     1     -25.911 -15.886   4.142  1.00  0.00    -0.000 C 
BRANCH  12  13
ATOM     13  C   UNL     1     -27.312 -15.410   3.722  1.00  0.00    -0.000 C 
BRANCH  13  14
ATOM     14  C   UNL     1     -27.959 -14.485   4.767  1.00  0.00    -0.000 C 
BRANCH  14  15
ATOM     15  C   UNL     1     -27.644 -13.002   4.522  1.00  0.00    -0.003 C 
ATOM     16  C   UNL     1     -27.861 -12.630   3.057  1.00  0.00     0.004 C 
ENDBRANCH  14  15
ENDBRANCH  13  14
ENDBRANCH  12  13
ENDBRANCH  11  12
ENDBRANCH  10  11
ENDBRANCH   1  10
TORSDOF 12
ENDMDL
MODEL 3
REMARK VINA RESULT:    -4.117     11.600     13.838
REMARK INTER + INTRA:          -7.388
REMARK INTER:                  -6.473
REMARK INTRA:                  -0.915
REMARK UNBOUND:                -0.382
REMARK SMILES CCCCCCCCCCCCCC(=O)[O-]
REMARK SMILES IDX 8 1 9 2 10 3 11 4 12 5 13 6 14 7 15 8 16 9 7 10 6 11 5 12
REMARK SMILES IDX 4 13 3 14 2 15 1 16
REMARK H PARENT
REMARK Flexibility Score: inf
ROOT
ATOM      1  C   UNL     1     -25.981 -13.192   3.753  1.00  0.00     0.000 C 
ENDROOT
BRANCH   1   2
ATOM      2  C   UNL     1     -24.723 -14.062   3.926  1.00  0.00     0.000 C 
BRANCH   2   3
ATOM      3  C   UNL     1     -24.955 -15.531   3.534  1.00  0.00     0.000 C 
BRANCH   3   4
ATOM      4  C   UNL     1     -26.254 -16.110   4.121  1.00  0.00     0.000 C 
BRANCH   4   5
ATOM      5  C   UNL     1     -27.227 -16.728   3.097  1.00  0.00     0.006 C 
BRANCH   5   6
ATOM      6  C   UNL     1     -28.707 -16.383   3.347  1.00  0.00     0.053 C 
BRANCH   6   7
ATOM      7  C   UNL     1     -29.305 -15.566   2.241  1.00  0.00     0.041 C 
ATOM      8  O   UNL     1     -29.307 -14.307   2.310  1.00  0.00    -0.550 OA
ATOM      9  O   UNL     1     -29.823 -16.191   1.114  1.00  0.00    -0.550 OA
ENDBRANCH   6   7
ENDBRANCH   5   6
ENDBRANCH   4   5
ENDBRANCH   3   4
ENDBRANCH   2   3
ENDBRANCH   1   2
BRANCH   1  10
ATOM     10  C   UNL     1     -25.966 -11.857   4.524  1.00  0.00     0.000 C 
BRANCH  10  11
ATOM     11  C   UNL     1     -24.618 -11.495   5.181  1.00  0.00    -0.000 C 
BRANCH  11  12
ATOM     12  C   UNL     1     -23.913 -10.261   4.590  1.00  0.00    -0.000 C 
BRANCH  12  13
ATOM     13  C   UNL     1     -22.381 -10.392   4.595  1.00  0.00    -0.000 C 
BRANCH  13  14
ATOM     14  C   UNL     1     -21.914 -11.856   4.656  1.00  0.00    -0.000 C 
BRANCH  14  15
ATOM     15  C   UNL     1     -20.469 -12.038   4.170  1.00  0.00    -0.003 C 
ATOM     16  C   UNL     1     -19.820 -10.692   3.861  1.00  0.00     0.004 C 
ENDBRANCH  14  15
ENDBRANCH  13  14
ENDBRANCH  12  13
ENDBRANCH  11  12
ENDBRANCH  10  11
ENDBRANCH   1  10
TORSDOF 12
ENDMDL
MODEL 4
REMARK VINA RESULT:    -4.107      4.204      8.125
REMARK INTER + INTRA:          -7.371
REMARK INTER:                  -6.779
REMARK INTRA:                  -0.592
REMARK UNBOUND:                -0.382
REMARK SMILES CCCCCCCCCCCCCC(=O)[O-]
REMARK SMILES IDX 8 1 9 2 10 3 11 4 12 5 13 6 14 7 15 8 16 9 7 10 6 11 5 12
REMARK SMILES IDX 4 13 3 14 2 15 1 16
REMARK H PARENT
REMARK Flexibility Score: inf
ROOT
ATOM      1  C   UNL     1     -18.194 -18.159  -4.400  1.00  0.00     0.000 C 
ENDROOT
BRANCH   1   2
ATOM      2  C   UNL     1     -18.985 -19.474  -4.272  1.00  0.00     0.000 C 
BRANCH   2   3
ATOM      3  C   UNL     1     -20.499 -19.246  -4.122  1.00  0.00     0.000 C 
BRANCH   3   4
ATOM      4  C   UNL     1     -21.307 -19.781  -5.316  1.00  0.00     0.000 C 
BRANCH   4   5
ATOM      5  C   UNL     1     -22.587 -18.992  -5.657  1.00  0.00     0.006 C 
BRANCH   5   6
ATOM      6  C   UNL     1     -23.214 -19.365  -7.014  1.00  0.00     0.053 C 
BRANCH   6   7
ATOM      7  C   UNL     1     -24.331 -20.356  -6.881  1.00  0.00     0.041 C 
ATOM      8  O   UNL     1     -24.910 -20.517  -5.774  1.00  0.00    -0.550 OA
ATOM      9  O   UNL     1     -24.763 -21.072  -7.991  1.00  0.00    -0.550 OA
ENDBRANCH   6   7
ENDBRANCH   5   6
ENDBRANCH   4   5
ENDBRANCH   3   4
ENDBRANCH   2   3
ENDBRANCH   1   2
BRANCH   1  10
ATOM     10  C   UNL     1     -17.687 -17.568  -3.069  1.00  0.00     0.000 C 
BRANCH  10  11
ATOM     11  C   UNL     1     -16.329 -16.841  -3.149  1.00  0.00    -0.000 C 
BRANCH  11  12
ATOM     12  C   UNL     1     -15.561 -17.036  -4.469  1.00  0.00    -0.000 C 
BRANCH  12  13
ATOM     13  C   UNL     1     -15.313 -15.713  -5.214  1.00  0.00    -0.000 C 
BRANCH  13  14
ATOM     14  C   UNL     1     -16.304 -14.611  -4.803  1.00  0.00    -0.000 C 
BRANCH  14  15
ATOM     15  C   UNL     1     -16.143 -13.329  -5.634  1.00  0.00    -0.003 C 
ATOM     16  C   UNL     1     -17.092 -13.327  -6.829  1.00  0.00     0.004 C 
ENDBRANCH  14  15
ENDBRANCH  13  14
ENDBRANCH  12  13
ENDBRANCH  11  12
ENDBRANCH  10  11
ENDBRANCH   1  10
TORSDOF 12
ENDMDL
MODEL 5
REMARK VINA RESULT:    -4.103     11.350     13.336
REMARK INTER + INTRA:          -7.364
REMARK INTER:                  -6.404
REMARK INTRA:                  -0.960
REMARK UNBOUND:                -0.382
REMARK SMILES CCCCCCCCCCCCCC(=O)[O-]
REMARK SMILES IDX 8 1 9 2 10 3 11 4 12 5 13 6 14 7 15 8 16 9 7 10 6 11 5 12
REMARK SMILES IDX 4 13 3 14 2 15 1 16
REMARK H PARENT
REMARK Flexibility Score: inf
ROOT
ATOM      1  C   UNL     1     -26.227 -12.114   4.108  1.00  0.00     0.000 C 
ENDROOT
BRANCH   1   2
ATOM      2  C   UNL     1     -27.729 -12.373   3.893  1.00  0.00     0.000 C 
BRANCH   2   3
ATOM      3  C   UNL     1     -28.057 -13.866   3.722  1.00  0.00     0.000 C 
BRANCH   3   4
ATOM      4  C   UNL     1     -27.104 -14.783   4.507  1.00  0.00     0.000 C 
BRANCH   4   5
ATOM      5  C   UNL     1     -26.097 -15.579   3.652  1.00  0.00     0.006 C 
BRANCH   5   6
ATOM      6  C   UNL     1     -24.626 -15.381   4.064  1.00  0.00     0.053 C 
BRANCH   6   7
ATOM      7  C   UNL     1     -23.690 -15.406   2.894  1.00  0.00     0.041 C 
ATOM      8  O   UNL     1     -23.806 -16.292   2.005  1.00  0.00    -0.550 OA
ATOM      9  O   UNL     1     -22.714 -14.426   2.761  1.00  0.00    -0.550 OA
ENDBRANCH   6   7
ENDBRANCH   5   6
ENDBRANCH   4   5
ENDBRANCH   3   4
ENDBRANCH   2   3
ENDBRANCH   1   2
BRANCH   1  10
ATOM     10  C   UNL     1     -25.857 -11.510   5.477  1.00  0.00     0.000 C 
BRANCH  10  11
ATOM     11  C   UNL     1     -24.382 -11.684   5.894  1.00  0.00    -0.000 C 
BRANCH  11  12
ATOM     12  C   UNL     1     -23.360 -11.542   4.752  1.00  0.00    -0.000 C 
BRANCH  12  13
ATOM     13  C   UNL     1     -22.835 -10.104   4.597  1.00  0.00    -0.000 C 
BRANCH  13  14
ATOM     14  C   UNL     1     -21.354 -10.059   4.182  1.00  0.00    -0.000 C 
BRANCH  14  15
ATOM     15  C   UNL     1     -20.709 -11.451   4.135  1.00  0.00    -0.003 C 
ATOM     16  C   UNL     1     -19.272 -11.373   3.627  1.00  0.00     0.004 C 
ENDBRANCH  14  15
ENDBRANCH  13  14
ENDBRANCH  12  13
ENDBRANCH  11  12
ENDBRANCH  10  11
ENDBRANCH   1  10
TORSDOF 12
ENDMDL
MODEL 6
REMARK VINA RESULT:    -4.006     11.351     13.332
REMARK INTER + INTRA:          -7.198
REMARK INTER:                  -6.328
REMARK INTRA:                  -0.870
REMARK UNBOUND:                -0.382
REMARK SMILES CCCCCCCCCCCCCC(=O)[O-]
REMARK SMILES IDX 8 1 9 2 10 3 11 4 12 5 13 6 14 7 15 8 16 9 7 10 6 11 5 12
REMARK SMILES IDX 4 13 3 14 2 15 1 16
REMARK H PARENT
REMARK Flexibility Score: inf
ROOT
ATOM      1  C   UNL     1     -25.225 -15.811   3.794  1.00  0.00     0.000 C 
ENDROOT
BRANCH   1   2
ATOM      2  C   UNL     1     -26.672 -15.353   3.537  1.00  0.00     0.000 C 
BRANCH   2   3
ATOM      3  C   UNL     1     -27.307 -14.669   4.759  1.00  0.00     0.000 C 
BRANCH   3   4
ATOM      4  C   UNL     1     -27.540 -13.163   4.550  1.00  0.00     0.000 C 
BRANCH   4   5
ATOM      5  C   UNL     1     -27.780 -12.726   3.092  1.00  0.00     0.006 C 
BRANCH   5   6
ATOM      6  C   UNL     1     -29.184 -13.065   2.555  1.00  0.00     0.053 C 
BRANCH   6   7
ATOM      7  C   UNL     1     -29.546 -12.269   1.338  1.00  0.00     0.041 C 
ATOM      8  O   UNL     1     -29.553 -11.010   1.382  1.00  0.00    -0.550 OA
ATOM      9  O   UNL     1     -29.835 -12.915   0.143  1.00  0.00    -0.550 OA
ENDBRANCH   6   7
ENDBRANCH   5   6
ENDBRANCH   4   5
ENDBRANCH   3   4
ENDBRANCH   2   3
ENDBRANCH   1   2
BRANCH   1  10
ATOM     10  C   UNL     1     -24.196 -15.354   2.740  1.00  0.00     0.000 C 
BRANCH  10  11
ATOM     11  C   UNL     1     -23.252 -14.223   3.194  1.00  0.00    -0.000 C 
BRANCH  11  12
ATOM     12  C   UNL     1     -23.842 -13.258   4.238  1.00  0.00    -0.000 C 
BRANCH  12  13
ATOM     13  C   UNL     1     -22.810 -12.246   4.765  1.00  0.00    -0.000 C 
BRANCH  13  14
ATOM     14  C   UNL     1     -21.432 -12.411   4.101  1.00  0.00    -0.000 C 
BRANCH  14  15
ATOM     15  C   UNL     1     -20.606 -11.116   4.123  1.00  0.00    -0.003 C 
ATOM     16  C   UNL     1     -19.227 -11.335   3.504  1.00  0.00     0.004 C 
ENDBRANCH  14  15
ENDBRANCH  13  14
ENDBRANCH  12  13
ENDBRANCH  11  12
ENDBRANCH  10  11
ENDBRANCH   1  10
TORSDOF 12
ENDMDL
MODEL 7
REMARK VINA RESULT:    -3.995     11.285     13.952
REMARK INTER + INTRA:          -7.180
REMARK INTER:                  -6.606
REMARK INTRA:                  -0.574
REMARK UNBOUND:                -0.382
REMARK SMILES CCCCCCCCCCCCCC(=O)[O-]
REMARK SMILES IDX 8 1 9 2 10 3 11 4 12 5 13 6 14 7 15 8 16 9 7 10 6 11 5 12
REMARK SMILES IDX 4 13 3 14 2 15 1 16
REMARK H PARENT
REMARK Flexibility Score: inf
ROOT
ATOM      1  C   UNL     1     -24.322 -15.474   3.180  1.00  0.00     0.000 C 
ENDROOT
BRANCH   1   2
ATOM      2  C   UNL     1     -25.465 -15.791   4.161  1.00  0.00     0.000 C 
BRANCH   2   3
ATOM      3  C   UNL     1     -26.853 -15.707   3.504  1.00  0.00     0.000 C 
BRANCH   3   4
ATOM      4  C   UNL     1     -27.330 -17.054   2.935  1.00  0.00     0.000 C 
BRANCH   4   5
ATOM      5  C   UNL     1     -28.728 -17.511   3.396  1.00  0.00     0.006 C 
BRANCH   5   6
ATOM      6  C   UNL     1     -29.558 -18.204   2.300  1.00  0.00     0.053 C 
BRANCH   6   7
ATOM      7  C   UNL     1     -30.435 -17.249   1.547  1.00  0.00     0.041 C 
ATOM      8  O   UNL     1     -29.970 -16.155   1.128  1.00  0.00    -0.550 OA
ATOM      9  O   UNL     1     -31.754 -17.584   1.270  1.00  0.00    -0.550 OA
ENDBRANCH   6   7
ENDBRANCH   5   6
ENDBRANCH   4   5
ENDBRANCH   3   4
ENDBRANCH   2   3
ENDBRANCH   1   2
BRANCH   1  10
ATOM     10  C   UNL     1     -23.681 -14.082   3.349  1.00  0.00     0.000 C 
BRANCH  10  11
ATOM     11  C   UNL     1     -23.879 -13.433   4.733  1.00  0.00    -0.000 C 
BRANCH  11  12
ATOM     12  C   UNL     1     -23.845 -11.894   4.744  1.00  0.00    -0.000 C 
BRANCH  12  13
ATOM     13  C   UNL     1     -22.520 -11.331   5.286  1.00  0.00    -0.000 C 
BRANCH  13  14
ATOM     14  C   UNL     1     -21.989 -10.159   4.444  1.00  0.00    -0.000 C 
BRANCH  14  15
ATOM     15  C   UNL     1     -20.491 -10.284   4.130  1.00  0.00    -0.003 C 
ATOM     16  C   UNL     1     -20.110 -11.734   3.846  1.00  0.00     0.004 C 
ENDBRANCH  14  15
ENDBRANCH  13  14
ENDBRANCH  12  13
ENDBRANCH  11  12
ENDBRANCH  10  11
ENDBRANCH   1  10
TORSDOF 12
ENDMDL
MODEL 8
REMARK VINA RESULT:    -3.943      1.904      3.059
REMARK INTER + INTRA:          -7.092
REMARK INTER:                  -6.354
REMARK INTRA:                  -0.738
REMARK UNBOUND:                -0.382
REMARK SMILES CCCCCCCCCCCCCC(=O)[O-]
REMARK SMILES IDX 8 1 9 2 10 3 11 4 12 5 13 6 14 7 15 8 16 9 7 10 6 11 5 12
REMARK SMILES IDX 4 13 3 14 2 15 1 16
REMARK H PARENT
REMARK Flexibility Score: inf
ROOT
ATOM      1  C   UNL     1     -17.791 -17.580  -2.943  1.00  0.00     0.000 C 
ENDROOT
BRANCH   1   2
ATOM      2  C   UNL     1     -16.807 -16.474  -3.365  1.00  0.00     0.000 C 
BRANCH   2   3
ATOM      3  C   UNL     1     -16.042 -16.817  -4.654  1.00  0.00     0.000 C 
BRANCH   3   4
ATOM      4  C   UNL     1     -15.590 -15.570  -5.433  1.00  0.00     0.000 C 
BRANCH   4   5
ATOM      5  C   UNL     1     -16.379 -14.280  -5.135  1.00  0.00     0.006 C 
BRANCH   5   6
ATOM      6  C   UNL     1     -16.408 -13.275  -6.302  1.00  0.00     0.053 C 
BRANCH   6   7
ATOM      7  C   UNL     1     -16.141 -11.868  -5.862  1.00  0.00     0.041 C 
ATOM      8  O   UNL     1     -16.736 -10.905  -6.416  1.00  0.00    -0.550 OA
ATOM      9  O   UNL     1     -15.268 -11.620  -4.810  1.00  0.00    -0.550 OA
ENDBRANCH   6   7
ENDBRANCH   5   6
ENDBRANCH   4   5
ENDBRANCH   3   4
ENDBRANCH   2   3
ENDBRANCH   1   2
BRANCH   1  10
ATOM     10  C   UNL     1     -18.398 -18.393  -4.104  1.00  0.00     0.000 C 
BRANCH  10  11
ATOM     11  C   UNL     1     -19.515 -19.378  -3.701  1.00  0.00    -0.000 C 
BRANCH  11  12
ATOM     12  C   UNL     1     -20.410 -19.859  -4.857  1.00  0.00    -0.000 C 
BRANCH  12  13
ATOM     13  C   UNL     1     -20.435 -21.391  -4.992  1.00  0.00    -0.000 C 
BRANCH  13  14
ATOM     14  C   UNL     1     -19.025 -22.004  -5.019  1.00  0.00    -0.000 C 
BRANCH  14  15
ATOM     15  C   UNL     1     -18.207 -21.556  -6.239  1.00  0.00    -0.003 C 
ATOM     16  C   UNL     1     -16.717 -21.809  -6.024  1.00  0.00     0.004 C 
ENDBRANCH  14  15
ENDBRANCH  13  14
ENDBRANCH  12  13
ENDBRANCH  11  12
ENDBRANCH  10  11
ENDBRANCH   1  10
TORSDOF 12
ENDMDL
MODEL 9
REMARK VINA RESULT:    -3.877     10.839     12.404
REMARK INTER + INTRA:          -6.979
REMARK INTER:                  -5.470
REMARK INTRA:                  -1.509
REMARK UNBOUND:                -0.382
REMARK SMILES CCCCCCCCCCCCCC(=O)[O-]
REMARK SMILES IDX 8 1 9 2 10 3 11 4 12 5 13 6 14 7 15 8 16 9 7 10 6 11 5 12
REMARK SMILES IDX 4 13 3 14 2 15 1 16
REMARK H PARENT
REMARK Flexibility Score: inf
ROOT
ATOM      1  C   UNL     1     -28.803 -14.605   2.886  1.00  0.00     0.000 C 
ENDROOT
BRANCH   1   2
ATOM      2  C   UNL     1     -28.431 -15.650   3.953  1.00  0.00     0.000 C 
BRANCH   2   3
ATOM      3  C   UNL     1     -27.042 -16.269   3.722  1.00  0.00     0.000 C 
BRANCH   3   4
ATOM      4  C   UNL     1     -26.139 -16.200   4.965  1.00  0.00     0.000 C 
BRANCH   4   5
ATOM      5  C   UNL     1     -25.009 -15.153   4.906  1.00  0.00     0.006 C 
BRANCH   5   6
ATOM      6  C   UNL     1     -24.844 -14.483   3.530  1.00  0.00     0.053 C 
BRANCH   6   7
ATOM      7  C   UNL     1     -23.676 -15.023   2.760  1.00  0.00     0.041 C 
ATOM      8  O   UNL     1     -22.576 -14.407   2.759  1.00  0.00    -0.550 OA
ATOM      9  O   UNL     1     -23.788 -16.227   2.077  1.00  0.00    -0.550 OA
ENDBRANCH   6   7
ENDBRANCH   5   6
ENDBRANCH   4   5
ENDBRANCH   3   4
ENDBRANCH   2   3
ENDBRANCH   1   2
BRANCH   1  10
ATOM     10  C   UNL     1     -30.098 -14.901   2.103  1.00  0.00     0.000 C 
BRANCH  10  11
ATOM     11  C   UNL     1     -31.270 -15.435   2.952  1.00  0.00    -0.000 C 
BRANCH  11  12
ATOM     12  C   UNL     1     -31.866 -16.772   2.475  1.00  0.00    -0.000 C 
BRANCH  12  13
ATOM     13  C   UNL     1     -31.025 -17.440   1.374  1.00  0.00    -0.000 C 
BRANCH  13  14
ATOM     14  C   UNL     1     -30.609 -18.875   1.740  1.00  0.00    -0.000 C 
BRANCH  14  15
ATOM     15  C   UNL     1     -29.230 -18.940   2.412  1.00  0.00    -0.003 C 
ATOM     16  C   UNL     1     -29.360 -19.258   3.900  1.00  0.00     0.004 C 
ENDBRANCH  14  15
ENDBRANCH  13  14
ENDBRANCH  12  13
ENDBRANCH  11  12
ENDBRANCH  10  11
ENDBRANCH   1  10
TORSDOF 12
ENDMDL
