MODEL 1
REMARK VINA RESULT:    -5.072      0.000      0.000
REMARK INTER + INTRA:          -7.673
REMARK INTER:                  -7.444
REMARK INTRA:                  -0.229
REMARK UNBOUND:                -0.229
REMARK SMILES O=c1c(O[C@@H]2O[C@H](CO)[C@@H](O)[C@H](O)[C@H]2O)c(-c2ccc(O)c(O)c2)oc2cc(O)cc(O)c12
REMARK SMILES IDX 4 1 3 2 16 3 25 4 2 5 26 6 1 7 33 8 27 9 31 10 28 11 30 12
REMARK SMILES IDX 17 13 18 14 19 15 20 16 24 17 22 18 21 19 23 21 32 23 29 25
REMARK SMILES IDX 5 27 14 28 6 29 12 30 7 31 10 32 15 33 13 35 8 37 9 38 11 40
REMARK H PARENT 21 20 23 22 32 24 29 26 15 34 13 36 9 39 11 41
REMARK Flexibility Score: inf
ROOT
ATOM      1  O   UNL     1     -11.558   8.886   5.572  1.00  0.00    -0.454 OA
ENDROOT
BRANCH   1   2
ATOM      2  C   UNL     1     -10.162   8.977   5.766  1.00  0.00     0.214 A 
ATOM      3  C   UNL     1      -9.549   7.966   6.524  1.00  0.00     0.180 A 
ATOM      4  O   UNL     1      -8.257   8.024   6.820  1.00  0.00    -0.452 OA
ATOM      5  C   UNL     1      -9.345  10.021   5.269  1.00  0.00     0.239 A 
ATOM      6  C   UNL     1      -7.466   9.008   6.415  1.00  0.00     0.146 A 
ATOM      7  O   UNL     1      -9.829  10.915   4.523  1.00  0.00    -0.285 OA
ATOM      8  C   UNL     1      -7.974  10.052   5.606  1.00  0.00     0.111 A 
ATOM      9  C   UNL     1      -6.120   8.997   6.792  1.00  0.00     0.094 A 
ATOM     10  C   UNL     1      -7.094  11.078   5.177  1.00  0.00     0.134 A 
ATOM     11  C   UNL     1      -5.260  10.016   6.373  1.00  0.00     0.123 A 
ATOM     12  C   UNL     1      -5.747  11.047   5.566  1.00  0.00     0.093 A 
BRANCH   3  13
ATOM     13  C   UNL     1     -10.330   6.823   7.012  1.00  0.00     0.025 A 
ATOM     14  C   UNL     1     -10.483   6.616   8.392  1.00  0.00     0.016 A 
ATOM     15  C   UNL     1     -11.183   5.501   8.859  1.00  0.00     0.051 A 
ATOM     16  C   UNL     1     -11.733   4.582   7.953  1.00  0.00     0.157 A 
ATOM     17  C   UNL     1     -10.887   5.911   6.106  1.00  0.00     0.062 A 
ATOM     18  C   UNL     1     -11.583   4.789   6.569  1.00  0.00     0.158 A 
BRANCH  16  19
ATOM     19  O   UNL     1     -12.419   3.463   8.424  1.00  0.00    -0.504 OA
ATOM     20  H   UNL     1     -11.933   2.610   8.669  1.00  0.00     0.293 HD
ENDBRANCH  16  19
BRANCH  18  21
ATOM     21  O   UNL     1     -12.106   3.889   5.644  1.00  0.00    -0.504 OA
ATOM     22  H   UNL     1     -13.104   3.768   5.519  1.00  0.00     0.293 HD
ENDBRANCH  18  21
ENDBRANCH   3  13
BRANCH  10  23
ATOM     23  O   UNL     1      -7.546  12.125   4.371  1.00  0.00    -0.507 OA
ATOM     24  H   UNL     1      -8.524  12.390   4.339  1.00  0.00     0.293 HD
ENDBRANCH  10  23
BRANCH  11  25
ATOM     25  O   UNL     1      -3.918  10.014   6.753  1.00  0.00    -0.508 OA
ATOM     26  H   UNL     1      -3.228   9.447   6.272  1.00  0.00     0.293 HD
ENDBRANCH  11  25
ENDBRANCH   1   2
BRANCH   1  27
ATOM     27  C   UNL     1     -12.600   9.144   6.518  1.00  0.00     0.339 C 
ATOM     28  C   UNL     1     -12.405  10.515   7.210  1.00  0.00     0.214 C 
ATOM     29  O   UNL     1     -13.875   9.024   5.903  1.00  0.00    -0.332 OA
ATOM     30  C   UNL     1     -12.706  11.684   6.255  1.00  0.00     0.180 C 
ATOM     31  C   UNL     1     -14.164  10.031   4.939  1.00  0.00     0.179 C 
ATOM     32  C   UNL     1     -14.036  11.469   5.504  1.00  0.00     0.177 C 
BRANCH  28  33
ATOM     33  O   UNL     1     -13.180  10.615   8.384  1.00  0.00    -0.384 OA
ATOM     34  H   UNL     1     -13.664   9.757   8.513  1.00  0.00     0.211 HD
ENDBRANCH  28  33
BRANCH  30  35
ATOM     35  O   UNL     1     -11.662  11.837   5.327  1.00  0.00    -0.387 OA
ATOM     36  H   UNL     1     -10.857  12.115   5.838  1.00  0.00     0.211 HD
ENDBRANCH  30  35
BRANCH  31  37
ATOM     37  C   UNL     1     -13.422   9.801   3.603  1.00  0.00     0.191 C 
BRANCH  37  38
ATOM     38  O   UNL     1     -13.291  11.005   2.894  1.00  0.00    -0.394 OA
ATOM     39  H   UNL     1     -12.340  11.283   2.965  1.00  0.00     0.210 HD
ENDBRANCH  37  38
ENDBRANCH  31  37
BRANCH  32  40
ATOM     40  O   UNL     1     -15.125  11.715   6.362  1.00  0.00    -0.387 OA
ATOM     41  H   UNL     1     -15.816  12.193   5.833  1.00  0.00     0.211 HD
ENDBRANCH  32  40
ENDBRANCH   1  27
TORSDOF 12
ENDMDL
MODEL 2
REMARK VINA RESULT:    -2.535      1.738      2.949
REMARK INTER + INTRA:          -3.950
REMARK INTER:                  -3.288
REMARK INTRA:                  -0.662
REMARK UNBOUND:                -0.229
REMARK SMILES O=c1c(O[C@@H]2O[C@H](CO)[C@@H](O)[C@H](O)[C@H]2O)c(-c2ccc(O)c(O)c2)oc2cc(O)cc(O)c12
REMARK SMILES IDX 4 1 3 2 16 3 25 4 2 5 26 6 1 7 33 8 27 9 31 10 28 11 30 12
REMARK SMILES IDX 17 13 18 14 19 15 20 16 24 17 22 18 21 19 23 21 32 23 29 25
REMARK SMILES IDX 5 27 14 28 6 29 12 30 7 31 10 32 15 33 13 35 8 37 9 38 11 40
REMARK H PARENT 21 20 23 22 32 24 29 26 15 34 13 36 9 39 11 41
REMARK Flexibility Score: inf
ROOT
ATOM      1  O   UNL     1     -11.542   7.891   5.471  1.00  0.00    -0.454 OA
ENDROOT
BRANCH   1   2
ATOM      2  C   UNL     1     -10.286   8.416   5.851  1.00  0.00     0.214 A 
ATOM      3  C   UNL     1      -9.541   7.687   6.791  1.00  0.00     0.180 A 
ATOM      4  O   UNL     1      -8.391   8.153   7.259  1.00  0.00    -0.452 OA
ATOM      5  C   UNL     1      -9.739   9.628   5.367  1.00  0.00     0.239 A 
ATOM      6  C   UNL     1      -7.866   9.306   6.868  1.00  0.00     0.146 A 
ATOM      7  O   UNL     1     -10.332  10.287   4.469  1.00  0.00    -0.285 OA
ATOM      8  C   UNL     1      -8.514  10.097   5.889  1.00  0.00     0.111 A 
ATOM      9  C   UNL     1      -6.658   9.730   7.433  1.00  0.00     0.094 A 
ATOM     10  C   UNL     1      -7.914  11.315   5.483  1.00  0.00     0.134 A 
ATOM     11  C   UNL     1      -6.077  10.937   7.033  1.00  0.00     0.123 A 
ATOM     12  C   UNL     1      -6.702  11.721   6.060  1.00  0.00     0.093 A 
BRANCH   3  13
ATOM     13  C   UNL     1     -10.023   6.390   7.282  1.00  0.00     0.025 A 
ATOM     14  C   UNL     1     -10.289   6.212   8.648  1.00  0.00     0.016 A 
ATOM     15  C   UNL     1     -10.699   4.965   9.125  1.00  0.00     0.051 A 
ATOM     16  C   UNL     1     -10.846   3.884   8.242  1.00  0.00     0.157 A 
ATOM     17  C   UNL     1     -10.178   5.315   6.398  1.00  0.00     0.062 A 
ATOM     18  C   UNL     1     -10.583   4.062   6.871  1.00  0.00     0.158 A 
BRANCH  16  19
ATOM     19  O   UNL     1     -11.243   2.638   8.725  1.00  0.00    -0.504 OA
ATOM     20  H   UNL     1     -12.180   2.480   9.072  1.00  0.00     0.293 HD
ENDBRANCH  16  19
BRANCH  18  21
ATOM     21  O   UNL     1     -10.707   3.006   5.971  1.00  0.00    -0.504 OA
ATOM     22  H   UNL     1     -10.658   3.148   4.969  1.00  0.00     0.293 HD
ENDBRANCH  18  21
ENDBRANCH   3  13
BRANCH  10  23
ATOM     23  O   UNL     1      -8.511  12.125   4.515  1.00  0.00    -0.507 OA
ATOM     24  H   UNL     1      -8.408  11.936   3.524  1.00  0.00     0.293 HD
ENDBRANCH  10  23
BRANCH  11  25
ATOM     25  O   UNL     1      -4.876  11.367   7.599  1.00  0.00    -0.508 OA
ATOM     26  H   UNL     1      -4.228  10.718   8.032  1.00  0.00     0.293 HD
ENDBRANCH  11  25
ENDBRANCH   1   2
BRANCH   1  27
ATOM     27  C   UNL     1     -11.879   7.192   4.268  1.00  0.00     0.339 C 
ATOM     28  C   UNL     1     -12.327   5.741   4.568  1.00  0.00     0.214 C 
ATOM     29  O   UNL     1     -12.851   7.916   3.525  1.00  0.00    -0.332 OA
ATOM     30  C   UNL     1     -13.718   5.697   5.225  1.00  0.00     0.180 C 
ATOM     31  C   UNL     1     -14.133   7.985   4.138  1.00  0.00     0.179 C 
ATOM     32  C   UNL     1     -14.724   6.592   4.472  1.00  0.00     0.177 C 
BRANCH  28  33
ATOM     33  O   UNL     1     -12.295   4.942   3.408  1.00  0.00    -0.384 OA
ATOM     34  H   UNL     1     -13.209   4.917   3.019  1.00  0.00     0.211 HD
ENDBRANCH  28  33
BRANCH  30  35
ATOM     35  O   UNL     1     -13.637   6.107   6.567  1.00  0.00    -0.387 OA
ATOM     36  H   UNL     1     -14.514   5.905   6.986  1.00  0.00     0.211 HD
ENDBRANCH  30  35
BRANCH  31  37
ATOM     37  C   UNL     1     -14.177   8.994   5.308  1.00  0.00     0.191 C 
BRANCH  37  38
ATOM     38  O   UNL     1     -13.319  10.077   5.062  1.00  0.00    -0.394 OA
ATOM     39  H   UNL     1     -12.535   9.969   5.661  1.00  0.00     0.210 HD
ENDBRANCH  37  38
ENDBRANCH  31  37
BRANCH  32  40
ATOM     40  O   UNL     1     -15.124   5.972   3.273  1.00  0.00    -0.387 OA
ATOM     41  H   UNL     1     -15.389   5.041   3.496  1.00  0.00     0.211 HD
ENDBRANCH  32  40
ENDBRANCH   1  27
TORSDOF 12
ENDMDL
