MODEL 1
REMARK VINA RESULT:    -4.960      0.000      0.000
REMARK INTER + INTRA:          -6.362
REMARK INTER:                  -6.699
REMARK INTRA:                   0.337
REMARK UNBOUND:                 0.337
REMARK SMILES C=C(C)[C@@H]1CC[C@H](C)C2=C(C1)[C@H](C)CC2
REMARK SMILES IDX 10 1 9 2 15 3 14 4 12 5 13 6 7 7 8 8 6 9 11 11 4 12 5 13
REMARK SMILES IDX 2 15 1 16 3 17
REMARK H PARENT
REMARK Flexibility Score: 80.00
ROOT
ATOM      1  C   UNL     1     111.292 110.703 111.925  1.00  0.00    -0.067 C 
ATOM      2  C   UNL     1     111.019 111.279 113.094  1.00  0.00    -0.068 C 
ATOM      3  C   UNL     1     112.234 111.395 113.953  1.00  0.00     0.032 C 
ATOM      4  C   UNL     1     113.383 110.941 113.048  1.00  0.00     0.012 C 
ATOM      5  C   UNL     1     112.727 110.305 111.811  1.00  0.00     0.012 C 
ATOM      6  C   UNL     1     112.874 108.779 111.812  1.00  0.00     0.012 C 
ENDROOT
BRANCH   2   7
ATOM      7  C   UNL     1     109.629 111.780 113.448  1.00  0.00     0.012 C 
ATOM      8  C   UNL     1     109.483 112.088 114.945  1.00  0.00     0.012 C 
BRANCH   7   9
ATOM      9  C   UNL     1     109.224 113.009 112.596  1.00  0.00     0.008 CG0
ATOM     10  G   UNL     1     109.810 113.054 111.168  1.00  0.00     0.000 G0
ENDBRANCH   7   9
ENDBRANCH   2   7
BRANCH   1  11
ATOM     11  C   UNL     1     110.255 110.472 110.847  1.00  0.00     0.039 C 
BRANCH  11  12
ATOM     12  C   UNL     1     109.566 111.770 110.316  1.00  0.00     0.018 C 
BRANCH  12  13
ATOM     13  C   UNL     1     109.807 113.053 111.157  1.00  0.00     0.009 CG0
ATOM     14  G   UNL     1     109.212 113.017 112.581  1.00  0.00     0.000 G0
ENDBRANCH  12  13
BRANCH  12  15
ATOM     15  C   UNL     1     109.964 112.031 108.867  1.00  0.00    -0.077 C 
ATOM     16  C   UNL     1     109.131 112.672 108.029  1.00  0.00     0.008 C 
ATOM     17  C   UNL     1     111.301 111.569 108.347  1.00  0.00     0.039 C 
ENDBRANCH  12  15
ENDBRANCH  11  12
ENDBRANCH   1  11
TORSDOF 1
ENDMDL
MODEL 2
REMARK VINA RESULT:    -4.896      2.100      3.719
REMARK INTER + INTRA:          -6.276
REMARK INTER:                  -6.619
REMARK INTRA:                   0.344
REMARK UNBOUND:                 0.337
REMARK SMILES C=C(C)[C@@H]1CC[C@H](C)C2=C(C1)[C@H](C)CC2
REMARK SMILES IDX 10 1 9 2 15 3 14 4 12 5 13 6 7 7 8 8 6 9 11 11 4 12 5 13
REMARK SMILES IDX 2 15 1 16 3 17
REMARK H PARENT
REMARK Flexibility Score: 80.00
ROOT
ATOM      1  C   UNL     1     110.888 111.689 112.128  1.00  0.00    -0.067 C 
ATOM      2  C   UNL     1     111.231 111.170 113.306  1.00  0.00    -0.068 C 
ATOM      3  C   UNL     1     110.056 111.030 114.215  1.00  0.00     0.032 C 
ATOM      4  C   UNL     1     108.854 111.397 113.340  1.00  0.00     0.012 C 
ATOM      5  C   UNL     1     109.432 112.017 112.056  1.00  0.00     0.012 C 
ATOM      6  C   UNL     1     109.213 113.533 112.009  1.00  0.00     0.012 C 
ENDROOT
BRANCH   2   7
ATOM      7  C   UNL     1     112.655 110.747 113.624  1.00  0.00     0.012 C 
ATOM      8  C   UNL     1     112.874 110.511 115.124  1.00  0.00     0.012 C 
BRANCH   7   9
ATOM      9  C   UNL     1     113.082 109.501 112.808  1.00  0.00     0.008 CG0
ATOM     10  G   UNL     1     112.464 109.381 111.398  1.00  0.00     0.000 G0
ENDBRANCH   7   9
ENDBRANCH   2   7
BRANCH   1  11
ATOM     11  C   UNL     1     111.872 111.928 111.004  1.00  0.00     0.039 C 
BRANCH  11  12
ATOM     12  C   UNL     1     112.607 110.645 110.497  1.00  0.00     0.018 C 
BRANCH  12  13
ATOM     13  C   UNL     1     112.463 109.387 111.396  1.00  0.00     0.009 CG0
ATOM     14  G   UNL     1     113.079 109.522 112.805  1.00  0.00     0.000 G0
ENDBRANCH  12  13
BRANCH  12  15
ATOM     15  C   UNL     1     112.169 110.305 109.076  1.00  0.00    -0.077 C 
ATOM     16  C   UNL     1     110.891 110.467 108.692  1.00  0.00     0.008 C 
ATOM     17  C   UNL     1     113.165 109.776 108.076  1.00  0.00     0.039 C 
ENDBRANCH  12  15
ENDBRANCH  11  12
ENDBRANCH   1  11
TORSDOF 1
ENDMDL
MODEL 3
REMARK VINA RESULT:    -4.849      1.779      3.515
REMARK INTER + INTRA:          -6.213
REMARK INTER:                  -6.594
REMARK INTRA:                   0.382
REMARK UNBOUND:                 0.337
REMARK SMILES C=C(C)[C@@H]1CC[C@H](C)C2=C(C1)[C@H](C)CC2
REMARK SMILES IDX 10 1 9 2 15 3 14 4 12 5 13 6 7 7 8 8 6 9 11 11 4 12 5 13
REMARK SMILES IDX 2 15 1 16 3 17
REMARK H PARENT
REMARK Flexibility Score: 80.00
ROOT
ATOM      1  C   UNL     1     110.294 111.595 112.055  1.00  0.00    -0.067 C 
ATOM      2  C   UNL     1     111.221 110.854 112.659  1.00  0.00    -0.068 C 
ATOM      3  C   UNL     1     110.704 110.235 113.915  1.00  0.00     0.032 C 
ATOM      4  C   UNL     1     109.211 110.576 113.920  1.00  0.00     0.012 C 
ATOM      5  C   UNL     1     109.009 111.628 112.816  1.00  0.00     0.012 C 
ATOM      6  C   UNL     1     108.754 113.022 113.399  1.00  0.00     0.012 C 
ENDROOT
BRANCH   2   7
ATOM      7  C   UNL     1     112.611 110.657 112.079  1.00  0.00     0.012 C 
ATOM      8  C   UNL     1     113.593 110.066 113.100  1.00  0.00     0.012 C 
BRANCH   7   9
ATOM      9  C   UNL     1     112.581 109.798 110.790  1.00  0.00     0.008 CG0
ATOM     10  G   UNL     1     111.315 109.942 109.920  1.00  0.00     0.000 G0
ENDBRANCH   7   9
ENDBRANCH   2   7
BRANCH   1  11
ATOM     11  C   UNL     1     110.532 112.327 110.752  1.00  0.00     0.039 C 
BRANCH  11  12
ATOM     12  C   UNL     1     110.930 111.409 109.551  1.00  0.00     0.018 C 
BRANCH  12  13
ATOM     13  C   UNL     1     111.309 109.948 109.917  1.00  0.00     0.009 CG0
ATOM     14  G   UNL     1     112.584 109.805 110.776  1.00  0.00     0.000 G0
ENDBRANCH  12  13
BRANCH  12  15
ATOM     15  C   UNL     1     109.825 111.398 108.499  1.00  0.00    -0.077 C 
ATOM     16  C   UNL     1     109.449 110.250 107.909  1.00  0.00     0.008 C 
ATOM     17  C   UNL     1     109.138 112.678 108.099  1.00  0.00     0.039 C 
ENDBRANCH  12  15
ENDBRANCH  11  12
ENDBRANCH   1  11
TORSDOF 1
ENDMDL
MODEL 4
REMARK VINA RESULT:    -4.787      2.797      4.480
REMARK INTER + INTRA:          -6.129
REMARK INTER:                  -6.471
REMARK INTRA:                   0.342
REMARK UNBOUND:                 0.337
REMARK SMILES C=C(C)[C@@H]1CC[C@H](C)C2=C(C1)[C@H](C)CC2
REMARK SMILES IDX 10 1 9 2 15 3 14 4 12 5 13 6 7 7 8 8 6 9 11 11 4 12 5 13
REMARK SMILES IDX 2 15 1 16 3 17
REMARK H PARENT
REMARK Flexibility Score: 80.00
ROOT
ATOM      1  C   UNL     1     111.414 110.506 107.505  1.00  0.00    -0.067 C 
ATOM      2  C   UNL     1     111.090 111.021 108.690  1.00  0.00    -0.068 C 
ATOM      3  C   UNL     1     112.296 111.275 109.533  1.00  0.00     0.032 C 
ATOM      4  C   UNL     1     113.477 110.987 108.601  1.00  0.00     0.012 C 
ATOM      5  C   UNL     1     112.885 110.295 107.362  1.00  0.00     0.012 C 
ATOM      6  C   UNL     1     113.225 108.801 107.330  1.00  0.00     0.012 C 
ENDROOT
BRANCH   2   7
ATOM      7  C   UNL     1     109.655 111.335 109.076  1.00  0.00     0.012 C 
ATOM      8  C   UNL     1     109.497 111.593 110.581  1.00  0.00     0.012 C 
BRANCH   7   9
ATOM      9  C   UNL     1     109.083 112.519 108.256  1.00  0.00     0.008 CG0
ATOM     10  G   UNL     1     109.620 112.655 106.816  1.00  0.00     0.000 G0
ENDBRANCH   7   9
ENDBRANCH   2   7
BRANCH   1  11
ATOM     11  C   UNL     1     110.395 110.164 106.440  1.00  0.00     0.039 C 
BRANCH  11  12
ATOM     12  C   UNL     1     109.532 111.372 105.951  1.00  0.00     0.018 C 
BRANCH  12  13
ATOM     13  C   UNL     1     109.625 112.659 106.814  1.00  0.00     0.009 CG0
ATOM     14  G   UNL     1     109.075 112.519 108.249  1.00  0.00     0.000 G0
ENDBRANCH  12  13
BRANCH  12  15
ATOM     15  C   UNL     1     109.859 111.709 104.500  1.00  0.00    -0.077 C 
ATOM     16  C   UNL     1     111.116 112.007 104.129  1.00  0.00     0.008 C 
ATOM     17  C   UNL     1     108.773 111.719 103.455  1.00  0.00     0.039 C 
ENDBRANCH  12  15
ENDBRANCH  11  12
ENDBRANCH   1  11
TORSDOF 1
ENDMDL
MODEL 5
REMARK VINA RESULT:    -4.776      1.353      2.006
REMARK INTER + INTRA:          -6.114
REMARK INTER:                  -6.485
REMARK INTRA:                   0.371
REMARK UNBOUND:                 0.337
REMARK SMILES C=C(C)[C@@H]1CC[C@H](C)C2=C(C1)[C@H](C)CC2
REMARK SMILES IDX 10 1 9 2 15 3 14 4 12 5 13 6 7 7 8 8 6 9 11 11 4 12 5 13
REMARK SMILES IDX 2 15 1 16 3 17
REMARK H PARENT
REMARK Flexibility Score: 80.00
ROOT
ATOM      1  C   UNL     1     111.911 110.752 112.086  1.00  0.00    -0.067 C 
ATOM      2  C   UNL     1     111.064 111.580 112.694  1.00  0.00    -0.068 C 
ATOM      3  C   UNL     1     111.632 112.120 113.965  1.00  0.00     0.032 C 
ATOM      4  C   UNL     1     113.079 111.618 113.977  1.00  0.00     0.012 C 
ATOM      5  C   UNL     1     113.177 110.568 112.857  1.00  0.00     0.012 C 
ATOM      6  C   UNL     1     113.274 109.146 113.420  1.00  0.00     0.012 C 
ENDROOT
BRANCH   2   7
ATOM      7  C   UNL     1     109.710 111.935 112.105  1.00  0.00     0.012 C 
ATOM      8  C   UNL     1     108.790 112.620 113.125  1.00  0.00     0.012 C 
BRANCH   7   9
ATOM      9  C   UNL     1     109.846 112.799 110.827  1.00  0.00     0.008 CG0
ATOM     10  G   UNL     1     111.097 112.525 109.965  1.00  0.00     0.000 G0
ENDBRANCH   7   9
ENDBRANCH   2   7
BRANCH   1  11
ATOM     11  C   UNL     1     111.609 110.070 110.769  1.00  0.00     0.039 C 
BRANCH  11  12
ATOM     12  C   UNL     1     111.336 111.045 109.578  1.00  0.00     0.018 C 
BRANCH  12  13
ATOM     13  C   UNL     1     111.103 112.531 109.963  1.00  0.00     0.009 CG0
ATOM     14  G   UNL     1     109.850 112.789 110.826  1.00  0.00     0.000 G0
ENDBRANCH  12  13
BRANCH  12  15
ATOM     15  C   UNL     1     112.457 110.956 108.548  1.00  0.00    -0.077 C 
ATOM     16  C   UNL     1     113.219 109.853 108.453  1.00  0.00     0.008 C 
ATOM     17  C   UNL     1     112.734 112.111 107.619  1.00  0.00     0.039 C 
ENDBRANCH  12  15
ENDBRANCH  11  12
ENDBRANCH   1  11
TORSDOF 1
ENDMDL
MODEL 6
REMARK VINA RESULT:    -4.707      1.975      4.368
REMARK INTER + INTRA:          -6.021
REMARK INTER:                  -6.369
REMARK INTRA:                   0.348
REMARK UNBOUND:                 0.337
REMARK SMILES C=C(C)[C@@H]1CC[C@H](C)C2=C(C1)[C@H](C)CC2
REMARK SMILES IDX 10 1 9 2 15 3 14 4 12 5 13 6 7 7 8 8 6 9 11 11 4 12 5 13
REMARK SMILES IDX 2 15 1 16 3 17
REMARK H PARENT
REMARK Flexibility Score: 80.00
ROOT
ATOM      1  C   UNL     1     111.521 111.524 110.404  1.00  0.00    -0.067 C 
ATOM      2  C   UNL     1     110.993 110.891 109.359  1.00  0.00    -0.068 C 
ATOM      3  C   UNL     1     112.042 110.287 108.486  1.00  0.00     0.032 C 
ATOM      4  C   UNL     1     113.347 110.502 109.258  1.00  0.00     0.012 C 
ATOM      5  C   UNL     1     113.015 111.484 110.395  1.00  0.00     0.012 C 
ATOM      6  C   UNL     1     113.599 112.876 110.133  1.00  0.00     0.012 C 
ENDROOT
BRANCH   2   7
ATOM      7  C   UNL     1     109.492 110.785 109.145  1.00  0.00     0.012 C 
ATOM      8  C   UNL     1     109.134 110.325 107.726  1.00  0.00     0.012 C 
BRANCH   7   9
ATOM      9  C   UNL     1     108.823 109.870 110.201  1.00  0.00     0.008 CG0
ATOM     10  G   UNL     1     109.477 109.873 111.599  1.00  0.00     0.000 G0
ENDBRANCH   7   9
ENDBRANCH   2   7
BRANCH   1  11
ATOM     11  C   UNL     1     110.694 112.216 111.465  1.00  0.00     0.039 C 
BRANCH  11  12
ATOM     12  C   UNL     1     109.698 111.281 112.226  1.00  0.00     0.018 C 
BRANCH  12  13
ATOM     13  C   UNL     1     109.485 109.874 111.604  1.00  0.00     0.009 CG0
ATOM     14  G   UNL     1     108.832 109.875 110.206  1.00  0.00     0.000 G0
ENDBRANCH  12  13
BRANCH  12  15
ATOM     15  C   UNL     1     110.114 111.134 113.686  1.00  0.00    -0.077 C 
ATOM     16  C   UNL     1     109.462 111.796 114.658  1.00  0.00     0.008 C 
ATOM     17  C   UNL     1     111.270 110.243 114.065  1.00  0.00     0.039 C 
ENDBRANCH  12  15
ENDBRANCH  11  12
ENDBRANCH   1  11
TORSDOF 1
ENDMDL
MODEL 7
REMARK VINA RESULT:    -4.701      2.970      5.869
REMARK INTER + INTRA:          -6.012
REMARK INTER:                  -6.351
REMARK INTRA:                   0.339
REMARK UNBOUND:                 0.337
REMARK SMILES C=C(C)[C@@H]1CC[C@H](C)C2=C(C1)[C@H](C)CC2
REMARK SMILES IDX 10 1 9 2 15 3 14 4 12 5 13 6 7 7 8 8 6 9 11 11 4 12 5 13
REMARK SMILES IDX 2 15 1 16 3 17
REMARK H PARENT
REMARK Flexibility Score: 80.00
ROOT
ATOM      1  C   UNL     1     111.471 111.521 115.200  1.00  0.00    -0.067 C 
ATOM      2  C   UNL     1     110.958 110.911 114.134  1.00  0.00    -0.068 C 
ATOM      3  C   UNL     1     112.021 110.326 113.264  1.00  0.00     0.032 C 
ATOM      4  C   UNL     1     113.314 110.523 114.061  1.00  0.00     0.012 C 
ATOM      5  C   UNL     1     112.964 111.480 115.214  1.00  0.00     0.012 C 
ATOM      6  C   UNL     1     113.553 112.877 114.992  1.00  0.00     0.012 C 
ENDROOT
BRANCH   2   7
ATOM      7  C   UNL     1     109.461 110.811 113.894  1.00  0.00     0.012 C 
ATOM      8  C   UNL     1     109.125 110.380 112.460  1.00  0.00     0.012 C 
BRANCH   7   9
ATOM      9  C   UNL     1     108.775 109.874 114.920  1.00  0.00     0.008 CG0
ATOM     10  G   UNL     1     109.412 109.840 116.326  1.00  0.00     0.000 G0
ENDBRANCH   7   9
ENDBRANCH   2   7
BRANCH   1  11
ATOM     11  C   UNL     1     110.626 112.189 116.264  1.00  0.00     0.039 C 
BRANCH  11  12
ATOM     12  C   UNL     1     109.616 111.239 116.986  1.00  0.00     0.018 C 
BRANCH  12  13
ATOM     13  C   UNL     1     109.411 109.848 116.328  1.00  0.00     0.009 CG0
ATOM     14  G   UNL     1     108.764 109.881 114.928  1.00  0.00     0.000 G0
ENDBRANCH  12  13
BRANCH  12  15
ATOM     15  C   UNL     1     110.008 111.057 118.448  1.00  0.00    -0.077 C 
ATOM     16  C   UNL     1     109.121 110.591 119.346  1.00  0.00     0.008 C 
ATOM     17  C   UNL     1     111.400 111.400 118.916  1.00  0.00     0.039 C 
ENDBRANCH  12  15
ENDBRANCH  11  12
ENDBRANCH   1  11
TORSDOF 1
ENDMDL
MODEL 8
REMARK VINA RESULT:    -4.677      3.123      5.508
REMARK INTER + INTRA:          -5.980
REMARK INTER:                  -6.327
REMARK INTRA:                   0.347
REMARK UNBOUND:                 0.337
REMARK SMILES C=C(C)[C@@H]1CC[C@H](C)C2=C(C1)[C@H](C)CC2
REMARK SMILES IDX 10 1 9 2 15 3 14 4 12 5 13 6 7 7 8 8 6 9 11 11 4 12 5 13
REMARK SMILES IDX 2 15 1 16 3 17
REMARK H PARENT
REMARK Flexibility Score: 80.00
ROOT
ATOM      1  C   UNL     1     110.425 111.598 116.753  1.00  0.00    -0.067 C 
ATOM      2  C   UNL     1     111.216 110.761 117.422  1.00  0.00    -0.068 C 
ATOM      3  C   UNL     1     110.569 110.268 118.674  1.00  0.00     0.032 C 
ATOM      4  C   UNL     1     109.139 110.809 118.601  1.00  0.00     0.012 C 
ATOM      5  C   UNL     1     109.128 111.835 117.454  1.00  0.00     0.012 C 
ATOM      6  C   UNL     1     109.045 113.272 117.980  1.00  0.00     0.012 C 
ENDROOT
BRANCH   2   7
ATOM      7  C   UNL     1     112.588 110.354 116.912  1.00  0.00     0.012 C 
ATOM      8  C   UNL     1     113.433 109.665 117.992  1.00  0.00     0.012 C 
BRANCH   7   9
ATOM      9  C   UNL     1     112.491 109.466 115.645  1.00  0.00     0.008 CG0
ATOM     10  G   UNL     1     111.285 109.745 114.724  1.00  0.00     0.000 G0
ENDBRANCH   7   9
ENDBRANCH   2   7
BRANCH   1  11
ATOM     11  C   UNL     1     110.814 112.239 115.439  1.00  0.00     0.039 C 
BRANCH  11  12
ATOM     12  C   UNL     1     111.119 111.229 114.285  1.00  0.00     0.018 C 
BRANCH  12  13
ATOM     13  C   UNL     1     111.288 109.747 114.715  1.00  0.00     0.009 CG0
ATOM     14  G   UNL     1     112.492 109.472 115.640  1.00  0.00     0.000 G0
ENDBRANCH  12  13
BRANCH  12  15
ATOM     15  C   UNL     1     110.055 111.324 113.197  1.00  0.00    -0.077 C 
ATOM     16  C   UNL     1     109.095 112.264 113.254  1.00  0.00     0.008 C 
ATOM     17  C   UNL     1     110.059 110.360 112.038  1.00  0.00     0.039 C 
ENDBRANCH  12  15
ENDBRANCH  11  12
ENDBRANCH   1  11
TORSDOF 1
ENDMDL
MODEL 9
REMARK VINA RESULT:    -4.674      2.798      4.561
REMARK INTER + INTRA:          -5.977
REMARK INTER:                  -6.323
REMARK INTRA:                   0.346
REMARK UNBOUND:                 0.337
REMARK SMILES C=C(C)[C@@H]1CC[C@H](C)C2=C(C1)[C@H](C)CC2
REMARK SMILES IDX 10 1 9 2 15 3 14 4 12 5 13 6 7 7 8 8 6 9 11 11 4 12 5 13
REMARK SMILES IDX 2 15 1 16 3 17
REMARK H PARENT
REMARK Flexibility Score: 80.00
ROOT
ATOM      1  C   UNL     1     111.898 110.725 116.645  1.00  0.00    -0.067 C 
ATOM      2  C   UNL     1     111.102 111.585 117.278  1.00  0.00    -0.068 C 
ATOM      3  C   UNL     1     111.733 112.110 118.525  1.00  0.00     0.032 C 
ATOM      4  C   UNL     1     113.161 111.558 118.490  1.00  0.00     0.012 C 
ATOM      5  C   UNL     1     113.182 110.500 117.373  1.00  0.00     0.012 C 
ATOM      6  C   UNL     1     113.249 109.078 117.940  1.00  0.00     0.012 C 
ENDROOT
BRANCH   2   7
ATOM      7  C   UNL     1     109.741 111.986 116.735  1.00  0.00     0.012 C 
ATOM      8  C   UNL     1     108.882 112.706 117.784  1.00  0.00     0.012 C 
BRANCH   7   9
ATOM      9  C   UNL     1     109.863 112.841 115.449  1.00  0.00     0.008 CG0
ATOM     10  G   UNL     1     111.081 112.531 114.553  1.00  0.00     0.000 G0
ENDBRANCH   7   9
ENDBRANCH   2   7
BRANCH   1  11
ATOM     11  C   UNL     1     111.525 110.049 115.344  1.00  0.00     0.039 C 
BRANCH  11  12
ATOM     12  C   UNL     1     111.235 111.028 114.160  1.00  0.00     0.018 C 
BRANCH  12  13
ATOM     13  C   UNL     1     111.083 112.525 114.546  1.00  0.00     0.009 CG0
ATOM     14  G   UNL     1     109.864 112.845 115.437  1.00  0.00     0.000 G0
ENDBRANCH  12  13
BRANCH  12  15
ATOM     15  C   UNL     1     112.300 110.888 113.078  1.00  0.00    -0.077 C 
ATOM     16  C   UNL     1     113.249 109.940 113.165  1.00  0.00     0.008 C 
ATOM     17  C   UNL     1     112.309 111.817 111.891  1.00  0.00     0.039 C 
ENDBRANCH  12  15
ENDBRANCH  11  12
ENDBRANCH   1  11
TORSDOF 1
ENDMDL
