MODEL 1
REMARK VINA RESULT:    -6.231      0.000      0.000
REMARK INTER + INTRA:          -7.370
REMARK INTER:                  -7.142
REMARK INTRA:                  -0.228
REMARK UNBOUND:                -0.228
REMARK SMILES O=c1c(-c2ccc(O)cc2)coc2c(O)c(O)ccc12
REMARK SMILES IDX 3 1 11 2 12 3 13 4 20 5 2 6 1 7 19 8 18 9 16 10 14 11 4 12
REMARK SMILES IDX 5 13 6 14 7 15 10 16 9 17 8 18 15 20 17 22
REMARK H PARENT 8 19 15 21 17 23
REMARK Flexibility Score: inf
ROOT
ATOM      1  C   UNL     1     -28.587 -24.545  -2.574  1.00  0.00     0.065 A 
ATOM      2  C   UNL     1     -28.832 -23.299  -1.978  1.00  0.00     0.208 A 
ATOM      3  O   UNL     1     -28.503 -22.170  -2.593  1.00  0.00    -0.459 OA
ATOM      4  C   UNL     1     -27.932 -22.142  -3.794  1.00  0.00     0.183 A 
ATOM      5  C   UNL     1     -27.655 -23.349  -4.474  1.00  0.00     0.069 A 
ATOM      6  C   UNL     1     -27.995 -24.564  -3.852  1.00  0.00     0.200 A 
ATOM      7  O   UNL     1     -27.789 -25.661  -4.441  1.00  0.00    -0.288 OA
ATOM      8  C   UNL     1     -27.055 -23.306  -5.745  1.00  0.00     0.020 A 
ATOM      9  C   UNL     1     -26.736 -22.079  -6.329  1.00  0.00     0.051 A 
ATOM     10  C   UNL     1     -27.008 -20.882  -5.660  1.00  0.00     0.161 A 
ATOM     11  C   UNL     1     -27.609 -20.908  -4.389  1.00  0.00     0.201 A 
ENDROOT
BRANCH   1  12
ATOM     12  C   UNL     1     -28.957 -25.794  -1.862  1.00  0.00    -0.011 A 
ATOM     13  C   UNL     1     -27.966 -26.578  -1.245  1.00  0.00     0.013 A 
ATOM     14  C   UNL     1     -28.311 -27.759  -0.581  1.00  0.00     0.047 A 
ATOM     15  C   UNL     1     -29.648 -28.173  -0.529  1.00  0.00     0.115 A 
ATOM     16  C   UNL     1     -30.296 -26.220  -1.811  1.00  0.00     0.013 A 
ATOM     17  C   UNL     1     -30.637 -27.402  -1.146  1.00  0.00     0.047 A 
BRANCH  15  18
ATOM     18  O   UNL     1     -30.003 -29.348   0.130  1.00  0.00    -0.508 OA
ATOM     19  H   UNL     1     -30.480 -29.329   1.025  1.00  0.00     0.293 HD
ENDBRANCH  15  18
ENDBRANCH   1  12
BRANCH  11  20
ATOM     20  O   UNL     1     -27.876 -19.707  -3.729  1.00  0.00    -0.502 OA
ATOM     21  H   UNL     1     -27.172 -19.221  -3.187  1.00  0.00     0.293 HD
ENDBRANCH  11  20
BRANCH  10  22
ATOM     22  O   UNL     1     -26.674 -19.676  -6.274  1.00  0.00    -0.504 OA
ATOM     23  H   UNL     1     -25.721 -19.450  -6.539  1.00  0.00     0.293 HD
ENDBRANCH  10  22
TORSDOF 4
ENDMDL
MODEL 2
REMARK VINA RESULT:    -6.000      1.128      2.174
REMARK INTER + INTRA:          -7.106
REMARK INTER:                  -6.832
REMARK INTRA:                  -0.274
REMARK UNBOUND:                -0.228
REMARK SMILES O=c1c(-c2ccc(O)cc2)coc2c(O)c(O)ccc12
REMARK SMILES IDX 3 1 11 2 12 3 13 4 20 5 2 6 1 7 19 8 18 9 16 10 14 11 4 12
REMARK SMILES IDX 5 13 6 14 7 15 10 16 9 17 8 18 15 20 17 22
REMARK H PARENT 8 19 15 21 17 23
REMARK Flexibility Score: inf
ROOT
ATOM      1  C   UNL     1     -28.297 -24.346  -3.049  1.00  0.00     0.065 A 
ATOM      2  C   UNL     1     -27.789 -24.534  -4.343  1.00  0.00     0.208 A 
ATOM      3  O   UNL     1     -27.467 -23.498  -5.108  1.00  0.00    -0.459 OA
ATOM      4  C   UNL     1     -27.598 -22.237  -4.708  1.00  0.00     0.183 A 
ATOM      5  C   UNL     1     -28.096 -21.952  -3.416  1.00  0.00     0.069 A 
ATOM      6  C   UNL     1     -28.443 -23.027  -2.578  1.00  0.00     0.200 A 
ATOM      7  O   UNL     1     -28.863 -22.812  -1.408  1.00  0.00    -0.288 OA
ATOM      8  C   UNL     1     -28.227 -20.614  -3.004  1.00  0.00     0.020 A 
ATOM      9  C   UNL     1     -27.868 -19.576  -3.866  1.00  0.00     0.051 A 
ATOM     10  C   UNL     1     -27.376 -19.852  -5.145  1.00  0.00     0.161 A 
ATOM     11  C   UNL     1     -27.238 -21.185  -5.572  1.00  0.00     0.201 A 
ENDROOT
BRANCH   1  12
ATOM     12  C   UNL     1     -28.657 -25.522  -2.216  1.00  0.00    -0.011 A 
ATOM     13  C   UNL     1     -27.667 -26.205  -1.489  1.00  0.00     0.013 A 
ATOM     14  C   UNL     1     -28.002 -27.317  -0.711  1.00  0.00     0.047 A 
ATOM     15  C   UNL     1     -29.329 -27.763  -0.655  1.00  0.00     0.115 A 
ATOM     16  C   UNL     1     -29.986 -25.979  -2.160  1.00  0.00     0.013 A 
ATOM     17  C   UNL     1     -30.317 -27.093  -1.381  1.00  0.00     0.047 A 
BRANCH  15  18
ATOM     18  O   UNL     1     -29.675 -28.870   0.117  1.00  0.00    -0.508 OA
ATOM     19  H   UNL     1     -29.139 -29.132   0.937  1.00  0.00     0.293 HD
ENDBRANCH  15  18
ENDBRANCH   1  12
BRANCH  11  20
ATOM     20  O   UNL     1     -26.746 -21.450  -6.850  1.00  0.00    -0.502 OA
ATOM     21  H   UNL     1     -26.374 -22.357  -7.109  1.00  0.00     0.293 HD
ENDBRANCH  11  20
BRANCH  10  22
ATOM     22  O   UNL     1     -27.029 -18.790  -5.977  1.00  0.00    -0.504 OA
ATOM     23  H   UNL     1     -26.222 -18.825  -6.590  1.00  0.00     0.293 HD
ENDBRANCH  10  22
TORSDOF 4
ENDMDL
MODEL 3
REMARK VINA RESULT:    -5.807      1.326      2.389
REMARK INTER + INTRA:          -6.885
REMARK INTER:                  -6.701
REMARK INTRA:                  -0.183
REMARK UNBOUND:                -0.228
REMARK SMILES O=c1c(-c2ccc(O)cc2)coc2c(O)c(O)ccc12
REMARK SMILES IDX 3 1 11 2 12 3 13 4 20 5 2 6 1 7 19 8 18 9 16 10 14 11 4 12
REMARK SMILES IDX 5 13 6 14 7 15 10 16 9 17 8 18 15 20 17 22
REMARK H PARENT 8 19 15 21 17 23
REMARK Flexibility Score: inf
ROOT
ATOM      1  C   UNL     1     -28.879 -25.048  -2.220  1.00  0.00     0.065 A 
ATOM      2  C   UNL     1     -28.123 -25.076  -3.401  1.00  0.00     0.208 A 
ATOM      3  O   UNL     1     -27.788 -23.953  -4.025  1.00  0.00    -0.459 OA
ATOM      4  C   UNL     1     -28.136 -22.749  -3.581  1.00  0.00     0.183 A 
ATOM      5  C   UNL     1     -28.893 -22.624  -2.393  1.00  0.00     0.069 A 
ATOM      6  C   UNL     1     -29.262 -23.794  -1.705  1.00  0.00     0.200 A 
ATOM      7  O   UNL     1     -29.912 -23.721  -0.626  1.00  0.00    -0.288 OA
ATOM      8  C   UNL     1     -29.251 -21.345  -1.932  1.00  0.00     0.020 A 
ATOM      9  C   UNL     1     -28.863 -20.208  -2.644  1.00  0.00     0.051 A 
ATOM     10  C   UNL     1     -28.116 -20.326  -3.819  1.00  0.00     0.161 A 
ATOM     11  C   UNL     1     -27.748 -21.599  -4.292  1.00  0.00     0.201 A 
ENDROOT
BRANCH   1  12
ATOM     12  C   UNL     1     -29.248 -26.319  -1.545  1.00  0.00    -0.011 A 
ATOM     13  C   UNL     1     -28.262 -27.100  -0.918  1.00  0.00     0.013 A 
ATOM     14  C   UNL     1     -28.605 -28.301  -0.290  1.00  0.00     0.047 A 
ATOM     15  C   UNL     1     -29.935 -28.739  -0.286  1.00  0.00     0.115 A 
ATOM     16  C   UNL     1     -30.580 -26.768  -1.544  1.00  0.00     0.013 A 
ATOM     17  C   UNL     1     -30.920 -27.971  -0.915  1.00  0.00     0.047 A 
BRANCH  15  18
ATOM     18  O   UNL     1     -30.289 -29.934   0.336  1.00  0.00    -0.508 OA
ATOM     19  H   UNL     1     -29.739 -30.318   1.095  1.00  0.00     0.293 HD
ENDBRANCH  15  18
ENDBRANCH   1  12
BRANCH  11  20
ATOM     20  O   UNL     1     -27.001 -21.706  -5.467  1.00  0.00    -0.502 OA
ATOM     21  H   UNL     1     -25.993 -21.598  -5.477  1.00  0.00     0.293 HD
ENDBRANCH  11  20
BRANCH  10  22
ATOM     22  O   UNL     1     -27.747 -19.169  -4.503  1.00  0.00    -0.504 OA
ATOM     23  H   UNL     1     -28.254 -18.297  -4.401  1.00  0.00     0.293 HD
ENDBRANCH  10  22
TORSDOF 4
ENDMDL
MODEL 4
REMARK VINA RESULT:    -5.737      1.663      6.748
REMARK INTER + INTRA:          -6.803
REMARK INTER:                  -7.360
REMARK INTRA:                   0.557
REMARK UNBOUND:                -0.228
REMARK SMILES O=c1c(-c2ccc(O)cc2)coc2c(O)c(O)ccc12
REMARK SMILES IDX 3 1 11 2 12 3 13 4 20 5 2 6 1 7 19 8 18 9 16 10 14 11 4 12
REMARK SMILES IDX 5 13 6 14 7 15 10 16 9 17 8 18 15 20 17 22
REMARK H PARENT 8 19 15 21 17 23
REMARK Flexibility Score: inf
ROOT
ATOM      1  C   UNL     1     -28.439 -23.177  -3.234  1.00  0.00     0.065 A 
ATOM      2  C   UNL     1     -29.019 -22.444  -2.189  1.00  0.00     0.208 A 
ATOM      3  O   UNL     1     -29.645 -23.055  -1.190  1.00  0.00    -0.459 OA
ATOM      4  C   UNL     1     -29.760 -24.377  -1.112  1.00  0.00     0.183 A 
ATOM      5  C   UNL     1     -29.199 -25.197  -2.117  1.00  0.00     0.069 A 
ATOM      6  C   UNL     1     -28.526 -24.582  -3.188  1.00  0.00     0.200 A 
ATOM      7  O   UNL     1     -27.987 -25.282  -4.089  1.00  0.00    -0.288 OA
ATOM      8  C   UNL     1     -29.324 -26.594  -2.020  1.00  0.00     0.020 A 
ATOM      9  C   UNL     1     -29.999 -27.166  -0.940  1.00  0.00     0.051 A 
ATOM     10  C   UNL     1     -30.555 -26.359   0.057  1.00  0.00     0.161 A 
ATOM     11  C   UNL     1     -30.437 -24.960  -0.024  1.00  0.00     0.201 A 
ENDROOT
BRANCH   1  12
ATOM     12  C   UNL     1     -27.752 -22.469  -4.344  1.00  0.00    -0.011 A 
ATOM     13  C   UNL     1     -27.073 -23.198  -5.336  1.00  0.00     0.013 A 
ATOM     14  C   UNL     1     -26.418 -22.534  -6.378  1.00  0.00     0.047 A 
ATOM     15  C   UNL     1     -26.428 -21.134  -6.437  1.00  0.00     0.115 A 
ATOM     16  C   UNL     1     -27.752 -21.064  -4.406  1.00  0.00     0.013 A 
ATOM     17  C   UNL     1     -27.095 -20.403  -5.449  1.00  0.00     0.047 A 
BRANCH  15  18
ATOM     18  O   UNL     1     -25.779 -20.461  -7.469  1.00  0.00    -0.508 OA
ATOM     19  H   UNL     1     -25.569 -20.919  -8.350  1.00  0.00     0.293 HD
ENDBRANCH  15  18
ENDBRANCH   1  12
BRANCH  11  20
ATOM     20  O   UNL     1     -30.997 -24.164   0.977  1.00  0.00    -0.502 OA
ATOM     21  H   UNL     1     -30.831 -23.165   1.028  1.00  0.00     0.293 HD
ENDBRANCH  11  20
BRANCH  10  22
ATOM     22  O   UNL     1     -31.222 -26.965   1.121  1.00  0.00    -0.504 OA
ATOM     23  H   UNL     1     -31.919 -27.688   0.980  1.00  0.00     0.293 HD
ENDBRANCH  10  22
TORSDOF 4
ENDMDL
MODEL 5
REMARK VINA RESULT:    -5.671      0.857      0.944
REMARK INTER + INTRA:          -6.728
REMARK INTER:                  -6.546
REMARK INTRA:                  -0.181
REMARK UNBOUND:                -0.228
REMARK SMILES O=c1c(-c2ccc(O)cc2)coc2c(O)c(O)ccc12
REMARK SMILES IDX 3 1 11 2 12 3 13 4 20 5 2 6 1 7 19 8 18 9 16 10 14 11 4 12
REMARK SMILES IDX 5 13 6 14 7 15 10 16 9 17 8 18 15 20 17 22
REMARK H PARENT 8 19 15 21 17 23
REMARK Flexibility Score: inf
ROOT
ATOM      1  C   UNL     1     -28.985 -24.720  -2.007  1.00  0.00     0.065 A 
ATOM      2  C   UNL     1     -29.463 -23.589  -1.328  1.00  0.00     0.208 A 
ATOM      3  O   UNL     1     -29.253 -22.368  -1.803  1.00  0.00    -0.459 OA
ATOM      4  C   UNL     1     -28.591 -22.136  -2.932  1.00  0.00     0.183 A 
ATOM      5  C   UNL     1     -28.078 -23.216  -3.686  1.00  0.00     0.069 A 
ATOM      6  C   UNL     1     -28.286 -24.524  -3.213  1.00  0.00     0.200 A 
ATOM      7  O   UNL     1     -27.869 -25.515  -3.875  1.00  0.00    -0.288 OA
ATOM      8  C   UNL     1     -27.383 -22.958  -4.881  1.00  0.00     0.020 A 
ATOM      9  C   UNL     1     -27.199 -21.644  -5.317  1.00  0.00     0.051 A 
ATOM     10  C   UNL     1     -27.704 -20.573  -4.574  1.00  0.00     0.161 A 
ATOM     11  C   UNL     1     -28.403 -20.814  -3.378  1.00  0.00     0.201 A 
ENDROOT
BRANCH   1  12
ATOM     12  C   UNL     1     -29.226 -26.076  -1.450  1.00  0.00    -0.011 A 
ATOM     13  C   UNL     1     -28.160 -26.823  -0.919  1.00  0.00     0.013 A 
ATOM     14  C   UNL     1     -28.383 -28.103  -0.402  1.00  0.00     0.047 A 
ATOM     15  C   UNL     1     -29.671 -28.653  -0.415  1.00  0.00     0.115 A 
ATOM     16  C   UNL     1     -30.515 -26.637  -1.466  1.00  0.00     0.013 A 
ATOM     17  C   UNL     1     -30.734 -27.919  -0.949  1.00  0.00     0.047 A 
BRANCH  15  18
ATOM     18  O   UNL     1     -29.905 -29.928   0.097  1.00  0.00    -0.508 OA
ATOM     19  H   UNL     1     -30.846 -30.268   0.260  1.00  0.00     0.293 HD
ENDBRANCH  15  18
ENDBRANCH   1  12
BRANCH  11  20
ATOM     20  O   UNL     1     -28.903 -19.737  -2.644  1.00  0.00    -0.502 OA
ATOM     21  H   UNL     1     -29.111 -19.808  -1.655  1.00  0.00     0.293 HD
ENDBRANCH  11  20
BRANCH  10  22
ATOM     22  O   UNL     1     -27.501 -19.275  -5.040  1.00  0.00    -0.504 OA
ATOM     23  H   UNL     1     -27.534 -19.044  -6.027  1.00  0.00     0.293 HD
ENDBRANCH  10  22
TORSDOF 4
ENDMDL
MODEL 6
REMARK VINA RESULT:    -5.556      8.819     10.469
REMARK INTER + INTRA:          -6.596
REMARK INTER:                  -6.316
REMARK INTRA:                  -0.279
REMARK UNBOUND:                -0.228
REMARK SMILES O=c1c(-c2ccc(O)cc2)coc2c(O)c(O)ccc12
REMARK SMILES IDX 3 1 11 2 12 3 13 4 20 5 2 6 1 7 19 8 18 9 16 10 14 11 4 12
REMARK SMILES IDX 5 13 6 14 7 15 10 16 9 17 8 18 15 20 17 22
REMARK H PARENT 8 19 15 21 17 23
REMARK Flexibility Score: inf
ROOT
ATOM      1  C   UNL     1     -32.252 -32.205  -2.292  1.00  0.00     0.065 A 
ATOM      2  C   UNL     1     -32.496 -32.248  -3.672  1.00  0.00     0.208 A 
ATOM      3  O   UNL     1     -31.715 -32.951  -4.483  1.00  0.00    -0.459 OA
ATOM      4  C   UNL     1     -30.669 -33.650  -4.051  1.00  0.00     0.183 A 
ATOM      5  C   UNL     1     -30.351 -33.671  -2.674  1.00  0.00     0.069 A 
ATOM      6  C   UNL     1     -31.162 -32.940  -1.787  1.00  0.00     0.200 A 
ATOM      7  O   UNL     1     -30.926 -32.958  -0.547  1.00  0.00    -0.288 OA
ATOM      8  C   UNL     1     -29.246 -34.417  -2.230  1.00  0.00     0.020 A 
ATOM      9  C   UNL     1     -28.468 -35.132  -3.144  1.00  0.00     0.051 A 
ATOM     10  C   UNL     1     -28.778 -35.114  -4.507  1.00  0.00     0.161 A 
ATOM     11  C   UNL     1     -29.882 -34.373  -4.967  1.00  0.00     0.201 A 
ENDROOT
BRANCH   1  12
ATOM     12  C   UNL     1     -33.136 -31.405  -1.407  1.00  0.00    -0.011 A 
ATOM     13  C   UNL     1     -32.846 -30.053  -1.150  1.00  0.00     0.013 A 
ATOM     14  C   UNL     1     -33.671 -29.299  -0.311  1.00  0.00     0.047 A 
ATOM     15  C   UNL     1     -34.794 -29.888   0.286  1.00  0.00     0.115 A 
ATOM     16  C   UNL     1     -34.260 -31.991  -0.798  1.00  0.00     0.013 A 
ATOM     17  C   UNL     1     -35.084 -31.234   0.042  1.00  0.00     0.047 A 
BRANCH  15  18
ATOM     18  O   UNL     1     -35.624 -29.148   1.124  1.00  0.00    -0.508 OA
ATOM     19  H   UNL     1     -35.598 -28.134   1.134  1.00  0.00     0.293 HD
ENDBRANCH  15  18
ENDBRANCH   1  12
BRANCH  11  20
ATOM     20  O   UNL     1     -30.183 -34.363  -6.330  1.00  0.00    -0.502 OA
ATOM     21  H   UNL     1     -31.135 -34.313  -6.672  1.00  0.00     0.293 HD
ENDBRANCH  11  20
BRANCH  10  22
ATOM     22  O   UNL     1     -27.979 -35.839  -5.389  1.00  0.00    -0.504 OA
ATOM     23  H   UNL     1     -28.372 -36.462  -6.086  1.00  0.00     0.293 HD
ENDBRANCH  10  22
TORSDOF 4
ENDMDL
MODEL 7
REMARK VINA RESULT:    -5.466     10.317     12.241
REMARK INTER + INTRA:          -6.493
REMARK INTER:                  -6.309
REMARK INTRA:                  -0.184
REMARK UNBOUND:                -0.228
REMARK SMILES O=c1c(-c2ccc(O)cc2)coc2c(O)c(O)ccc12
REMARK SMILES IDX 3 1 11 2 12 3 13 4 20 5 2 6 1 7 19 8 18 9 16 10 14 11 4 12
REMARK SMILES IDX 5 13 6 14 7 15 10 16 9 17 8 18 15 20 17 22
REMARK H PARENT 8 19 15 21 17 23
REMARK Flexibility Score: inf
ROOT
ATOM      1  C   UNL     1     -25.369 -35.100  -4.532  1.00  0.00     0.065 A 
ATOM      2  C   UNL     1     -25.952 -35.221  -5.802  1.00  0.00     0.208 A 
ATOM      3  O   UNL     1     -27.233 -34.935  -5.996  1.00  0.00    -0.459 OA
ATOM      4  C   UNL     1     -28.036 -34.521  -5.020  1.00  0.00     0.183 A 
ATOM      5  C   UNL     1     -27.534 -34.364  -3.708  1.00  0.00     0.069 A 
ATOM      6  C   UNL     1     -26.178 -34.654  -3.469  1.00  0.00     0.200 A 
ATOM      7  O   UNL     1     -25.687 -34.497  -2.317  1.00  0.00    -0.288 OA
ATOM      8  C   UNL     1     -28.392 -33.921  -2.687  1.00  0.00     0.020 A 
ATOM      9  C   UNL     1     -29.731 -33.641  -2.966  1.00  0.00     0.051 A 
ATOM     10  C   UNL     1     -30.233 -33.796  -4.261  1.00  0.00     0.161 A 
ATOM     11  C   UNL     1     -29.387 -34.237  -5.295  1.00  0.00     0.201 A 
ENDROOT
BRANCH   1  12
ATOM     12  C   UNL     1     -23.934 -35.433  -4.339  1.00  0.00    -0.011 A 
ATOM     13  C   UNL     1     -23.512 -36.774  -4.345  1.00  0.00     0.013 A 
ATOM     14  C   UNL     1     -22.164 -37.092  -4.156  1.00  0.00     0.047 A 
ATOM     15  C   UNL     1     -21.223 -36.074  -3.953  1.00  0.00     0.115 A 
ATOM     16  C   UNL     1     -22.985 -34.418  -4.128  1.00  0.00     0.013 A 
ATOM     17  C   UNL     1     -21.637 -34.739  -3.938  1.00  0.00     0.047 A 
BRANCH  15  18
ATOM     18  O   UNL     1     -19.877 -36.378  -3.763  1.00  0.00    -0.508 OA
ATOM     19  H   UNL     1     -19.587 -37.175  -3.207  1.00  0.00     0.293 HD
ENDBRANCH  15  18
ENDBRANCH   1  12
BRANCH  11  20
ATOM     20  O   UNL     1     -29.898 -34.388  -6.585  1.00  0.00    -0.502 OA
ATOM     21  H   UNL     1     -30.371 -33.634  -7.070  1.00  0.00     0.293 HD
ENDBRANCH  11  20
BRANCH  10  22
ATOM     22  O   UNL     1     -31.575 -33.508  -4.503  1.00  0.00    -0.504 OA
ATOM     23  H   UNL     1     -32.109 -33.985  -5.221  1.00  0.00     0.293 HD
ENDBRANCH  10  22
TORSDOF 4
ENDMDL
MODEL 8
REMARK VINA RESULT:    -5.405      2.530      7.477
REMARK INTER + INTRA:          -6.424
REMARK INTER:                  -6.143
REMARK INTRA:                  -0.281
REMARK UNBOUND:                -0.228
REMARK SMILES O=c1c(-c2ccc(O)cc2)coc2c(O)c(O)ccc12
REMARK SMILES IDX 3 1 11 2 12 3 13 4 20 5 2 6 1 7 19 8 18 9 16 10 14 11 4 12
REMARK SMILES IDX 5 13 6 14 7 15 10 16 9 17 8 18 15 20 17 22
REMARK H PARENT 8 19 15 21 17 23
REMARK Flexibility Score: inf
ROOT
ATOM      1  C   UNL     1     -29.358 -23.042  -1.643  1.00  0.00     0.065 A 
ATOM      2  C   UNL     1     -28.865 -24.178  -2.301  1.00  0.00     0.208 A 
ATOM      3  O   UNL     1     -29.314 -25.391  -2.001  1.00  0.00    -0.459 OA
ATOM      4  C   UNL     1     -30.245 -25.607  -1.077  1.00  0.00     0.183 A 
ATOM      5  C   UNL     1     -30.805 -24.520  -0.367  1.00  0.00     0.069 A 
ATOM      6  C   UNL     1     -30.354 -23.221  -0.664  1.00  0.00     0.200 A 
ATOM      7  O   UNL     1     -30.852 -22.224  -0.072  1.00  0.00    -0.288 OA
ATOM      8  C   UNL     1     -31.792 -24.762   0.604  1.00  0.00     0.020 A 
ATOM      9  C   UNL     1     -32.214 -26.067   0.867  1.00  0.00     0.051 A 
ATOM     10  C   UNL     1     -31.662 -27.145   0.169  1.00  0.00     0.161 A 
ATOM     11  C   UNL     1     -30.675 -26.920  -0.808  1.00  0.00     0.201 A 
ENDROOT
BRANCH   1  12
ATOM     12  C   UNL     1     -28.833 -21.697  -1.992  1.00  0.00    -0.011 A 
ATOM     13  C   UNL     1     -27.731 -21.166  -1.299  1.00  0.00     0.013 A 
ATOM     14  C   UNL     1     -27.239 -19.896  -1.619  1.00  0.00     0.047 A 
ATOM     15  C   UNL     1     -27.847 -19.141  -2.630  1.00  0.00     0.115 A 
ATOM     16  C   UNL     1     -29.442 -20.930  -3.000  1.00  0.00     0.013 A 
ATOM     17  C   UNL     1     -28.948 -19.660  -3.317  1.00  0.00     0.047 A 
BRANCH  15  18
ATOM     18  O   UNL     1     -27.367 -17.875  -2.958  1.00  0.00    -0.508 OA
ATOM     19  H   UNL     1     -27.207 -17.603  -3.922  1.00  0.00     0.293 HD
ENDBRANCH  15  18
ENDBRANCH   1  12
BRANCH  11  20
ATOM     20  O   UNL     1     -30.132 -28.004  -1.499  1.00  0.00    -0.502 OA
ATOM     21  H   UNL     1     -30.467 -28.283  -2.414  1.00  0.00     0.293 HD
ENDBRANCH  11  20
BRANCH  10  22
ATOM     22  O   UNL     1     -32.108 -28.434   0.458  1.00  0.00    -0.504 OA
ATOM     23  H   UNL     1     -32.800 -28.907  -0.113  1.00  0.00     0.293 HD
ENDBRANCH  10  22
TORSDOF 4
ENDMDL
MODEL 9
REMARK VINA RESULT:    -3.666      1.364      7.122
REMARK INTER + INTRA:          -4.430
REMARK INTER:                  -4.985
REMARK INTRA:                   0.556
REMARK UNBOUND:                -0.228
REMARK SMILES O=c1c(-c2ccc(O)cc2)coc2c(O)c(O)ccc12
REMARK SMILES IDX 3 1 11 2 12 3 13 4 20 5 2 6 1 7 19 8 18 9 16 10 14 11 4 12
REMARK SMILES IDX 5 13 6 14 7 15 10 16 9 17 8 18 15 20 17 22
REMARK H PARENT 8 19 15 21 17 23
REMARK Flexibility Score: inf
ROOT
ATOM      1  C   UNL     1     -28.323 -23.905  -3.393  1.00  0.00     0.065 A 
ATOM      2  C   UNL     1     -28.122 -25.276  -3.606  1.00  0.00     0.208 A 
ATOM      3  O   UNL     1     -28.626 -26.179  -2.772  1.00  0.00    -0.459 OA
ATOM      4  C   UNL     1     -29.343 -25.851  -1.702  1.00  0.00     0.183 A 
ATOM      5  C   UNL     1     -29.602 -24.492  -1.412  1.00  0.00     0.069 A 
ATOM      6  C   UNL     1     -29.086 -23.510  -2.278  1.00  0.00     0.200 A 
ATOM      7  O   UNL     1     -29.321 -22.288  -2.068  1.00  0.00    -0.288 OA
ATOM      8  C   UNL     1     -30.366 -24.159  -0.280  1.00  0.00     0.020 A 
ATOM      9  C   UNL     1     -30.863 -25.164   0.553  1.00  0.00     0.051 A 
ATOM     10  C   UNL     1     -30.608 -26.509   0.271  1.00  0.00     0.161 A 
ATOM     11  C   UNL     1     -29.848 -26.859  -0.859  1.00  0.00     0.201 A 
ENDROOT
BRANCH   1  12
ATOM     12  C   UNL     1     -27.741 -22.916  -4.336  1.00  0.00    -0.011 A 
ATOM     13  C   UNL     1     -27.927 -21.538  -4.121  1.00  0.00     0.013 A 
ATOM     14  C   UNL     1     -27.388 -20.605  -5.012  1.00  0.00     0.047 A 
ATOM     15  C   UNL     1     -26.662 -21.036  -6.130  1.00  0.00     0.115 A 
ATOM     16  C   UNL     1     -27.017 -23.341  -5.464  1.00  0.00     0.013 A 
ATOM     17  C   UNL     1     -26.480 -22.404  -6.353  1.00  0.00     0.047 A 
BRANCH  15  18
ATOM     18  O   UNL     1     -26.120 -20.116  -7.024  1.00  0.00    -0.508 OA
ATOM     19  H   UNL     1     -25.644 -20.415  -7.868  1.00  0.00     0.293 HD
ENDBRANCH  15  18
ENDBRANCH   1  12
BRANCH  11  20
ATOM     20  O   UNL     1     -29.600 -28.205  -1.131  1.00  0.00    -0.502 OA
ATOM     21  H   UNL     1     -29.723 -28.600  -2.056  1.00  0.00     0.293 HD
ENDBRANCH  11  20
BRANCH  10  22
ATOM     22  O   UNL     1     -31.120 -27.485   1.125  1.00  0.00    -0.504 OA
ATOM     23  H   UNL     1     -31.288 -27.307   2.109  1.00  0.00     0.293 HD
ENDBRANCH  10  22
TORSDOF 4
ENDMDL
