MODEL 1
REMARK VINA RESULT:    -4.927      0.000      0.000
REMARK INTER + INTRA:          -8.246
REMARK INTER:                  -7.087
REMARK INTRA:                  -1.159
REMARK UNBOUND:                -1.159
REMARK SMILES O=c1cc(-c2ccc(O)c(O)c2)oc2cc(O[C@@H]3O[C@H](CO)[C@@H](O)[C@@H](O)[C@@H]3O)cc(O)c12
REMARK SMILES IDX 17 1 16 2 4 3 3 4 13 5 2 6 14 7 1 8 32 9 15 10 30 11 29 12
REMARK SMILES IDX 5 13 6 14 7 15 8 16 12 17 10 18 9 19 11 21 31 23 18 25 27 26
REMARK SMILES IDX 19 27 25 28 20 29 23 30 28 31 26 33 21 35 22 36 24 38
REMARK H PARENT 9 20 11 22 31 24 28 32 26 34 22 37 24 39
REMARK Flexibility Score: inf
ROOT
ATOM      1  O   UNL     1      -2.071   8.215   3.440  1.00  0.00    -0.462 OA
ENDROOT
BRANCH   1   2
ATOM      2  C   UNL     1      -0.716   8.192   3.068  1.00  0.00     0.130 A 
ATOM      3  C   UNL     1       2.419   6.762  -0.226  1.00  0.00     0.138 A 
ATOM      4  C   UNL     1       3.492   7.393   0.419  1.00  0.00     0.100 A 
ATOM      5  O   UNL     1       1.203   6.847   0.302  1.00  0.00    -0.456 OA
ATOM      6  C   UNL     1       3.273   8.077   1.615  1.00  0.00     0.197 A 
ATOM      7  C   UNL     1       0.940   7.480   1.441  1.00  0.00     0.146 A 
ATOM      8  O   UNL     1       4.242   8.687   2.137  1.00  0.00    -0.289 OA
ATOM      9  C   UNL     1       1.977   8.100   2.184  1.00  0.00     0.107 A 
ATOM     10  C   UNL     1      -0.381   7.527   1.889  1.00  0.00     0.094 A 
ATOM     11  C   UNL     1       1.644   8.730   3.418  1.00  0.00     0.134 A 
ATOM     12  C   UNL     1       0.305   8.791   3.826  1.00  0.00     0.093 A 
BRANCH   3  13
ATOM     13  C   UNL     1       2.596   6.020  -1.499  1.00  0.00     0.021 A 
ATOM     14  C   UNL     1       3.752   5.260  -1.760  1.00  0.00     0.016 A 
ATOM     15  C   UNL     1       3.887   4.564  -2.963  1.00  0.00     0.051 A 
ATOM     16  C   UNL     1       2.869   4.606  -3.924  1.00  0.00     0.157 A 
ATOM     17  C   UNL     1       1.572   6.046  -2.464  1.00  0.00     0.062 A 
ATOM     18  C   UNL     1       1.706   5.350  -3.670  1.00  0.00     0.158 A 
BRANCH  16  19
ATOM     19  O   UNL     1       3.008   3.911  -5.124  1.00  0.00    -0.504 OA
ATOM     20  H   UNL     1       3.719   4.159  -5.801  1.00  0.00     0.293 HD
ENDBRANCH  16  19
BRANCH  18  21
ATOM     21  O   UNL     1       0.672   5.410  -4.604  1.00  0.00    -0.504 OA
ATOM     22  H   UNL     1       0.001   4.659  -4.714  1.00  0.00     0.293 HD
ENDBRANCH  18  21
ENDBRANCH   3  13
BRANCH  11  23
ATOM     23  O   UNL     1       2.586   9.285   4.290  1.00  0.00    -0.507 OA
ATOM     24  H   UNL     1       3.427   8.822   4.600  1.00  0.00     0.293 HD
ENDBRANCH  11  23
ENDBRANCH   1   2
BRANCH   1  25
ATOM     25  C   UNL     1      -3.076   9.129   2.987  1.00  0.00     0.339 C 
ATOM     26  C   UNL     1      -4.251   8.411   2.284  1.00  0.00     0.214 C 
ATOM     27  O   UNL     1      -3.522   9.939   4.067  1.00  0.00    -0.332 OA
ATOM     28  C   UNL     1      -5.065   7.585   3.291  1.00  0.00     0.180 C 
ATOM     29  C   UNL     1      -4.283   9.244   5.051  1.00  0.00     0.179 C 
ATOM     30  C   UNL     1      -5.497   8.483   4.460  1.00  0.00     0.177 C 
BRANCH  26  31
ATOM     31  O   UNL     1      -3.809   7.623   1.207  1.00  0.00    -0.384 OA
ATOM     32  H   UNL     1      -3.283   8.202   0.596  1.00  0.00     0.211 HD
ENDBRANCH  26  31
BRANCH  28  33
ATOM     33  O   UNL     1      -6.191   7.046   2.651  1.00  0.00    -0.387 OA
ATOM     34  H   UNL     1      -6.891   7.751   2.659  1.00  0.00     0.211 HD
ENDBRANCH  28  33
BRANCH  29  35
ATOM     35  C   UNL     1      -3.418   8.370   5.985  1.00  0.00     0.191 C 
BRANCH  35  36
ATOM     36  O   UNL     1      -2.253   9.052   6.364  1.00  0.00    -0.394 OA
ATOM     37  H   UNL     1      -2.535   9.965   6.635  1.00  0.00     0.210 HD
ENDBRANCH  35  36
ENDBRANCH  29  35
BRANCH  30  38
ATOM     38  O   UNL     1      -6.459   9.405   4.010  1.00  0.00    -0.387 OA
ATOM     39  H   UNL     1      -7.338   9.095   4.352  1.00  0.00     0.211 HD
ENDBRANCH  30  38
ENDBRANCH   1  25
TORSDOF 11
ENDMDL
MODEL 2
REMARK VINA RESULT:    -4.852      1.588      8.696
REMARK INTER + INTRA:          -8.139
REMARK INTER:                  -6.985
REMARK INTRA:                  -1.154
REMARK UNBOUND:                -1.159
REMARK SMILES O=c1cc(-c2ccc(O)c(O)c2)oc2cc(O[C@@H]3O[C@H](CO)[C@@H](O)[C@@H](O)[C@@H]3O)cc(O)c12
REMARK SMILES IDX 17 1 16 2 4 3 3 4 13 5 2 6 14 7 1 8 32 9 15 10 30 11 29 12
REMARK SMILES IDX 5 13 6 14 7 15 8 16 12 17 10 18 9 19 11 21 31 23 18 25 27 26
REMARK SMILES IDX 19 27 25 28 20 29 23 30 28 31 26 33 21 35 22 36 24 38
REMARK H PARENT 9 20 11 22 31 24 28 32 26 34 22 37 24 39
REMARK Flexibility Score: inf
ROOT
ATOM      1  O   UNL     1       2.532   6.549  -1.782  1.00  0.00    -0.462 OA
ENDROOT
BRANCH   1   2
ATOM      2  C   UNL     1       2.266   7.111  -0.522  1.00  0.00     0.130 A 
ATOM      3  C   UNL     1      -1.087   7.972   2.754  1.00  0.00     0.138 A 
ATOM      4  C   UNL     1      -0.164   8.512   3.660  1.00  0.00     0.100 A 
ATOM      5  O   UNL     1      -0.660   7.531   1.576  1.00  0.00    -0.456 OA
ATOM      6  C   UNL     1       1.181   8.603   3.303  1.00  0.00     0.197 A 
ATOM      7  C   UNL     1       0.607   7.599   1.184  1.00  0.00     0.146 A 
ATOM      8  O   UNL     1       1.996   9.033   4.160  1.00  0.00    -0.289 OA
ATOM      9  C   UNL     1       1.597   8.179   2.018  1.00  0.00     0.107 A 
ATOM     10  C   UNL     1       0.948   7.082  -0.067  1.00  0.00     0.094 A 
ATOM     11  C   UNL     1       2.934   8.262   1.529  1.00  0.00     0.134 A 
ATOM     12  C   UNL     1       3.252   7.704   0.285  1.00  0.00     0.093 A 
BRANCH   3  13
ATOM     13  C   UNL     1      -2.530   7.853   3.082  1.00  0.00     0.021 A 
ATOM     14  C   UNL     1      -2.986   7.804   4.414  1.00  0.00     0.016 A 
ATOM     15  C   UNL     1      -4.351   7.702   4.692  1.00  0.00     0.051 A 
ATOM     16  C   UNL     1      -5.285   7.656   3.651  1.00  0.00     0.157 A 
ATOM     17  C   UNL     1      -3.477   7.821   2.042  1.00  0.00     0.062 A 
ATOM     18  C   UNL     1      -4.845   7.719   2.319  1.00  0.00     0.158 A 
BRANCH  16  19
ATOM     19  O   UNL     1      -6.647   7.554   3.933  1.00  0.00    -0.504 OA
ATOM     20  H   UNL     1      -7.029   6.750   4.415  1.00  0.00     0.293 HD
ENDBRANCH  16  19
BRANCH  18  21
ATOM     21  O   UNL     1      -5.749   7.679   1.259  1.00  0.00    -0.504 OA
ATOM     22  H   UNL     1      -5.446   7.676   0.292  1.00  0.00     0.293 HD
ENDBRANCH  18  21
ENDBRANCH   3  13
BRANCH  11  23
ATOM     23  O   UNL     1       3.975   8.902   2.210  1.00  0.00    -0.507 OA
ATOM     24  H   UNL     1       4.239   9.867   2.083  1.00  0.00     0.293 HD
ENDBRANCH  11  23
ENDBRANCH   1   2
BRANCH   1  25
ATOM     25  C   UNL     1       2.066   5.290  -2.282  1.00  0.00     0.339 C 
ATOM     26  C   UNL     1       1.559   5.387  -3.739  1.00  0.00     0.214 C 
ATOM     27  O   UNL     1       3.079   4.303  -2.141  1.00  0.00    -0.332 OA
ATOM     28  C   UNL     1       2.723   5.652  -4.705  1.00  0.00     0.180 C 
ATOM     29  C   UNL     1       4.202   4.480  -3.001  1.00  0.00     0.179 C 
ATOM     30  C   UNL     1       3.813   4.590  -4.498  1.00  0.00     0.177 C 
BRANCH  26  31
ATOM     31  O   UNL     1       0.546   6.353  -3.874  1.00  0.00    -0.384 OA
ATOM     32  H   UNL     1       0.003   6.350  -3.043  1.00  0.00     0.211 HD
ENDBRANCH  26  31
BRANCH  28  33
ATOM     33  O   UNL     1       2.252   5.613  -6.027  1.00  0.00    -0.387 OA
ATOM     34  H   UNL     1       1.440   5.042  -6.025  1.00  0.00     0.211 HD
ENDBRANCH  28  33
BRANCH  29  35
ATOM     35  C   UNL     1       5.150   5.608  -2.539  1.00  0.00     0.191 C 
BRANCH  35  36
ATOM     36  O   UNL     1       5.425   5.494  -1.169  1.00  0.00    -0.394 OA
ATOM     37  H   UNL     1       5.221   4.556  -0.916  1.00  0.00     0.210 HD
ENDBRANCH  35  36
ENDBRANCH  29  35
BRANCH  30  38
ATOM     38  O   UNL     1       3.346   3.345  -4.956  1.00  0.00    -0.387 OA
ATOM     39  H   UNL     1       3.998   3.023  -5.632  1.00  0.00     0.211 HD
ENDBRANCH  30  38
ENDBRANCH   1  25
TORSDOF 11
ENDMDL
MODEL 3
REMARK VINA RESULT:    -4.797      5.798      9.554
REMARK INTER + INTRA:          -8.060
REMARK INTER:                  -6.966
REMARK INTRA:                  -1.094
REMARK UNBOUND:                -1.159
REMARK SMILES O=c1cc(-c2ccc(O)c(O)c2)oc2cc(O[C@@H]3O[C@H](CO)[C@@H](O)[C@@H](O)[C@@H]3O)cc(O)c12
REMARK SMILES IDX 17 1 16 2 4 3 3 4 13 5 2 6 14 7 1 8 32 9 15 10 30 11 29 12
REMARK SMILES IDX 5 13 6 14 7 15 8 16 12 17 10 18 9 19 11 21 31 23 18 25 27 26
REMARK SMILES IDX 19 27 25 28 20 29 23 30 28 31 26 33 21 35 22 36 24 38
REMARK H PARENT 9 20 11 22 31 24 28 32 26 34 22 37 24 39
REMARK Flexibility Score: inf
ROOT
ATOM      1  O   UNL     1       4.160   5.796  -2.625  1.00  0.00    -0.462 OA
ENDROOT
BRANCH   1   2
ATOM      2  C   UNL     1       5.245   5.628  -1.748  1.00  0.00     0.130 A 
ATOM      3  C   UNL     1       6.957   6.582   2.597  1.00  0.00     0.138 A 
ATOM      4  C   UNL     1       8.111   5.814   2.389  1.00  0.00     0.100 A 
ATOM      5  O   UNL     1       6.052   6.671   1.628  1.00  0.00    -0.456 OA
ATOM      6  C   UNL     1       8.305   5.177   1.163  1.00  0.00     0.197 A 
ATOM      7  C   UNL     1       6.190   6.090   0.442  1.00  0.00     0.146 A 
ATOM      8  O   UNL     1       9.318   4.443   1.027  1.00  0.00    -0.289 OA
ATOM      9  C   UNL     1       7.351   5.339   0.129  1.00  0.00     0.107 A 
ATOM     10  C   UNL     1       5.162   6.230  -0.493  1.00  0.00     0.094 A 
ATOM     11  C   UNL     1       7.462   4.771  -1.174  1.00  0.00     0.134 A 
ATOM     12  C   UNL     1       6.401   4.899  -2.079  1.00  0.00     0.093 A 
BRANCH   3  13
ATOM     13  C   UNL     1       6.702   7.281   3.881  1.00  0.00     0.021 A 
ATOM     14  C   UNL     1       5.445   7.235   4.513  1.00  0.00     0.016 A 
ATOM     15  C   UNL     1       5.237   7.895   5.727  1.00  0.00     0.051 A 
ATOM     16  C   UNL     1       6.280   8.604   6.336  1.00  0.00     0.157 A 
ATOM     17  C   UNL     1       7.749   7.984   4.506  1.00  0.00     0.062 A 
ATOM     18  C   UNL     1       7.542   8.646   5.722  1.00  0.00     0.158 A 
BRANCH  16  19
ATOM     19  O   UNL     1       6.068   9.261   7.547  1.00  0.00    -0.504 OA
ATOM     20  H   UNL     1       5.210   9.140   8.072  1.00  0.00     0.293 HD
ENDBRANCH  16  19
BRANCH  18  21
ATOM     21  O   UNL     1       8.602   9.340   6.304  1.00  0.00    -0.504 OA
ATOM     22  H   UNL     1       8.491   9.879   7.154  1.00  0.00     0.293 HD
ENDBRANCH  18  21
ENDBRANCH   3  13
BRANCH  11  23
ATOM     23  O   UNL     1       8.598   4.099  -1.637  1.00  0.00    -0.507 OA
ATOM     24  H   UNL     1       9.107   4.337  -2.474  1.00  0.00     0.293 HD
ENDBRANCH  11  23
ENDBRANCH   1   2
BRANCH   1  25
ATOM     25  C   UNL     1       3.064   4.896  -2.825  1.00  0.00     0.339 C 
ATOM     26  C   UNL     1       1.720   5.487  -2.341  1.00  0.00     0.214 C 
ATOM     27  O   UNL     1       3.004   4.496  -4.188  1.00  0.00    -0.332 OA
ATOM     28  C   UNL     1       1.284   6.654  -3.239  1.00  0.00     0.180 C 
ATOM     29  C   UNL     1       2.611   5.527  -5.090  1.00  0.00     0.179 C 
ATOM     30  C   UNL     1       1.267   6.196  -4.704  1.00  0.00     0.177 C 
BRANCH  26  31
ATOM     31  O   UNL     1       1.777   5.868  -0.989  1.00  0.00    -0.384 OA
ATOM     32  H   UNL     1       2.342   5.210  -0.506  1.00  0.00     0.211 HD
ENDBRANCH  26  31
BRANCH  28  33
ATOM     33  O   UNL     1       0.007   7.090  -2.851  1.00  0.00    -0.387 OA
ATOM     34  H   UNL     1      -0.129   7.983  -3.265  1.00  0.00     0.211 HD
ENDBRANCH  28  33
BRANCH  29  35
ATOM     35  C   UNL     1       3.734   6.547  -5.376  1.00  0.00     0.191 C 
BRANCH  35  36
ATOM     36  O   UNL     1       4.969   5.898  -5.518  1.00  0.00    -0.394 OA
ATOM     37  H   UNL     1       5.041   5.256  -4.764  1.00  0.00     0.210 HD
ENDBRANCH  35  36
ENDBRANCH  29  35
BRANCH  30  38
ATOM     38  O   UNL     1       0.214   5.285  -4.897  1.00  0.00    -0.387 OA
ATOM     39  H   UNL     1       0.368   4.845  -5.774  1.00  0.00     0.211 HD
ENDBRANCH  30  38
ENDBRANCH   1  25
TORSDOF 11
ENDMDL
MODEL 4
REMARK VINA RESULT:    -4.768      5.152      9.060
REMARK INTER + INTRA:          -8.018
REMARK INTER:                  -6.892
REMARK INTRA:                  -1.126
REMARK UNBOUND:                -1.159
REMARK SMILES O=c1cc(-c2ccc(O)c(O)c2)oc2cc(O[C@@H]3O[C@H](CO)[C@@H](O)[C@@H](O)[C@@H]3O)cc(O)c12
REMARK SMILES IDX 17 1 16 2 4 3 3 4 13 5 2 6 14 7 1 8 32 9 15 10 30 11 29 12
REMARK SMILES IDX 5 13 6 14 7 15 8 16 12 17 10 18 9 19 11 21 31 23 18 25 27 26
REMARK SMILES IDX 19 27 25 28 20 29 23 30 28 31 26 33 21 35 22 36 24 38
REMARK H PARENT 9 20 11 22 31 24 28 32 26 34 22 37 24 39
REMARK Flexibility Score: inf
ROOT
ATOM      1  O   UNL     1       3.529   6.674  -1.501  1.00  0.00    -0.462 OA
ENDROOT
BRANCH   1   2
ATOM      2  C   UNL     1       4.685   6.411  -0.745  1.00  0.00     0.130 A 
ATOM      3  C   UNL     1       6.892   7.134   3.417  1.00  0.00     0.138 A 
ATOM      4  C   UNL     1       7.964   6.298   3.074  1.00  0.00     0.100 A 
ATOM      5  O   UNL     1       5.901   7.308   2.549  1.00  0.00    -0.456 OA
ATOM      6  C   UNL     1       7.988   5.684   1.822  1.00  0.00     0.197 A 
ATOM      7  C   UNL     1       5.876   6.752   1.343  1.00  0.00     0.146 A 
ATOM      8  O   UNL     1       8.930   4.889   1.567  1.00  0.00    -0.289 OA
ATOM      9  C   UNL     1       6.946   5.935   0.897  1.00  0.00     0.107 A 
ATOM     10  C   UNL     1       4.771   6.984   0.523  1.00  0.00     0.094 A 
ATOM     11  C   UNL     1       6.886   5.397  -0.422  1.00  0.00     0.134 A 
ATOM     12  C   UNL     1       5.748   5.619  -1.209  1.00  0.00     0.093 A 
BRANCH   3  13
ATOM     13  C   UNL     1       6.817   7.813   4.735  1.00  0.00     0.021 A 
ATOM     14  C   UNL     1       7.954   8.382   5.341  1.00  0.00     0.016 A 
ATOM     15  C   UNL     1       7.851   9.025   6.577  1.00  0.00     0.051 A 
ATOM     16  C   UNL     1       6.614   9.118   7.226  1.00  0.00     0.157 A 
ATOM     17  C   UNL     1       5.576   7.924   5.387  1.00  0.00     0.062 A 
ATOM     18  C   UNL     1       5.471   8.566   6.626  1.00  0.00     0.158 A 
BRANCH  16  19
ATOM     19  O   UNL     1       6.517   9.759   8.460  1.00  0.00    -0.504 OA
ATOM     20  H   UNL     1       6.198   9.270   9.288  1.00  0.00     0.293 HD
ENDBRANCH  16  19
BRANCH  18  21
ATOM     21  O   UNL     1       4.224   8.645   7.245  1.00  0.00    -0.504 OA
ATOM     22  H   UNL     1       3.918   9.477   7.735  1.00  0.00     0.293 HD
ENDBRANCH  18  21
ENDBRANCH   3  13
BRANCH  11  23
ATOM     23  O   UNL     1       7.920   4.665  -1.014  1.00  0.00    -0.507 OA
ATOM     24  H   UNL     1       8.411   3.903  -0.574  1.00  0.00     0.293 HD
ENDBRANCH  11  23
ENDBRANCH   1   2
BRANCH   1  25
ATOM     25  C   UNL     1       2.645   5.713  -2.089  1.00  0.00     0.339 C 
ATOM     26  C   UNL     1       1.169   5.957  -1.704  1.00  0.00     0.214 C 
ATOM     27  O   UNL     1       2.824   5.684  -3.500  1.00  0.00    -0.332 OA
ATOM     28  C   UNL     1       0.642   7.246  -2.351  1.00  0.00     0.180 C 
ATOM     29  C   UNL     1       2.365   6.851  -4.178  1.00  0.00     0.179 C 
ATOM     30  C   UNL     1       0.886   7.196  -3.867  1.00  0.00     0.177 C 
BRANCH  26  31
ATOM     31  O   UNL     1       0.991   5.970  -0.309  1.00  0.00    -0.384 OA
ATOM     32  H   UNL     1       0.482   5.157  -0.054  1.00  0.00     0.211 HD
ENDBRANCH  26  31
BRANCH  28  33
ATOM     33  O   UNL     1      -0.729   7.378  -2.084  1.00  0.00    -0.387 OA
ATOM     34  H   UNL     1      -0.961   6.674  -1.422  1.00  0.00     0.211 HD
ENDBRANCH  28  33
BRANCH  29  35
ATOM     35  C   UNL     1       3.313   8.059  -4.021  1.00  0.00     0.191 C 
BRANCH  35  36
ATOM     36  O   UNL     1       4.652   7.654  -4.118  1.00  0.00    -0.394 OA
ATOM     37  H   UNL     1       4.862   7.165  -3.280  1.00  0.00     0.210 HD
ENDBRANCH  35  36
ENDBRANCH  29  35
BRANCH  30  38
ATOM     38  O   UNL     1       0.044   6.228  -4.443  1.00  0.00    -0.387 OA
ATOM     39  H   UNL     1       0.424   6.009  -5.334  1.00  0.00     0.211 HD
ENDBRANCH  30  38
ENDBRANCH   1  25
TORSDOF 11
ENDMDL
MODEL 5
REMARK VINA RESULT:    -4.767     12.958     16.721
REMARK INTER + INTRA:          -8.017
REMARK INTER:                  -6.929
REMARK INTRA:                  -1.088
REMARK UNBOUND:                -1.159
REMARK SMILES O=c1cc(-c2ccc(O)c(O)c2)oc2cc(O[C@@H]3O[C@H](CO)[C@@H](O)[C@@H](O)[C@@H]3O)cc(O)c12
REMARK SMILES IDX 17 1 16 2 4 3 3 4 13 5 2 6 14 7 1 8 32 9 15 10 30 11 29 12
REMARK SMILES IDX 5 13 6 14 7 15 8 16 12 17 10 18 9 19 11 21 31 23 18 25 27 26
REMARK SMILES IDX 19 27 25 28 20 29 23 30 28 31 26 33 21 35 22 36 24 38
REMARK H PARENT 9 20 11 22 31 24 28 32 26 34 22 37 24 39
REMARK Flexibility Score: inf
ROOT
ATOM      1  O   UNL     1       6.436  -4.399  -2.510  1.00  0.00    -0.462 OA
ENDROOT
BRANCH   1   2
ATOM      2  C   UNL     1       6.929  -5.193  -1.460  1.00  0.00     0.130 A 
ATOM      3  C   UNL     1       5.803  -7.572   2.513  1.00  0.00     0.138 A 
ATOM      4  C   UNL     1       7.104  -8.069   2.670  1.00  0.00     0.100 A 
ATOM      5  O   UNL     1       5.527  -6.786   1.478  1.00  0.00    -0.456 OA
ATOM      6  C   UNL     1       8.094  -7.711   1.754  1.00  0.00     0.197 A 
ATOM      7  C   UNL     1       6.432  -6.411   0.582  1.00  0.00     0.146 A 
ATOM      8  O   UNL     1       9.237  -8.223   1.883  1.00  0.00    -0.289 OA
ATOM      9  C   UNL     1       7.784  -6.825   0.695  1.00  0.00     0.107 A 
ATOM     10  C   UNL     1       6.025  -5.602  -0.481  1.00  0.00     0.094 A 
ATOM     11  C   UNL     1       8.721  -6.358  -0.273  1.00  0.00     0.134 A 
ATOM     12  C   UNL     1       8.276  -5.577  -1.347  1.00  0.00     0.093 A 
BRANCH   3  13
ATOM     13  C   UNL     1       4.712  -7.920   3.459  1.00  0.00     0.021 A 
ATOM     14  C   UNL     1       4.241  -9.240   3.594  1.00  0.00     0.016 A 
ATOM     15  C   UNL     1       3.221  -9.539   4.499  1.00  0.00     0.051 A 
ATOM     16  C   UNL     1       2.658  -8.531   5.291  1.00  0.00     0.157 A 
ATOM     17  C   UNL     1       4.151  -6.915   4.269  1.00  0.00     0.062 A 
ATOM     18  C   UNL     1       3.128  -7.213   5.176  1.00  0.00     0.158 A 
BRANCH  16  19
ATOM     19  O   UNL     1       1.639  -8.834   6.193  1.00  0.00    -0.504 OA
ATOM     20  H   UNL     1       1.821  -8.932   7.185  1.00  0.00     0.293 HD
ENDBRANCH  16  19
BRANCH  18  21
ATOM     21  O   UNL     1       2.592  -6.186   5.952  1.00  0.00    -0.504 OA
ATOM     22  H   UNL     1       1.626  -6.190   6.257  1.00  0.00     0.293 HD
ENDBRANCH  18  21
ENDBRANCH   3  13
BRANCH  11  23
ATOM     23  O   UNL     1      10.095  -6.610  -0.214  1.00  0.00    -0.507 OA
ATOM     24  H   UNL     1      10.599  -6.860   0.623  1.00  0.00     0.293 HD
ENDBRANCH  11  23
ENDBRANCH   1   2
BRANCH   1  25
ATOM     25  C   UNL     1       5.070  -4.044  -2.756  1.00  0.00     0.339 C 
ATOM     26  C   UNL     1       4.931  -2.636  -3.379  1.00  0.00     0.214 C 
ATOM     27  O   UNL     1       4.444  -5.039  -3.556  1.00  0.00    -0.332 OA
ATOM     28  C   UNL     1       5.482  -2.617  -4.812  1.00  0.00     0.180 C 
ATOM     29  C   UNL     1       4.905  -5.091  -4.903  1.00  0.00     0.179 C 
ATOM     30  C   UNL     1       4.811  -3.727  -5.634  1.00  0.00     0.177 C 
BRANCH  26  31
ATOM     31  O   UNL     1       5.537  -1.652  -2.579  1.00  0.00    -0.384 OA
ATOM     32  H   UNL     1       6.229  -2.091  -2.019  1.00  0.00     0.211 HD
ENDBRANCH  26  31
BRANCH  28  33
ATOM     33  O   UNL     1       5.232  -1.364  -5.392  1.00  0.00    -0.387 OA
ATOM     34  H   UNL     1       4.253  -1.311  -5.550  1.00  0.00     0.211 HD
ENDBRANCH  28  33
BRANCH  29  35
ATOM     35  C   UNL     1       6.289  -5.760  -5.047  1.00  0.00     0.191 C 
BRANCH  35  36
ATOM     36  O   UNL     1       6.343  -6.951  -4.310  1.00  0.00    -0.394 OA
ATOM     37  H   UNL     1       5.644  -6.882  -3.608  1.00  0.00     0.210 HD
ENDBRANCH  35  36
ENDBRANCH  29  35
BRANCH  30  38
ATOM     38  O   UNL     1       3.461  -3.399  -5.849  1.00  0.00    -0.387 OA
ATOM     39  H   UNL     1       2.978  -3.593  -5.003  1.00  0.00     0.211 HD
ENDBRANCH  30  38
ENDBRANCH   1  25
TORSDOF 11
ENDMDL
MODEL 6
REMARK VINA RESULT:    -4.764     12.490     15.835
REMARK INTER + INTRA:          -8.013
REMARK INTER:                  -7.181
REMARK INTRA:                  -0.831
REMARK UNBOUND:                -1.159
REMARK SMILES O=c1cc(-c2ccc(O)c(O)c2)oc2cc(O[C@@H]3O[C@H](CO)[C@@H](O)[C@@H](O)[C@@H]3O)cc(O)c12
REMARK SMILES IDX 17 1 16 2 4 3 3 4 13 5 2 6 14 7 1 8 32 9 15 10 30 11 29 12
REMARK SMILES IDX 5 13 6 14 7 15 8 16 12 17 10 18 9 19 11 21 31 23 18 25 27 26
REMARK SMILES IDX 19 27 25 28 20 29 23 30 28 31 26 33 21 35 22 36 24 38
REMARK H PARENT 9 20 11 22 31 24 28 32 26 34 22 37 24 39
REMARK Flexibility Score: inf
ROOT
ATOM      1  O   UNL     1       4.920  -3.393  -4.447  1.00  0.00    -0.462 OA
ENDROOT
BRANCH   1   2
ATOM      2  C   UNL     1       4.075  -3.633  -5.544  1.00  0.00     0.130 A 
ATOM      3  C   UNL     1      -0.082  -5.489  -6.957  1.00  0.00     0.138 A 
ATOM      4  C   UNL     1       0.095  -5.060  -8.280  1.00  0.00     0.100 A 
ATOM      5  O   UNL     1       0.854  -5.215  -6.054  1.00  0.00    -0.456 OA
ATOM      6  C   UNL     1       1.259  -4.378  -8.634  1.00  0.00     0.197 A 
ATOM      7  C   UNL     1       1.982  -4.573  -6.340  1.00  0.00     0.146 A 
ATOM      8  O   UNL     1       1.362  -3.949  -9.813  1.00  0.00    -0.289 OA
ATOM      9  C   UNL     1       2.264  -4.152  -7.664  1.00  0.00     0.107 A 
ATOM     10  C   UNL     1       2.884  -4.317  -5.306  1.00  0.00     0.094 A 
ATOM     11  C   UNL     1       3.508  -3.504  -7.919  1.00  0.00     0.134 A 
ATOM     12  C   UNL     1       4.378  -3.230  -6.856  1.00  0.00     0.093 A 
BRANCH   3  13
ATOM     13  C   UNL     1      -1.300  -6.220  -6.527  1.00  0.00     0.021 A 
ATOM     14  C   UNL     1      -1.235  -7.303  -5.629  1.00  0.00     0.016 A 
ATOM     15  C   UNL     1      -2.399  -7.966  -5.234  1.00  0.00     0.051 A 
ATOM     16  C   UNL     1      -3.647  -7.556  -5.718  1.00  0.00     0.157 A 
ATOM     17  C   UNL     1      -2.559  -5.805  -6.998  1.00  0.00     0.062 A 
ATOM     18  C   UNL     1      -3.726  -6.469  -6.603  1.00  0.00     0.158 A 
BRANCH  16  19
ATOM     19  O   UNL     1      -4.807  -8.221  -5.321  1.00  0.00    -0.504 OA
ATOM     20  H   UNL     1      -5.356  -7.903  -4.531  1.00  0.00     0.293 HD
ENDBRANCH  16  19
BRANCH  18  21
ATOM     21  O   UNL     1      -4.954  -6.033  -7.101  1.00  0.00    -0.504 OA
ATOM     22  H   UNL     1      -5.828  -6.473  -6.839  1.00  0.00     0.293 HD
ENDBRANCH  18  21
ENDBRANCH   3  13
BRANCH  11  23
ATOM     23  O   UNL     1       3.948  -3.134  -9.194  1.00  0.00    -0.507 OA
ATOM     24  H   UNL     1       4.913  -3.096  -9.482  1.00  0.00     0.293 HD
ENDBRANCH  11  23
ENDBRANCH   1   2
BRANCH   1  25
ATOM     25  C   UNL     1       6.328  -3.137  -4.482  1.00  0.00     0.339 C 
ATOM     26  C   UNL     1       6.671  -1.681  -4.091  1.00  0.00     0.214 C 
ATOM     27  O   UNL     1       7.016  -4.078  -3.667  1.00  0.00    -0.332 OA
ATOM     28  C   UNL     1       6.384  -1.434  -2.603  1.00  0.00     0.180 C 
ATOM     29  C   UNL     1       6.797  -3.919  -2.268  1.00  0.00     0.179 C 
ATOM     30  C   UNL     1       7.112  -2.490  -1.758  1.00  0.00     0.177 C 
BRANCH  26  31
ATOM     31  O   UNL     1       6.002  -0.753  -4.908  1.00  0.00    -0.384 OA
ATOM     32  H   UNL     1       6.469   0.119  -4.832  1.00  0.00     0.211 HD
ENDBRANCH  26  31
BRANCH  28  33
ATOM     33  O   UNL     1       6.817  -0.146  -2.251  1.00  0.00    -0.387 OA
ATOM     34  H   UNL     1       6.314   0.113  -1.435  1.00  0.00     0.211 HD
ENDBRANCH  28  33
BRANCH  29  35
ATOM     35  C   UNL     1       5.418  -4.436  -1.805  1.00  0.00     0.191 C 
BRANCH  35  36
ATOM     36  O   UNL     1       5.318  -4.400  -0.407  1.00  0.00    -0.394 OA
ATOM     37  H   UNL     1       5.906  -5.123  -0.062  1.00  0.00     0.210 HD
ENDBRANCH  35  36
ENDBRANCH  29  35
BRANCH  30  38
ATOM     38  O   UNL     1       8.498  -2.261  -1.818  1.00  0.00    -0.387 OA
ATOM     39  H   UNL     1       8.725  -2.110  -2.772  1.00  0.00     0.211 HD
ENDBRANCH  30  38
ENDBRANCH   1  25
TORSDOF 11
ENDMDL
MODEL 7
REMARK VINA RESULT:    -4.719      8.638     10.960
REMARK INTER + INTRA:          -7.948
REMARK INTER:                  -6.835
REMARK INTRA:                  -1.113
REMARK UNBOUND:                -1.159
REMARK SMILES O=c1cc(-c2ccc(O)c(O)c2)oc2cc(O[C@@H]3O[C@H](CO)[C@@H](O)[C@@H](O)[C@@H]3O)cc(O)c12
REMARK SMILES IDX 17 1 16 2 4 3 3 4 13 5 2 6 14 7 1 8 32 9 15 10 30 11 29 12
REMARK SMILES IDX 5 13 6 14 7 15 8 16 12 17 10 18 9 19 11 21 31 23 18 25 27 26
REMARK SMILES IDX 19 27 25 28 20 29 23 30 28 31 26 33 21 35 22 36 24 38
REMARK H PARENT 9 20 11 22 31 24 28 32 26 34 22 37 24 39
REMARK Flexibility Score: inf
ROOT
ATOM      1  O   UNL     1      -8.004   5.315  -1.726  1.00  0.00    -0.462 OA
ENDROOT
BRANCH   1   2
ATOM      2  C   UNL     1      -7.858   4.533  -2.886  1.00  0.00     0.130 A 
ATOM      3  C   UNL     1      -7.191   0.130  -4.584  1.00  0.00     0.138 A 
ATOM      4  C   UNL     1      -7.308   0.550  -5.916  1.00  0.00     0.100 A 
ATOM      5  O   UNL     1      -7.308   1.024  -3.608  1.00  0.00    -0.456 OA
ATOM      6  C   UNL     1      -7.518   1.899  -6.199  1.00  0.00     0.197 A 
ATOM      7  C   UNL     1      -7.502   2.321  -3.822  1.00  0.00     0.146 A 
ATOM      8  O   UNL     1      -7.682   2.237  -7.400  1.00  0.00    -0.289 OA
ATOM      9  C   UNL     1      -7.579   2.837  -5.141  1.00  0.00     0.107 A 
ATOM     10  C   UNL     1      -7.635   3.167  -2.720  1.00  0.00     0.094 A 
ATOM     11  C   UNL     1      -7.748   4.243  -5.311  1.00  0.00     0.134 A 
ATOM     12  C   UNL     1      -7.913   5.062  -4.187  1.00  0.00     0.093 A 
BRANCH   3  13
ATOM     13  C   UNL     1      -6.966  -1.293  -4.227  1.00  0.00     0.021 A 
ATOM     14  C   UNL     1      -7.714  -1.932  -3.220  1.00  0.00     0.016 A 
ATOM     15  C   UNL     1      -7.487  -3.276  -2.913  1.00  0.00     0.051 A 
ATOM     16  C   UNL     1      -6.518  -4.008  -3.609  1.00  0.00     0.157 A 
ATOM     17  C   UNL     1      -6.004  -2.040  -4.932  1.00  0.00     0.062 A 
ATOM     18  C   UNL     1      -5.775  -3.386  -4.625  1.00  0.00     0.158 A 
BRANCH  16  19
ATOM     19  O   UNL     1      -6.295  -5.348  -3.299  1.00  0.00    -0.504 OA
ATOM     20  H   UNL     1      -6.162  -6.045  -4.022  1.00  0.00     0.293 HD
ENDBRANCH  16  19
BRANCH  18  21
ATOM     21  O   UNL     1      -4.805  -4.088  -5.340  1.00  0.00    -0.504 OA
ATOM     22  H   UNL     1      -5.047  -4.771  -6.048  1.00  0.00     0.293 HD
ENDBRANCH  18  21
ENDBRANCH   3  13
BRANCH  11  23
ATOM     23  O   UNL     1      -7.735   4.885  -6.553  1.00  0.00    -0.507 OA
ATOM     24  H   UNL     1      -6.997   5.487  -6.883  1.00  0.00     0.293 HD
ENDBRANCH  11  23
ENDBRANCH   1   2
BRANCH   1  25
ATOM     25  C   UNL     1      -9.185   5.996  -1.288  1.00  0.00     0.339 C 
ATOM     26  C   UNL     1      -9.573   5.627   0.162  1.00  0.00     0.214 C 
ATOM     27  O   UNL     1      -9.029   7.400  -1.451  1.00  0.00    -0.332 OA
ATOM     28  C   UNL     1      -8.548   6.186   1.159  1.00  0.00     0.180 C 
ATOM     29  C   UNL     1      -8.087   7.996  -0.564  1.00  0.00     0.179 C 
ATOM     30  C   UNL     1      -8.377   7.695   0.928  1.00  0.00     0.177 C 
BRANCH  26  31
ATOM     31  O   UNL     1      -9.743   4.240   0.318  1.00  0.00    -0.384 OA
ATOM     32  H   UNL     1     -10.316   3.913  -0.424  1.00  0.00     0.211 HD
ENDBRANCH  26  31
BRANCH  28  33
ATOM     33  O   UNL     1      -8.989   5.942   2.470  1.00  0.00    -0.387 OA
ATOM     34  H   UNL     1      -8.725   5.010   2.692  1.00  0.00     0.211 HD
ENDBRANCH  28  33
BRANCH  29  35
ATOM     35  C   UNL     1      -6.619   7.725  -0.961  1.00  0.00     0.191 C 
BRANCH  35  36
ATOM     36  O   UNL     1      -6.443   7.882  -2.343  1.00  0.00    -0.394 OA
ATOM     37  H   UNL     1      -7.082   8.585  -2.632  1.00  0.00     0.210 HD
ENDBRANCH  35  36
ENDBRANCH  29  35
BRANCH  30  38
ATOM     38  O   UNL     1      -9.548   8.363   1.326  1.00  0.00    -0.387 OA
ATOM     39  H   UNL     1      -9.604   9.195   0.786  1.00  0.00     0.211 HD
ENDBRANCH  30  38
ENDBRANCH   1  25
TORSDOF 11
ENDMDL
MODEL 8
REMARK VINA RESULT:    -4.682      1.833      9.185
REMARK INTER + INTRA:          -7.894
REMARK INTER:                  -6.725
REMARK INTRA:                  -1.170
REMARK UNBOUND:                -1.159
REMARK SMILES O=c1cc(-c2ccc(O)c(O)c2)oc2cc(O[C@@H]3O[C@H](CO)[C@@H](O)[C@@H](O)[C@@H]3O)cc(O)c12
REMARK SMILES IDX 17 1 16 2 4 3 3 4 13 5 2 6 14 7 1 8 32 9 15 10 30 11 29 12
REMARK SMILES IDX 5 13 6 14 7 15 8 16 12 17 10 18 9 19 11 21 31 23 18 25 27 26
REMARK SMILES IDX 19 27 25 28 20 29 23 30 28 31 26 33 21 35 22 36 24 38
REMARK H PARENT 9 20 11 22 31 24 28 32 26 34 22 37 24 39
REMARK Flexibility Score: inf
ROOT
ATOM      1  O   UNL     1       4.249   5.748  -2.675  1.00  0.00    -0.462 OA
ENDROOT
BRANCH   1   2
ATOM      2  C   UNL     1       4.323   6.408  -1.436  1.00  0.00     0.130 A 
ATOM      3  C   UNL     1       1.830   8.079   2.267  1.00  0.00     0.138 A 
ATOM      4  C   UNL     1       2.985   8.462   2.963  1.00  0.00     0.100 A 
ATOM      5  O   UNL     1       1.950   7.508   1.073  1.00  0.00    -0.456 OA
ATOM      6  C   UNL     1       4.238   8.262   2.384  1.00  0.00     0.197 A 
ATOM      7  C   UNL     1       3.117   7.300   0.474  1.00  0.00     0.146 A 
ATOM      8  O   UNL     1       5.259   8.556   3.058  1.00  0.00    -0.289 OA
ATOM      9  C   UNL     1       4.331   7.705   1.086  1.00  0.00     0.107 A 
ATOM     10  C   UNL     1       3.126   6.668  -0.770  1.00  0.00     0.094 A 
ATOM     11  C   UNL     1       5.551   7.493   0.379  1.00  0.00     0.134 A 
ATOM     12  C   UNL     1       5.531   6.825  -0.852  1.00  0.00     0.093 A 
BRANCH   3  13
ATOM     13  C   UNL     1       0.472   8.270   2.836  1.00  0.00     0.021 A 
ATOM     14  C   UNL     1       0.254   9.053   3.986  1.00  0.00     0.016 A 
ATOM     15  C   UNL     1      -1.037   9.223   4.493  1.00  0.00     0.051 A 
ATOM     16  C   UNL     1      -2.132   8.624   3.859  1.00  0.00     0.157 A 
ATOM     17  C   UNL     1      -0.635   7.683   2.196  1.00  0.00     0.062 A 
ATOM     18  C   UNL     1      -1.929   7.853   2.703  1.00  0.00     0.158 A 
BRANCH  16  19
ATOM     19  O   UNL     1      -3.418   8.797   4.368  1.00  0.00    -0.504 OA
ATOM     20  H   UNL     1      -4.085   9.416   3.925  1.00  0.00     0.293 HD
ENDBRANCH  16  19
BRANCH  18  21
ATOM     21  O   UNL     1      -2.998   7.246   2.046  1.00  0.00    -0.504 OA
ATOM     22  H   UNL     1      -2.914   6.879   1.105  1.00  0.00     0.293 HD
ENDBRANCH  18  21
ENDBRANCH   3  13
BRANCH  11  23
ATOM     23  O   UNL     1       6.799   7.938   0.826  1.00  0.00    -0.507 OA
ATOM     24  H   UNL     1       6.939   8.667   1.509  1.00  0.00     0.293 HD
ENDBRANCH  11  23
ENDBRANCH   1   2
BRANCH   1  25
ATOM     25  C   UNL     1       3.571   4.519  -2.958  1.00  0.00     0.339 C 
ATOM     26  C   UNL     1       2.458   4.691  -4.016  1.00  0.00     0.214 C 
ATOM     27  O   UNL     1       4.509   3.519  -3.337  1.00  0.00    -0.332 OA
ATOM     28  C   UNL     1       3.060   4.997  -5.396  1.00  0.00     0.180 C 
ATOM     29  C   UNL     1       5.119   3.733  -4.607  1.00  0.00     0.179 C 
ATOM     30  C   UNL     1       4.094   3.919  -5.754  1.00  0.00     0.177 C 
BRANCH  26  31
ATOM     31  O   UNL     1       1.523   5.669  -3.632  1.00  0.00    -0.384 OA
ATOM     32  H   UNL     1       1.885   6.558  -3.882  1.00  0.00     0.211 HD
ENDBRANCH  26  31
BRANCH  28  33
ATOM     33  O   UNL     1       2.037   5.028  -6.356  1.00  0.00    -0.387 OA
ATOM     34  H   UNL     1       1.196   4.783  -5.887  1.00  0.00     0.211 HD
ENDBRANCH  28  33
BRANCH  29  35
ATOM     35  C   UNL     1       6.206   4.830  -4.583  1.00  0.00     0.191 C 
BRANCH  35  36
ATOM     36  O   UNL     1       6.991   4.725  -3.427  1.00  0.00    -0.394 OA
ATOM     37  H   UNL     1       6.463   4.197  -2.772  1.00  0.00     0.210 HD
ENDBRANCH  35  36
ENDBRANCH  29  35
BRANCH  30  38
ATOM     38  O   UNL     1       3.434   2.702  -6.000  1.00  0.00    -0.387 OA
ATOM     39  H   UNL     1       2.548   2.927  -6.389  1.00  0.00     0.211 HD
ENDBRANCH  30  38
ENDBRANCH   1  25
TORSDOF 11
ENDMDL
MODEL 9
REMARK VINA RESULT:    -4.626     12.470     17.410
REMARK INTER + INTRA:          -7.813
REMARK INTER:                  -6.733
REMARK INTRA:                  -1.080
REMARK UNBOUND:                -1.159
REMARK SMILES O=c1cc(-c2ccc(O)c(O)c2)oc2cc(O[C@@H]3O[C@H](CO)[C@@H](O)[C@@H](O)[C@@H]3O)cc(O)c12
REMARK SMILES IDX 17 1 16 2 4 3 3 4 13 5 2 6 14 7 1 8 32 9 15 10 30 11 29 12
REMARK SMILES IDX 5 13 6 14 7 15 8 16 12 17 10 18 9 19 11 21 31 23 18 25 27 26
REMARK SMILES IDX 19 27 25 28 20 29 23 30 28 31 26 33 21 35 22 36 24 38
REMARK H PARENT 9 20 11 22 31 24 28 32 26 34 22 37 24 39
REMARK Flexibility Score: inf
ROOT
ATOM      1  O   UNL     1      -3.006  -7.049  -6.916  1.00  0.00    -0.462 OA
ENDROOT
BRANCH   1   2
ATOM      2  C   UNL     1      -4.267  -6.640  -6.448  1.00  0.00     0.130 A 
ATOM      3  C   UNL     1      -6.885  -2.946  -4.960  1.00  0.00     0.138 A 
ATOM      4  C   UNL     1      -8.046  -3.723  -4.845  1.00  0.00     0.100 A 
ATOM      5  O   UNL     1      -5.759  -3.516  -5.374  1.00  0.00    -0.456 OA
ATOM      6  C   UNL     1      -7.996  -5.085  -5.141  1.00  0.00     0.197 A 
ATOM      7  C   UNL     1      -5.656  -4.809  -5.663  1.00  0.00     0.146 A 
ATOM      8  O   UNL     1      -9.067  -5.744  -5.090  1.00  0.00    -0.289 OA
ATOM      9  C   UNL     1      -6.768  -5.677  -5.523  1.00  0.00     0.107 A 
ATOM     10  C   UNL     1      -4.428  -5.297  -6.113  1.00  0.00     0.094 A 
ATOM     11  C   UNL     1      -6.589  -7.062  -5.808  1.00  0.00     0.134 A 
ATOM     12  C   UNL     1      -5.355  -7.516  -6.292  1.00  0.00     0.093 A 
BRANCH   3  13
ATOM     13  C   UNL     1      -6.882  -1.492  -4.656  1.00  0.00     0.021 A 
ATOM     14  C   UNL     1      -6.884  -1.011  -3.333  1.00  0.00     0.016 A 
ATOM     15  C   UNL     1      -6.870   0.362  -3.078  1.00  0.00     0.051 A 
ATOM     16  C   UNL     1      -6.845   1.279  -4.136  1.00  0.00     0.157 A 
ATOM     17  C   UNL     1      -6.842  -0.565  -5.714  1.00  0.00     0.062 A 
ATOM     18  C   UNL     1      -6.829   0.812  -5.460  1.00  0.00     0.158 A 
BRANCH  16  19
ATOM     19  O   UNL     1      -6.832   2.649  -3.876  1.00  0.00    -0.504 OA
ATOM     20  H   UNL     1      -7.090   3.019  -2.970  1.00  0.00     0.293 HD
ENDBRANCH  16  19
BRANCH  18  21
ATOM     21  O   UNL     1      -6.801   1.698  -6.536  1.00  0.00    -0.504 OA
ATOM     22  H   UNL     1      -7.639   1.958  -7.041  1.00  0.00     0.293 HD
ENDBRANCH  18  21
ENDBRANCH   3  13
BRANCH  11  23
ATOM     23  O   UNL     1      -7.576  -8.033  -5.611  1.00  0.00    -0.507 OA
ATOM     24  H   UNL     1      -7.718  -8.545  -4.754  1.00  0.00     0.293 HD
ENDBRANCH  11  23
ENDBRANCH   1   2
BRANCH   1  25
ATOM     25  C   UNL     1      -1.981  -6.217  -7.470  1.00  0.00     0.339 C 
ATOM     26  C   UNL     1      -0.761  -6.082  -6.531  1.00  0.00     0.214 C 
ATOM     27  O   UNL     1      -1.606  -6.696  -8.756  1.00  0.00    -0.332 OA
ATOM     28  C   UNL     1      -0.005  -7.414  -6.423  1.00  0.00     0.180 C 
ATOM     29  C   UNL     1      -0.903  -7.936  -8.743  1.00  0.00     0.179 C 
ATOM     30  C   UNL     1       0.349  -7.919  -7.830  1.00  0.00     0.177 C 
BRANCH  26  31
ATOM     31  O   UNL     1      -1.131  -5.593  -5.266  1.00  0.00    -0.384 OA
ATOM     32  H   UNL     1      -2.093  -5.350  -5.297  1.00  0.00     0.211 HD
ENDBRANCH  26  31
BRANCH  28  33
ATOM     33  O   UNL     1       1.161  -7.230  -5.665  1.00  0.00    -0.387 OA
ATOM     34  H   UNL     1       1.019  -6.417  -5.113  1.00  0.00     0.211 HD
ENDBRANCH  28  33
BRANCH  29  35
ATOM     35  C   UNL     1      -1.820  -9.153  -8.490  1.00  0.00     0.191 C 
BRANCH  35  36
ATOM     36  O   UNL     1      -3.039  -9.005  -9.167  1.00  0.00    -0.394 OA
ATOM     37  H   UNL     1      -3.594  -9.791  -8.924  1.00  0.00     0.210 HD
ENDBRANCH  35  36
ENDBRANCH  29  35
BRANCH  30  38
ATOM     38  O   UNL     1       1.331  -7.084  -8.392  1.00  0.00    -0.387 OA
ATOM     39  H   UNL     1       0.855  -6.326  -8.823  1.00  0.00     0.211 HD
ENDBRANCH  30  38
ENDBRANCH   1  25
TORSDOF 11
ENDMDL
