MODEL 1
REMARK VINA RESULT:    -3.597      0.000      0.000
REMARK INTER + INTRA:          -4.438
REMARK INTER:                  -4.122
REMARK INTRA:                  -0.316
REMARK UNBOUND:                -0.316
REMARK SMILES O=C1C[C@H](c2ccc(O)cc2)Oc2cc(O)cc(O)c21
REMARK SMILES IDX 3 1 4 2 12 3 13 4 14 5 15 6 17 7 18 8 20 9 2 10 1 11 5 12
REMARK SMILES IDX 6 13 11 14 7 15 10 16 8 17 9 18 19 20 16 22
REMARK H PARENT 9 19 19 21 16 23
REMARK Flexibility Score: inf
ROOT
ATOM      1  C   UNL     1      -9.930 -21.855  19.096  1.00  0.00     0.131 C 
ATOM      2  C   UNL     1      -9.294 -23.096  19.738  1.00  0.00     0.211 C 
ATOM      3  O   UNL     1      -7.886 -23.125  19.490  1.00  0.00    -0.484 OA
ATOM      4  C   UNL     1      -7.325 -22.743  18.264  1.00  0.00     0.138 A 
ATOM      5  C   UNL     1      -5.990 -23.057  18.001  1.00  0.00     0.093 A 
ATOM      6  C   UNL     1      -5.409 -22.702  16.781  1.00  0.00     0.123 A 
ATOM      7  C   UNL     1      -6.158 -22.004  15.832  1.00  0.00     0.093 A 
ATOM      8  C   UNL     1      -7.486 -21.643  16.090  1.00  0.00     0.133 A 
ATOM      9  C   UNL     1      -8.095 -22.044  17.309  1.00  0.00     0.102 A 
ATOM     10  C   UNL     1      -9.514 -21.778  17.657  1.00  0.00     0.174 C 
ATOM     11  O   UNL     1     -10.382 -21.546  16.774  1.00  0.00    -0.294 OA
ENDROOT
BRANCH   2  12
ATOM     12  C   UNL     1      -9.559 -23.123  21.224  1.00  0.00    -0.007 A 
ATOM     13  C   UNL     1     -10.878 -23.090  21.707  1.00  0.00     0.011 A 
ATOM     14  C   UNL     1      -8.492 -23.125  22.141  1.00  0.00     0.011 A 
ATOM     15  C   UNL     1     -11.125 -23.085  23.084  1.00  0.00     0.046 A 
ATOM     16  C   UNL     1      -8.743 -23.119  23.516  1.00  0.00     0.046 A 
ATOM     17  C   UNL     1     -10.058 -23.100  23.991  1.00  0.00     0.115 A 
BRANCH  17  18
ATOM     18  O   UNL     1     -10.293 -23.096  25.365  1.00  0.00    -0.508 OA
ATOM     19  H   UNL     1     -11.226 -22.978  25.741  1.00  0.00     0.293 HD
ENDBRANCH  17  18
ENDBRANCH   2  12
BRANCH   8  20
ATOM     20  O   UNL     1      -8.138 -20.865  15.130  1.00  0.00    -0.507 OA
ATOM     21  H   UNL     1      -9.017 -20.393  15.288  1.00  0.00     0.293 HD
ENDBRANCH   8  20
BRANCH   6  22
ATOM     22  O   UNL     1      -4.084 -23.031  16.503  1.00  0.00    -0.508 OA
ATOM     23  H   UNL     1      -3.504 -23.513  17.181  1.00  0.00     0.293 HD
ENDBRANCH   6  22
TORSDOF 4
ENDMDL
MODEL 2
REMARK VINA RESULT:    -3.142     12.354     17.412
REMARK INTER + INTRA:          -3.917
REMARK INTER:                  -3.607
REMARK INTRA:                  -0.310
REMARK UNBOUND:                -0.316
REMARK SMILES O=C1C[C@H](c2ccc(O)cc2)Oc2cc(O)cc(O)c21
REMARK SMILES IDX 3 1 4 2 12 3 13 4 14 5 15 6 17 7 18 8 20 9 2 10 1 11 5 12
REMARK SMILES IDX 6 13 11 14 7 15 10 16 8 17 9 18 19 20 16 22
REMARK H PARENT 9 19 19 21 16 23
REMARK Flexibility Score: inf
ROOT
ATOM      1  C   UNL     1       7.525 -22.092  13.601  1.00  0.00     0.131 C 
ATOM      2  C   UNL     1       6.933 -23.014  12.526  1.00  0.00     0.211 C 
ATOM      3  O   UNL     1       5.506 -22.918  12.511  1.00  0.00    -0.484 OA
ATOM      4  C   UNL     1       4.742 -22.810  13.681  1.00  0.00     0.138 A 
ATOM      5  C   UNL     1       3.361 -23.001  13.609  1.00  0.00     0.093 A 
ATOM      6  C   UNL     1       2.575 -22.914  14.762  1.00  0.00     0.123 A 
ATOM      7  C   UNL     1       3.172 -22.607  15.986  1.00  0.00     0.093 A 
ATOM      8  C   UNL     1       4.549 -22.373  16.075  1.00  0.00     0.133 A 
ATOM      9  C   UNL     1       5.358 -22.507  14.915  1.00  0.00     0.102 A 
ATOM     10  C   UNL     1       6.834 -22.352  14.907  1.00  0.00     0.174 C 
ATOM     11  O   UNL     1       7.522 -22.488  15.954  1.00  0.00    -0.294 OA
ENDROOT
BRANCH   2  12
ATOM     12  C   UNL     1       7.490 -22.673  11.165  1.00  0.00    -0.007 A 
ATOM     13  C   UNL     1       8.625 -21.853  11.051  1.00  0.00     0.011 A 
ATOM     14  C   UNL     1       6.850 -23.125   9.997  1.00  0.00     0.011 A 
ATOM     15  C   UNL     1       9.124 -21.511   9.790  1.00  0.00     0.046 A 
ATOM     16  C   UNL     1       7.352 -22.781   8.739  1.00  0.00     0.046 A 
ATOM     17  C   UNL     1       8.490 -21.976   8.632  1.00  0.00     0.115 A 
BRANCH  17  18
ATOM     18  O   UNL     1       8.980 -21.642   7.370  1.00  0.00    -0.508 OA
ATOM     19  H   UNL     1       8.453 -21.840   6.528  1.00  0.00     0.293 HD
ENDBRANCH  17  18
ENDBRANCH   2  12
BRANCH   8  20
ATOM     20  O   UNL     1       5.055 -21.980  17.316  1.00  0.00    -0.507 OA
ATOM     21  H   UNL     1       5.992 -21.630  17.460  1.00  0.00     0.293 HD
ENDBRANCH   8  20
BRANCH   6  22
ATOM     22  O   UNL     1       1.199 -23.123  14.701  1.00  0.00    -0.508 OA
ATOM     23  H   UNL     1       0.696 -23.559  15.465  1.00  0.00     0.293 HD
ENDBRANCH   6  22
TORSDOF 4
ENDMDL
MODEL 3
REMARK VINA RESULT:    -2.049      1.564      2.953
REMARK INTER + INTRA:          -2.664
REMARK INTER:                  -2.351
REMARK INTRA:                  -0.313
REMARK UNBOUND:                -0.316
REMARK SMILES O=C1C[C@H](c2ccc(O)cc2)Oc2cc(O)cc(O)c21
REMARK SMILES IDX 3 1 4 2 12 3 13 4 14 5 15 6 17 7 18 8 20 9 2 10 1 11 5 12
REMARK SMILES IDX 6 13 11 14 7 15 10 16 8 17 9 18 19 20 16 22
REMARK H PARENT 9 19 19 21 16 23
REMARK Flexibility Score: inf
ROOT
ATOM      1  C   UNL     1      -7.659 -22.988  20.171  1.00  0.00     0.131 C 
ATOM      2  C   UNL     1      -8.519 -21.790  20.597  1.00  0.00     0.211 C 
ATOM      3  O   UNL     1      -9.477 -21.473  19.584  1.00  0.00    -0.484 OA
ATOM      4  C   UNL     1      -9.179 -21.528  18.216  1.00  0.00     0.138 A 
ATOM      5  C   UNL     1     -10.062 -20.945  17.306  1.00  0.00     0.093 A 
ATOM      6  C   UNL     1      -9.783 -20.971  15.936  1.00  0.00     0.123 A 
ATOM      7  C   UNL     1      -8.631 -21.609  15.475  1.00  0.00     0.093 A 
ATOM      8  C   UNL     1      -7.751 -22.236  16.366  1.00  0.00     0.133 A 
ATOM      9  C   UNL     1      -8.006 -22.170  17.762  1.00  0.00     0.102 A 
ATOM     10  C   UNL     1      -7.107 -22.735  18.800  1.00  0.00     0.174 C 
ATOM     11  O   UNL     1      -5.888 -22.954  18.574  1.00  0.00    -0.294 OA
ENDROOT
BRANCH   2  12
ATOM     12  C   UNL     1      -9.220 -22.074  21.903  1.00  0.00    -0.007 A 
ATOM     13  C   UNL     1     -10.462 -21.479  22.183  1.00  0.00     0.011 A 
ATOM     14  C   UNL     1      -8.615 -22.890  22.877  1.00  0.00     0.011 A 
ATOM     15  C   UNL     1     -11.098 -21.716  23.405  1.00  0.00     0.046 A 
ATOM     16  C   UNL     1      -9.255 -23.125  24.097  1.00  0.00     0.046 A 
ATOM     17  C   UNL     1     -10.497 -22.541  24.364  1.00  0.00     0.115 A 
BRANCH  17  18
ATOM     18  O   UNL     1     -11.124 -22.786  25.585  1.00  0.00    -0.508 OA
ATOM     19  H   UNL     1     -12.006 -22.349  25.823  1.00  0.00     0.293 HD
ENDBRANCH  17  18
ENDBRANCH   2  12
BRANCH   8  20
ATOM     20  O   UNL     1      -6.671 -22.932  15.820  1.00  0.00    -0.507 OA
ATOM     21  H   UNL     1      -5.707 -22.766  16.069  1.00  0.00     0.293 HD
ENDBRANCH   8  20
BRANCH   6  22
ATOM     22  O   UNL     1     -10.649 -20.373  15.023  1.00  0.00    -0.508 OA
ATOM     23  H   UNL     1     -10.555 -20.525  14.026  1.00  0.00     0.293 HD
ENDBRANCH   6  22
TORSDOF 4
ENDMDL
MODEL 4
REMARK VINA RESULT:    -1.897      2.592      6.786
REMARK INTER + INTRA:          -2.490
REMARK INTER:                  -2.200
REMARK INTRA:                  -0.290
REMARK UNBOUND:                -0.316
REMARK SMILES O=C1C[C@H](c2ccc(O)cc2)Oc2cc(O)cc(O)c21
REMARK SMILES IDX 3 1 4 2 12 3 13 4 14 5 15 6 17 7 18 8 20 9 2 10 1 11 5 12
REMARK SMILES IDX 6 13 11 14 7 15 10 16 8 17 9 18 19 20 16 22
REMARK H PARENT 9 19 19 21 16 23
REMARK Flexibility Score: inf
ROOT
ATOM      1  C   UNL     1      -8.234 -22.713  20.397  1.00  0.00     0.131 C 
ATOM      2  C   UNL     1      -8.441 -22.142  18.987  1.00  0.00     0.211 C 
ATOM      3  O   UNL     1      -8.683 -20.733  19.047  1.00  0.00    -0.484 OA
ATOM      4  C   UNL     1      -9.469 -20.141  20.044  1.00  0.00     0.138 A 
ATOM      5  C   UNL     1      -9.887 -18.819  19.882  1.00  0.00     0.093 A 
ATOM      6  C   UNL     1     -10.685 -18.207  20.854  1.00  0.00     0.123 A 
ATOM      7  C   UNL     1     -11.040 -18.913  22.004  1.00  0.00     0.093 A 
ATOM      8  C   UNL     1     -10.599 -20.226  22.207  1.00  0.00     0.133 A 
ATOM      9  C   UNL     1      -9.829 -20.868  21.201  1.00  0.00     0.102 A 
ATOM     10  C   UNL     1      -9.368 -22.277  21.276  1.00  0.00     0.174 C 
ATOM     11  O   UNL     1      -9.938 -23.123  22.015  1.00  0.00    -0.294 OA
ENDROOT
BRANCH   2  12
ATOM     12  C   UNL     1      -7.242 -22.426  18.116  1.00  0.00    -0.007 A 
ATOM     13  C   UNL     1      -6.045 -22.890  18.688  1.00  0.00     0.011 A 
ATOM     14  C   UNL     1      -7.289 -22.178  16.732  1.00  0.00     0.011 A 
ATOM     15  C   UNL     1      -4.924 -23.124  17.885  1.00  0.00     0.046 A 
ATOM     16  C   UNL     1      -6.167 -22.414  15.933  1.00  0.00     0.046 A 
ATOM     17  C   UNL     1      -4.983 -22.888  16.506  1.00  0.00     0.115 A 
BRANCH  17  18
ATOM     18  O   UNL     1      -3.872 -23.120  15.697  1.00  0.00    -0.508 OA
ATOM     19  H   UNL     1      -2.942 -22.834  15.981  1.00  0.00     0.293 HD
ENDBRANCH  17  18
ENDBRANCH   2  12
BRANCH   8  20
ATOM     20  O   UNL     1     -10.919 -20.831  23.425  1.00  0.00    -0.507 OA
ATOM     21  H   UNL     1     -11.478 -20.394  24.143  1.00  0.00     0.293 HD
ENDBRANCH   8  20
BRANCH   6  22
ATOM     22  O   UNL     1     -11.123 -16.895  20.689  1.00  0.00    -0.508 OA
ATOM     23  H   UNL     1     -11.320 -16.514  19.771  1.00  0.00     0.293 HD
ENDBRANCH   6  22
TORSDOF 4
ENDMDL
MODEL 5
REMARK VINA RESULT:    -1.194     14.341     17.920
REMARK INTER + INTRA:          -1.684
REMARK INTER:                  -1.372
REMARK INTRA:                  -0.312
REMARK UNBOUND:                -0.316
REMARK SMILES O=C1C[C@H](c2ccc(O)cc2)Oc2cc(O)cc(O)c21
REMARK SMILES IDX 3 1 4 2 12 3 13 4 14 5 15 6 17 7 18 8 20 9 2 10 1 11 5 12
REMARK SMILES IDX 6 13 11 14 7 15 10 16 8 17 9 18 19 20 16 22
REMARK H PARENT 9 19 19 21 16 23
REMARK Flexibility Score: inf
ROOT
ATOM      1  C   UNL     1       5.390 -23.010  12.211  1.00  0.00     0.131 C 
ATOM      2  C   UNL     1       6.458 -21.948  11.911  1.00  0.00     0.211 C 
ATOM      3  O   UNL     1       7.412 -21.881  12.975  1.00  0.00    -0.484 OA
ATOM      4  C   UNL     1       7.051 -21.990  14.324  1.00  0.00     0.138 A 
ATOM      5  C   UNL     1       7.981 -21.641  15.305  1.00  0.00     0.093 A 
ATOM      6  C   UNL     1       7.645 -21.725  16.659  1.00  0.00     0.123 A 
ATOM      7  C   UNL     1       6.382 -22.189  17.032  1.00  0.00     0.093 A 
ATOM      8  C   UNL     1       5.447 -22.583  16.067  1.00  0.00     0.133 A 
ATOM      9  C   UNL     1       5.768 -22.453  14.690  1.00  0.00     0.102 A 
ATOM     10  C   UNL     1       4.831 -22.773  13.582  1.00  0.00     0.174 C 
ATOM     11  O   UNL     1       3.584 -22.795  13.755  1.00  0.00    -0.294 OA
ENDROOT
BRANCH   2  12
ATOM     12  C   UNL     1       7.155 -22.246  10.607  1.00  0.00    -0.007 A 
ATOM     13  C   UNL     1       8.487 -21.844  10.409  1.00  0.00     0.011 A 
ATOM     14  C   UNL     1       6.466 -22.878   9.556  1.00  0.00     0.011 A 
ATOM     15  C   UNL     1       9.125 -22.092   9.189  1.00  0.00     0.046 A 
ATOM     16  C   UNL     1       7.107 -23.125   8.338  1.00  0.00     0.046 A 
ATOM     17  C   UNL     1       8.437 -22.735   8.152  1.00  0.00     0.115 A 
BRANCH  17  18
ATOM     18  O   UNL     1       9.064 -22.988   6.933  1.00  0.00    -0.508 OA
ATOM     19  H   UNL     1       9.962 -22.579   6.705  1.00  0.00     0.293 HD
ENDBRANCH  17  18
ENDBRANCH   2  12
BRANCH   8  20
ATOM     20  O   UNL     1       4.242 -23.123  16.522  1.00  0.00    -0.507 OA
ATOM     21  H   UNL     1       3.749 -22.794  17.340  1.00  0.00     0.293 HD
ENDBRANCH   8  20
BRANCH   6  22
ATOM     22  O   UNL     1       8.560 -21.358  17.643  1.00  0.00    -0.508 OA
ATOM     23  H   UNL     1       8.702 -20.388  17.899  1.00  0.00     0.293 HD
ENDBRANCH   6  22
TORSDOF 4
ENDMDL
MODEL 6
REMARK VINA RESULT:    -0.879      3.329      6.941
REMARK INTER + INTRA:          -1.323
REMARK INTER:                  -1.012
REMARK INTRA:                  -0.312
REMARK UNBOUND:                -0.316
REMARK SMILES O=C1C[C@H](c2ccc(O)cc2)Oc2cc(O)cc(O)c21
REMARK SMILES IDX 3 1 4 2 12 3 13 4 14 5 15 6 17 7 18 8 20 9 2 10 1 11 5 12
REMARK SMILES IDX 6 13 11 14 7 15 10 16 8 17 9 18 19 20 16 22
REMARK H PARENT 9 19 19 21 16 23
REMARK Flexibility Score: inf
ROOT
ATOM      1  C   UNL     1      -6.619 -22.331  18.059  1.00  0.00     0.131 C 
ATOM      2  C   UNL     1      -6.237 -22.555  16.589  1.00  0.00     0.211 C 
ATOM      3  O   UNL     1      -6.974 -21.671  15.739  1.00  0.00    -0.484 OA
ATOM      4  C   UNL     1      -8.322 -21.359  15.957  1.00  0.00     0.138 A 
ATOM      5  C   UNL     1      -9.043 -20.723  14.945  1.00  0.00     0.093 A 
ATOM      6  C   UNL     1     -10.394 -20.413  15.128  1.00  0.00     0.123 A 
ATOM      7  C   UNL     1     -11.016 -20.715  16.341  1.00  0.00     0.093 A 
ATOM      8  C   UNL     1     -10.302 -21.317  17.384  1.00  0.00     0.133 A 
ATOM      9  C   UNL     1      -8.944 -21.677  17.185  1.00  0.00     0.102 A 
ATOM     10  C   UNL     1      -8.112 -22.382  18.193  1.00  0.00     0.174 C 
ATOM     11  O   UNL     1      -8.627 -23.061  19.120  1.00  0.00    -0.294 OA
ENDROOT
BRANCH   2  12
ATOM     12  C   UNL     1      -4.755 -22.354  16.387  1.00  0.00    -0.007 A 
ATOM     13  C   UNL     1      -4.290 -21.432  15.434  1.00  0.00     0.011 A 
ATOM     14  C   UNL     1      -3.824 -23.124  17.107  1.00  0.00     0.011 A 
ATOM     15  C   UNL     1      -2.918 -21.266  15.223  1.00  0.00     0.046 A 
ATOM     16  C   UNL     1      -2.453 -22.956  16.893  1.00  0.00     0.046 A 
ATOM     17  C   UNL     1      -1.996 -22.027  15.954  1.00  0.00     0.115 A 
BRANCH  17  18
ATOM     18  O   UNL     1      -0.626 -21.869  15.752  1.00  0.00    -0.508 OA
ATOM     19  H   UNL     1      -0.142 -21.029  16.044  1.00  0.00     0.293 HD
ENDBRANCH  17  18
ENDBRANCH   2  12
BRANCH   8  20
ATOM     20  O   UNL     1     -10.971 -21.502  18.597  1.00  0.00    -0.507 OA
ATOM     21  H   UNL     1     -10.648 -22.113  19.333  1.00  0.00     0.293 HD
ENDBRANCH   8  20
BRANCH   6  22
ATOM     22  O   UNL     1     -11.125 -19.796  14.115  1.00  0.00    -0.508 OA
ATOM     23  H   UNL     1     -11.866 -20.284  13.626  1.00  0.00     0.293 HD
ENDBRANCH   6  22
TORSDOF 4
ENDMDL
MODEL 7
REMARK VINA RESULT:    -0.752     10.235     13.964
REMARK INTER + INTRA:          -1.177
REMARK INTER:                  -0.862
REMARK INTRA:                  -0.315
REMARK UNBOUND:                -0.316
REMARK SMILES O=C1C[C@H](c2ccc(O)cc2)Oc2cc(O)cc(O)c21
REMARK SMILES IDX 3 1 4 2 12 3 13 4 14 5 15 6 17 7 18 8 20 9 2 10 1 11 5 12
REMARK SMILES IDX 6 13 11 14 7 15 10 16 8 17 9 18 19 20 16 22
REMARK H PARENT 9 19 19 21 16 23
REMARK Flexibility Score: inf
ROOT
ATOM      1  C   UNL     1       3.796 -22.453  13.359  1.00  0.00     0.131 C 
ATOM      2  C   UNL     1       3.544 -23.053  14.750  1.00  0.00     0.211 C 
ATOM      3  O   UNL     1       4.530 -22.597  15.680  1.00  0.00    -0.484 OA
ATOM      4  C   UNL     1       5.880 -22.445  15.339  1.00  0.00     0.138 A 
ATOM      5  C   UNL     1       6.821 -22.267  16.355  1.00  0.00     0.093 A 
ATOM      6  C   UNL     1       8.177 -22.127  16.046  1.00  0.00     0.123 A 
ATOM      7  C   UNL     1       8.588 -22.137  14.712  1.00  0.00     0.093 A 
ATOM      8  C   UNL     1       7.658 -22.274  13.674  1.00  0.00     0.133 A 
ATOM      9  C   UNL     1       6.286 -22.464  13.986  1.00  0.00     0.102 A 
ATOM     10  C   UNL     1       5.225 -22.690  12.972  1.00  0.00     0.174 C 
ATOM     11  O   UNL     1       5.490 -23.125  11.820  1.00  0.00    -0.294 OA
ENDROOT
BRANCH   2  12
ATOM     12  C   UNL     1       2.162 -22.698  15.242  1.00  0.00    -0.007 A 
ATOM     13  C   UNL     1       1.027 -23.125  14.532  1.00  0.00     0.011 A 
ATOM     14  C   UNL     1       1.995 -21.893  16.383  1.00  0.00     0.011 A 
ATOM     15  C   UNL     1      -0.253 -22.771  14.970  1.00  0.00     0.046 A 
ATOM     16  C   UNL     1       0.713 -21.542  16.818  1.00  0.00     0.046 A 
ATOM     17  C   UNL     1      -0.412 -21.981  16.115  1.00  0.00     0.115 A 
BRANCH  17  18
ATOM     18  O   UNL     1      -1.684 -21.624  16.561  1.00  0.00    -0.508 OA
ATOM     19  H   UNL     1      -2.321 -21.096  15.976  1.00  0.00     0.293 HD
ENDBRANCH  17  18
ENDBRANCH   2  12
BRANCH   8  20
ATOM     20  O   UNL     1       8.137 -22.180  12.366  1.00  0.00    -0.507 OA
ATOM     21  H   UNL     1       7.732 -21.586  11.657  1.00  0.00     0.293 HD
ENDBRANCH   8  20
BRANCH   6  22
ATOM     22  O   UNL     1       9.123 -21.970  17.056  1.00  0.00    -0.508 OA
ATOM     23  H   UNL     1       8.954 -21.366  17.851  1.00  0.00     0.293 HD
ENDBRANCH   6  22
TORSDOF 4
ENDMDL
