MODEL 1
REMARK VINA RESULT:    -4.093      0.000      0.000
REMARK INTER + INTRA:          -4.832
REMARK INTER:                  -4.811
REMARK INTRA:                  -0.021
REMARK UNBOUND:                -0.021
REMARK SMILES CCCCC(=O)[O-]
REMARK SMILES IDX 4 1 5 2 6 3 7 4 3 5 2 6 1 7
REMARK H PARENT
REMARK Flexibility Score: inf
ROOT
ATOM      1  C   UNL     1      -1.322  -1.431   5.902  1.00  0.00     0.053 C 
ENDROOT
BRANCH   1   2
ATOM      2  C   UNL     1      -1.251   0.003   6.329  1.00  0.00     0.041 C 
ATOM      3  O   UNL     1      -1.206   0.919   5.466  1.00  0.00    -0.550 OA
ATOM      4  O   UNL     1      -1.269   0.329   7.679  1.00  0.00    -0.550 OA
ENDBRANCH   1   2
BRANCH   1   5
ATOM      5  C   UNL     1      -1.530  -1.566   4.388  1.00  0.00     0.006 C 
BRANCH   5   6
ATOM      6  C   UNL     1      -1.531  -3.032   3.930  1.00  0.00    -0.003 C 
ATOM      7  C   UNL     1      -1.277  -3.139   2.430  1.00  0.00     0.004 C 
ENDBRANCH   5   6
ENDBRANCH   1   5
TORSDOF 3
ENDMDL
MODEL 2
REMARK VINA RESULT:    -3.884      2.749      4.245
REMARK INTER + INTRA:          -4.586
REMARK INTER:                  -4.566
REMARK INTRA:                  -0.019
REMARK UNBOUND:                -0.021
REMARK SMILES CCCCC(=O)[O-]
REMARK SMILES IDX 4 1 5 2 6 3 7 4 3 5 2 6 1 7
REMARK H PARENT
REMARK Flexibility Score: inf
ROOT
ATOM      1  C   UNL     1      -1.492  -1.366   4.048  1.00  0.00     0.053 C 
ENDROOT
BRANCH   1   2
ATOM      2  C   UNL     1      -1.427  -2.789   3.586  1.00  0.00     0.041 C 
ATOM      3  O   UNL     1      -1.306  -3.052   2.361  1.00  0.00    -0.550 OA
ATOM      4  O   UNL     1      -1.465  -3.825   4.511  1.00  0.00    -0.550 OA
ENDBRANCH   1   2
BRANCH   1   5
ATOM      5  C   UNL     1      -1.409  -1.259   5.576  1.00  0.00     0.006 C 
BRANCH   5   6
ATOM      6  C   UNL     1      -1.211   0.189   6.047  1.00  0.00    -0.003 C 
ATOM      7  C   UNL     1      -1.164   0.271   7.570  1.00  0.00     0.004 C 
ENDBRANCH   5   6
ENDBRANCH   1   5
TORSDOF 3
ENDMDL
MODEL 3
REMARK VINA RESULT:    -3.408      3.014      3.671
REMARK INTER + INTRA:          -4.027
REMARK INTER:                  -4.005
REMARK INTRA:                  -0.023
REMARK UNBOUND:                -0.021
REMARK SMILES CCCCC(=O)[O-]
REMARK SMILES IDX 4 1 5 2 6 3 7 4 3 5 2 6 1 7
REMARK H PARENT
REMARK Flexibility Score: inf
ROOT
ATOM      1  C   UNL     1      -1.168  -2.656   5.748  1.00  0.00     0.053 C 
ENDROOT
BRANCH   1   2
ATOM      2  C   UNL     1      -1.505  -2.087   4.404  1.00  0.00     0.041 C 
ATOM      3  O   UNL     1      -1.499  -2.826   3.385  1.00  0.00    -0.550 OA
ATOM      4  O   UNL     1      -1.860  -0.750   4.284  1.00  0.00    -0.550 OA
ENDBRANCH   1   2
BRANCH   1   5
ATOM      5  C   UNL     1      -1.100  -4.189   5.718  1.00  0.00     0.006 C 
BRANCH   5   6
ATOM      6  C   UNL     1      -0.372  -4.762   6.942  1.00  0.00    -0.003 C 
ATOM      7  C   UNL     1      -0.391  -6.288   6.929  1.00  0.00     0.004 C 
ENDBRANCH   5   6
ENDBRANCH   1   5
TORSDOF 3
ENDMDL
MODEL 4
REMARK VINA RESULT:    -3.361     12.918     13.900
REMARK INTER + INTRA:          -3.971
REMARK INTER:                  -3.951
REMARK INTRA:                  -0.020
REMARK UNBOUND:                -0.021
REMARK SMILES CCCCC(=O)[O-]
REMARK SMILES IDX 4 1 5 2 6 3 7 4 3 5 2 6 1 7
REMARK H PARENT
REMARK Flexibility Score: inf
ROOT
ATOM      1  C   UNL     1       4.977   3.872  -4.381  1.00  0.00     0.053 C 
ENDROOT
BRANCH   1   2
ATOM      2  C   UNL     1       4.547   3.184  -5.640  1.00  0.00     0.041 C 
ATOM      3  O   UNL     1       4.574   1.928  -5.716  1.00  0.00    -0.550 OA
ATOM      4  O   UNL     1       4.085   3.929  -6.718  1.00  0.00    -0.550 OA
ENDBRANCH   1   2
BRANCH   1   5
ATOM      5  C   UNL     1       5.436   5.311  -4.645  1.00  0.00     0.006 C 
BRANCH   5   6
ATOM      6  C   UNL     1       6.667   5.691  -3.810  1.00  0.00    -0.003 C 
ATOM      7  C   UNL     1       6.630   7.165  -3.415  1.00  0.00     0.004 C 
ENDBRANCH   5   6
ENDBRANCH   1   5
TORSDOF 3
ENDMDL
MODEL 5
REMARK VINA RESULT:    -3.332      5.933      6.653
REMARK INTER + INTRA:          -3.937
REMARK INTER:                  -3.839
REMARK INTRA:                  -0.098
REMARK UNBOUND:                -0.021
REMARK SMILES CCCCC(=O)[O-]
REMARK SMILES IDX 4 1 5 2 6 3 7 4 3 5 2 6 1 7
REMARK H PARENT
REMARK Flexibility Score: inf
ROOT
ATOM      1  C   UNL     1      -0.397  -5.816   8.697  1.00  0.00     0.053 C 
ENDROOT
BRANCH   1   2
ATOM      2  C   UNL     1      -0.469  -6.127   7.234  1.00  0.00     0.041 C 
ATOM      3  O   UNL     1      -0.321  -5.210   6.384  1.00  0.00    -0.550 OA
ATOM      4  O   UNL     1      -0.664  -7.435   6.809  1.00  0.00    -0.550 OA
ENDBRANCH   1   2
BRANCH   1   5
ATOM      5  C   UNL     1       0.630  -4.717   8.998  1.00  0.00     0.006 C 
BRANCH   5   6
ATOM      6  C   UNL     1       1.970  -5.291   9.482  1.00  0.00    -0.003 C 
ATOM      7  C   UNL     1       3.024  -5.232   8.380  1.00  0.00     0.004 C 
ENDBRANCH   5   6
ENDBRANCH   1   5
TORSDOF 3
ENDMDL
MODEL 6
REMARK VINA RESULT:    -3.209      5.478      6.126
REMARK INTER + INTRA:          -3.793
REMARK INTER:                  -3.716
REMARK INTRA:                  -0.076
REMARK UNBOUND:                -0.021
REMARK SMILES CCCCC(=O)[O-]
REMARK SMILES IDX 4 1 5 2 6 3 7 4 3 5 2 6 1 7
REMARK H PARENT
REMARK Flexibility Score: inf
ROOT
ATOM      1  C   UNL     1      -0.379  -5.598   6.790  1.00  0.00     0.053 C 
ENDROOT
BRANCH   1   2
ATOM      2  C   UNL     1       0.259  -4.977   7.994  1.00  0.00     0.041 C 
ATOM      3  O   UNL     1      -0.292  -4.004   8.572  1.00  0.00    -0.550 OA
ATOM      4  O   UNL     1       1.445  -5.496   8.498  1.00  0.00    -0.550 OA
ENDBRANCH   1   2
BRANCH   1   5
ATOM      5  C   UNL     1      -0.666  -7.090   7.001  1.00  0.00     0.006 C 
BRANCH   5   6
ATOM      6  C   UNL     1      -1.839  -7.327   7.963  1.00  0.00    -0.003 C 
ATOM      7  C   UNL     1      -2.213  -8.805   8.022  1.00  0.00     0.004 C 
ENDBRANCH   5   6
ENDBRANCH   1   5
TORSDOF 3
ENDMDL
MODEL 7
REMARK VINA RESULT:    -3.157     11.875     12.986
REMARK INTER + INTRA:          -3.732
REMARK INTER:                  -3.714
REMARK INTRA:                  -0.018
REMARK UNBOUND:                -0.021
REMARK SMILES CCCCC(=O)[O-]
REMARK SMILES IDX 4 1 5 2 6 3 7 4 3 5 2 6 1 7
REMARK H PARENT
REMARK Flexibility Score: inf
ROOT
ATOM      1  C   UNL     1       6.283   8.923   6.865  1.00  0.00     0.053 C 
ENDROOT
BRANCH   1   2
ATOM      2  C   UNL     1       7.706   9.230   7.216  1.00  0.00     0.041 C 
ATOM      3  O   UNL     1       8.256   8.657   8.192  1.00  0.00    -0.550 OA
ATOM      4  O   UNL     1       8.436  10.125   6.443  1.00  0.00    -0.550 OA
ENDBRANCH   1   2
BRANCH   1   5
ATOM      5  C   UNL     1       5.987   9.199   5.386  1.00  0.00     0.006 C 
BRANCH   5   6
ATOM      6  C   UNL     1       4.732   8.461   4.896  1.00  0.00    -0.003 C 
ATOM      7  C   UNL     1       5.081   7.435   3.822  1.00  0.00     0.004 C 
ENDBRANCH   5   6
ENDBRANCH   1   5
TORSDOF 3
ENDMDL
MODEL 8
REMARK VINA RESULT:    -3.139      8.011      8.813
REMARK INTER + INTRA:          -3.710
REMARK INTER:                  -3.629
REMARK INTRA:                  -0.081
REMARK UNBOUND:                -0.021
REMARK SMILES CCCCC(=O)[O-]
REMARK SMILES IDX 4 1 5 2 6 3 7 4 3 5 2 6 1 7
REMARK H PARENT
REMARK Flexibility Score: inf
ROOT
ATOM      1  C   UNL     1       5.903  -0.039   8.294  1.00  0.00     0.053 C 
ENDROOT
BRANCH   1   2
ATOM      2  C   UNL     1       5.059   1.035   8.908  1.00  0.00     0.041 C 
ATOM      3  O   UNL     1       5.585   2.111   9.294  1.00  0.00    -0.550 OA
ATOM      4  O   UNL     1       3.685   0.861   9.021  1.00  0.00    -0.550 OA
ENDBRANCH   1   2
BRANCH   1   5
ATOM      5  C   UNL     1       7.012  -0.506   9.245  1.00  0.00     0.006 C 
BRANCH   5   6
ATOM      6  C   UNL     1       8.397  -0.481   8.582  1.00  0.00    -0.003 C 
ATOM      7  C   UNL     1       8.297  -0.068   7.116  1.00  0.00     0.004 C 
ENDBRANCH   5   6
ENDBRANCH   1   5
TORSDOF 3
ENDMDL
MODEL 9
REMARK VINA RESULT:    -3.094      6.660      7.393
REMARK INTER + INTRA:          -3.657
REMARK INTER:                  -3.628
REMARK INTRA:                  -0.029
REMARK UNBOUND:                -0.021
REMARK SMILES CCCCC(=O)[O-]
REMARK SMILES IDX 4 1 5 2 6 3 7 4 3 5 2 6 1 7
REMARK H PARENT
REMARK Flexibility Score: inf
ROOT
ATOM      1  C   UNL     1      -1.658  -7.091   8.258  1.00  0.00     0.053 C 
ENDROOT
BRANCH   1   2
ATOM      2  C   UNL     1      -2.881  -7.947   8.138  1.00  0.00     0.041 C 
ATOM      3  O   UNL     1      -3.986  -7.432   7.824  1.00  0.00    -0.550 OA
ATOM      4  O   UNL     1      -2.793  -9.319   8.338  1.00  0.00    -0.550 OA
ENDBRANCH   1   2
BRANCH   1   5
ATOM      5  C   UNL     1      -0.755  -7.209   7.024  1.00  0.00     0.006 C 
BRANCH   5   6
ATOM      6  C   UNL     1       0.041  -5.923   6.761  1.00  0.00    -0.003 C 
ATOM      7  C   UNL     1       0.354  -5.193   8.064  1.00  0.00     0.004 C 
ENDBRANCH   5   6
ENDBRANCH   1   5
TORSDOF 3
ENDMDL
