MODEL 1
REMARK VINA RESULT:    -3.315      0.000      0.000
REMARK INTER + INTRA:          -6.319
REMARK INTER:                  -5.253
REMARK INTRA:                  -1.066
REMARK UNBOUND:                -1.066
REMARK SMILES CCCCCCCCCCCC(=O)[O-]
REMARK SMILES IDX 7 1 8 2 9 3 10 4 11 5 12 6 13 7 14 8 6 9 5 10 4 11 3 12 2 13
REMARK SMILES IDX 1 14
REMARK H PARENT
REMARK Flexibility Score: inf
ROOT
ATOM      1  C   UNL     1       5.274  25.176   8.491  1.00  0.00     0.000 C 
ENDROOT
BRANCH   1   2
ATOM      2  C   UNL     1       4.274  24.325   9.292  1.00  0.00     0.000 C 
BRANCH   2   3
ATOM      3  C   UNL     1       3.279  25.182  10.093  1.00  0.00     0.000 C 
BRANCH   3   4
ATOM      4  C   UNL     1       3.228  24.798  11.583  1.00  0.00     0.006 C 
BRANCH   4   5
ATOM      5  C   UNL     1       3.163  25.995  12.546  1.00  0.00     0.053 C 
BRANCH   5   6
ATOM      6  C   UNL     1       2.203  25.761  13.672  1.00  0.00     0.041 C 
ATOM      7  O   UNL     1       2.571  25.928  14.863  1.00  0.00    -0.550 OA
ATOM      8  O   UNL     1       0.911  25.325  13.406  1.00  0.00    -0.550 OA
ENDBRANCH   5   6
ENDBRANCH   4   5
ENDBRANCH   3   4
ENDBRANCH   2   3
ENDBRANCH   1   2
BRANCH   1   9
ATOM      9  C   UNL     1       4.875  25.316   7.011  1.00  0.00     0.000 C 
BRANCH   9  10
ATOM     10  C   UNL     1       4.356  23.998   6.412  1.00  0.00    -0.000 C 
BRANCH  10  11
ATOM     11  C   UNL     1       2.904  24.100   5.922  1.00  0.00    -0.000 C 
BRANCH  11  12
ATOM     12  C   UNL     1       2.406  25.552   5.980  1.00  0.00    -0.000 C 
BRANCH  12  13
ATOM     13  C   UNL     1       1.261  25.746   6.985  1.00  0.00    -0.003 C 
ATOM     14  C   UNL     1       0.705  24.422   7.512  1.00  0.00     0.004 C 
ENDBRANCH  12  13
ENDBRANCH  11  12
ENDBRANCH  10  11
ENDBRANCH   9  10
ENDBRANCH   1   9
TORSDOF 10
ENDMDL
MODEL 2
REMARK VINA RESULT:    -3.307      0.970      2.119
REMARK INTER + INTRA:          -6.307
REMARK INTER:                  -5.541
REMARK INTRA:                  -0.765
REMARK UNBOUND:                -1.066
REMARK SMILES CCCCCCCCCCCC(=O)[O-]
REMARK SMILES IDX 7 1 8 2 9 3 10 4 11 5 12 6 13 7 14 8 6 9 5 10 4 11 3 12 2 13
REMARK SMILES IDX 1 14
REMARK H PARENT
REMARK Flexibility Score: inf
ROOT
ATOM      1  C   UNL     1       3.684  24.790  10.347  1.00  0.00     0.000 C 
ENDROOT
BRANCH   1   2
ATOM      2  C   UNL     1       3.944  23.958  11.614  1.00  0.00     0.000 C 
BRANCH   2   3
ATOM      3  C   UNL     1       4.380  24.823  12.809  1.00  0.00     0.000 C 
BRANCH   3   4
ATOM      4  C   UNL     1       3.427  26.006  13.065  1.00  0.00     0.006 C 
BRANCH   4   5
ATOM      5  C   UNL     1       2.786  26.014  14.463  1.00  0.00     0.053 C 
BRANCH   5   6
ATOM      6  C   UNL     1       1.454  25.330  14.476  1.00  0.00     0.041 C 
ATOM      7  O   UNL     1       0.849  25.101  13.397  1.00  0.00    -0.550 OA
ATOM      8  O   UNL     1       0.865  24.976  15.684  1.00  0.00    -0.550 OA
ENDBRANCH   5   6
ENDBRANCH   4   5
ENDBRANCH   3   4
ENDBRANCH   2   3
ENDBRANCH   1   2
BRANCH   1   9
ATOM      9  C   UNL     1       4.340  24.180   9.096  1.00  0.00     0.000 C 
BRANCH   9  10
ATOM     10  C   UNL     1       5.075  25.228   8.243  1.00  0.00    -0.000 C 
BRANCH  10  11
ATOM     11  C   UNL     1       4.696  25.155   6.756  1.00  0.00    -0.000 C 
BRANCH  11  12
ATOM     12  C   UNL     1       3.320  24.498   6.572  1.00  0.00    -0.000 C 
BRANCH  12  13
ATOM     13  C   UNL     1       2.212  25.519   6.274  1.00  0.00    -0.003 C 
ATOM     14  C   UNL     1       1.331  25.809   7.490  1.00  0.00     0.004 C 
ENDBRANCH  12  13
ENDBRANCH  11  12
ENDBRANCH  10  11
ENDBRANCH   9  10
ENDBRANCH   1   9
TORSDOF 10
ENDMDL
MODEL 3
REMARK VINA RESULT:    -3.306      0.886      1.100
REMARK INTER + INTRA:          -6.304
REMARK INTER:                  -5.084
REMARK INTRA:                  -1.221
REMARK UNBOUND:                -1.066
REMARK SMILES CCCCCCCCCCCC(=O)[O-]
REMARK SMILES IDX 7 1 8 2 9 3 10 4 11 5 12 6 13 7 14 8 6 9 5 10 4 11 3 12 2 13
REMARK SMILES IDX 1 14
REMARK H PARENT
REMARK Flexibility Score: inf
ROOT
ATOM      1  C   UNL     1       5.166  25.051   8.350  1.00  0.00     0.000 C 
ENDROOT
BRANCH   1   2
ATOM      2  C   UNL     1       4.342  23.985   9.093  1.00  0.00     0.000 C 
BRANCH   2   3
ATOM      3  C   UNL     1       4.143  24.326  10.580  1.00  0.00     0.000 C 
BRANCH   3   4
ATOM      4  C   UNL     1       3.075  25.413  10.803  1.00  0.00     0.006 C 
BRANCH   4   5
ATOM      5  C   UNL     1       2.165  25.170  12.019  1.00  0.00     0.053 C 
BRANCH   5   6
ATOM      6  C   UNL     1       2.652  25.888  13.240  1.00  0.00     0.041 C 
ATOM      7  O   UNL     1       2.103  25.686  14.354  1.00  0.00    -0.550 OA
ATOM      8  O   UNL     1       3.690  26.805  13.141  1.00  0.00    -0.550 OA
ENDBRANCH   5   6
ENDBRANCH   4   5
ENDBRANCH   3   4
ENDBRANCH   2   3
ENDBRANCH   1   2
BRANCH   1   9
ATOM      9  C   UNL     1       4.693  25.256   6.901  1.00  0.00     0.000 C 
BRANCH   9  10
ATOM     10  C   UNL     1       3.993  24.014   6.326  1.00  0.00    -0.000 C 
BRANCH  10  11
ATOM     11  C   UNL     1       2.527  24.279   5.949  1.00  0.00    -0.000 C 
BRANCH  11  12
ATOM     12  C   UNL     1       2.125  25.721   6.293  1.00  0.00    -0.000 C 
BRANCH  12  13
ATOM     13  C   UNL     1       1.218  25.803   7.530  1.00  0.00    -0.003 C 
ATOM     14  C   UNL     1       0.758  24.430   8.019  1.00  0.00     0.004 C 
ENDBRANCH  12  13
ENDBRANCH  11  12
ENDBRANCH  10  11
ENDBRANCH   9  10
ENDBRANCH   1   9
TORSDOF 10
ENDMDL
MODEL 4
REMARK VINA RESULT:    -3.194      1.437      2.631
REMARK INTER + INTRA:          -6.128
REMARK INTER:                  -5.103
REMARK INTRA:                  -1.025
REMARK UNBOUND:                -1.066
REMARK SMILES CCCCCCCCCCCC(=O)[O-]
REMARK SMILES IDX 7 1 8 2 9 3 10 4 11 5 12 6 13 7 14 8 6 9 5 10 4 11 3 12 2 13
REMARK SMILES IDX 1 14
REMARK H PARENT
REMARK Flexibility Score: inf
ROOT
ATOM      1  C   UNL     1       2.616  25.399  10.196  1.00  0.00     0.000 C 
ENDROOT
BRANCH   1   2
ATOM      2  C   UNL     1       1.355  24.658  10.672  1.00  0.00     0.000 C 
BRANCH   2   3
ATOM      3  C   UNL     1       1.542  24.004  12.052  1.00  0.00     0.000 C 
BRANCH   3   4
ATOM      4  C   UNL     1       1.160  24.942  13.212  1.00  0.00     0.006 C 
BRANCH   4   5
ATOM      5  C   UNL     1       2.261  25.124  14.270  1.00  0.00     0.053 C 
BRANCH   5   6
ATOM      6  C   UNL     1       3.523  25.677  13.681  1.00  0.00     0.041 C 
ATOM      7  O   UNL     1       3.557  26.860  13.254  1.00  0.00    -0.550 OA
ATOM      8  O   UNL     1       4.651  24.873  13.573  1.00  0.00    -0.550 OA
ENDBRANCH   5   6
ENDBRANCH   4   5
ENDBRANCH   3   4
ENDBRANCH   2   3
ENDBRANCH   1   2
BRANCH   1   9
ATOM      9  C   UNL     1       3.828  24.463  10.047  1.00  0.00     0.000 C 
BRANCH   9  10
ATOM     10  C   UNL     1       4.775  24.896   8.916  1.00  0.00    -0.000 C 
BRANCH  10  11
ATOM     11  C   UNL     1       4.579  24.077   7.631  1.00  0.00    -0.000 C 
BRANCH  11  12
ATOM     12  C   UNL     1       4.226  24.989   6.447  1.00  0.00    -0.000 C 
BRANCH  12  13
ATOM     13  C   UNL     1       2.792  24.773   5.939  1.00  0.00    -0.003 C 
ATOM     14  C   UNL     1       1.795  25.765   6.539  1.00  0.00     0.004 C 
ENDBRANCH  12  13
ENDBRANCH  11  12
ENDBRANCH  10  11
ENDBRANCH   9  10
ENDBRANCH   1   9
TORSDOF 10
ENDMDL
MODEL 5
REMARK VINA RESULT:    -3.175      1.147      2.664
REMARK INTER + INTRA:          -6.098
REMARK INTER:                  -5.140
REMARK INTRA:                  -0.958
REMARK UNBOUND:                -1.066
REMARK SMILES CCCCCCCCCCCC(=O)[O-]
REMARK SMILES IDX 7 1 8 2 9 3 10 4 11 5 12 6 13 7 14 8 6 9 5 10 4 11 3 12 2 13
REMARK SMILES IDX 1 14
REMARK H PARENT
REMARK Flexibility Score: inf
ROOT
ATOM      1  C   UNL     1       2.098  24.455  10.247  1.00  0.00     0.000 C 
ENDROOT
BRANCH   1   2
ATOM      2  C   UNL     1       3.382  24.978  10.914  1.00  0.00     0.000 C 
BRANCH   2   3
ATOM      3  C   UNL     1       3.736  24.206  12.197  1.00  0.00     0.000 C 
BRANCH   3   4
ATOM      4  C   UNL     1       4.020  25.136  13.391  1.00  0.00     0.006 C 
BRANCH   4   5
ATOM      5  C   UNL     1       2.941  26.205  13.635  1.00  0.00     0.053 C 
BRANCH   5   6
ATOM      6  C   UNL     1       1.693  25.621  14.222  1.00  0.00     0.041 C 
ATOM      7  O   UNL     1       1.637  25.350  15.449  1.00  0.00    -0.550 OA
ATOM      8  O   UNL     1       0.603  25.345  13.406  1.00  0.00    -0.550 OA
ENDBRANCH   5   6
ENDBRANCH   4   5
ENDBRANCH   3   4
ENDBRANCH   2   3
ENDBRANCH   1   2
BRANCH   1   9
ATOM      9  C   UNL     1       1.207  25.590   9.714  1.00  0.00     0.000 C 
BRANCH   9  10
ATOM     10  C   UNL     1       0.971  25.494   8.198  1.00  0.00    -0.000 C 
BRANCH  10  11
ATOM     11  C   UNL     1       1.977  24.568   7.498  1.00  0.00    -0.000 C 
BRANCH  11  12
ATOM     12  C   UNL     1       2.716  25.311   6.374  1.00  0.00    -0.000 C 
BRANCH  12  13
ATOM     13  C   UNL     1       4.214  24.973   6.326  1.00  0.00    -0.003 C 
ATOM     14  C   UNL     1       4.845  24.884   7.716  1.00  0.00     0.004 C 
ENDBRANCH  12  13
ENDBRANCH  11  12
ENDBRANCH  10  11
ENDBRANCH   9  10
ENDBRANCH   1   9
TORSDOF 10
ENDMDL
MODEL 6
REMARK VINA RESULT:    -3.135      2.433      5.754
REMARK INTER + INTRA:          -6.035
REMARK INTER:                  -5.457
REMARK INTRA:                  -0.578
REMARK UNBOUND:                -1.066
REMARK SMILES CCCCCCCCCCCC(=O)[O-]
REMARK SMILES IDX 7 1 8 2 9 3 10 4 11 5 12 6 13 7 14 8 6 9 5 10 4 11 3 12 2 13
REMARK SMILES IDX 1 14
REMARK H PARENT
REMARK Flexibility Score: inf
ROOT
ATOM      1  C   UNL     1       4.077  24.869   9.177  1.00  0.00     0.000 C 
ENDROOT
BRANCH   1   2
ATOM      2  C   UNL     1       5.035  25.079   7.992  1.00  0.00     0.000 C 
BRANCH   2   3
ATOM      3  C   UNL     1       4.323  24.978   6.632  1.00  0.00     0.000 C 
BRANCH   3   4
ATOM      4  C   UNL     1       2.819  24.677   6.770  1.00  0.00     0.006 C 
BRANCH   4   5
ATOM      5  C   UNL     1       1.898  25.753   6.170  1.00  0.00     0.053 C 
BRANCH   5   6
ATOM      6  C   UNL     1       0.773  26.109   7.091  1.00  0.00     0.041 C 
ATOM      7  O   UNL     1      -0.270  26.649   6.639  1.00  0.00    -0.550 OA
ATOM      8  O   UNL     1       0.890  25.876   8.456  1.00  0.00    -0.550 OA
ENDBRANCH   5   6
ENDBRANCH   4   5
ENDBRANCH   3   4
ENDBRANCH   2   3
ENDBRANCH   1   2
BRANCH   1   9
ATOM      9  C   UNL     1       4.651  23.916  10.238  1.00  0.00     0.000 C 
BRANCH   9  10
ATOM     10  C   UNL     1       4.158  24.244  11.657  1.00  0.00    -0.000 C 
BRANCH  10  11
ATOM     11  C   UNL     1       3.118  25.375  11.678  1.00  0.00    -0.000 C 
BRANCH  11  12
ATOM     12  C   UNL     1       3.012  25.997  13.078  1.00  0.00    -0.000 C 
BRANCH  12  13
ATOM     13  C   UNL     1       1.681  25.671  13.772  1.00  0.00    -0.003 C 
ATOM     14  C   UNL     1       1.865  25.206  15.217  1.00  0.00     0.004 C 
ENDBRANCH  12  13
ENDBRANCH  11  12
ENDBRANCH  10  11
ENDBRANCH   9  10
ENDBRANCH   1   9
TORSDOF 10
ENDMDL
MODEL 7
REMARK VINA RESULT:    -3.126      1.405      3.043
REMARK INTER + INTRA:          -6.020
REMARK INTER:                  -4.883
REMARK INTRA:                  -1.137
REMARK UNBOUND:                -1.066
REMARK SMILES CCCCCCCCCCCC(=O)[O-]
REMARK SMILES IDX 7 1 8 2 9 3 10 4 11 5 12 6 13 7 14 8 6 9 5 10 4 11 3 12 2 13
REMARK SMILES IDX 1 14
REMARK H PARENT
REMARK Flexibility Score: inf
ROOT
ATOM      1  C   UNL     1       1.006  26.139   8.707  1.00  0.00     0.000 C 
ENDROOT
BRANCH   1   2
ATOM      2  C   UNL     1       0.360  25.019   9.542  1.00  0.00     0.000 C 
BRANCH   2   3
ATOM      3  C   UNL     1       1.258  24.558  10.704  1.00  0.00     0.000 C 
BRANCH   3   4
ATOM      4  C   UNL     1       2.568  25.362  10.799  1.00  0.00     0.006 C 
BRANCH   4   5
ATOM      5  C   UNL     1       3.611  24.766  11.759  1.00  0.00     0.053 C 
BRANCH   5   6
ATOM      6  C   UNL     1       3.708  25.541  13.037  1.00  0.00     0.041 C 
ATOM      7  O   UNL     1       2.811  26.368  13.346  1.00  0.00    -0.550 OA
ATOM      8  O   UNL     1       4.807  25.375  13.870  1.00  0.00    -0.550 OA
ENDBRANCH   5   6
ENDBRANCH   4   5
ENDBRANCH   3   4
ENDBRANCH   2   3
ENDBRANCH   1   2
BRANCH   1   9
ATOM      9  C   UNL     1       0.975  25.841   7.198  1.00  0.00     0.000 C 
BRANCH   9  10
ATOM     10  C   UNL     1       1.877  24.659   6.810  1.00  0.00    -0.000 C 
BRANCH  10  11
ATOM     11  C   UNL     1       3.010  25.064   5.854  1.00  0.00    -0.000 C 
BRANCH  11  12
ATOM     12  C   UNL     1       4.327  24.377   6.242  1.00  0.00    -0.000 C 
BRANCH  12  13
ATOM     13  C   UNL     1       4.530  24.301   7.762  1.00  0.00    -0.003 C 
ATOM     14  C   UNL     1       5.389  25.444   8.303  1.00  0.00     0.004 C 
ENDBRANCH  12  13
ENDBRANCH  11  12
ENDBRANCH  10  11
ENDBRANCH   9  10
ENDBRANCH   1   9
TORSDOF 10
ENDMDL
MODEL 8
REMARK VINA RESULT:    -3.052      1.453      3.238
REMARK INTER + INTRA:          -5.902
REMARK INTER:                  -5.142
REMARK INTRA:                  -0.760
REMARK UNBOUND:                -1.066
REMARK SMILES CCCCCCCCCCCC(=O)[O-]
REMARK SMILES IDX 7 1 8 2 9 3 10 4 11 5 12 6 13 7 14 8 6 9 5 10 4 11 3 12 2 13
REMARK SMILES IDX 1 14
REMARK H PARENT
REMARK Flexibility Score: inf
ROOT
ATOM      1  C   UNL     1       3.986  24.470  11.960  1.00  0.00     0.000 C 
ENDROOT
BRANCH   1   2
ATOM      2  C   UNL     1       4.178  25.317  13.229  1.00  0.00     0.000 C 
BRANCH   2   3
ATOM      3  C   UNL     1       2.937  26.159  13.569  1.00  0.00     0.000 C 
BRANCH   3   4
ATOM      4  C   UNL     1       2.201  25.653  14.824  1.00  0.00     0.006 C 
BRANCH   4   5
ATOM      5  C   UNL     1       1.289  24.439  14.579  1.00  0.00     0.053 C 
BRANCH   5   6
ATOM      6  C   UNL     1       0.339  24.667  13.444  1.00  0.00     0.041 C 
ATOM      7  O   UNL     1      -0.549  25.554  13.530  1.00  0.00    -0.550 OA
ATOM      8  O   UNL     1       0.413  23.876  12.304  1.00  0.00    -0.550 OA
ENDBRANCH   5   6
ENDBRANCH   4   5
ENDBRANCH   3   4
ENDBRANCH   2   3
ENDBRANCH   1   2
BRANCH   1   9
ATOM      9  C   UNL     1       3.295  25.251  10.828  1.00  0.00     0.000 C 
BRANCH   9  10
ATOM     10  C   UNL     1       3.449  24.569   9.459  1.00  0.00    -0.000 C 
BRANCH  10  11
ATOM     11  C   UNL     1       4.831  24.804   8.830  1.00  0.00    -0.000 C 
BRANCH  11  12
ATOM     12  C   UNL     1       4.707  25.102   7.328  1.00  0.00    -0.000 C 
BRANCH  12  13
ATOM     13  C   UNL     1       3.466  24.453   6.697  1.00  0.00    -0.003 C 
ATOM     14  C   UNL     1       2.521  25.474   6.063  1.00  0.00     0.004 C 
ENDBRANCH  12  13
ENDBRANCH  11  12
ENDBRANCH  10  11
ENDBRANCH   9  10
ENDBRANCH   1   9
TORSDOF 10
ENDMDL
MODEL 9
REMARK VINA RESULT:    -2.994      2.760      5.914
REMARK INTER + INTRA:          -5.811
REMARK INTER:                  -4.987
REMARK INTRA:                  -0.825
REMARK UNBOUND:                -1.066
REMARK SMILES CCCCCCCCCCCC(=O)[O-]
REMARK SMILES IDX 7 1 8 2 9 3 10 4 11 5 12 6 13 7 14 8 6 9 5 10 4 11 3 12 2 13
REMARK SMILES IDX 1 14
REMARK H PARENT
REMARK Flexibility Score: inf
ROOT
ATOM      1  C   UNL     1       1.397  25.673   9.035  1.00  0.00     0.000 C 
ENDROOT
BRANCH   1   2
ATOM      2  C   UNL     1       0.773  25.659   7.629  1.00  0.00     0.000 C 
BRANCH   2   3
ATOM      3  C   UNL     1       1.831  25.745   6.515  1.00  0.00     0.000 C 
BRANCH   3   4
ATOM      4  C   UNL     1       2.749  24.510   6.470  1.00  0.00     0.006 C 
BRANCH   4   5
ATOM      5  C   UNL     1       4.252  24.836   6.446  1.00  0.00     0.053 C 
BRANCH   5   6
ATOM      6  C   UNL     1       4.844  24.868   7.821  1.00  0.00     0.041 C 
ATOM      7  O   UNL     1       5.655  25.775   8.141  1.00  0.00    -0.550 OA
ATOM      8  O   UNL     1       4.525  23.875   8.740  1.00  0.00    -0.550 OA
ENDBRANCH   5   6
ENDBRANCH   4   5
ENDBRANCH   3   4
ENDBRANCH   2   3
ENDBRANCH   1   2
BRANCH   1   9
ATOM      9  C   UNL     1       1.203  24.341   9.779  1.00  0.00     0.000 C 
BRANCH   9  10
ATOM     10  C   UNL     1       1.684  24.403  11.238  1.00  0.00    -0.000 C 
BRANCH  10  11
ATOM     11  C   UNL     1       2.781  25.456  11.458  1.00  0.00    -0.000 C 
BRANCH  11  12
ATOM     12  C   UNL     1       2.836  25.892  12.930  1.00  0.00    -0.000 C 
BRANCH  12  13
ATOM     13  C   UNL     1       1.648  25.365  13.748  1.00  0.00    -0.003 C 
ATOM     14  C   UNL     1       1.914  25.379  15.254  1.00  0.00     0.004 C 
ENDBRANCH  12  13
ENDBRANCH  11  12
ENDBRANCH  10  11
ENDBRANCH   9  10
ENDBRANCH   1   9
TORSDOF 10
ENDMDL
