MODEL 1
REMARK VINA RESULT:    -5.216      0.000      0.000
REMARK INTER + INTRA:          -6.208
REMARK INTER:                  -5.978
REMARK INTRA:                  -0.230
REMARK UNBOUND:                -0.230
REMARK SMILES CC1(C)CC[C@@]23CO[C@]4(C=C[C@@H]5[C@]6(C)CC[C@H](O)[C@](C)(CO)[C@@H]6CC[C@]5(C)[C@@]4(C)C[C@H]2O)[C@@H]3C1
REMARK SMILES IDX 1 1 2 2 4 3 5 4 6 5 7 6 8 7 9 8 33 9 34 10 10 11 11 12 12 13
REMARK SMILES IDX 13 14 15 15 16 16 17 17 19 18 23 19 24 20 25 21 26 22 28 23
REMARK SMILES IDX 30 24 31 25 29 26 27 27 20 28 14 29 3 30 32 31 21 33 22 34
REMARK SMILES IDX 18 36
REMARK H PARENT 32 32 22 35 18 37
REMARK Flexibility Score: inf
ROOT
ATOM      1  C   UNL     1      24.832   4.565  25.577  1.00  0.00     0.011 C 
ATOM      2  C   UNL     1      25.948   3.510  25.413  1.00  0.00    -0.035 C 
ATOM      3  C   UNL     1      27.255   4.020  26.094  1.00  0.00     0.007 C 
ATOM      4  C   UNL     1      28.072   4.941  25.182  1.00  0.00     0.013 C 
ATOM      5  C   UNL     1      28.487   4.237  23.848  1.00  0.00     0.026 C 
ATOM      6  C   UNL     1      28.169   5.093  22.622  1.00  0.00     0.171 C 
ATOM      7  O   UNL     1      27.987   4.214  21.536  1.00  0.00    -0.369 OA
ATOM      8  C   UNL     1      27.990   2.874  22.026  1.00  0.00     0.096 C 
ATOM      9  C   UNL     1      27.653   2.994  23.534  1.00  0.00     0.037 C 
ATOM     10  C   UNL     1      26.158   3.213  23.888  1.00  0.00     0.014 C 
ATOM     11  C   UNL     1      27.004   2.102  21.194  1.00  0.00     0.005 C 
ATOM     12  C   UNL     1      27.256   1.955  19.886  1.00  0.00    -0.024 C 
ATOM     13  C   UNL     1      28.580   2.478  19.291  1.00  0.00     0.024 C 
ATOM     14  C   UNL     1      28.762   2.277  17.700  1.00  0.00    -0.022 C 
ATOM     15  C   UNL     1      27.381   2.521  16.983  1.00  0.00     0.010 C 
ATOM     16  C   UNL     1      27.318   2.063  15.528  1.00  0.00     0.033 C 
ATOM     17  C   UNL     1      27.673   0.578  15.414  1.00  0.00     0.123 C 
ATOM     18  C   UNL     1      29.126   0.287  15.885  1.00  0.00     0.020 C 
ATOM     19  C   UNL     1      29.397   0.851  17.357  1.00  0.00     0.006 C 
ATOM     20  C   UNL     1      29.116  -0.148  18.503  1.00  0.00     0.005 C 
ATOM     21  C   UNL     1      29.668   0.297  19.888  1.00  0.00     0.008 C 
ATOM     22  C   UNL     1      29.709   1.854  20.205  1.00  0.00    -0.017 C 
ATOM     23  C   UNL     1      29.439   2.222  21.811  1.00  0.00     0.009 C 
ATOM     24  C   UNL     1      30.451   3.265  22.437  1.00  0.00     0.043 C 
ATOM     25  C   UNL     1      30.009   3.860  23.818  1.00  0.00     0.124 C 
ATOM     26  C   UNL     1      29.621   0.926  22.680  1.00  0.00     0.015 C 
ATOM     27  C   UNL     1      31.125   2.367  19.806  1.00  0.00     0.013 C 
ATOM     28  C   UNL     1      30.128   0.926  14.875  1.00  0.00     0.017 C 
ATOM     29  C   UNL     1      29.715   3.409  17.169  1.00  0.00     0.012 C 
ATOM     30  C   UNL     1      25.499   2.221  26.135  1.00  0.00     0.011 C 
ENDROOT
BRANCH  25  31
ATOM     31  O   UNL     1      30.791   5.004  24.068  1.00  0.00    -0.392 OA
ATOM     32  H   UNL     1      31.375   4.810  24.849  1.00  0.00     0.210 HD
ENDBRANCH  25  31
BRANCH  18  33
ATOM     33  C   UNL     1      29.359  -1.254  15.767  1.00  0.00     0.165 C 
BRANCH  33  34
ATOM     34  O   UNL     1      28.439  -1.838  14.882  1.00  0.00    -0.396 OA
ATOM     35  H   UNL     1      27.541  -1.692  15.281  1.00  0.00     0.210 HD
ENDBRANCH  33  34
ENDBRANCH  18  33
BRANCH  17  36
ATOM     36  O   UNL     1      26.756  -0.187  16.161  1.00  0.00    -0.392 OA
ATOM     37  H   UNL     1      27.088  -0.208  17.096  1.00  0.00     0.210 HD
ENDBRANCH  17  36
TORSDOF 4
ENDMDL
MODEL 2
REMARK VINA RESULT:    -4.587     12.229     14.708
REMARK INTER + INTRA:          -5.488
REMARK INTER:                  -5.854
REMARK INTRA:                   0.366
REMARK UNBOUND:                -0.230
REMARK SMILES CC1(C)CC[C@@]23CO[C@]4(C=C[C@@H]5[C@]6(C)CC[C@H](O)[C@](C)(CO)[C@@H]6CC[C@]5(C)[C@@]4(C)C[C@H]2O)[C@@H]3C1
REMARK SMILES IDX 1 1 2 2 4 3 5 4 6 5 7 6 8 7 9 8 33 9 34 10 10 11 11 12 12 13
REMARK SMILES IDX 13 14 15 15 16 16 17 17 19 18 23 19 24 20 25 21 26 22 28 23
REMARK SMILES IDX 30 24 31 25 29 26 27 27 20 28 14 29 3 30 32 31 21 33 22 34
REMARK SMILES IDX 18 36
REMARK H PARENT 32 32 22 35 18 37
REMARK Flexibility Score: inf
ROOT
ATOM      1  C   UNL     1      20.614   3.157  32.910  1.00  0.00     0.011 C 
ATOM      2  C   UNL     1      20.830   4.601  33.414  1.00  0.00    -0.035 C 
ATOM      3  C   UNL     1      19.872   5.569  32.654  1.00  0.00     0.007 C 
ATOM      4  C   UNL     1      20.440   6.018  31.303  1.00  0.00     0.013 C 
ATOM      5  C   UNL     1      21.815   6.746  31.452  1.00  0.00     0.026 C 
ATOM      6  C   UNL     1      22.867   6.192  30.490  1.00  0.00     0.171 C 
ATOM      7  O   UNL     1      24.128   6.425  31.074  1.00  0.00    -0.369 OA
ATOM      8  C   UNL     1      23.936   6.917  32.399  1.00  0.00     0.096 C 
ATOM      9  C   UNL     1      22.503   6.477  32.791  1.00  0.00     0.037 C 
ATOM     10  C   UNL     1      22.335   4.995  33.223  1.00  0.00     0.014 C 
ATOM     11  C   UNL     1      25.048   6.355  33.240  1.00  0.00     0.005 C 
ATOM     12  C   UNL     1      26.306   6.717  32.953  1.00  0.00    -0.024 C 
ATOM     13  C   UNL     1      26.576   7.768  31.856  1.00  0.00     0.024 C 
ATOM     14  C   UNL     1      28.130   8.103  31.572  1.00  0.00    -0.022 C 
ATOM     15  C   UNL     1      28.974   6.778  31.672  1.00  0.00     0.010 C 
ATOM     16  C   UNL     1      30.486   6.978  31.742  1.00  0.00     0.033 C 
ATOM     17  C   UNL     1      30.856   7.885  32.919  1.00  0.00     0.123 C 
ATOM     18  C   UNL     1      30.248   9.309  32.773  1.00  0.00     0.020 C 
ATOM     19  C   UNL     1      28.667   9.257  32.537  1.00  0.00     0.006 C 
ATOM     20  C   UNL     1      27.811   9.319  33.824  1.00  0.00     0.005 C 
ATOM     21  C   UNL     1      26.298   9.578  33.572  1.00  0.00     0.008 C 
ATOM     22  C   UNL     1      25.657   8.996  32.238  1.00  0.00    -0.017 C 
ATOM     23  C   UNL     1      24.068   8.516  32.407  1.00  0.00     0.009 C 
ATOM     24  C   UNL     1      23.094   9.009  31.262  1.00  0.00     0.043 C 
ATOM     25  C   UNL     1      21.699   8.295  31.233  1.00  0.00     0.124 C 
ATOM     26  C   UNL     1      23.474   9.135  33.723  1.00  0.00     0.015 C 
ATOM     27  C   UNL     1      25.727  10.125  31.165  1.00  0.00     0.013 C 
ATOM     28  C   UNL     1      30.942  10.041  31.584  1.00  0.00     0.017 C 
ATOM     29  C   UNL     1      28.264   8.572  30.078  1.00  0.00     0.012 C 
ATOM     30  C   UNL     1      20.469   4.645  34.915  1.00  0.00     0.011 C 
ENDROOT
BRANCH  25  31
ATOM     31  O   UNL     1      21.102   8.559  29.985  1.00  0.00    -0.392 OA
ATOM     32  H   UNL     1      21.444   7.889  29.335  1.00  0.00     0.210 HD
ENDBRANCH  25  31
BRANCH  18  33
ATOM     33  C   UNL     1      30.652  10.125  34.044  1.00  0.00     0.165 C 
BRANCH  33  34
ATOM     34  O   UNL     1      31.066   9.273  35.080  1.00  0.00    -0.396 OA
ATOM     35  H   UNL     1      31.756   8.676  34.688  1.00  0.00     0.210 HD
ENDBRANCH  33  34
ENDBRANCH  18  33
BRANCH  17  36
ATOM     36  O   UNL     1      30.431   7.294  34.125  1.00  0.00    -0.392 OA
ATOM     37  H   UNL     1      30.761   6.358  34.122  1.00  0.00     0.210 HD
ENDBRANCH  17  36
TORSDOF 4
ENDMDL
MODEL 3
REMARK VINA RESULT:    -4.249      3.494      5.706
REMARK INTER + INTRA:          -5.100
REMARK INTER:                  -5.033
REMARK INTRA:                  -0.067
REMARK UNBOUND:                -0.230
REMARK SMILES CC1(C)CC[C@@]23CO[C@]4(C=C[C@@H]5[C@]6(C)CC[C@H](O)[C@](C)(CO)[C@@H]6CC[C@]5(C)[C@@]4(C)C[C@H]2O)[C@@H]3C1
REMARK SMILES IDX 1 1 2 2 4 3 5 4 6 5 7 6 8 7 9 8 33 9 34 10 10 11 11 12 12 13
REMARK SMILES IDX 13 14 15 15 16 16 17 17 19 18 23 19 24 20 25 21 26 22 28 23
REMARK SMILES IDX 30 24 31 25 29 26 27 27 20 28 14 29 3 30 32 31 21 33 22 34
REMARK SMILES IDX 18 36
REMARK H PARENT 32 32 22 35 18 37
REMARK Flexibility Score: inf
ROOT
ATOM      1  C   UNL     1      31.125  -1.351  24.618  1.00  0.00     0.011 C 
ATOM      2  C   UNL     1      29.789  -1.607  23.886  1.00  0.00    -0.035 C 
ATOM      3  C   UNL     1      29.836  -2.999  23.182  1.00  0.00     0.007 C 
ATOM      4  C   UNL     1      30.510  -2.939  21.807  1.00  0.00     0.013 C 
ATOM      5  C   UNL     1      29.787  -1.950  20.836  1.00  0.00     0.026 C 
ATOM      6  C   UNL     1      30.765  -0.989  20.159  1.00  0.00     0.171 C 
ATOM      7  O   UNL     1      30.044   0.177  19.832  1.00  0.00    -0.369 OA
ATOM      8  C   UNL     1      28.744   0.089  20.411  1.00  0.00     0.096 C 
ATOM      9  C   UNL     1      28.878  -0.951  21.553  1.00  0.00     0.037 C 
ATOM     10  C   UNL     1      29.525  -0.444  22.870  1.00  0.00     0.014 C 
ATOM     11  C   UNL     1      28.357   1.479  20.833  1.00  0.00     0.005 C 
ATOM     12  C   UNL     1      28.212   2.413  19.883  1.00  0.00    -0.024 C 
ATOM     13  C   UNL     1      28.335   2.026  18.394  1.00  0.00     0.024 C 
ATOM     14  C   UNL     1      28.175   3.237  17.339  1.00  0.00    -0.022 C 
ATOM     15  C   UNL     1      28.870   4.527  17.917  1.00  0.00     0.010 C 
ATOM     16  C   UNL     1      28.533   5.824  17.187  1.00  0.00     0.033 C 
ATOM     17  C   UNL     1      27.019   6.053  17.163  1.00  0.00     0.123 C 
ATOM     18  C   UNL     1      26.272   4.929  16.391  1.00  0.00     0.020 C 
ATOM     19  C   UNL     1      26.644   3.477  16.948  1.00  0.00     0.006 C 
ATOM     20  C   UNL     1      25.719   2.948  18.068  1.00  0.00     0.005 C 
ATOM     21  C   UNL     1      25.896   1.435  18.383  1.00  0.00     0.008 C 
ATOM     22  C   UNL     1      27.347   0.806  18.210  1.00  0.00    -0.017 C 
ATOM     23  C   UNL     1      27.691  -0.405  19.307  1.00  0.00     0.009 C 
ATOM     24  C   UNL     1      28.338  -1.707  18.683  1.00  0.00     0.043 C 
ATOM     25  C   UNL     1      28.963  -2.694  19.727  1.00  0.00     0.124 C 
ATOM     26  C   UNL     1      26.356  -0.905  19.967  1.00  0.00     0.015 C 
ATOM     27  C   UNL     1      27.422   0.214  16.771  1.00  0.00     0.013 C 
ATOM     28  C   UNL     1      26.627   5.027  14.876  1.00  0.00     0.017 C 
ATOM     29  C   UNL     1      28.988   2.869  16.045  1.00  0.00     0.012 C 
ATOM     30  C   UNL     1      28.662  -1.639  24.942  1.00  0.00     0.011 C 
ENDROOT
BRANCH  25  31
ATOM     31  O   UNL     1      29.798  -3.591  19.032  1.00  0.00    -0.392 OA
ATOM     32  H   UNL     1      30.741  -3.351  19.236  1.00  0.00     0.210 HD
ENDBRANCH  25  31
BRANCH  18  33
ATOM     33  C   UNL     1      24.742   5.242  16.470  1.00  0.00     0.165 C 
BRANCH  33  34
ATOM     34  O   UNL     1      24.165   5.265  15.190  1.00  0.00    -0.396 OA
ATOM     35  H   UNL     1      23.430   4.597  15.207  1.00  0.00     0.210 HD
ENDBRANCH  33  34
ENDBRANCH  18  33
BRANCH  17  36
ATOM     36  O   UNL     1      26.533   6.146  18.481  1.00  0.00    -0.392 OA
ATOM     37  H   UNL     1      25.755   6.762  18.461  1.00  0.00     0.210 HD
ENDBRANCH  17  36
TORSDOF 4
ENDMDL
MODEL 4
REMARK VINA RESULT:    -3.980      2.015      8.111
REMARK INTER + INTRA:          -4.792
REMARK INTER:                  -4.731
REMARK INTRA:                  -0.061
REMARK UNBOUND:                -0.230
REMARK SMILES CC1(C)CC[C@@]23CO[C@]4(C=C[C@@H]5[C@]6(C)CC[C@H](O)[C@](C)(CO)[C@@H]6CC[C@]5(C)[C@@]4(C)C[C@H]2O)[C@@H]3C1
REMARK SMILES IDX 1 1 2 2 4 3 5 4 6 5 7 6 8 7 9 8 33 9 34 10 10 11 11 12 12 13
REMARK SMILES IDX 13 14 15 15 16 16 17 17 19 18 23 19 24 20 25 21 26 22 28 23
REMARK SMILES IDX 30 24 31 25 29 26 27 27 20 28 14 29 3 30 32 31 21 33 22 34
REMARK SMILES IDX 18 36
REMARK H PARENT 32 32 22 35 18 37
REMARK Flexibility Score: inf
ROOT
ATOM      1  C   UNL     1      28.534   1.438  14.883  1.00  0.00     0.011 C 
ATOM      2  C   UNL     1      29.087   0.792  16.173  1.00  0.00    -0.035 C 
ATOM      3  C   UNL     1      28.222  -0.450  16.549  1.00  0.00     0.007 C 
ATOM      4  C   UNL     1      26.967  -0.074  17.344  1.00  0.00     0.013 C 
ATOM      5  C   UNL     1      27.311   0.673  18.674  1.00  0.00     0.026 C 
ATOM      6  C   UNL     1      26.490   1.951  18.845  1.00  0.00     0.171 C 
ATOM      7  O   UNL     1      27.242   2.822  19.659  1.00  0.00    -0.369 OA
ATOM      8  C   UNL     1      28.537   2.259  19.859  1.00  0.00     0.096 C 
ATOM      9  C   UNL     1      28.726   1.253  18.695  1.00  0.00     0.037 C 
ATOM     10  C   UNL     1      29.106   1.862  17.319  1.00  0.00     0.014 C 
ATOM     11  C   UNL     1      29.510   3.405  19.901  1.00  0.00     0.005 C 
ATOM     12  C   UNL     1      29.401   4.294  20.897  1.00  0.00    -0.024 C 
ATOM     13  C   UNL     1      28.368   4.071  22.021  1.00  0.00     0.024 C 
ATOM     14  C   UNL     1      28.301   5.223  23.151  1.00  0.00    -0.022 C 
ATOM     15  C   UNL     1      28.490   6.631  22.470  1.00  0.00     0.010 C 
ATOM     16  C   UNL     1      28.766   7.782  23.434  1.00  0.00     0.033 C 
ATOM     17  C   UNL     1      29.998   7.484  24.293  1.00  0.00     0.123 C 
ATOM     18  C   UNL     1      29.795   6.227  25.186  1.00  0.00     0.020 C 
ATOM     19  C   UNL     1      29.348   4.954  24.326  1.00  0.00     0.006 C 
ATOM     20  C   UNL     1      30.509   4.070  23.815  1.00  0.00     0.005 C 
ATOM     21  C   UNL     1      30.061   2.689  23.254  1.00  0.00     0.008 C 
ATOM     22  C   UNL     1      28.643   2.604  22.539  1.00  0.00    -0.017 C 
ATOM     23  C   UNL     1      28.590   1.512  21.277  1.00  0.00     0.009 C 
ATOM     24  C   UNL     1      27.333   0.551  21.277  1.00  0.00     0.043 C 
ATOM     25  C   UNL     1      27.105  -0.232  19.939  1.00  0.00     0.124 C 
ATOM     26  C   UNL     1      29.825   0.545  21.372  1.00  0.00     0.015 C 
ATOM     27  C   UNL     1      27.609   2.169  23.621  1.00  0.00     0.013 C 
ATOM     28  C   UNL     1      28.722   6.540  26.273  1.00  0.00     0.017 C 
ATOM     29  C   UNL     1      26.846   5.240  23.746  1.00  0.00     0.012 C 
ATOM     30  C   UNL     1      30.527   0.310  15.889  1.00  0.00     0.011 C 
ENDROOT
BRANCH  25  31
ATOM     31  O   UNL     1      25.793  -0.744  19.953  1.00  0.00    -0.392 OA
ATOM     32  H   UNL     1      25.520  -0.909  19.011  1.00  0.00     0.210 HD
ENDBRANCH  25  31
BRANCH  18  33
ATOM     33  C   UNL     1      31.122   5.995  25.979  1.00  0.00     0.165 C 
BRANCH  33  34
ATOM     34  O   UNL     1      30.899   6.053  27.364  1.00  0.00    -0.396 OA
ATOM     35  H   UNL     1      31.718   6.455  27.759  1.00  0.00     0.210 HD
ENDBRANCH  33  34
ENDBRANCH  18  33
BRANCH  17  36
ATOM     36  O   UNL     1      31.125   7.319  23.465  1.00  0.00    -0.392 OA
ATOM     37  H   UNL     1      30.819   6.844  22.649  1.00  0.00     0.210 HD
ENDBRANCH  17  36
TORSDOF 4
ENDMDL
MODEL 5
REMARK VINA RESULT:    -3.737      1.861      7.900
REMARK INTER + INTRA:          -4.513
REMARK INTER:                  -4.434
REMARK INTRA:                  -0.079
REMARK UNBOUND:                -0.230
REMARK SMILES CC1(C)CC[C@@]23CO[C@]4(C=C[C@@H]5[C@]6(C)CC[C@H](O)[C@](C)(CO)[C@@H]6CC[C@]5(C)[C@@]4(C)C[C@H]2O)[C@@H]3C1
REMARK SMILES IDX 1 1 2 2 4 3 5 4 6 5 7 6 8 7 9 8 33 9 34 10 10 11 11 12 12 13
REMARK SMILES IDX 13 14 15 15 16 16 17 17 19 18 23 19 24 20 25 21 26 22 28 23
REMARK SMILES IDX 30 24 31 25 29 26 27 27 20 28 14 29 3 30 32 31 21 33 22 34
REMARK SMILES IDX 18 36
REMARK H PARENT 32 32 22 35 18 37
REMARK Flexibility Score: inf
ROOT
ATOM      1  C   UNL     1      24.660  -1.165  15.918  1.00  0.00     0.011 C 
ATOM      2  C   UNL     1      25.532   0.092  15.700  1.00  0.00    -0.035 C 
ATOM      3  C   UNL     1      26.800  -0.288  14.875  1.00  0.00     0.007 C 
ATOM      4  C   UNL     1      27.926  -0.846  15.752  1.00  0.00     0.013 C 
ATOM      5  C   UNL     1      28.375   0.168  16.855  1.00  0.00     0.026 C 
ATOM      6  C   UNL     1      28.440  -0.478  18.239  1.00  0.00     0.171 C 
ATOM      7  O   UNL     1      28.237   0.545  19.186  1.00  0.00    -0.369 OA
ATOM      8  C   UNL     1      27.875   1.741  18.498  1.00  0.00     0.096 C 
ATOM      9  C   UNL     1      27.349   1.271  17.118  1.00  0.00     0.037 C 
ATOM     10  C   UNL     1      25.901   0.713  17.091  1.00  0.00     0.014 C 
ATOM     11  C   UNL     1      26.883   2.463  19.368  1.00  0.00     0.005 C 
ATOM     12  C   UNL     1      27.292   2.905  20.565  1.00  0.00    -0.024 C 
ATOM     13  C   UNL     1      28.772   2.764  20.975  1.00  0.00     0.024 C 
ATOM     14  C   UNL     1      29.145   3.300  22.452  1.00  0.00    -0.022 C 
ATOM     15  C   UNL     1      27.975   2.946  23.445  1.00  0.00     0.010 C 
ATOM     16  C   UNL     1      28.034   3.658  24.794  1.00  0.00     0.033 C 
ATOM     17  C   UNL     1      28.071   5.176  24.602  1.00  0.00     0.123 C 
ATOM     18  C   UNL     1      29.339   5.636  23.827  1.00  0.00     0.020 C 
ATOM     19  C   UNL     1      29.500   4.857  22.439  1.00  0.00     0.006 C 
ATOM     20  C   UNL     1      28.838   5.545  21.222  1.00  0.00     0.005 C 
ATOM     21  C   UNL     1      29.258   4.951  19.846  1.00  0.00     0.008 C 
ATOM     22  C   UNL     1      29.587   3.397  19.778  1.00  0.00    -0.017 C 
ATOM     23  C   UNL     1      29.164   2.681  18.331  1.00  0.00     0.009 C 
ATOM     24  C   UNL     1      30.271   1.744  17.700  1.00  0.00     0.043 C 
ATOM     25  C   UNL     1      29.765   0.821  16.538  1.00  0.00     0.124 C 
ATOM     26  C   UNL     1      28.926   3.795  17.249  1.00  0.00     0.015 C 
ATOM     27  C   UNL     1      31.125   3.244  19.981  1.00  0.00     0.013 C 
ATOM     28  C   UNL     1      30.596   5.402  24.719  1.00  0.00     0.017 C 
ATOM     29  C   UNL     1      30.389   2.489  22.967  1.00  0.00     0.012 C 
ATOM     30  C   UNL     1      24.710   1.110  14.879  1.00  0.00     0.011 C 
ENDROOT
BRANCH  25  31
ATOM     31  O   UNL     1      30.730  -0.184  16.331  1.00  0.00    -0.392 OA
ATOM     32  H   UNL     1      31.383  -0.140  17.079  1.00  0.00     0.210 HD
ENDBRANCH  25  31
BRANCH  18  33
ATOM     33  C   UNL     1      29.246   7.187  23.652  1.00  0.00     0.165 C 
BRANCH  33  34
ATOM     34  O   UNL     1      30.496   7.793  23.857  1.00  0.00    -0.396 OA
ATOM     35  H   UNL     1      30.307   8.702  24.209  1.00  0.00     0.210 HD
ENDBRANCH  33  34
ENDBRANCH  18  33
BRANCH  17  36
ATOM     36  O   UNL     1      26.908   5.597  23.929  1.00  0.00    -0.392 OA
ATOM     37  H   UNL     1      26.435   6.228  24.533  1.00  0.00     0.210 HD
ENDBRANCH  17  36
TORSDOF 4
ENDMDL
MODEL 6
REMARK VINA RESULT:    -3.586      2.078      8.095
REMARK INTER + INTRA:          -4.340
REMARK INTER:                  -4.086
REMARK INTRA:                  -0.254
REMARK UNBOUND:                -0.230
REMARK SMILES CC1(C)CC[C@@]23CO[C@]4(C=C[C@@H]5[C@]6(C)CC[C@H](O)[C@](C)(CO)[C@@H]6CC[C@]5(C)[C@@]4(C)C[C@H]2O)[C@@H]3C1
REMARK SMILES IDX 1 1 2 2 4 3 5 4 6 5 7 6 8 7 9 8 33 9 34 10 10 11 11 12 12 13
REMARK SMILES IDX 13 14 15 15 16 16 17 17 19 18 23 19 24 20 25 21 26 22 28 23
REMARK SMILES IDX 30 24 31 25 29 26 27 27 20 28 14 29 3 30 32 31 21 33 22 34
REMARK SMILES IDX 18 36
REMARK H PARENT 32 32 22 35 18 37
REMARK Flexibility Score: inf
ROOT
ATOM      1  C   UNL     1      25.733  -1.443  15.478  1.00  0.00     0.011 C 
ATOM      2  C   UNL     1      26.652  -0.249  15.818  1.00  0.00    -0.035 C 
ATOM      3  C   UNL     1      28.139  -0.642  15.556  1.00  0.00     0.007 C 
ATOM      4  C   UNL     1      28.767  -1.386  16.739  1.00  0.00     0.013 C 
ATOM      5  C   UNL     1      28.733  -0.542  18.055  1.00  0.00     0.026 C 
ATOM      6  C   UNL     1      28.183  -1.341  19.237  1.00  0.00     0.171 C 
ATOM      7  O   UNL     1      27.627  -0.414  20.143  1.00  0.00    -0.369 OA
ATOM      8  C   UNL     1      27.629   0.877  19.536  1.00  0.00     0.096 C 
ATOM      9  C   UNL     1      27.727   0.608  18.012  1.00  0.00     0.037 C 
ATOM     10  C   UNL     1      26.412   0.182  17.306  1.00  0.00     0.014 C 
ATOM     11  C   UNL     1      26.384   1.580  19.999  1.00  0.00     0.005 C 
ATOM     12  C   UNL     1      26.257   1.851  21.306  1.00  0.00    -0.024 C 
ATOM     13  C   UNL     1      27.416   1.540  22.274  1.00  0.00     0.024 C 
ATOM     14  C   UNL     1      27.140   1.876  23.829  1.00  0.00    -0.022 C 
ATOM     15  C   UNL     1      25.648   1.516  24.183  1.00  0.00     0.010 C 
ATOM     16  C   UNL     1      25.149   2.067  25.516  1.00  0.00     0.033 C 
ATOM     17  C   UNL     1      25.310   3.589  25.566  1.00  0.00     0.123 C 
ATOM     18  C   UNL     1      26.801   4.021  25.462  1.00  0.00     0.020 C 
ATOM     19  C   UNL     1      27.514   3.390  24.178  1.00  0.00     0.006 C 
ATOM     20  C   UNL     1      27.455   4.261  22.902  1.00  0.00     0.005 C 
ATOM     21  C   UNL     1      28.402   3.789  21.761  1.00  0.00     0.008 C 
ATOM     22  C   UNL     1      28.682   2.230  21.627  1.00  0.00    -0.017 C 
ATOM     23  C   UNL     1      28.894   1.717  20.052  1.00  0.00     0.009 C 
ATOM     24  C   UNL     1      30.136   0.763  19.821  1.00  0.00     0.043 C 
ATOM     25  C   UNL     1      30.145   0.020  18.442  1.00  0.00     0.124 C 
ATOM     26  C   UNL     1      29.174   2.959  19.133  1.00  0.00     0.015 C 
ATOM     27  C   UNL     1      29.981   1.925  22.432  1.00  0.00     0.013 C 
ATOM     28  C   UNL     1      27.550   3.585  26.758  1.00  0.00     0.017 C 
ATOM     29  C   UNL     1      28.022   0.910  24.703  1.00  0.00     0.012 C 
ATOM     30  C   UNL     1      26.289   0.920  14.875  1.00  0.00     0.011 C 
ENDROOT
BRANCH  25  31
ATOM     31  O   UNL     1      31.075  -1.034  18.522  1.00  0.00    -0.392 OA
ATOM     32  H   UNL     1      31.690  -0.959  17.744  1.00  0.00     0.210 HD
ENDBRANCH  25  31
BRANCH  18  33
ATOM     33  C   UNL     1      26.838   5.584  25.478  1.00  0.00     0.165 C 
BRANCH  33  34
ATOM     34  O   UNL     1      25.685   6.111  26.081  1.00  0.00    -0.396 OA
ATOM     35  H   UNL     1      25.883   6.166  27.053  1.00  0.00     0.210 HD
ENDBRANCH  33  34
ENDBRANCH  18  33
BRANCH  17  36
ATOM     36  O   UNL     1      24.558   4.179  24.532  1.00  0.00    -0.392 OA
ATOM     37  H   UNL     1      23.675   3.726  24.520  1.00  0.00     0.210 HD
ENDBRANCH  17  36
TORSDOF 4
ENDMDL
MODEL 7
REMARK VINA RESULT:    -2.788      2.354      7.731
REMARK INTER + INTRA:          -3.426
REMARK INTER:                  -3.525
REMARK INTRA:                   0.099
REMARK UNBOUND:                -0.230
REMARK SMILES CC1(C)CC[C@@]23CO[C@]4(C=C[C@@H]5[C@]6(C)CC[C@H](O)[C@](C)(CO)[C@@H]6CC[C@]5(C)[C@@]4(C)C[C@H]2O)[C@@H]3C1
REMARK SMILES IDX 1 1 2 2 4 3 5 4 6 5 7 6 8 7 9 8 33 9 34 10 10 11 11 12 12 13
REMARK SMILES IDX 13 14 15 15 16 16 17 17 19 18 23 19 24 20 25 21 26 22 28 23
REMARK SMILES IDX 30 24 31 25 29 26 27 27 20 28 14 29 3 30 32 31 21 33 22 34
REMARK SMILES IDX 18 36
REMARK H PARENT 32 32 22 35 18 37
REMARK Flexibility Score: inf
ROOT
ATOM      1  C   UNL     1      25.445  -0.583  16.102  1.00  0.00     0.011 C 
ATOM      2  C   UNL     1      26.923  -0.148  16.225  1.00  0.00    -0.035 C 
ATOM      3  C   UNL     1      27.821  -1.404  16.445  1.00  0.00     0.007 C 
ATOM      4  C   UNL     1      27.885  -1.831  17.915  1.00  0.00     0.013 C 
ATOM      5  C   UNL     1      28.438  -0.696  18.838  1.00  0.00     0.026 C 
ATOM      6  C   UNL     1      27.553  -0.467  20.063  1.00  0.00     0.171 C 
ATOM      7  O   UNL     1      27.737   0.871  20.465  1.00  0.00    -0.369 OA
ATOM      8  C   UNL     1      28.527   1.540  19.484  1.00  0.00     0.096 C 
ATOM      9  C   UNL     1      28.378   0.691  18.196  1.00  0.00     0.037 C 
ATOM     10  C   UNL     1      27.062   0.885  17.396  1.00  0.00     0.014 C 
ATOM     11  C   UNL     1      28.018   2.952  19.401  1.00  0.00     0.005 C 
ATOM     12  C   UNL     1      28.138   3.735  20.483  1.00  0.00    -0.024 C 
ATOM     13  C   UNL     1      28.880   3.215  21.732  1.00  0.00     0.024 C 
ATOM     14  C   UNL     1      28.934   4.230  22.987  1.00  0.00    -0.022 C 
ATOM     15  C   UNL     1      27.562   4.994  23.099  1.00  0.00     0.010 C 
ATOM     16  C   UNL     1      27.570   6.204  24.030  1.00  0.00     0.033 C 
ATOM     17  C   UNL     1      28.653   7.201  23.610  1.00  0.00     0.123 C 
ATOM     18  C   UNL     1      30.079   6.588  23.705  1.00  0.00     0.020 C 
ATOM     19  C   UNL     1      30.189   5.214  22.892  1.00  0.00     0.006 C 
ATOM     20  C   UNL     1      30.643   5.359  21.421  1.00  0.00     0.005 C 
ATOM     21  C   UNL     1      31.040   4.018  20.740  1.00  0.00     0.008 C 
ATOM     22  C   UNL     1      30.272   2.700  21.192  1.00  0.00    -0.017 C 
ATOM     23  C   UNL     1      30.057   1.591  19.963  1.00  0.00     0.009 C 
ATOM     24  C   UNL     1      30.414   0.097  20.341  1.00  0.00     0.043 C 
ATOM     25  C   UNL     1      29.903  -0.978  19.321  1.00  0.00     0.124 C 
ATOM     26  C   UNL     1      31.021   1.938  18.773  1.00  0.00     0.015 C 
ATOM     27  C   UNL     1      31.121   2.039  22.320  1.00  0.00     0.013 C 
ATOM     28  C   UNL     1      30.435   6.351  25.204  1.00  0.00     0.017 C 
ATOM     29  C   UNL     1      29.045   3.375  24.302  1.00  0.00     0.012 C 
ATOM     30  C   UNL     1      27.340   0.516  14.895  1.00  0.00     0.011 C 
ENDROOT
BRANCH  25  31
ATOM     31  O   UNL     1      29.967  -2.237  19.949  1.00  0.00    -0.392 OA
ATOM     32  H   UNL     1      29.665  -2.125  20.890  1.00  0.00     0.210 HD
ENDBRANCH  25  31
BRANCH  18  33
ATOM     33  C   UNL     1      31.091   7.673  23.213  1.00  0.00     0.165 C 
BRANCH  33  34
ATOM     34  O   UNL     1      30.430   8.868  22.885  1.00  0.00    -0.396 OA
ATOM     35  H   UNL     1      29.630   8.910  23.472  1.00  0.00     0.210 HD
ENDBRANCH  33  34
ENDBRANCH  18  33
BRANCH  17  36
ATOM     36  O   UNL     1      28.400   7.652  22.300  1.00  0.00    -0.392 OA
ATOM     37  H   UNL     1      27.826   8.457  22.375  1.00  0.00     0.210 HD
ENDBRANCH  17  36
TORSDOF 4
ENDMDL
MODEL 8
REMARK VINA RESULT:    -2.670      2.249      3.413
REMARK INTER + INTRA:          -3.290
REMARK INTER:                  -3.076
REMARK INTRA:                  -0.215
REMARK UNBOUND:                -0.230
REMARK SMILES CC1(C)CC[C@@]23CO[C@]4(C=C[C@@H]5[C@]6(C)CC[C@H](O)[C@](C)(CO)[C@@H]6CC[C@]5(C)[C@@]4(C)C[C@H]2O)[C@@H]3C1
REMARK SMILES IDX 1 1 2 2 4 3 5 4 6 5 7 6 8 7 9 8 33 9 34 10 10 11 11 12 12 13
REMARK SMILES IDX 13 14 15 15 16 16 17 17 19 18 23 19 24 20 25 21 26 22 28 23
REMARK SMILES IDX 30 24 31 25 29 26 27 27 20 28 14 29 3 30 32 31 21 33 22 34
REMARK SMILES IDX 18 36
REMARK H PARENT 32 32 22 35 18 37
REMARK Flexibility Score: inf
ROOT
ATOM      1  C   UNL     1      27.376   7.275  27.689  1.00  0.00     0.011 C 
ATOM      2  C   UNL     1      28.589   6.466  27.179  1.00  0.00    -0.035 C 
ATOM      3  C   UNL     1      29.704   7.444  26.695  1.00  0.00     0.007 C 
ATOM      4  C   UNL     1      29.487   7.914  25.253  1.00  0.00     0.013 C 
ATOM      5  C   UNL     1      29.441   6.722  24.242  1.00  0.00     0.026 C 
ATOM      6  C   UNL     1      28.233   6.805  23.308  1.00  0.00     0.171 C 
ATOM      7  O   UNL     1      27.930   5.490  22.902  1.00  0.00    -0.369 OA
ATOM      8  C   UNL     1      28.739   4.583  23.648  1.00  0.00     0.096 C 
ATOM      9  C   UNL     1      29.177   5.371  24.908  1.00  0.00     0.037 C 
ATOM     10  C   UNL     1      28.122   5.497  26.040  1.00  0.00     0.014 C 
ATOM     11  C   UNL     1      27.905   3.357  23.898  1.00  0.00     0.005 C 
ATOM     12  C   UNL     1      27.513   2.629  22.844  1.00  0.00    -0.024 C 
ATOM     13  C   UNL     1      28.007   2.995  21.428  1.00  0.00     0.024 C 
ATOM     14  C   UNL     1      27.445   2.071  20.229  1.00  0.00    -0.022 C 
ATOM     15  C   UNL     1      25.937   1.711  20.512  1.00  0.00     0.010 C 
ATOM     16  C   UNL     1      25.365   0.595  19.642  1.00  0.00     0.033 C 
ATOM     17  C   UNL     1      26.205  -0.678  19.775  1.00  0.00     0.123 C 
ATOM     18  C   UNL     1      27.666  -0.467  19.284  1.00  0.00     0.020 C 
ATOM     19  C   UNL     1      28.360   0.781  20.004  1.00  0.00     0.006 C 
ATOM     20  C   UNL     1      29.133   0.442  21.300  1.00  0.00     0.005 C 
ATOM     21  C   UNL     1      30.049   1.589  21.816  1.00  0.00     0.008 C 
ATOM     22  C   UNL     1      29.579   3.086  21.558  1.00  0.00    -0.017 C 
ATOM     23  C   UNL     1      30.011   4.146  22.773  1.00  0.00     0.009 C 
ATOM     24  C   UNL     1      30.649   5.507  22.278  1.00  0.00     0.043 C 
ATOM     25  C   UNL     1      30.743   6.625  23.373  1.00  0.00     0.124 C 
ATOM     26  C   UNL     1      31.125   3.490  23.665  1.00  0.00     0.015 C 
ATOM     27  C   UNL     1      30.242   3.553  20.227  1.00  0.00     0.013 C 
ATOM     28  C   UNL     1      27.659  -0.257  17.739  1.00  0.00     0.017 C 
ATOM     29  C   UNL     1      27.429   2.932  18.914  1.00  0.00     0.012 C 
ATOM     30  C   UNL     1      29.148   5.645  28.362  1.00  0.00     0.011 C 
ENDROOT
BRANCH  25  31
ATOM     31  O   UNL     1      30.978   7.851  22.722  1.00  0.00    -0.392 OA
ATOM     32  H   UNL     1      31.942   8.072  22.826  1.00  0.00     0.210 HD
ENDBRANCH  25  31
BRANCH  18  33
ATOM     33  C   UNL     1      28.435  -1.810  19.507  1.00  0.00     0.165 C 
BRANCH  33  34
ATOM     34  O   UNL     1      27.742  -2.890  18.940  1.00  0.00    -0.396 OA
ATOM     35  H   UNL     1      26.941  -3.034  19.510  1.00  0.00     0.210 HD
ENDBRANCH  33  34
ENDBRANCH  18  33
BRANCH  17  36
ATOM     36  O   UNL     1      26.199  -1.112  21.115  1.00  0.00    -0.392 OA
ATOM     37  H   UNL     1      26.567  -0.371  21.663  1.00  0.00     0.210 HD
ENDBRANCH  17  36
TORSDOF 4
ENDMDL
MODEL 9
REMARK VINA RESULT:    -2.456      2.557      7.796
REMARK INTER + INTRA:          -3.045
REMARK INTER:                  -2.815
REMARK INTRA:                  -0.229
REMARK UNBOUND:                -0.230
REMARK SMILES CC1(C)CC[C@@]23CO[C@]4(C=C[C@@H]5[C@]6(C)CC[C@H](O)[C@](C)(CO)[C@@H]6CC[C@]5(C)[C@@]4(C)C[C@H]2O)[C@@H]3C1
REMARK SMILES IDX 1 1 2 2 4 3 5 4 6 5 7 6 8 7 9 8 33 9 34 10 10 11 11 12 12 13
REMARK SMILES IDX 13 14 15 15 16 16 17 17 19 18 23 19 24 20 25 21 26 22 28 23
REMARK SMILES IDX 30 24 31 25 29 26 27 27 20 28 14 29 3 30 32 31 21 33 22 34
REMARK SMILES IDX 18 36
REMARK H PARENT 32 32 22 35 18 37
REMARK Flexibility Score: inf
ROOT
ATOM      1  C   UNL     1      31.124  -3.989  19.518  1.00  0.00     0.011 C 
ATOM      2  C   UNL     1      29.955  -3.557  20.431  1.00  0.00    -0.035 C 
ATOM      3  C   UNL     1      28.599  -3.843  19.716  1.00  0.00     0.007 C 
ATOM      4  C   UNL     1      28.190  -2.718  18.760  1.00  0.00     0.013 C 
ATOM      5  C   UNL     1      28.051  -1.342  19.490  1.00  0.00     0.026 C 
ATOM      6  C   UNL     1      28.799  -0.226  18.762  1.00  0.00     0.171 C 
ATOM      7  O   UNL     1      29.138   0.745  19.725  1.00  0.00    -0.369 OA
ATOM      8  C   UNL     1      28.818   0.238  21.019  1.00  0.00     0.096 C 
ATOM      9  C   UNL     1      28.755  -1.301  20.847  1.00  0.00     0.037 C 
ATOM     10  C   UNL     1      30.118  -2.042  20.797  1.00  0.00     0.014 C 
ATOM     11  C   UNL     1      29.871   0.749  21.962  1.00  0.00     0.005 C 
ATOM     12  C   UNL     1      29.958   2.072  22.160  1.00  0.00    -0.024 C 
ATOM     13  C   UNL     1      28.926   3.018  21.513  1.00  0.00     0.024 C 
ATOM     14  C   UNL     1      29.147   4.593  21.791  1.00  0.00    -0.022 C 
ATOM     15  C   UNL     1      30.689   4.914  21.771  1.00  0.00     0.010 C 
ATOM     16  C   UNL     1      31.071   6.284  22.326  1.00  0.00     0.033 C 
ATOM     17  C   UNL     1      30.556   6.448  23.759  1.00  0.00     0.123 C 
ATOM     18  C   UNL     1      29.003   6.383  23.831  1.00  0.00     0.020 C 
ATOM     19  C   UNL     1      28.433   5.056  23.143  1.00  0.00     0.006 C 
ATOM     20  C   UNL     1      28.257   3.849  24.094  1.00  0.00     0.005 C 
ATOM     21  C   UNL     1      27.425   2.679  23.495  1.00  0.00     0.008 C 
ATOM     22  C   UNL     1      27.520   2.428  21.928  1.00  0.00    -0.017 C 
ATOM     23  C   UNL     1      27.402   0.820  21.495  1.00  0.00     0.009 C 
ATOM     24  C   UNL     1      26.416   0.522  20.293  1.00  0.00     0.043 C 
ATOM     25  C   UNL     1      26.554  -0.910  19.671  1.00  0.00     0.124 C 
ATOM     26  C   UNL     1      26.816  -0.002  22.698  1.00  0.00     0.015 C 
ATOM     27  C   UNL     1      26.346   3.212  21.265  1.00  0.00     0.013 C 
ATOM     28  C   UNL     1      28.406   7.644  23.136  1.00  0.00     0.017 C 
ATOM     29  C   UNL     1      28.538   5.394  20.583  1.00  0.00     0.012 C 
ATOM     30  C   UNL     1      30.011  -4.410  21.718  1.00  0.00     0.011 C 
ENDROOT
BRANCH  25  31
ATOM     31  O   UNL     1      25.902  -0.906  18.423  1.00  0.00    -0.392 OA
ATOM     32  H   UNL     1      25.871  -1.843  18.092  1.00  0.00     0.210 HD
ENDBRANCH  25  31
BRANCH  18  33
ATOM     33  C   UNL     1      28.597   6.517  25.335  1.00  0.00     0.165 C 
BRANCH  33  34
ATOM     34  O   UNL     1      29.626   7.107  26.085  1.00  0.00    -0.396 OA
ATOM     35  H   UNL     1      30.315   7.396  25.430  1.00  0.00     0.210 HD
ENDBRANCH  33  34
ENDBRANCH  18  33
BRANCH  17  36
ATOM     36  O   UNL     1      31.125   5.460  24.584  1.00  0.00    -0.392 OA
ATOM     37  H   UNL     1      30.795   5.625  25.506  1.00  0.00     0.210 HD
ENDBRANCH  17  36
TORSDOF 4
ENDMDL
