MODEL 1
REMARK VINA RESULT:    -6.463      0.000      0.000
REMARK INTER + INTRA:          -6.652
REMARK INTER:                  -6.652
REMARK INTRA:                   0.000
REMARK UNBOUND:                 0.000
REMARK SMILES C=C1[C@H](O)C[C@@]23C[C@@H]1C(C)(C)[C@H]2CC[C@@H]3C
REMARK SMILES IDX 16 1 15 2 14 3 13 4 12 5 6 6 7 7 8 8 9 9 10 10 11 11 2 12
REMARK SMILES IDX 1 13 3 14 5 15 4 16
REMARK H PARENT 4 17
REMARK Flexibility Score: inf
ROOT
ATOM      1  C   UNL     1       1.507  15.980  45.486  1.00  0.00     0.008 C 
ATOM      2  C   UNL     1       0.289  16.885  45.229  1.00  0.00    -0.008 C 
ATOM      3  C   UNL     1      -0.966  16.074  44.767  1.00  0.00     0.004 C 
ATOM      4  C   UNL     1      -1.999  16.103  45.921  1.00  0.00     0.005 C 
ATOM      5  C   UNL     1      -1.163  16.611  47.078  1.00  0.00     0.002 C 
ATOM      6  C   UNL     1      -0.221  17.644  46.479  1.00  0.00    -0.020 C 
ATOM      7  C   UNL     1       0.631  17.935  47.710  1.00  0.00     0.016 C 
ATOM      8  C   UNL     1      -0.495  18.221  48.743  1.00  0.00     0.023 C 
ATOM      9  C   UNL     1      -1.642  17.179  48.430  1.00  0.00    -0.025 C 
ATOM     10  C   UNL     1      -3.079  17.752  48.349  1.00  0.00     0.012 C 
ATOM     11  C   UNL     1      -1.642  16.079  49.519  1.00  0.00     0.012 C 
ATOM     12  C   UNL     1      -0.946  19.645  48.499  1.00  0.00    -0.045 C 
ATOM     13  C   UNL     1      -1.208  20.465  49.528  1.00  0.00     0.011 C 
ATOM     14  C   UNL     1      -1.053  20.137  47.069  1.00  0.00     0.140 C 
ATOM     15  C   UNL     1      -0.912  18.996  46.009  1.00  0.00     0.044 C 
ENDROOT
BRANCH  14  16
ATOM     16  O   UNL     1      -2.274  20.808  46.888  1.00  0.00    -0.389 OA
ATOM     17  H   UNL     1      -2.855  20.552  47.652  1.00  0.00     0.211 HD
ENDBRANCH  14  16
TORSDOF 1
ENDMDL
MODEL 2
REMARK VINA RESULT:    -5.720      1.733      3.294
REMARK INTER + INTRA:          -5.887
REMARK INTER:                  -5.887
REMARK INTRA:                   0.000
REMARK UNBOUND:                 0.000
REMARK SMILES C=C1[C@H](O)C[C@@]23C[C@@H]1C(C)(C)[C@H]2CC[C@@H]3C
REMARK SMILES IDX 16 1 15 2 14 3 13 4 12 5 6 6 7 7 8 8 9 9 10 10 11 11 2 12
REMARK SMILES IDX 1 13 3 14 5 15 4 16
REMARK H PARENT 4 17
REMARK Flexibility Score: inf
ROOT
ATOM      1  C   UNL     1       0.713  15.876  44.805  1.00  0.00     0.008 C 
ATOM      2  C   UNL     1       0.772  16.003  46.338  1.00  0.00    -0.008 C 
ATOM      3  C   UNL     1       2.202  16.376  46.848  1.00  0.00     0.004 C 
ATOM      4  C   UNL     1       2.150  17.833  47.374  1.00  0.00     0.005 C 
ATOM      5  C   UNL     1       0.823  18.317  46.828  1.00  0.00     0.002 C 
ATOM      6  C   UNL     1      -0.119  17.126  46.924  1.00  0.00    -0.020 C 
ATOM      7  C   UNL     1      -1.329  17.717  46.210  1.00  0.00     0.016 C 
ATOM      8  C   UNL     1      -1.467  19.052  46.996  1.00  0.00     0.023 C 
ATOM      9  C   UNL     1       0.010  19.559  47.246  1.00  0.00    -0.025 C 
ATOM     10  C   UNL     1       0.337  20.016  48.689  1.00  0.00     0.012 C 
ATOM     11  C   UNL     1       0.304  20.752  46.305  1.00  0.00     0.012 C 
ATOM     12  C   UNL     1      -2.173  18.713  48.291  1.00  0.00    -0.045 C 
ATOM     13  C   UNL     1      -3.126  19.520  48.781  1.00  0.00     0.011 C 
ATOM     14  C   UNL     1      -1.810  17.422  48.999  1.00  0.00     0.140 C 
ATOM     15  C   UNL     1      -0.546  16.721  48.400  1.00  0.00     0.044 C 
ENDROOT
BRANCH  14  16
ATOM     16  O   UNL     1      -1.613  17.670  50.368  1.00  0.00    -0.389 OA
ATOM     17  H   UNL     1      -1.363  18.628  50.450  1.00  0.00     0.211 HD
ENDBRANCH  14  16
TORSDOF 1
ENDMDL
MODEL 3
REMARK VINA RESULT:    -5.698      1.718      4.420
REMARK INTER + INTRA:          -5.865
REMARK INTER:                  -5.865
REMARK INTRA:                   0.000
REMARK UNBOUND:                 0.000
REMARK SMILES C=C1[C@H](O)C[C@@]23C[C@@H]1C(C)(C)[C@H]2CC[C@@H]3C
REMARK SMILES IDX 16 1 15 2 14 3 13 4 12 5 6 6 7 7 8 8 9 9 10 10 11 11 2 12
REMARK SMILES IDX 1 13 3 14 5 15 4 16
REMARK H PARENT 4 17
REMARK Flexibility Score: inf
ROOT
ATOM      1  C   UNL     1      -0.667  22.790  49.457  1.00  0.00     0.008 C 
ATOM      2  C   UNL     1      -1.614  22.060  48.489  1.00  0.00    -0.008 C 
ATOM      3  C   UNL     1      -1.374  22.470  46.999  1.00  0.00     0.004 C 
ATOM      4  C   UNL     1      -0.739  21.258  46.272  1.00  0.00     0.005 C 
ATOM      5  C   UNL     1      -0.339  20.370  47.431  1.00  0.00     0.002 C 
ATOM      6  C   UNL     1      -1.446  20.521  48.464  1.00  0.00    -0.020 C 
ATOM      7  C   UNL     1      -0.829  19.710  49.598  1.00  0.00     0.016 C 
ATOM      8  C   UNL     1      -0.477  18.407  48.825  1.00  0.00     0.023 C 
ATOM      9  C   UNL     1       0.045  18.876  47.407  1.00  0.00    -0.025 C 
ATOM     10  C   UNL     1      -0.552  18.138  46.184  1.00  0.00     0.012 C 
ATOM     11  C   UNL     1       1.582  18.704  47.349  1.00  0.00     0.012 C 
ATOM     12  C   UNL     1      -1.762  17.615  48.718  1.00  0.00    -0.045 C 
ATOM     13  C   UNL     1      -1.761  16.285  48.896  1.00  0.00     0.011 C 
ATOM     14  C   UNL     1      -3.054  18.360  48.447  1.00  0.00     0.140 C 
ATOM     15  C   UNL     1      -2.835  19.861  48.065  1.00  0.00     0.044 C 
ENDROOT
BRANCH  14  16
ATOM     16  O   UNL     1      -3.774  17.709  47.431  1.00  0.00    -0.389 OA
ATOM     17  H   UNL     1      -4.734  17.780  47.673  1.00  0.00     0.211 HD
ENDBRANCH  14  16
TORSDOF 1
ENDMDL
MODEL 4
REMARK VINA RESULT:    -5.626      1.882      4.345
REMARK INTER + INTRA:          -5.791
REMARK INTER:                  -5.791
REMARK INTRA:                   0.000
REMARK UNBOUND:                 0.000
REMARK SMILES C=C1[C@H](O)C[C@@]23C[C@@H]1C(C)(C)[C@H]2CC[C@@H]3C
REMARK SMILES IDX 16 1 15 2 14 3 13 4 12 5 6 6 7 7 8 8 9 9 10 10 11 11 2 12
REMARK SMILES IDX 1 13 3 14 5 15 4 16
REMARK H PARENT 4 17
REMARK Flexibility Score: inf
ROOT
ATOM      1  C   UNL     1      -1.055  22.301  47.155  1.00  0.00     0.008 C 
ATOM      2  C   UNL     1      -0.073  21.394  47.916  1.00  0.00    -0.008 C 
ATOM      3  C   UNL     1      -0.315  21.419  49.460  1.00  0.00     0.004 C 
ATOM      4  C   UNL     1      -0.898  20.043  49.870  1.00  0.00     0.005 C 
ATOM      5  C   UNL     1      -1.276  19.450  48.529  1.00  0.00     0.002 C 
ATOM      6  C   UNL     1      -0.185  19.890  47.565  1.00  0.00    -0.020 C 
ATOM      7  C   UNL     1      -0.781  19.357  46.267  1.00  0.00     0.016 C 
ATOM      8  C   UNL     1      -1.079  17.893  46.699  1.00  0.00     0.023 C 
ATOM      9  C   UNL     1      -1.605  17.982  48.188  1.00  0.00    -0.025 C 
ATOM     10  C   UNL     1      -0.971  16.991  49.195  1.00  0.00     0.012 C 
ATOM     11  C   UNL     1      -3.134  17.743  48.202  1.00  0.00     0.012 C 
ATOM     12  C   UNL     1       0.235  17.147  46.610  1.00  0.00    -0.045 C 
ATOM     13  C   UNL     1       0.281  15.902  46.113  1.00  0.00     0.011 C 
ATOM     14  C   UNL     1       1.502  17.852  47.055  1.00  0.00     0.140 C 
ATOM     15  C   UNL     1       1.231  19.205  47.792  1.00  0.00     0.044 C 
ENDROOT
BRANCH  14  16
ATOM     16  O   UNL     1       2.254  17.001  47.881  1.00  0.00    -0.389 OA
ATOM     17  H   UNL     1       2.030  16.072  47.612  1.00  0.00     0.211 HD
ENDBRANCH  14  16
TORSDOF 1
ENDMDL
MODEL 5
REMARK VINA RESULT:    -5.504      5.119      7.839
REMARK INTER + INTRA:          -5.665
REMARK INTER:                  -5.665
REMARK INTRA:                   0.000
REMARK UNBOUND:                 0.000
REMARK SMILES C=C1[C@H](O)C[C@@]23C[C@@H]1C(C)(C)[C@H]2CC[C@@H]3C
REMARK SMILES IDX 16 1 15 2 14 3 13 4 12 5 6 6 7 7 8 8 9 9 10 10 11 11 2 12
REMARK SMILES IDX 1 13 3 14 5 15 4 16
REMARK H PARENT 4 17
REMARK Flexibility Score: inf
ROOT
ATOM      1  C   UNL     1      -2.453  20.915  49.521  1.00  0.00     0.008 C 
ATOM      2  C   UNL     1      -1.231  21.654  50.096  1.00  0.00    -0.008 C 
ATOM      3  C   UNL     1      -0.321  22.258  48.977  1.00  0.00     0.004 C 
ATOM      4  C   UNL     1      -0.470  23.800  49.029  1.00  0.00     0.005 C 
ATOM      5  C   UNL     1      -1.687  23.969  49.914  1.00  0.00     0.002 C 
ATOM      6  C   UNL     1      -1.578  22.882  50.973  1.00  0.00    -0.020 C 
ATOM      7  C   UNL     1      -2.921  23.086  51.666  1.00  0.00     0.016 C 
ATOM      8  C   UNL     1      -2.851  24.618  51.923  1.00  0.00     0.023 C 
ATOM      9  C   UNL     1      -2.181  25.241  50.633  1.00  0.00    -0.025 C 
ATOM     10  C   UNL     1      -1.038  26.255  50.881  1.00  0.00     0.012 C 
ATOM     11  C   UNL     1      -3.265  25.961  49.795  1.00  0.00     0.012 C 
ATOM     12  C   UNL     1      -1.986  24.804  53.151  1.00  0.00    -0.045 C 
ATOM     13  C   UNL     1      -2.320  25.702  54.091  1.00  0.00     0.011 C 
ATOM     14  C   UNL     1      -0.762  23.926  53.317  1.00  0.00     0.140 C 
ATOM     15  C   UNL     1      -0.419  23.093  52.038  1.00  0.00     0.044 C 
ENDROOT
BRANCH  14  16
ATOM     16  O   UNL     1       0.342  24.715  53.682  1.00  0.00    -0.389 OA
ATOM     17  H   UNL     1       0.547  24.497  54.629  1.00  0.00     0.211 HD
ENDBRANCH  14  16
TORSDOF 1
ENDMDL
MODEL 6
REMARK VINA RESULT:    -5.380      2.113      5.464
REMARK INTER + INTRA:          -5.537
REMARK INTER:                  -5.537
REMARK INTRA:                   0.000
REMARK UNBOUND:                 0.000
REMARK SMILES C=C1[C@H](O)C[C@@]23C[C@@H]1C(C)(C)[C@H]2CC[C@@H]3C
REMARK SMILES IDX 16 1 15 2 14 3 13 4 12 5 6 6 7 7 8 8 9 9 10 10 11 11 2 12
REMARK SMILES IDX 1 13 3 14 5 15 4 16
REMARK H PARENT 4 17
REMARK Flexibility Score: inf
ROOT
ATOM      1  C   UNL     1      -0.203  22.648  51.580  1.00  0.00     0.008 C 
ATOM      2  C   UNL     1      -1.423  22.462  50.661  1.00  0.00    -0.008 C 
ATOM      3  C   UNL     1      -1.685  23.712  49.760  1.00  0.00     0.004 C 
ATOM      4  C   UNL     1      -1.336  23.324  48.301  1.00  0.00     0.005 C 
ATOM      5  C   UNL     1      -0.583  22.025  48.492  1.00  0.00     0.002 C 
ATOM      6  C   UNL     1      -1.285  21.309  49.636  1.00  0.00    -0.020 C 
ATOM      7  C   UNL     1      -0.335  20.128  49.800  1.00  0.00     0.016 C 
ATOM      8  C   UNL     1      -0.268  19.640  48.325  1.00  0.00     0.023 C 
ATOM      9  C   UNL     1      -0.240  20.951  47.440  1.00  0.00    -0.025 C 
ATOM     10  C   UNL     1      -1.214  20.979  46.235  1.00  0.00     0.012 C 
ATOM     11  C   UNL     1       1.190  21.159  46.885  1.00  0.00     0.012 C 
ATOM     12  C   UNL     1      -1.523  18.828  48.088  1.00  0.00    -0.045 C 
ATOM     13  C   UNL     1      -1.474  17.684  47.388  1.00  0.00     0.011 C 
ATOM     14  C   UNL     1      -2.826  19.310  48.695  1.00  0.00     0.140 C 
ATOM     15  C   UNL     1      -2.733  20.752  49.295  1.00  0.00     0.044 C 
ENDROOT
BRANCH  14  16
ATOM     16  O   UNL     1      -3.846  19.260  47.730  1.00  0.00    -0.389 OA
ATOM     17  H   UNL     1      -4.688  19.060  48.217  1.00  0.00     0.211 HD
ENDBRANCH  14  16
TORSDOF 1
ENDMDL
MODEL 7
REMARK VINA RESULT:    -5.346      2.150      3.855
REMARK INTER + INTRA:          -5.503
REMARK INTER:                  -5.503
REMARK INTRA:                   0.000
REMARK UNBOUND:                 0.000
REMARK SMILES C=C1[C@H](O)C[C@@]23C[C@@H]1C(C)(C)[C@H]2CC[C@@H]3C
REMARK SMILES IDX 16 1 15 2 14 3 13 4 12 5 6 6 7 7 8 8 9 9 10 10 11 11 2 12
REMARK SMILES IDX 1 13 3 14 5 15 4 16
REMARK H PARENT 4 17
REMARK Flexibility Score: inf
ROOT
ATOM      1  C   UNL     1      -0.895  17.004  48.504  1.00  0.00     0.008 C 
ATOM      2  C   UNL     1      -1.584  18.174  47.780  1.00  0.00    -0.008 C 
ATOM      3  C   UNL     1      -2.927  18.589  48.464  1.00  0.00     0.004 C 
ATOM      4  C   UNL     1      -2.710  19.972  49.128  1.00  0.00     0.005 C 
ATOM      5  C   UNL     1      -1.202  20.106  49.091  1.00  0.00     0.002 C 
ATOM      6  C   UNL     1      -0.769  19.491  47.769  1.00  0.00    -0.020 C 
ATOM      7  C   UNL     1       0.743  19.563  47.954  1.00  0.00     0.016 C 
ATOM      8  C   UNL     1       0.885  21.060  48.352  1.00  0.00     0.023 C 
ATOM      9  C   UNL     1      -0.347  21.374  49.292  1.00  0.00    -0.025 C 
ATOM     10  C   UNL     1      -1.135  22.669  48.971  1.00  0.00     0.012 C 
ATOM     11  C   UNL     1       0.144  21.481  50.756  1.00  0.00     0.012 C 
ATOM     12  C   UNL     1       0.826  21.850  47.063  1.00  0.00    -0.045 C 
ATOM     13  C   UNL     1       1.649  22.890  46.861  1.00  0.00     0.011 C 
ATOM     14  C   UNL     1      -0.152  21.415  45.988  1.00  0.00     0.140 C 
ATOM     15  C   UNL     1      -1.163  20.325  46.476  1.00  0.00     0.044 C 
ENDROOT
BRANCH  14  16
ATOM     16  O   UNL     1      -0.852  22.533  45.504  1.00  0.00    -0.389 OA
ATOM     17  H   UNL     1      -0.978  22.389  44.529  1.00  0.00     0.211 HD
ENDBRANCH  14  16
TORSDOF 1
ENDMDL
MODEL 8
REMARK VINA RESULT:    -5.226      9.088     10.808
REMARK INTER + INTRA:          -5.379
REMARK INTER:                  -5.379
REMARK INTRA:                   0.000
REMARK UNBOUND:                 0.000
REMARK SMILES C=C1[C@H](O)C[C@@]23C[C@@H]1C(C)(C)[C@H]2CC[C@@H]3C
REMARK SMILES IDX 16 1 15 2 14 3 13 4 12 5 6 6 7 7 8 8 9 9 10 10 11 11 2 12
REMARK SMILES IDX 1 13 3 14 5 15 4 16
REMARK H PARENT 4 17
REMARK Flexibility Score: inf
ROOT
ATOM      1  C   UNL     1       5.976  22.026  42.742  1.00  0.00     0.008 C 
ATOM      2  C   UNL     1       5.969  20.612  42.136  1.00  0.00    -0.008 C 
ATOM      3  C   UNL     1       6.293  20.618  40.607  1.00  0.00     0.004 C 
ATOM      4  C   UNL     1       7.698  19.993  40.419  1.00  0.00     0.005 C 
ATOM      5  C   UNL     1       8.231  19.988  41.836  1.00  0.00     0.002 C 
ATOM      6  C   UNL     1       7.039  19.658  42.721  1.00  0.00    -0.020 C 
ATOM      7  C   UNL     1       7.694  19.841  44.086  1.00  0.00     0.016 C 
ATOM      8  C   UNL     1       8.956  18.953  43.890  1.00  0.00     0.023 C 
ATOM      9  C   UNL     1       9.435  19.208  42.405  1.00  0.00    -0.025 C 
ATOM     10  C   UNL     1       9.763  17.946  41.569  1.00  0.00     0.012 C 
ATOM     11  C   UNL     1      10.704  20.094  42.425  1.00  0.00     0.012 C 
ATOM     12  C   UNL     1       8.507  17.523  44.099  1.00  0.00    -0.045 C 
ATOM     13  C   UNL     1       9.271  16.661  44.788  1.00  0.00     0.011 C 
ATOM     14  C   UNL     1       7.158  17.098  43.552  1.00  0.00     0.140 C 
ATOM     15  C   UNL     1       6.509  18.164  42.609  1.00  0.00     0.044 C 
ENDROOT
BRANCH  14  16
ATOM     16  O   UNL     1       7.286  15.875  42.872  1.00  0.00    -0.389 OA
ATOM     17  H   UNL     1       8.248  15.632  42.903  1.00  0.00     0.211 HD
ENDBRANCH  14  16
TORSDOF 1
ENDMDL
MODEL 9
REMARK VINA RESULT:    -5.081      7.138      8.988
REMARK INTER + INTRA:          -5.230
REMARK INTER:                  -5.230
REMARK INTRA:                   0.000
REMARK UNBOUND:                 0.000
REMARK SMILES C=C1[C@H](O)C[C@@]23C[C@@H]1C(C)(C)[C@H]2CC[C@@H]3C
REMARK SMILES IDX 16 1 15 2 14 3 13 4 12 5 6 6 7 7 8 8 9 9 10 10 11 11 2 12
REMARK SMILES IDX 1 13 3 14 5 15 4 16
REMARK H PARENT 4 17
REMARK Flexibility Score: inf
ROOT
ATOM      1  C   UNL     1       0.603  21.874  53.656  1.00  0.00     0.008 C 
ATOM      2  C   UNL     1       0.417  23.394  53.801  1.00  0.00    -0.008 C 
ATOM      3  C   UNL     1       1.716  24.188  53.446  1.00  0.00     0.004 C 
ATOM      4  C   UNL     1       1.465  24.934  52.111  1.00  0.00     0.005 C 
ATOM      5  C   UNL     1       0.202  24.265  51.611  1.00  0.00     0.002 C 
ATOM      6  C   UNL     1      -0.642  24.004  52.849  1.00  0.00    -0.020 C 
ATOM      7  C   UNL     1      -1.773  23.209  52.207  1.00  0.00     0.016 C 
ATOM      8  C   UNL     1      -2.139  24.172  51.042  1.00  0.00     0.023 C 
ATOM      9  C   UNL     1      -0.764  24.744  50.508  1.00  0.00    -0.025 C 
ATOM     10  C   UNL     1      -0.700  26.277  50.298  1.00  0.00     0.012 C 
ATOM     11  C   UNL     1      -0.428  24.076  49.153  1.00  0.00     0.012 C 
ATOM     12  C   UNL     1      -3.004  25.259  51.644  1.00  0.00    -0.045 C 
ATOM     13  C   UNL     1      -4.085  25.712  50.989  1.00  0.00     0.011 C 
ATOM     14  C   UNL     1      -2.650  25.792  53.018  1.00  0.00     0.140 C 
ATOM     15  C   UNL     1      -1.256  25.301  53.532  1.00  0.00     0.044 C 
ENDROOT
BRANCH  14  16
ATOM     16  O   UNL     1      -2.686  27.196  53.006  1.00  0.00    -0.389 OA
ATOM     17  H   UNL     1      -3.089  27.463  52.139  1.00  0.00     0.211 HD
ENDBRANCH  14  16
TORSDOF 1
ENDMDL
