MODEL 1
REMARK VINA RESULT:    -6.383      0.000      0.000
REMARK INTER + INTRA:         -10.499
REMARK INTER:                  -8.808
REMARK INTRA:                  -1.691
REMARK UNBOUND:                -1.691
REMARK SMILES CC[C@@H](CC[C@@H](C)[C@@H]1CC[C@@H]2[C@H]3CC=C4C[C@H](O)CC[C@@]4(C)[C@H]3CC[C@@]21C)C(C)C
REMARK SMILES IDX 5 1 4 2 3 3 2 4 1 5 28 6 29 7 30 8 6 9 7 10 8 11 9 12 26 13
REMARK SMILES IDX 10 14 11 15 25 16 27 17 12 18 24 19 23 20 13 21 21 22 14 23
REMARK SMILES IDX 15 24 20 25 22 26 16 27 19 28 17 29 18 30
REMARK H PARENT 18 31
REMARK Flexibility Score: inf
ROOT
ATOM      1  C   UNL     1     165.312 174.928 180.767  1.00  0.00     0.004 C 
ENDROOT
BRANCH   1   2
ATOM      2  C   UNL     1     165.255 174.558 182.262  1.00  0.00     0.004 C 
BRANCH   2   3
ATOM      3  C   UNL     1     163.945 175.049 182.945  1.00  0.00    -0.009 C 
BRANCH   3   4
ATOM      4  C   UNL     1     162.845 173.943 182.944  1.00  0.00     0.000 C 
ATOM      5  C   UNL     1     163.251 172.715 183.762  1.00  0.00     0.004 C 
ENDBRANCH   3   4
BRANCH   3   6
ATOM      6  C   UNL     1     163.463 176.397 182.317  1.00  0.00    -0.014 C 
ATOM      7  C   UNL     1     161.933 176.572 182.313  1.00  0.00     0.007 C 
ATOM      8  C   UNL     1     164.149 177.610 182.966  1.00  0.00     0.007 C 
ENDBRANCH   3   6
ENDBRANCH   2   3
ENDBRANCH   1   2
BRANCH   1   9
ATOM      9  C   UNL     1     166.632 175.658 180.383  1.00  0.00    -0.011 C 
ATOM     10  C   UNL     1     166.274 177.000 179.700  1.00  0.00     0.008 C 
BRANCH   9  11
ATOM     11  C   UNL     1     167.587 175.761 181.635  1.00  0.00    -0.002 C 
ATOM     12  C   UNL     1     167.946 177.181 182.079  1.00  0.00     0.005 C 
ATOM     13  C   UNL     1     168.935 174.980 181.606  1.00  0.00    -0.026 C 
ATOM     14  C   UNL     1     169.183 177.043 182.963  1.00  0.00     0.005 C 
ATOM     15  C   UNL     1     169.677 175.587 182.837  1.00  0.00    -0.001 C 
ATOM     16  C   UNL     1     169.726 175.234 180.295  1.00  0.00     0.007 C 
ATOM     17  C   UNL     1     168.658 173.462 181.775  1.00  0.00     0.012 C 
ATOM     18  C   UNL     1     171.238 175.487 182.853  1.00  0.00     0.000 C 
ATOM     19  C   UNL     1     171.215 174.889 180.399  1.00  0.00     0.005 C 
ATOM     20  C   UNL     1     171.892 175.770 181.473  1.00  0.00     0.003 C 
ATOM     21  C   UNL     1     171.705 174.139 183.435  1.00  0.00     0.031 C 
ATOM     22  C   UNL     1     173.472 175.690 181.554  1.00  0.00    -0.008 C 
ATOM     23  C   UNL     1     173.178 173.895 183.304  1.00  0.00    -0.027 C 
ATOM     24  C   UNL     1     173.960 174.498 182.384  1.00  0.00    -0.065 C 
ATOM     25  C   UNL     1     174.108 175.594 180.133  1.00  0.00     0.014 C 
ATOM     26  C   UNL     1     173.977 176.993 182.239  1.00  0.00     0.016 C 
ATOM     27  C   UNL     1     175.442 174.156 182.364  1.00  0.00     0.063 C 
ATOM     28  C   UNL     1     175.636 175.410 180.149  1.00  0.00     0.033 C 
ATOM     29  C   UNL     1     176.014 174.142 180.935  1.00  0.00     0.118 C 
BRANCH  29  30
ATOM     30  O   UNL     1     177.413 173.985 180.958  1.00  0.00    -0.393 OA
ATOM     31  H   UNL     1     177.620 173.066 180.635  1.00  0.00     0.210 HD
ENDBRANCH  29  30
ENDBRANCH   9  11
ENDBRANCH   1   9
TORSDOF 7
ENDMDL
MODEL 2
REMARK VINA RESULT:    -6.371      3.720      9.574
REMARK INTER + INTRA:         -10.482
REMARK INTER:                  -8.782
REMARK INTRA:                  -1.700
REMARK UNBOUND:                -1.691
REMARK SMILES CC[C@@H](CC[C@@H](C)[C@@H]1CC[C@@H]2[C@H]3CC=C4C[C@H](O)CC[C@@]4(C)[C@H]3CC[C@@]21C)C(C)C
REMARK SMILES IDX 5 1 4 2 3 3 2 4 1 5 28 6 29 7 30 8 6 9 7 10 8 11 9 12 26 13
REMARK SMILES IDX 10 14 11 15 25 16 27 17 12 18 24 19 23 20 13 21 21 22 14 23
REMARK SMILES IDX 15 24 20 25 22 26 16 27 19 28 17 29 18 30
REMARK H PARENT 18 31
REMARK Flexibility Score: inf
ROOT
ATOM      1  C   UNL     1     171.223 174.847 181.103  1.00  0.00     0.004 C 
ENDROOT
BRANCH   1   2
ATOM      2  C   UNL     1     171.372 176.153 180.297  1.00  0.00     0.004 C 
BRANCH   2   3
ATOM      3  C   UNL     1     172.679 176.921 180.653  1.00  0.00    -0.009 C 
BRANCH   3   4
ATOM      4  C   UNL     1     173.905 176.369 179.862  1.00  0.00     0.000 C 
ATOM      5  C   UNL     1     174.399 177.345 178.792  1.00  0.00     0.004 C 
ENDBRANCH   3   4
BRANCH   3   6
ATOM      6  C   UNL     1     172.904 176.949 182.199  1.00  0.00    -0.014 C 
ATOM      7  C   UNL     1     174.387 176.925 182.614  1.00  0.00     0.007 C 
ATOM      8  C   UNL     1     172.170 178.125 182.865  1.00  0.00     0.007 C 
ENDBRANCH   3   6
ENDBRANCH   2   3
ENDBRANCH   1   2
BRANCH   1   9
ATOM      9  C   UNL     1     169.875 174.776 181.879  1.00  0.00    -0.011 C 
ATOM     10  C   UNL     1     170.176 174.795 183.396  1.00  0.00     0.008 C 
BRANCH   9  11
ATOM     11  C   UNL     1     168.885 175.892 181.364  1.00  0.00    -0.002 C 
ATOM     12  C   UNL     1     168.611 177.037 182.342  1.00  0.00     0.005 C 
ATOM     13  C   UNL     1     167.487 175.456 180.832  1.00  0.00    -0.026 C 
ATOM     14  C   UNL     1     167.337 177.715 181.846  1.00  0.00     0.005 C 
ATOM     15  C   UNL     1     166.746 176.826 180.733  1.00  0.00    -0.001 C 
ATOM     16  C   UNL     1     166.763 174.498 181.815  1.00  0.00     0.007 C 
ATOM     17  C   UNL     1     167.650 174.774 179.447  1.00  0.00     0.012 C 
ATOM     18  C   UNL     1     165.182 176.798 180.764  1.00  0.00     0.000 C 
ATOM     19  C   UNL     1     165.251 174.410 181.588  1.00  0.00     0.005 C 
ATOM     20  C   UNL     1     164.599 175.796 181.798  1.00  0.00     0.003 C 
ATOM     21  C   UNL     1     164.601 176.560 179.357  1.00  0.00     0.031 C 
ATOM     22  C   UNL     1     163.017 175.834 181.812  1.00  0.00    -0.008 C 
ATOM     23  C   UNL     1     163.119 176.330 179.340  1.00  0.00    -0.027 C 
ATOM     24  C   UNL     1     162.416 175.890 180.403  1.00  0.00    -0.065 C 
ATOM     25  C   UNL     1     162.426 174.592 182.550  1.00  0.00     0.014 C 
ATOM     26  C   UNL     1     162.580 177.119 182.573  1.00  0.00     0.016 C 
ATOM     27  C   UNL     1     160.915 175.700 180.245  1.00  0.00     0.063 C 
ATOM     28  C   UNL     1     160.890 174.518 182.507  1.00  0.00     0.033 C 
ATOM     29  C   UNL     1     160.395 174.496 181.051  1.00  0.00     0.118 C 
BRANCH  29  30
ATOM     30  O   UNL     1     158.988 174.442 181.016  1.00  0.00    -0.393 OA
ATOM     31  H   UNL     1     158.721 173.484 181.072  1.00  0.00     0.210 HD
ENDBRANCH  29  30
ENDBRANCH   9  11
ENDBRANCH   1   9
TORSDOF 7
ENDMDL
MODEL 3
REMARK VINA RESULT:    -6.312      3.355      9.277
REMARK INTER + INTRA:         -10.402
REMARK INTER:                  -8.844
REMARK INTRA:                  -1.558
REMARK UNBOUND:                -1.691
REMARK SMILES CC[C@@H](CC[C@@H](C)[C@@H]1CC[C@@H]2[C@H]3CC=C4C[C@H](O)CC[C@@]4(C)[C@H]3CC[C@@]21C)C(C)C
REMARK SMILES IDX 5 1 4 2 3 3 2 4 1 5 28 6 29 7 30 8 6 9 7 10 8 11 9 12 26 13
REMARK SMILES IDX 10 14 11 15 25 16 27 17 12 18 24 19 23 20 13 21 21 22 14 23
REMARK SMILES IDX 15 24 20 25 22 26 16 27 19 28 17 29 18 30
REMARK H PARENT 18 31
REMARK Flexibility Score: inf
ROOT
ATOM      1  C   UNL     1     172.447 173.748 181.915  1.00  0.00     0.004 C 
ENDROOT
BRANCH   1   2
ATOM      2  C   UNL     1     173.575 173.990 182.937  1.00  0.00     0.004 C 
BRANCH   2   3
ATOM      3  C   UNL     1     174.236 175.390 182.768  1.00  0.00    -0.009 C 
BRANCH   3   4
ATOM      4  C   UNL     1     173.962 175.989 181.354  1.00  0.00     0.000 C 
ATOM      5  C   UNL     1     173.183 177.304 181.416  1.00  0.00     0.004 C 
ENDBRANCH   3   4
BRANCH   3   6
ATOM      6  C   UNL     1     175.755 175.335 183.129  1.00  0.00    -0.014 C 
ATOM      7  C   UNL     1     176.565 174.342 182.275  1.00  0.00     0.007 C 
ATOM      8  C   UNL     1     176.402 176.729 183.104  1.00  0.00     0.007 C 
ENDBRANCH   3   6
ENDBRANCH   2   3
ENDBRANCH   1   2
BRANCH   1   9
ATOM      9  C   UNL     1     171.031 173.850 182.556  1.00  0.00    -0.011 C 
ATOM     10  C   UNL     1     171.151 173.557 184.070  1.00  0.00     0.008 C 
BRANCH   9  11
ATOM     11  C   UNL     1     170.354 175.224 182.176  1.00  0.00    -0.002 C 
ATOM     12  C   UNL     1     170.155 176.206 183.333  1.00  0.00     0.005 C 
ATOM     13  C   UNL     1     168.994 175.196 181.415  1.00  0.00    -0.026 C 
ATOM     14  C   UNL     1     169.117 177.216 182.850  1.00  0.00     0.005 C 
ATOM     15  C   UNL     1     168.544 176.686 181.520  1.00  0.00    -0.001 C 
ATOM     16  C   UNL     1     167.967 174.252 182.095  1.00  0.00     0.007 C 
ATOM     17  C   UNL     1     169.233 174.754 179.946  1.00  0.00     0.012 C 
ATOM     18  C   UNL     1     167.016 176.985 181.372  1.00  0.00     0.000 C 
ATOM     19  C   UNL     1     166.516 174.528 181.689  1.00  0.00     0.005 C 
ATOM     20  C   UNL     1     166.109 175.959 182.107  1.00  0.00     0.003 C 
ATOM     21  C   UNL     1     166.617 177.132 179.891  1.00  0.00     0.031 C 
ATOM     22  C   UNL     1     164.577 176.328 181.954  1.00  0.00    -0.008 C 
ATOM     23  C   UNL     1     165.138 177.227 179.664  1.00  0.00    -0.027 C 
ATOM     24  C   UNL     1     164.214 176.762 180.530  1.00  0.00    -0.065 C 
ATOM     25  C   UNL     1     163.663 175.127 182.351  1.00  0.00     0.014 C 
ATOM     26  C   UNL     1     164.279 177.518 182.912  1.00  0.00     0.016 C 
ATOM     27  C   UNL     1     162.745 176.925 180.172  1.00  0.00     0.063 C 
ATOM     28  C   UNL     1     162.163 175.389 182.126  1.00  0.00     0.033 C 
ATOM     29  C   UNL     1     161.896 175.734 180.650  1.00  0.00     0.118 C 
BRANCH  29  30
ATOM     30  O   UNL     1     160.525 175.985 180.451  1.00  0.00    -0.393 OA
ATOM     31  H   UNL     1     160.042 175.698 181.273  1.00  0.00     0.210 HD
ENDBRANCH  29  30
ENDBRANCH   9  11
ENDBRANCH   1   9
TORSDOF 7
ENDMDL
MODEL 4
REMARK VINA RESULT:    -6.261      6.889     10.594
REMARK INTER + INTRA:         -10.332
REMARK INTER:                  -8.958
REMARK INTRA:                  -1.374
REMARK UNBOUND:                -1.691
REMARK SMILES CC[C@@H](CC[C@@H](C)[C@@H]1CC[C@@H]2[C@H]3CC=C4C[C@H](O)CC[C@@]4(C)[C@H]3CC[C@@]21C)C(C)C
REMARK SMILES IDX 5 1 4 2 3 3 2 4 1 5 28 6 29 7 30 8 6 9 7 10 8 11 9 12 26 13
REMARK SMILES IDX 10 14 11 15 25 16 27 17 12 18 24 19 23 20 13 21 21 22 14 23
REMARK SMILES IDX 15 24 20 25 22 26 16 27 19 28 17 29 18 30
REMARK H PARENT 18 31
REMARK Flexibility Score: inf
ROOT
ATOM      1  C   UNL     1     173.810 172.938 181.102  1.00  0.00     0.004 C 
ENDROOT
BRANCH   1   2
ATOM      2  C   UNL     1     174.649 174.229 181.065  1.00  0.00     0.004 C 
BRANCH   2   3
ATOM      3  C   UNL     1     174.680 174.955 182.442  1.00  0.00    -0.009 C 
BRANCH   3   4
ATOM      4  C   UNL     1     173.873 176.289 182.408  1.00  0.00     0.000 C 
ATOM      5  C   UNL     1     172.362 176.061 182.482  1.00  0.00     0.004 C 
ENDBRANCH   3   4
BRANCH   3   6
ATOM      6  C   UNL     1     176.150 175.137 182.942  1.00  0.00    -0.014 C 
ATOM      7  C   UNL     1     177.204 174.477 182.034  1.00  0.00     0.007 C 
ATOM      8  C   UNL     1     176.493 176.615 183.190  1.00  0.00     0.007 C 
ENDBRANCH   3   6
ENDBRANCH   2   3
ENDBRANCH   1   2
BRANCH   1   9
ATOM      9  C   UNL     1     174.567 171.716 180.504  1.00  0.00    -0.011 C 
ATOM     10  C   UNL     1     175.601 172.231 179.474  1.00  0.00     0.008 C 
BRANCH   9  11
ATOM     11  C   UNL     1     175.145 170.809 181.659  1.00  0.00    -0.002 C 
ATOM     12  C   UNL     1     176.666 170.846 181.831  1.00  0.00     0.005 C 
ATOM     13  C   UNL     1     174.760 169.299 181.680  1.00  0.00    -0.026 C 
ATOM     14  C   UNL     1     177.024 169.606 182.647  1.00  0.00     0.005 C 
ATOM     15  C   UNL     1     175.755 168.735 182.742  1.00  0.00    -0.001 C 
ATOM     16  C   UNL     1     174.975 168.625 180.299  1.00  0.00     0.007 C 
ATOM     17  C   UNL     1     173.280 169.149 182.121  1.00  0.00     0.012 C 
ATOM     18  C   UNL     1     176.079 167.206 182.678  1.00  0.00     0.000 C 
ATOM     19  C   UNL     1     175.063 167.098 180.367  1.00  0.00     0.005 C 
ATOM     20  C   UNL     1     176.271 166.672 181.232  1.00  0.00     0.003 C 
ATOM     21  C   UNL     1     175.032 166.381 183.451  1.00  0.00     0.031 C 
ATOM     22  C   UNL     1     176.631 165.130 181.228  1.00  0.00    -0.008 C 
ATOM     23  C   UNL     1     175.170 164.899 183.272  1.00  0.00    -0.027 C 
ATOM     24  C   UNL     1     175.783 164.324 182.217  1.00  0.00    -0.065 C 
ATOM     25  C   UNL     1     176.453 164.510 179.807  1.00  0.00     0.014 C 
ATOM     26  C   UNL     1     178.123 164.991 181.648  1.00  0.00     0.016 C 
ATOM     27  C   UNL     1     175.850 162.806 182.164  1.00  0.00     0.063 C 
ATOM     28  C   UNL     1     176.689 162.991 179.760  1.00  0.00     0.033 C 
ATOM     29  C   UNL     1     175.732 162.270 180.725  1.00  0.00     0.118 C 
BRANCH  29  30
ATOM     30  O   UNL     1     175.960 160.881 180.689  1.00  0.00    -0.393 OA
ATOM     31  H   UNL     1     176.328 160.612 181.574  1.00  0.00     0.210 HD
ENDBRANCH  29  30
ENDBRANCH   9  11
ENDBRANCH   1   9
TORSDOF 7
ENDMDL
MODEL 5
REMARK VINA RESULT:    -6.237      2.148      4.454
REMARK INTER + INTRA:         -10.298
REMARK INTER:                  -8.419
REMARK INTRA:                  -1.879
REMARK UNBOUND:                -1.691
REMARK SMILES CC[C@@H](CC[C@@H](C)[C@@H]1CC[C@@H]2[C@H]3CC=C4C[C@H](O)CC[C@@]4(C)[C@H]3CC[C@@]21C)C(C)C
REMARK SMILES IDX 5 1 4 2 3 3 2 4 1 5 28 6 29 7 30 8 6 9 7 10 8 11 9 12 26 13
REMARK SMILES IDX 10 14 11 15 25 16 27 17 12 18 24 19 23 20 13 21 21 22 14 23
REMARK SMILES IDX 15 24 20 25 22 26 16 27 19 28 17 29 18 30
REMARK H PARENT 18 31
REMARK Flexibility Score: inf
ROOT
ATOM      1  C   UNL     1     161.622 177.468 181.112  1.00  0.00     0.004 C 
ENDROOT
BRANCH   1   2
ATOM      2  C   UNL     1     161.473 176.111 180.397  1.00  0.00     0.004 C 
BRANCH   2   3
ATOM      3  C   UNL     1     160.487 175.158 181.135  1.00  0.00    -0.009 C 
BRANCH   3   4
ATOM      4  C   UNL     1     160.382 175.502 182.653  1.00  0.00     0.000 C 
ATOM      5  C   UNL     1     159.025 175.116 183.247  1.00  0.00     0.004 C 
ENDBRANCH   3   4
BRANCH   3   6
ATOM      6  C   UNL     1     160.853 173.663 180.866  1.00  0.00    -0.014 C 
ATOM      7  C   UNL     1     159.727 172.856 180.194  1.00  0.00     0.007 C 
ATOM      8  C   UNL     1     162.166 173.526 180.077  1.00  0.00     0.007 C 
ENDBRANCH   3   6
ENDBRANCH   2   3
ENDBRANCH   1   2
BRANCH   1   9
ATOM      9  C   UNL     1     163.028 177.654 181.754  1.00  0.00    -0.011 C 
ATOM     10  C   UNL     1     162.845 178.089 183.228  1.00  0.00     0.008 C 
BRANCH   9  11
ATOM     11  C   UNL     1     163.910 176.366 181.525  1.00  0.00    -0.002 C 
ATOM     12  C   UNL     1     164.061 175.443 182.737  1.00  0.00     0.005 C 
ATOM     13  C   UNL     1     165.350 176.544 180.956  1.00  0.00    -0.026 C 
ATOM     14  C   UNL     1     165.269 174.558 182.440  1.00  0.00     0.005 C 
ATOM     15  C   UNL     1     165.956 175.124 181.180  1.00  0.00    -0.001 C 
ATOM     16  C   UNL     1     166.152 177.623 181.731  1.00  0.00     0.007 C 
ATOM     17  C   UNL     1     165.269 176.919 179.451  1.00  0.00     0.012 C 
ATOM     18  C   UNL     1     167.514 175.014 181.254  1.00  0.00     0.000 C 
ATOM     19  C   UNL     1     167.668 177.520 181.537  1.00  0.00     0.005 C 
ATOM     20  C   UNL     1     168.180 176.160 182.064  1.00  0.00     0.003 C 
ATOM     21  C   UNL     1     168.131 174.883 179.848  1.00  0.00     0.031 C 
ATOM     22  C   UNL     1     169.752 175.980 182.136  1.00  0.00    -0.008 C 
ATOM     23  C   UNL     1     169.628 174.966 179.828  1.00  0.00    -0.027 C 
ATOM     24  C   UNL     1     170.359 175.562 180.793  1.00  0.00    -0.065 C 
ATOM     25  C   UNL     1     170.451 177.294 182.605  1.00  0.00     0.014 C 
ATOM     26  C   UNL     1     170.053 174.858 183.172  1.00  0.00     0.016 C 
ATOM     27  C   UNL     1     171.873 175.573 180.644  1.00  0.00     0.063 C 
ATOM     28  C   UNL     1     171.988 177.215 182.597  1.00  0.00     0.033 C 
ATOM     29  C   UNL     1     172.499 176.871 181.186  1.00  0.00     0.118 C 
BRANCH  29  30
ATOM     30  O   UNL     1     173.904 176.787 181.185  1.00  0.00    -0.393 OA
ATOM     31  H   UNL     1     174.259 177.646 181.542  1.00  0.00     0.210 HD
ENDBRANCH  29  30
ENDBRANCH   9  11
ENDBRANCH   1   9
TORSDOF 7
ENDMDL
MODEL 6
REMARK VINA RESULT:    -6.135      3.119      9.016
REMARK INTER + INTRA:         -10.158
REMARK INTER:                  -8.743
REMARK INTRA:                  -1.415
REMARK UNBOUND:                -1.691
REMARK SMILES CC[C@@H](CC[C@@H](C)[C@@H]1CC[C@@H]2[C@H]3CC=C4C[C@H](O)CC[C@@]4(C)[C@H]3CC[C@@]21C)C(C)C
REMARK SMILES IDX 5 1 4 2 3 3 2 4 1 5 28 6 29 7 30 8 6 9 7 10 8 11 9 12 26 13
REMARK SMILES IDX 10 14 11 15 25 16 27 17 12 18 24 19 23 20 13 21 21 22 14 23
REMARK SMILES IDX 15 24 20 25 22 26 16 27 19 28 17 29 18 30
REMARK H PARENT 18 31
REMARK Flexibility Score: inf
ROOT
ATOM      1  C   UNL     1     175.659 174.364 182.553  1.00  0.00     0.004 C 
ENDROOT
BRANCH   1   2
ATOM      2  C   UNL     1     175.983 175.869 182.625  1.00  0.00     0.004 C 
BRANCH   2   3
ATOM      3  C   UNL     1     176.785 176.362 181.385  1.00  0.00    -0.009 C 
BRANCH   3   4
ATOM      4  C   UNL     1     177.369 177.791 181.607  1.00  0.00     0.000 C 
ATOM      5  C   UNL     1     177.555 178.123 183.090  1.00  0.00     0.004 C 
ENDBRANCH   3   4
BRANCH   3   6
ATOM      6  C   UNL     1     175.927 176.242 180.084  1.00  0.00    -0.014 C 
ATOM      7  C   UNL     1     175.475 177.597 179.508  1.00  0.00     0.007 C 
ATOM      8  C   UNL     1     176.630 175.399 179.008  1.00  0.00     0.007 C 
ENDBRANCH   3   6
ENDBRANCH   2   3
ENDBRANCH   1   2
BRANCH   1   9
ATOM      9  C   UNL     1     174.315 174.078 181.821  1.00  0.00    -0.011 C 
ATOM     10  C   UNL     1     174.311 172.604 181.350  1.00  0.00     0.008 C 
BRANCH   9  11
ATOM     11  C   UNL     1     173.095 174.512 182.723  1.00  0.00    -0.002 C 
ATOM     12  C   UNL     1     172.343 173.370 183.412  1.00  0.00     0.005 C 
ATOM     13  C   UNL     1     171.993 175.418 182.097  1.00  0.00    -0.026 C 
ATOM     14  C   UNL     1     170.994 173.950 183.830  1.00  0.00     0.005 C 
ATOM     15  C   UNL     1     170.871 175.343 183.178  1.00  0.00    -0.001 C 
ATOM     16  C   UNL     1     171.493 174.868 180.734  1.00  0.00     0.007 C 
ATOM     17  C   UNL     1     172.545 176.857 181.920  1.00  0.00     0.012 C 
ATOM     18  C   UNL     1     169.409 175.653 182.716  1.00  0.00     0.000 C 
ATOM     19  C   UNL     1     170.133 175.427 180.306  1.00  0.00     0.005 C 
ATOM     20  C   UNL     1     169.049 175.036 181.337  1.00  0.00     0.003 C 
ATOM     21  C   UNL     1     169.123 177.167 182.750  1.00  0.00     0.031 C 
ATOM     22  C   UNL     1     167.551 175.352 180.935  1.00  0.00    -0.008 C 
ATOM     23  C   UNL     1     167.810 177.554 182.139  1.00  0.00    -0.027 C 
ATOM     24  C   UNL     1     167.152 176.801 181.233  1.00  0.00    -0.065 C 
ATOM     25  C   UNL     1     167.300 175.074 179.420  1.00  0.00     0.014 C 
ATOM     26  C   UNL     1     166.629 174.417 181.771  1.00  0.00     0.016 C 
ATOM     27  C   UNL     1     165.827 177.316 180.695  1.00  0.00     0.063 C 
ATOM     28  C   UNL     1     165.888 175.459 178.944  1.00  0.00     0.033 C 
ATOM     29  C   UNL     1     165.620 176.950 179.214  1.00  0.00     0.118 C 
BRANCH  29  30
ATOM     30  O   UNL     1     164.323 177.296 178.790  1.00  0.00    -0.393 OA
ATOM     31  H   UNL     1     164.413 177.915 178.016  1.00  0.00     0.210 HD
ENDBRANCH  29  30
ENDBRANCH   9  11
ENDBRANCH   1   9
TORSDOF 7
ENDMDL
MODEL 7
REMARK VINA RESULT:    -5.924      6.135     11.095
REMARK INTER + INTRA:          -9.866
REMARK INTER:                  -8.220
REMARK INTRA:                  -1.646
REMARK UNBOUND:                -1.691
REMARK SMILES CC[C@@H](CC[C@@H](C)[C@@H]1CC[C@@H]2[C@H]3CC=C4C[C@H](O)CC[C@@]4(C)[C@H]3CC[C@@]21C)C(C)C
REMARK SMILES IDX 5 1 4 2 3 3 2 4 1 5 28 6 29 7 30 8 6 9 7 10 8 11 9 12 26 13
REMARK SMILES IDX 10 14 11 15 25 16 27 17 12 18 24 19 23 20 13 21 21 22 14 23
REMARK SMILES IDX 15 24 20 25 22 26 16 27 19 28 17 29 18 30
REMARK H PARENT 18 31
REMARK Flexibility Score: inf
ROOT
ATOM      1  C   UNL     1     174.940 165.672 181.779  1.00  0.00     0.004 C 
ENDROOT
BRANCH   1   2
ATOM      2  C   UNL     1     176.011 164.859 182.532  1.00  0.00     0.004 C 
BRANCH   2   3
ATOM      3  C   UNL     1     177.371 164.825 181.774  1.00  0.00    -0.009 C 
BRANCH   3   4
ATOM      4  C   UNL     1     177.191 165.136 180.256  1.00  0.00     0.000 C 
ATOM      5  C   UNL     1     178.005 166.352 179.809  1.00  0.00     0.004 C 
ENDBRANCH   3   4
BRANCH   3   6
ATOM      6  C   UNL     1     178.124 163.483 182.043  1.00  0.00    -0.014 C 
ATOM      7  C   UNL     1     177.621 162.722 183.285  1.00  0.00     0.007 C 
ATOM      8  C   UNL     1     178.125 162.567 180.807  1.00  0.00     0.007 C 
ENDBRANCH   3   6
ENDBRANCH   2   3
ENDBRANCH   1   2
BRANCH   1   9
ATOM      9  C   UNL     1     174.620 167.027 182.477  1.00  0.00    -0.011 C 
ATOM     10  C   UNL     1     174.443 166.773 183.993  1.00  0.00     0.008 C 
BRANCH   9  11
ATOM     11  C   UNL     1     175.696 168.113 182.086  1.00  0.00    -0.002 C 
ATOM     12  C   UNL     1     176.587 168.605 183.230  1.00  0.00     0.005 C 
ATOM     13  C   UNL     1     175.217 169.400 181.349  1.00  0.00    -0.026 C 
ATOM     14  C   UNL     1     177.200 169.917 182.748  1.00  0.00     0.005 C 
ATOM     15  C   UNL     1     176.486 170.304 181.437  1.00  0.00    -0.001 C 
ATOM     16  C   UNL     1     174.009 170.063 182.062  1.00  0.00     0.007 C 
ATOM     17  C   UNL     1     174.845 169.049 179.884  1.00  0.00     0.012 C 
ATOM     18  C   UNL     1     176.275 171.849 181.311  1.00  0.00     0.000 C 
ATOM     19  C   UNL     1     173.796 171.530 181.676  1.00  0.00     0.005 C 
ATOM     20  C   UNL     1     175.029 172.370 182.078  1.00  0.00     0.003 C 
ATOM     21  C   UNL     1     176.256 172.290 179.834  1.00  0.00     0.031 C 
ATOM     22  C   UNL     1     174.884 173.941 181.945  1.00  0.00    -0.008 C 
ATOM     23  C   UNL     1     175.867 173.724 179.631  1.00  0.00    -0.027 C 
ATOM     24  C   UNL     1     175.148 174.440 180.521  1.00  0.00    -0.065 C 
ATOM     25  C   UNL     1     173.461 174.417 182.377  1.00  0.00     0.014 C 
ATOM     26  C   UNL     1     175.935 174.595 182.888  1.00  0.00     0.016 C 
ATOM     27  C   UNL     1     174.823 175.887 180.185  1.00  0.00     0.063 C 
ATOM     28  C   UNL     1     173.223 175.923 182.174  1.00  0.00     0.033 C 
ATOM     29  C   UNL     1     173.433 176.304 180.697  1.00  0.00     0.118 C 
BRANCH  29  30
ATOM     30  O   UNL     1     173.227 177.685 180.518  1.00  0.00    -0.393 OA
ATOM     31  H   UNL     1     173.120 178.094 181.419  1.00  0.00     0.210 HD
ENDBRANCH  29  30
ENDBRANCH   9  11
ENDBRANCH   1   9
TORSDOF 7
ENDMDL
MODEL 8
REMARK VINA RESULT:    -5.802      8.743     12.782
REMARK INTER + INTRA:          -9.697
REMARK INTER:                  -7.792
REMARK INTRA:                  -1.905
REMARK UNBOUND:                -1.691
REMARK SMILES CC[C@@H](CC[C@@H](C)[C@@H]1CC[C@@H]2[C@H]3CC=C4C[C@H](O)CC[C@@]4(C)[C@H]3CC[C@@]21C)C(C)C
REMARK SMILES IDX 5 1 4 2 3 3 2 4 1 5 28 6 29 7 30 8 6 9 7 10 8 11 9 12 26 13
REMARK SMILES IDX 10 14 11 15 25 16 27 17 12 18 24 19 23 20 13 21 21 22 14 23
REMARK SMILES IDX 15 24 20 25 22 26 16 27 19 28 17 29 18 30
REMARK H PARENT 18 31
REMARK Flexibility Score: inf
ROOT
ATOM      1  C   UNL     1     157.970 165.126 180.924  1.00  0.00     0.004 C 
ENDROOT
BRANCH   1   2
ATOM      2  C   UNL     1     158.155 163.906 181.847  1.00  0.00     0.004 C 
BRANCH   2   3
ATOM      3  C   UNL     1     159.470 163.130 181.546  1.00  0.00    -0.009 C 
BRANCH   3   4
ATOM      4  C   UNL     1     160.505 163.279 182.704  1.00  0.00     0.000 C 
ATOM      5  C   UNL     1     160.942 161.929 183.275  1.00  0.00     0.004 C 
ENDBRANCH   3   4
BRANCH   3   6
ATOM      6  C   UNL     1     160.046 163.532 180.150  1.00  0.00    -0.014 C 
ATOM      7  C   UNL     1     161.484 164.082 180.202  1.00  0.00     0.007 C 
ATOM      8  C   UNL     1     159.938 162.384 179.132  1.00  0.00     0.007 C 
ENDBRANCH   3   6
ENDBRANCH   2   3
ENDBRANCH   1   2
BRANCH   1   9
ATOM      9  C   UNL     1     158.180 166.476 181.672  1.00  0.00    -0.011 C 
ATOM     10  C   UNL     1     157.875 166.263 183.173  1.00  0.00     0.008 C 
BRANCH   9  11
ATOM     11  C   UNL     1     159.604 167.071 181.340  1.00  0.00    -0.002 C 
ATOM     12  C   UNL     1     160.640 166.973 182.463  1.00  0.00     0.005 C 
ATOM     13  C   UNL     1     159.692 168.537 180.819  1.00  0.00    -0.026 C 
ATOM     14  C   UNL     1     161.736 167.975 182.109  1.00  0.00     0.005 C 
ATOM     15  C   UNL     1     161.224 168.816 180.922  1.00  0.00    -0.001 C 
ATOM     16  C   UNL     1     158.885 169.520 181.708  1.00  0.00     0.007 C 
ATOM     17  C   UNL     1     159.179 168.598 179.356  1.00  0.00     0.012 C 
ATOM     18  C   UNL     1     161.675 170.311 181.016  1.00  0.00     0.000 C 
ATOM     19  C   UNL     1     159.296 170.985 181.536  1.00  0.00     0.005 C 
ATOM     20  C   UNL     1     160.776 171.173 181.944  1.00  0.00     0.003 C 
ATOM     21  C   UNL     1     161.813 170.941 179.617  1.00  0.00     0.031 C 
ATOM     22  C   UNL     1     161.297 172.666 182.030  1.00  0.00    -0.008 C 
ATOM     23  C   UNL     1     162.055 172.421 179.635  1.00  0.00    -0.027 C 
ATOM     24  C   UNL     1     161.718 173.223 180.666  1.00  0.00    -0.065 C 
ATOM     25  C   UNL     1     160.212 173.611 182.634  1.00  0.00     0.014 C 
ATOM     26  C   UNL     1     162.544 172.679 182.961  1.00  0.00     0.016 C 
ATOM     27  C   UNL     1     162.021 174.709 180.550  1.00  0.00     0.063 C 
ATOM     28  C   UNL     1     160.621 175.094 182.649  1.00  0.00     0.033 C 
ATOM     29  C   UNL     1     160.942 175.576 181.223  1.00  0.00     0.118 C 
BRANCH  29  30
ATOM     30  O   UNL     1     161.329 176.930 181.243  1.00  0.00    -0.393 OA
ATOM     31  H   UNL     1     160.699 177.415 181.842  1.00  0.00     0.210 HD
ENDBRANCH  29  30
ENDBRANCH   9  11
ENDBRANCH   1   9
TORSDOF 7
ENDMDL
MODEL 9
REMARK VINA RESULT:    -5.785      2.660      4.935
REMARK INTER + INTRA:          -9.674
REMARK INTER:                  -7.735
REMARK INTRA:                  -1.940
REMARK UNBOUND:                -1.691
REMARK SMILES CC[C@@H](CC[C@@H](C)[C@@H]1CC[C@@H]2[C@H]3CC=C4C[C@H](O)CC[C@@]4(C)[C@H]3CC[C@@]21C)C(C)C
REMARK SMILES IDX 5 1 4 2 3 3 2 4 1 5 28 6 29 7 30 8 6 9 7 10 8 11 9 12 26 13
REMARK SMILES IDX 10 14 11 15 25 16 27 17 12 18 24 19 23 20 13 21 21 22 14 23
REMARK SMILES IDX 15 24 20 25 22 26 16 27 19 28 17 29 18 30
REMARK H PARENT 18 31
REMARK Flexibility Score: inf
ROOT
ATOM      1  C   UNL     1     161.290 176.602 180.717  1.00  0.00     0.004 C 
ENDROOT
BRANCH   1   2
ATOM      2  C   UNL     1     161.285 177.044 179.240  1.00  0.00     0.004 C 
BRANCH   2   3
ATOM      3  C   UNL     1     160.919 175.879 178.275  1.00  0.00    -0.009 C 
BRANCH   3   4
ATOM      4  C   UNL     1     161.075 174.489 178.965  1.00  0.00     0.000 C 
ATOM      5  C   UNL     1     162.342 173.754 178.522  1.00  0.00     0.004 C 
ENDBRANCH   3   4
BRANCH   3   6
ATOM      6  C   UNL     1     161.718 175.995 176.937  1.00  0.00    -0.014 C 
ATOM      7  C   UNL     1     160.860 175.776 175.676  1.00  0.00     0.007 C 
ATOM      8  C   UNL     1     162.494 177.319 176.844  1.00  0.00     0.007 C 
ENDBRANCH   3   6
ENDBRANCH   2   3
ENDBRANCH   1   2
BRANCH   1   9
ATOM      9  C   UNL     1     162.628 176.943 181.437  1.00  0.00    -0.011 C 
ATOM     10  C   UNL     1     162.312 177.378 182.888  1.00  0.00     0.008 C 
BRANCH   9  11
ATOM     11  C   UNL     1     163.650 175.751 181.287  1.00  0.00    -0.002 C 
ATOM     12  C   UNL     1     163.833 174.874 182.529  1.00  0.00     0.005 C 
ATOM     13  C   UNL     1     165.092 176.068 180.787  1.00  0.00    -0.026 C 
ATOM     14  C   UNL     1     165.141 174.116 182.318  1.00  0.00     0.005 C 
ATOM     15  C   UNL     1     165.830 174.725 181.080  1.00  0.00    -0.001 C 
ATOM     16  C   UNL     1     165.735 177.242 181.572  1.00  0.00     0.007 C 
ATOM     17  C   UNL     1     165.052 176.400 179.271  1.00  0.00     0.012 C 
ATOM     18  C   UNL     1     167.385 174.781 181.235  1.00  0.00     0.000 C 
ATOM     19  C   UNL     1     167.261 177.295 181.458  1.00  0.00     0.005 C 
ATOM     20  C   UNL     1     167.884 176.008 182.046  1.00  0.00     0.003 C 
ATOM     21  C   UNL     1     168.086 174.686 179.866  1.00  0.00     0.031 C 
ATOM     22  C   UNL     1     169.460 175.997 182.202  1.00  0.00    -0.008 C 
ATOM     23  C   UNL     1     169.565 174.927 179.919  1.00  0.00    -0.027 C 
ATOM     24  C   UNL     1     170.178 175.617 180.903  1.00  0.00    -0.065 C 
ATOM     25  C   UNL     1     169.993 177.387 182.671  1.00  0.00     0.014 C 
ATOM     26  C   UNL     1     169.821 174.936 183.282  1.00  0.00     0.016 C 
ATOM     27  C   UNL     1     171.688 175.785 180.831  1.00  0.00     0.063 C 
ATOM     28  C   UNL     1     171.527 177.470 182.742  1.00  0.00     0.033 C 
ATOM     29  C   UNL     1     172.145 177.153 181.369  1.00  0.00     0.118 C 
BRANCH  29  30
ATOM     30  O   UNL     1     173.550 177.217 181.442  1.00  0.00    -0.393 OA
ATOM     31  H   UNL     1     173.868 177.761 180.670  1.00  0.00     0.210 HD
ENDBRANCH  29  30
ENDBRANCH   9  11
ENDBRANCH   1   9
TORSDOF 7
ENDMDL
