MODEL 1
REMARK VINA RESULT:    -6.784      0.000      0.000
REMARK INTER + INTRA:         -11.698
REMARK INTER:                 -10.551
REMARK INTRA:                  -1.147
REMARK UNBOUND:                -1.147
REMARK SMILES C[C@@]12C[C@@]3(O)O[C@@H](O1)[C@]1(COC(=O)c4ccccc4)[C@H]3C[C@@]12O[C@@H]1O[C@@H](CO)[C@@H](O)[C@@H](O)[C@H]1O
REMARK SMILES IDX 1 1 2 2 3 3 4 4 20 5 21 6 22 7 9 8 7 9 8 10 6 11 23 12 24 13
REMARK SMILES IDX 33 14 25 15 31 16 26 17 29 18 34 19 32 21 27 23 28 24 30 26
REMARK SMILES IDX 5 28 10 30 11 31 12 32 13 33 14 34 15 35 19 36 16 37 18 38
REMARK SMILES IDX 17 39
REMARK H PARENT 34 20 32 22 28 25 30 27 5 29
REMARK Flexibility Score: inf
ROOT
ATOM      1  C   UNL     1       7.534 -37.335  40.669  1.00  0.00     0.046 C 
ATOM      2  C   UNL     1       6.665 -36.400  39.823  1.00  0.00     0.104 C 
ATOM      3  C   UNL     1       7.530 -35.245  39.193  1.00  0.00     0.104 C 
ATOM      4  C   UNL     1       6.472 -34.352  38.451  1.00  0.00     0.175 C 
ATOM      5  C   UNL     1       5.273 -34.035  39.394  1.00  0.00     0.070 C 
ATOM      6  C   UNL     1       5.599 -34.286  40.871  1.00  0.00     0.050 C 
ATOM      7  C   UNL     1       5.416 -35.782  40.570  1.00  0.00     0.115 C 
ATOM      8  C   UNL     1       4.579 -35.395  39.347  1.00  0.00     0.096 C 
ATOM      9  C   UNL     1       5.189 -36.137  38.164  1.00  0.00     0.267 C 
ATOM     10  O   UNL     1       6.104 -37.079  38.713  1.00  0.00    -0.342 OA
ATOM     11  O   UNL     1       5.913 -35.161  37.433  1.00  0.00    -0.320 OA
ENDROOT
BRANCH   7  12
ATOM     12  O   UNL     1       4.806 -36.467  41.664  1.00  0.00    -0.339 OA
BRANCH  12  13
ATOM     13  C   UNL     1       5.442 -36.295  42.924  1.00  0.00     0.282 C 
ATOM     14  C   UNL     1       4.522 -35.477  43.863  1.00  0.00     0.202 C 
ATOM     15  O   UNL     1       5.757 -37.548  43.514  1.00  0.00    -0.341 OA
ATOM     16  C   UNL     1       3.274 -36.294  44.250  1.00  0.00     0.179 C 
ATOM     17  C   UNL     1       4.603 -38.351  43.714  1.00  0.00     0.178 C 
ATOM     18  C   UNL     1       3.666 -37.695  44.750  1.00  0.00     0.177 C 
BRANCH  14  19
ATOM     19  O   UNL     1       5.228 -35.104  45.020  1.00  0.00    -0.385 OA
ATOM     20  H   UNL     1       4.677 -34.418  45.482  1.00  0.00     0.211 HD
ENDBRANCH  14  19
BRANCH  16  21
ATOM     21  O   UNL     1       2.532 -35.625  45.236  1.00  0.00    -0.387 OA
ATOM     22  H   UNL     1       3.164 -35.406  45.970  1.00  0.00     0.211 HD
ENDBRANCH  16  21
BRANCH  17  23
ATOM     23  C   UNL     1       5.056 -39.750  44.158  1.00  0.00     0.191 C 
BRANCH  23  24
ATOM     24  O   UNL     1       6.056 -39.663  45.140  1.00  0.00    -0.394 OA
ATOM     25  H   UNL     1       5.629 -39.885  46.007  1.00  0.00     0.210 HD
ENDBRANCH  23  24
ENDBRANCH  17  23
BRANCH  18  26
ATOM     26  O   UNL     1       4.314 -37.612  45.995  1.00  0.00    -0.387 OA
ATOM     27  H   UNL     1       4.160 -36.694  46.341  1.00  0.00     0.211 HD
ENDBRANCH  18  26
ENDBRANCH  12  13
ENDBRANCH   7  12
BRANCH   4  28
ATOM     28  O   UNL     1       7.035 -33.182  37.925  1.00  0.00    -0.365 OA
ATOM     29  H   UNL     1       7.987 -33.386  37.731  1.00  0.00     0.214 HD
ENDBRANCH   4  28
BRANCH   8  30
ATOM     30  C   UNL     1       3.041 -35.367  39.438  1.00  0.00     0.249 C 
BRANCH  30  31
ATOM     31  O   UNL     1       2.484 -36.566  38.900  1.00  0.00    -0.461 OA
BRANCH  31  32
ATOM     32  C   UNL     1       2.235 -37.722  39.650  1.00  0.00     0.338 C 
ATOM     33  O   UNL     1       2.976 -38.736  39.523  1.00  0.00    -0.246 OA
BRANCH  32  34
ATOM     34  C   UNL     1       1.100 -37.749  40.598  1.00  0.00     0.060 A 
ATOM     35  C   UNL     1      -0.192 -37.369  40.186  1.00  0.00     0.015 A 
ATOM     36  C   UNL     1       1.296 -38.163  41.928  1.00  0.00     0.015 A 
ATOM     37  C   UNL     1      -1.261 -37.404  41.086  1.00  0.00     0.001 A 
ATOM     38  C   UNL     1       0.224 -38.193  42.826  1.00  0.00     0.001 A 
ATOM     39  C   UNL     1      -1.053 -37.814  42.406  1.00  0.00     0.000 A 
ENDBRANCH  32  34
ENDBRANCH  31  32
ENDBRANCH  30  31
ENDBRANCH   8  30
TORSDOF 12
ENDMDL
MODEL 2
REMARK VINA RESULT:    -6.770      2.488      5.247
REMARK INTER + INTRA:         -11.677
REMARK INTER:                 -10.834
REMARK INTRA:                  -0.842
REMARK UNBOUND:                -1.147
REMARK SMILES C[C@@]12C[C@@]3(O)O[C@@H](O1)[C@]1(COC(=O)c4ccccc4)[C@H]3C[C@@]12O[C@@H]1O[C@@H](CO)[C@@H](O)[C@@H](O)[C@H]1O
REMARK SMILES IDX 1 1 2 2 3 3 4 4 20 5 21 6 22 7 9 8 7 9 8 10 6 11 23 12 24 13
REMARK SMILES IDX 33 14 25 15 31 16 26 17 29 18 34 19 32 21 27 23 28 24 30 26
REMARK SMILES IDX 5 28 10 30 11 31 12 32 13 33 14 34 15 35 19 36 16 37 18 38
REMARK SMILES IDX 17 39
REMARK H PARENT 34 20 32 22 28 25 30 27 5 29
REMARK Flexibility Score: inf
ROOT
ATOM      1  C   UNL     1       4.380 -35.851  45.374  1.00  0.00     0.046 C 
ATOM      2  C   UNL     1       4.217 -36.801  44.185  1.00  0.00     0.104 C 
ATOM      3  C   UNL     1       4.268 -38.303  44.654  1.00  0.00     0.104 C 
ATOM      4  C   UNL     1       4.179 -39.114  43.312  1.00  0.00     0.175 C 
ATOM      5  C   UNL     1       5.203 -38.561  42.275  1.00  0.00     0.070 C 
ATOM      6  C   UNL     1       6.292 -37.697  42.921  1.00  0.00     0.050 C 
ATOM      7  C   UNL     1       5.241 -36.579  43.000  1.00  0.00     0.115 C 
ATOM      8  C   UNL     1       4.463 -37.283  41.883  1.00  0.00     0.096 C 
ATOM      9  C   UNL     1       3.039 -37.447  42.397  1.00  0.00     0.267 C 
ATOM     10  O   UNL     1       2.946 -36.655  43.576  1.00  0.00    -0.342 OA
ATOM     11  O   UNL     1       2.915 -38.815  42.750  1.00  0.00    -0.320 OA
ENDROOT
BRANCH   7  12
ATOM     12  O   UNL     1       5.821 -35.296  42.766  1.00  0.00    -0.339 OA
BRANCH  12  13
ATOM     13  C   UNL     1       7.182 -35.160  43.153  1.00  0.00     0.282 C 
ATOM     14  C   UNL     1       7.966 -34.416  42.043  1.00  0.00     0.202 C 
ATOM     15  O   UNL     1       7.298 -34.466  44.386  1.00  0.00    -0.341 OA
ATOM     16  C   UNL     1       7.516 -32.945  41.954  1.00  0.00     0.179 C 
ATOM     17  C   UNL     1       6.731 -33.165  44.324  1.00  0.00     0.178 C 
ATOM     18  C   UNL     1       7.526 -32.281  43.341  1.00  0.00     0.177 C 
BRANCH  14  19
ATOM     19  O   UNL     1       9.345 -34.481  42.304  1.00  0.00    -0.385 OA
ATOM     20  H   UNL     1       9.799 -34.550  41.424  1.00  0.00     0.211 HD
ENDBRANCH  14  19
BRANCH  16  21
ATOM     21  O   UNL     1       8.345 -32.228  41.075  1.00  0.00    -0.387 OA
ATOM     22  H   UNL     1       7.764 -31.893  40.343  1.00  0.00     0.211 HD
ENDBRANCH  16  21
BRANCH  17  23
ATOM     23  C   UNL     1       6.717 -32.574  45.742  1.00  0.00     0.191 C 
BRANCH  23  24
ATOM     24  O   UNL     1       7.745 -33.124  46.523  1.00  0.00    -0.394 OA
ATOM     25  H   UNL     1       7.899 -34.046  46.189  1.00  0.00     0.210 HD
ENDBRANCH  23  24
ENDBRANCH  17  23
BRANCH  18  26
ATOM     26  O   UNL     1       8.844 -32.119  43.803  1.00  0.00    -0.387 OA
ATOM     27  H   UNL     1       9.316 -31.551  43.139  1.00  0.00     0.211 HD
ENDBRANCH  18  26
ENDBRANCH  12  13
ENDBRANCH   7  12
BRANCH   4  28
ATOM     28  O   UNL     1       4.341 -40.492  43.507  1.00  0.00    -0.365 OA
ATOM     29  H   UNL     1       4.399 -40.636  44.488  1.00  0.00     0.214 HD
ENDBRANCH   4  28
BRANCH   8  30
ATOM     30  C   UNL     1       4.632 -36.832  40.419  1.00  0.00     0.249 C 
BRANCH  30  31
ATOM     31  O   UNL     1       3.873 -35.648  40.168  1.00  0.00    -0.461 OA
BRANCH  31  32
ATOM     32  C   UNL     1       3.057 -35.463  39.045  1.00  0.00     0.338 C 
ATOM     33  O   UNL     1       3.268 -34.499  38.258  1.00  0.00    -0.246 OA
BRANCH  32  34
ATOM     34  C   UNL     1       1.948 -36.405  38.782  1.00  0.00     0.060 A 
ATOM     35  C   UNL     1       0.909 -36.572  39.717  1.00  0.00     0.015 A 
ATOM     36  C   UNL     1       1.914 -37.145  37.586  1.00  0.00     0.015 A 
ATOM     37  C   UNL     1      -0.140 -37.460  39.458  1.00  0.00     0.001 A 
ATOM     38  C   UNL     1       0.864 -38.033  37.333  1.00  0.00     0.001 A 
ATOM     39  C   UNL     1      -0.161 -38.191  38.267  1.00  0.00     0.000 A 
ENDBRANCH  32  34
ENDBRANCH  31  32
ENDBRANCH  30  31
ENDBRANCH   8  30
TORSDOF 12
ENDMDL
MODEL 3
REMARK VINA RESULT:    -6.761      7.111     10.953
REMARK INTER + INTRA:         -11.662
REMARK INTER:                 -11.103
REMARK INTRA:                  -0.559
REMARK UNBOUND:                -1.147
REMARK SMILES C[C@@]12C[C@@]3(O)O[C@@H](O1)[C@]1(COC(=O)c4ccccc4)[C@H]3C[C@@]12O[C@@H]1O[C@@H](CO)[C@@H](O)[C@@H](O)[C@H]1O
REMARK SMILES IDX 1 1 2 2 3 3 4 4 20 5 21 6 22 7 9 8 7 9 8 10 6 11 23 12 24 13
REMARK SMILES IDX 33 14 25 15 31 16 26 17 29 18 34 19 32 21 27 23 28 24 30 26
REMARK SMILES IDX 5 28 10 30 11 31 12 32 13 33 14 34 15 35 19 36 16 37 18 38
REMARK SMILES IDX 17 39
REMARK H PARENT 34 20 32 22 28 25 30 27 5 29
REMARK Flexibility Score: inf
ROOT
ATOM      1  C   UNL     1       9.920 -25.448  41.725  1.00  0.00     0.046 C 
ATOM      2  C   UNL     1      10.057 -26.513  42.817  1.00  0.00     0.104 C 
ATOM      3  C   UNL     1      11.144 -26.095  43.877  1.00  0.00     0.104 C 
ATOM      4  C   UNL     1      11.209 -27.329  44.847  1.00  0.00     0.175 C 
ATOM      5  C   UNL     1      11.347 -28.651  44.034  1.00  0.00     0.070 C 
ATOM      6  C   UNL     1      11.802 -28.414  42.590  1.00  0.00     0.050 C 
ATOM      7  C   UNL     1      10.358 -27.976  42.296  1.00  0.00     0.115 C 
ATOM      8  C   UNL     1       9.909 -28.762  43.532  1.00  0.00     0.096 C 
ATOM      9  C   UNL     1       9.093 -27.792  44.377  1.00  0.00     0.267 C 
ATOM     10  O   UNL     1       8.859 -26.650  43.560  1.00  0.00    -0.342 OA
ATOM     11  O   UNL     1       9.935 -27.423  45.456  1.00  0.00    -0.320 OA
ENDROOT
BRANCH   7  12
ATOM     12  O   UNL     1       9.938 -28.390  40.996  1.00  0.00    -0.339 OA
BRANCH  12  13
ATOM     13  C   UNL     1      10.935 -29.023  40.205  1.00  0.00     0.282 C 
ATOM     14  C   UNL     1      10.358 -30.318  39.581  1.00  0.00     0.202 C 
ATOM     15  O   UNL     1      11.407 -28.155  39.184  1.00  0.00    -0.341 OA
ATOM     16  C   UNL     1       9.285 -29.983  38.527  1.00  0.00     0.179 C 
ATOM     17  C   UNL     1      10.366 -27.732  38.317  1.00  0.00     0.178 C 
ATOM     18  C   UNL     1       9.802 -28.933  37.530  1.00  0.00     0.177 C 
BRANCH  14  19
ATOM     19  O   UNL     1      11.390 -31.069  38.993  1.00  0.00    -0.385 OA
ATOM     20  H   UNL     1      11.978 -30.423  38.520  1.00  0.00     0.211 HD
ENDBRANCH  14  19
BRANCH  16  21
ATOM     21  O   UNL     1       8.891 -31.142  37.839  1.00  0.00    -0.387 OA
ATOM     22  H   UNL     1       9.113 -31.912  38.425  1.00  0.00     0.211 HD
ENDBRANCH  16  21
BRANCH  17  23
ATOM     23  C   UNL     1      10.924 -26.647  37.383  1.00  0.00     0.191 C 
BRANCH  23  24
ATOM     24  O   UNL     1      12.280 -26.878  37.103  1.00  0.00    -0.394 OA
ATOM     25  H   UNL     1      12.447 -26.537  36.186  1.00  0.00     0.210 HD
ENDBRANCH  23  24
ENDBRANCH  17  23
BRANCH  18  26
ATOM     26  O   UNL     1      10.805 -29.480  36.710  1.00  0.00    -0.387 OA
ATOM     27  H   UNL     1      11.196 -30.247  37.205  1.00  0.00     0.211 HD
ENDBRANCH  18  26
ENDBRANCH  12  13
ENDBRANCH   7  12
BRANCH   4  28
ATOM     28  O   UNL     1      12.227 -27.205  45.802  1.00  0.00    -0.365 OA
ATOM     29  H   UNL     1      12.977 -27.776  45.494  1.00  0.00     0.214 HD
ENDBRANCH   4  28
BRANCH   8  30
ATOM     30  C   UNL     1       9.358 -30.194  43.382  1.00  0.00     0.249 C 
BRANCH  30  31
ATOM     31  O   UNL     1       8.133 -30.339  44.100  1.00  0.00    -0.461 OA
BRANCH  31  32
ATOM     32  C   UNL     1       7.994 -31.096  45.270  1.00  0.00     0.338 C 
ATOM     33  O   UNL     1       8.098 -30.545  46.401  1.00  0.00    -0.246 OA
BRANCH  32  34
ATOM     34  C   UNL     1       7.720 -32.547  45.175  1.00  0.00     0.060 A 
ATOM     35  C   UNL     1       6.401 -33.024  45.052  1.00  0.00     0.015 A 
ATOM     36  C   UNL     1       8.779 -33.472  45.199  1.00  0.00     0.015 A 
ATOM     37  C   UNL     1       6.151 -34.395  44.955  1.00  0.00     0.001 A 
ATOM     38  C   UNL     1       8.523 -34.843  45.105  1.00  0.00     0.001 A 
ATOM     39  C   UNL     1       7.211 -35.305  44.983  1.00  0.00     0.000 A 
ENDBRANCH  32  34
ENDBRANCH  31  32
ENDBRANCH  30  31
ENDBRANCH   8  30
TORSDOF 12
ENDMDL
MODEL 4
REMARK VINA RESULT:    -6.666      2.942      5.126
REMARK INTER + INTRA:         -11.514
REMARK INTER:                 -10.590
REMARK INTRA:                  -0.924
REMARK UNBOUND:                -1.147
REMARK SMILES C[C@@]12C[C@@]3(O)O[C@@H](O1)[C@]1(COC(=O)c4ccccc4)[C@H]3C[C@@]12O[C@@H]1O[C@@H](CO)[C@@H](O)[C@@H](O)[C@H]1O
REMARK SMILES IDX 1 1 2 2 3 3 4 4 20 5 21 6 22 7 9 8 7 9 8 10 6 11 23 12 24 13
REMARK SMILES IDX 33 14 25 15 31 16 26 17 29 18 34 19 32 21 27 23 28 24 30 26
REMARK SMILES IDX 5 28 10 30 11 31 12 32 13 33 14 34 15 35 19 36 16 37 18 38
REMARK SMILES IDX 17 39
REMARK H PARENT 34 20 32 22 28 25 30 27 5 29
REMARK Flexibility Score: inf
ROOT
ATOM      1  C   UNL     1       8.255 -33.779  39.952  1.00  0.00     0.046 C 
ATOM      2  C   UNL     1       7.430 -34.976  40.434  1.00  0.00     0.104 C 
ATOM      3  C   UNL     1       6.266 -35.300  39.424  1.00  0.00     0.104 C 
ATOM      4  C   UNL     1       5.488 -36.473  40.121  1.00  0.00     0.175 C 
ATOM      5  C   UNL     1       5.185 -36.116  41.608  1.00  0.00     0.070 C 
ATOM      6  C   UNL     1       5.323 -34.617  41.896  1.00  0.00     0.050 C 
ATOM      7  C   UNL     1       6.843 -34.842  41.897  1.00  0.00     0.115 C 
ATOM      8  C   UNL     1       6.585 -36.326  42.182  1.00  0.00     0.096 C 
ATOM      9  C   UNL     1       7.361 -37.101  41.126  1.00  0.00     0.267 C 
ATOM     10  O   UNL     1       8.210 -36.157  40.480  1.00  0.00    -0.342 OA
ATOM     11  O   UNL     1       6.392 -37.559  40.198  1.00  0.00    -0.320 OA
ENDROOT
BRANCH   7  12
ATOM     12  O   UNL     1       7.494 -34.031  42.874  1.00  0.00    -0.339 OA
BRANCH  12  13
ATOM     13  C   UNL     1       6.656 -33.107  43.557  1.00  0.00     0.282 C 
ATOM     14  C   UNL     1       6.673 -33.414  45.075  1.00  0.00     0.202 C 
ATOM     15  O   UNL     1       7.072 -31.769  43.323  1.00  0.00    -0.341 OA
ATOM     16  C   UNL     1       8.054 -33.094  45.680  1.00  0.00     0.179 C 
ATOM     17  C   UNL     1       8.408 -31.541  43.745  1.00  0.00     0.178 C 
ATOM     18  C   UNL     1       8.518 -31.684  45.278  1.00  0.00     0.177 C 
BRANCH  14  19
ATOM     19  O   UNL     1       5.679 -32.665  45.727  1.00  0.00    -0.385 OA
ATOM     20  H   UNL     1       4.881 -32.674  45.135  1.00  0.00     0.211 HD
ENDBRANCH  14  19
BRANCH  16  21
ATOM     21  O   UNL     1       8.017 -33.204  47.080  1.00  0.00    -0.387 OA
ATOM     22  H   UNL     1       8.913 -32.933  47.412  1.00  0.00     0.211 HD
ENDBRANCH  16  21
BRANCH  17  23
ATOM     23  C   UNL     1       8.835 -30.143  43.270  1.00  0.00     0.191 C 
BRANCH  23  24
ATOM     24  O   UNL     1       7.809 -29.209  43.479  1.00  0.00    -0.394 OA
ATOM     25  H   UNL     1       8.059 -28.681  44.280  1.00  0.00     0.210 HD
ENDBRANCH  23  24
ENDBRANCH  17  23
BRANCH  18  26
ATOM     26  O   UNL     1       7.729 -30.705  45.907  1.00  0.00    -0.387 OA
ATOM     27  H   UNL     1       7.494 -31.056  46.805  1.00  0.00     0.211 HD
ENDBRANCH  18  26
ENDBRANCH  12  13
ENDBRANCH   7  12
BRANCH   4  28
ATOM     28  O   UNL     1       4.320 -36.824  39.430  1.00  0.00    -0.365 OA
ATOM     29  H   UNL     1       4.607 -37.336  38.629  1.00  0.00     0.214 HD
ENDBRANCH   4  28
BRANCH   8  30
ATOM     30  C   UNL     1       6.645 -36.858  43.627  1.00  0.00     0.249 C 
BRANCH  30  31
ATOM     31  O   UNL     1       6.367 -38.258  43.658  1.00  0.00    -0.461 OA
BRANCH  31  32
ATOM     32  C   UNL     1       5.237 -38.821  44.266  1.00  0.00     0.338 C 
ATOM     33  O   UNL     1       5.363 -39.777  45.081  1.00  0.00    -0.246 OA
BRANCH  32  34
ATOM     34  C   UNL     1       3.894 -38.286  43.952  1.00  0.00     0.060 A 
ATOM     35  C   UNL     1       3.128 -38.833  42.906  1.00  0.00     0.015 A 
ATOM     36  C   UNL     1       3.361 -37.223  44.704  1.00  0.00     0.015 A 
ATOM     37  C   UNL     1       1.857 -38.327  42.620  1.00  0.00     0.001 A 
ATOM     38  C   UNL     1       2.090 -36.719  44.412  1.00  0.00     0.001 A 
ATOM     39  C   UNL     1       1.339 -37.269  43.372  1.00  0.00     0.000 A 
ENDBRANCH  32  34
ENDBRANCH  31  32
ENDBRANCH  30  31
ENDBRANCH   8  30
TORSDOF 12
ENDMDL
MODEL 5
REMARK VINA RESULT:    -6.643      2.566      7.008
REMARK INTER + INTRA:         -11.479
REMARK INTER:                 -10.666
REMARK INTRA:                  -0.812
REMARK UNBOUND:                -1.147
REMARK SMILES C[C@@]12C[C@@]3(O)O[C@@H](O1)[C@]1(COC(=O)c4ccccc4)[C@H]3C[C@@]12O[C@@H]1O[C@@H](CO)[C@@H](O)[C@@H](O)[C@H]1O
REMARK SMILES IDX 1 1 2 2 3 3 4 4 20 5 21 6 22 7 9 8 7 9 8 10 6 11 23 12 24 13
REMARK SMILES IDX 33 14 25 15 31 16 26 17 29 18 34 19 32 21 27 23 28 24 30 26
REMARK SMILES IDX 5 28 10 30 11 31 12 32 13 33 14 34 15 35 19 36 16 37 18 38
REMARK SMILES IDX 17 39
REMARK H PARENT 34 20 32 22 28 25 30 27 5 29
REMARK Flexibility Score: inf
ROOT
ATOM      1  C   UNL     1       5.520 -39.918  41.265  1.00  0.00     0.046 C 
ATOM      2  C   UNL     1       5.361 -38.984  42.468  1.00  0.00     0.104 C 
ATOM      3  C   UNL     1       5.016 -39.798  43.771  1.00  0.00     0.104 C 
ATOM      4  C   UNL     1       4.803 -38.685  44.858  1.00  0.00     0.175 C 
ATOM      5  C   UNL     1       3.842 -37.581  44.323  1.00  0.00     0.070 C 
ATOM      6  C   UNL     1       3.036 -38.038  43.103  1.00  0.00     0.050 C 
ATOM      7  C   UNL     1       4.313 -37.815  42.278  1.00  0.00     0.115 C 
ATOM      8  C   UNL     1       4.812 -36.872  43.379  1.00  0.00     0.096 C 
ATOM      9  C   UNL     1       6.203 -37.364  43.759  1.00  0.00     0.267 C 
ATOM     10  O   UNL     1       6.574 -38.317  42.768  1.00  0.00    -0.342 OA
ATOM     11  O   UNL     1       6.048 -38.027  45.002  1.00  0.00    -0.320 OA
ENDROOT
BRANCH   7  12
ATOM     12  O   UNL     1       4.017 -37.301  40.980  1.00  0.00    -0.339 OA
BRANCH  12  13
ATOM     13  C   UNL     1       2.710 -37.580  40.495  1.00  0.00     0.282 C 
ATOM     14  C   UNL     1       2.021 -36.260  40.070  1.00  0.00     0.202 C 
ATOM     15  O   UNL     1       2.751 -38.487  39.403  1.00  0.00    -0.341 OA
ATOM     16  C   UNL     1       2.701 -35.671  38.819  1.00  0.00     0.179 C 
ATOM     17  C   UNL     1       3.520 -37.986  38.320  1.00  0.00     0.178 C 
ATOM     18  C   UNL     1       2.847 -36.735  37.718  1.00  0.00     0.177 C 
BRANCH  14  19
ATOM     19  O   UNL     1       0.659 -36.492  39.811  1.00  0.00    -0.385 OA
ATOM     20  H   UNL     1       0.358 -35.770  39.199  1.00  0.00     0.211 HD
ENDBRANCH  14  19
BRANCH  16  21
ATOM     21  O   UNL     1       1.971 -34.575  38.330  1.00  0.00    -0.387 OA
ATOM     22  H   UNL     1       2.629 -33.859  38.131  1.00  0.00     0.211 HD
ENDBRANCH  16  21
BRANCH  17  23
ATOM     23  C   UNL     1       3.679 -39.106  37.279  1.00  0.00     0.191 C 
BRANCH  23  24
ATOM     24  O   UNL     1       3.586 -38.594  35.976  1.00  0.00    -0.394 OA
ATOM     25  H   UNL     1       2.855 -37.923  35.982  1.00  0.00     0.210 HD
ENDBRANCH  23  24
ENDBRANCH  17  23
BRANCH  18  26
ATOM     26  O   UNL     1       1.589 -37.076  37.190  1.00  0.00    -0.387 OA
ATOM     27  H   UNL     1       1.277 -37.880  37.682  1.00  0.00     0.211 HD
ENDBRANCH  18  26
ENDBRANCH  12  13
ENDBRANCH   7  12
BRANCH   4  28
ATOM     28  O   UNL     1       4.354 -39.208  46.078  1.00  0.00    -0.365 OA
ATOM     29  H   UNL     1       5.085 -39.068  46.734  1.00  0.00     0.214 HD
ENDBRANCH   4  28
BRANCH   8  30
ATOM     30  C   UNL     1       4.622 -35.349  43.240  1.00  0.00     0.249 C 
BRANCH  30  31
ATOM     31  O   UNL     1       5.571 -34.806  42.322  1.00  0.00    -0.461 OA
BRANCH  31  32
ATOM     32  C   UNL     1       6.349 -33.670  42.578  1.00  0.00     0.338 C 
ATOM     33  O   UNL     1       6.431 -32.748  41.720  1.00  0.00    -0.246 OA
BRANCH  32  34
ATOM     34  C   UNL     1       7.073 -33.553  43.863  1.00  0.00     0.060 A 
ATOM     35  C   UNL     1       8.204 -34.349  44.127  1.00  0.00     0.015 A 
ATOM     36  C   UNL     1       6.642 -32.636  44.839  1.00  0.00     0.015 A 
ATOM     37  C   UNL     1       8.886 -34.227  45.341  1.00  0.00     0.001 A 
ATOM     38  C   UNL     1       7.327 -32.520  46.053  1.00  0.00     0.001 A 
ATOM     39  C   UNL     1       8.447 -33.315  46.304  1.00  0.00     0.000 A 
ENDBRANCH  32  34
ENDBRANCH  31  32
ENDBRANCH  30  31
ENDBRANCH   8  30
TORSDOF 12
ENDMDL
MODEL 6
REMARK VINA RESULT:    -6.643      6.960     10.860
REMARK INTER + INTRA:         -11.478
REMARK INTER:                 -10.164
REMARK INTRA:                  -1.314
REMARK UNBOUND:                -1.147
REMARK SMILES C[C@@]12C[C@@]3(O)O[C@@H](O1)[C@]1(COC(=O)c4ccccc4)[C@H]3C[C@@]12O[C@@H]1O[C@@H](CO)[C@@H](O)[C@@H](O)[C@H]1O
REMARK SMILES IDX 1 1 2 2 3 3 4 4 20 5 21 6 22 7 9 8 7 9 8 10 6 11 23 12 24 13
REMARK SMILES IDX 33 14 25 15 31 16 26 17 29 18 34 19 32 21 27 23 28 24 30 26
REMARK SMILES IDX 5 28 10 30 11 31 12 32 13 33 14 34 15 35 19 36 16 37 18 38
REMARK SMILES IDX 17 39
REMARK H PARENT 34 20 32 22 28 25 30 27 5 29
REMARK Flexibility Score: inf
ROOT
ATOM      1  C   UNL     1       9.533 -25.371  42.258  1.00  0.00     0.046 C 
ATOM      2  C   UNL     1       9.476 -26.707  43.005  1.00  0.00     0.104 C 
ATOM      3  C   UNL     1       9.801 -26.511  44.533  1.00  0.00     0.104 C 
ATOM      4  C   UNL     1       9.787 -27.973  45.105  1.00  0.00     0.175 C 
ATOM      5  C   UNL     1      10.653 -28.914  44.214  1.00  0.00     0.070 C 
ATOM      6  C   UNL     1      11.610 -28.144  43.297  1.00  0.00     0.050 C 
ATOM      7  C   UNL     1      10.391 -27.851  42.409  1.00  0.00     0.115 C 
ATOM      8  C   UNL     1       9.691 -29.061  43.036  1.00  0.00     0.096 C 
ATOM      9  C   UNL     1       8.340 -28.560  43.531  1.00  0.00     0.267 C 
ATOM     10  O   UNL     1       8.171 -27.258  42.980  1.00  0.00    -0.342 OA
ATOM     11  O   UNL     1       8.465 -28.452  44.939  1.00  0.00    -0.320 OA
ENDROOT
BRANCH   7  12
ATOM     12  O   UNL     1      10.735 -27.865  41.024  1.00  0.00    -0.339 OA
BRANCH  12  13
ATOM     13  C   UNL     1       9.673 -27.563  40.127  1.00  0.00     0.282 C 
ATOM     14  C   UNL     1      10.130 -26.467  39.133  1.00  0.00     0.202 C 
ATOM     15  O   UNL     1       9.253 -28.722  39.421  1.00  0.00    -0.341 OA
ATOM     16  C   UNL     1      11.205 -27.015  38.174  1.00  0.00     0.179 C 
ATOM     17  C   UNL     1      10.308 -29.303  38.669  1.00  0.00     0.178 C 
ATOM     18  C   UNL     1      10.755 -28.344  37.545  1.00  0.00     0.177 C 
BRANCH  14  19
ATOM     19  O   UNL     1       9.028 -25.997  38.398  1.00  0.00    -0.385 OA
ATOM     20  H   UNL     1       8.242 -26.038  39.005  1.00  0.00     0.211 HD
ENDBRANCH  14  19
BRANCH  16  21
ATOM     21  O   UNL     1      11.489 -26.080  37.165  1.00  0.00    -0.387 OA
ATOM     22  H   UNL     1      12.478 -26.031  37.091  1.00  0.00     0.211 HD
ENDBRANCH  16  21
BRANCH  17  23
ATOM     23  C   UNL     1       9.821 -30.650  38.112  1.00  0.00     0.191 C 
BRANCH  23  24
ATOM     24  O   UNL     1      10.368 -30.892  36.843  1.00  0.00    -0.394 OA
ATOM     25  H   UNL     1       9.607 -31.063  36.229  1.00  0.00     0.210 HD
ENDBRANCH  23  24
ENDBRANCH  17  23
BRANCH  18  26
ATOM     26  O   UNL     1       9.694 -28.133  36.647  1.00  0.00    -0.387 OA
ATOM     27  H   UNL     1       9.388 -27.198  36.776  1.00  0.00     0.211 HD
ENDBRANCH  18  26
ENDBRANCH  12  13
ENDBRANCH   7  12
BRANCH   4  28
ATOM     28  O   UNL     1      10.187 -28.027  46.447  1.00  0.00    -0.365 OA
ATOM     29  H   UNL     1      10.288 -28.987  46.676  1.00  0.00     0.214 HD
ENDBRANCH   4  28
BRANCH   8  30
ATOM     30  C   UNL     1       9.712 -30.425  42.319  1.00  0.00     0.249 C 
BRANCH  30  31
ATOM     31  O   UNL     1       8.392 -30.811  41.935  1.00  0.00    -0.461 OA
BRANCH  31  32
ATOM     32  C   UNL     1       7.773 -32.001  42.337  1.00  0.00     0.338 C 
ATOM     33  O   UNL     1       6.923 -32.560  41.590  1.00  0.00    -0.246 OA
BRANCH  32  34
ATOM     34  C   UNL     1       8.124 -32.604  43.641  1.00  0.00     0.060 A 
ATOM     35  C   UNL     1       7.728 -31.993  44.846  1.00  0.00     0.015 A 
ATOM     36  C   UNL     1       8.855 -33.805  43.694  1.00  0.00     0.015 A 
ATOM     37  C   UNL     1       8.058 -32.573  46.075  1.00  0.00     0.001 A 
ATOM     38  C   UNL     1       9.185 -34.379  44.926  1.00  0.00     0.001 A 
ATOM     39  C   UNL     1       8.787 -33.765  46.115  1.00  0.00     0.000 A 
ENDBRANCH  32  34
ENDBRANCH  31  32
ENDBRANCH  30  31
ENDBRANCH   8  30
TORSDOF 12
ENDMDL
MODEL 7
REMARK VINA RESULT:    -6.639      2.180      3.369
REMARK INTER + INTRA:         -11.473
REMARK INTER:                 -10.212
REMARK INTRA:                  -1.261
REMARK UNBOUND:                -1.147
REMARK SMILES C[C@@]12C[C@@]3(O)O[C@@H](O1)[C@]1(COC(=O)c4ccccc4)[C@H]3C[C@@]12O[C@@H]1O[C@@H](CO)[C@@H](O)[C@@H](O)[C@H]1O
REMARK SMILES IDX 1 1 2 2 3 3 4 4 20 5 21 6 22 7 9 8 7 9 8 10 6 11 23 12 24 13
REMARK SMILES IDX 33 14 25 15 31 16 26 17 29 18 34 19 32 21 27 23 28 24 30 26
REMARK SMILES IDX 5 28 10 30 11 31 12 32 13 33 14 34 15 35 19 36 16 37 18 38
REMARK SMILES IDX 17 39
REMARK H PARENT 34 20 32 22 28 25 30 27 5 29
REMARK Flexibility Score: inf
ROOT
ATOM      1  C   UNL     1       8.832 -35.117  40.065  1.00  0.00     0.046 C 
ATOM      2  C   UNL     1       7.375 -35.576  39.953  1.00  0.00     0.104 C 
ATOM      3  C   UNL     1       6.963 -35.776  38.446  1.00  0.00     0.104 C 
ATOM      4  C   UNL     1       5.440 -36.149  38.525  1.00  0.00     0.175 C 
ATOM      5  C   UNL     1       4.680 -35.139  39.438  1.00  0.00     0.070 C 
ATOM      6  C   UNL     1       5.468 -33.846  39.674  1.00  0.00     0.050 C 
ATOM      7  C   UNL     1       6.319 -34.645  40.674  1.00  0.00     0.115 C 
ATOM      8  C   UNL     1       5.167 -35.648  40.794  1.00  0.00     0.096 C 
ATOM      9  C   UNL     1       5.772 -37.022  40.536  1.00  0.00     0.267 C 
ATOM     10  O   UNL     1       7.185 -36.845  40.552  1.00  0.00    -0.342 OA
ATOM     11  O   UNL     1       5.367 -37.377  39.224  1.00  0.00    -0.320 OA
ENDROOT
BRANCH   7  12
ATOM     12  O   UNL     1       6.693 -33.850  41.798  1.00  0.00    -0.339 OA
BRANCH  12  13
ATOM     13  C   UNL     1       7.705 -34.404  42.629  1.00  0.00     0.282 C 
ATOM     14  C   UNL     1       8.515 -33.262  43.293  1.00  0.00     0.202 C 
ATOM     15  O   UNL     1       7.146 -35.251  43.623  1.00  0.00    -0.341 OA
ATOM     16  C   UNL     1       7.647 -32.504  44.316  1.00  0.00     0.179 C 
ATOM     17  C   UNL     1       6.225 -34.563  44.457  1.00  0.00     0.178 C 
ATOM     18  C   UNL     1       6.953 -33.481  45.280  1.00  0.00     0.177 C 
BRANCH  14  19
ATOM     19  O   UNL     1       9.654 -33.787  43.925  1.00  0.00    -0.385 OA
ATOM     20  H   UNL     1      10.376 -33.806  43.243  1.00  0.00     0.211 HD
ENDBRANCH  14  19
BRANCH  16  21
ATOM     21  O   UNL     1       8.427 -31.589  45.042  1.00  0.00    -0.387 OA
ATOM     22  H   UNL     1       9.372 -31.882  44.951  1.00  0.00     0.211 HD
ENDBRANCH  16  21
BRANCH  17  23
ATOM     23  C   UNL     1       5.525 -35.593  45.357  1.00  0.00     0.191 C 
BRANCH  23  24
ATOM     24  O   UNL     1       5.692 -36.892  44.854  1.00  0.00    -0.394 OA
ATOM     25  H   UNL     1       4.927 -37.430  45.185  1.00  0.00     0.210 HD
ENDBRANCH  23  24
ENDBRANCH  17  23
BRANCH  18  26
ATOM     26  O   UNL     1       7.893 -34.083  46.136  1.00  0.00    -0.387 OA
ATOM     27  H   UNL     1       8.712 -33.523  46.106  1.00  0.00     0.211 HD
ENDBRANCH  18  26
ENDBRANCH  12  13
ENDBRANCH   7  12
BRANCH   4  28
ATOM     28  O   UNL     1       4.846 -36.242  37.259  1.00  0.00    -0.365 OA
ATOM     29  H   UNL     1       5.287 -36.999  36.793  1.00  0.00     0.214 HD
ENDBRANCH   4  28
BRANCH   8  30
ATOM     30  C   UNL     1       4.159 -35.534  41.954  1.00  0.00     0.249 C 
BRANCH  30  31
ATOM     31  O   UNL     1       3.832 -36.827  42.465  1.00  0.00    -0.461 OA
BRANCH  31  32
ATOM     32  C   UNL     1       2.651 -37.122  43.157  1.00  0.00     0.338 C 
ATOM     33  O   UNL     1       2.659 -37.220  44.415  1.00  0.00    -0.246 OA
BRANCH  32  34
ATOM     34  C   UNL     1       1.390 -37.313  42.407  1.00  0.00     0.060 A 
ATOM     35  C   UNL     1       1.321 -37.023  41.031  1.00  0.00     0.015 A 
ATOM     36  C   UNL     1       0.242 -37.795  43.060  1.00  0.00     0.015 A 
ATOM     37  C   UNL     1       0.128 -37.212  40.328  1.00  0.00     0.001 A 
ATOM     38  C   UNL     1      -0.950 -37.981  42.353  1.00  0.00     0.001 A 
ATOM     39  C   UNL     1      -1.007 -37.690  40.988  1.00  0.00     0.000 A 
ENDBRANCH  32  34
ENDBRANCH  31  32
ENDBRANCH  30  31
ENDBRANCH   8  30
TORSDOF 12
ENDMDL
MODEL 8
REMARK VINA RESULT:    -6.576      2.552      6.040
REMARK INTER + INTRA:         -11.375
REMARK INTER:                  -9.899
REMARK INTRA:                  -1.476
REMARK UNBOUND:                -1.147
REMARK SMILES C[C@@]12C[C@@]3(O)O[C@@H](O1)[C@]1(COC(=O)c4ccccc4)[C@H]3C[C@@]12O[C@@H]1O[C@@H](CO)[C@@H](O)[C@@H](O)[C@H]1O
REMARK SMILES IDX 1 1 2 2 3 3 4 4 20 5 21 6 22 7 9 8 7 9 8 10 6 11 23 12 24 13
REMARK SMILES IDX 33 14 25 15 31 16 26 17 29 18 34 19 32 21 27 23 28 24 30 26
REMARK SMILES IDX 5 28 10 30 11 31 12 32 13 33 14 34 15 35 19 36 16 37 18 38
REMARK SMILES IDX 17 39
REMARK H PARENT 34 20 32 22 28 25 30 27 5 29
REMARK Flexibility Score: inf
ROOT
ATOM      1  C   UNL     1       3.535 -35.614  45.036  1.00  0.00     0.046 C 
ATOM      2  C   UNL     1       3.947 -36.563  43.907  1.00  0.00     0.104 C 
ATOM      3  C   UNL     1       3.124 -37.905  43.972  1.00  0.00     0.104 C 
ATOM      4  C   UNL     1       3.739 -38.772  42.816  1.00  0.00     0.175 C 
ATOM      5  C   UNL     1       5.295 -38.779  42.911  1.00  0.00     0.070 C 
ATOM      6  C   UNL     1       5.806 -38.327  44.283  1.00  0.00     0.050 C 
ATOM      7  C   UNL     1       5.493 -36.891  43.834  1.00  0.00     0.115 C 
ATOM      8  C   UNL     1       5.562 -37.372  42.380  1.00  0.00     0.096 C 
ATOM      9  C   UNL     1       4.265 -36.917  41.722  1.00  0.00     0.267 C 
ATOM     10  O   UNL     1       3.648 -36.016  42.636  1.00  0.00    -0.342 OA
ATOM     11  O   UNL     1       3.464 -38.082  41.612  1.00  0.00    -0.320 OA
ENDROOT
BRANCH   7  12
ATOM     12  O   UNL     1       6.460 -35.964  44.325  1.00  0.00    -0.339 OA
BRANCH  12  13
ATOM     13  C   UNL     1       6.134 -34.591  44.152  1.00  0.00     0.282 C 
ATOM     14  C   UNL     1       6.421 -33.819  45.464  1.00  0.00     0.202 C 
ATOM     15  O   UNL     1       6.868 -34.021  43.078  1.00  0.00    -0.341 OA
ATOM     16  C   UNL     1       7.937 -33.751  45.735  1.00  0.00     0.179 C 
ATOM     17  C   UNL     1       8.271 -34.115  43.278  1.00  0.00     0.178 C 
ATOM     18  C   UNL     1       8.697 -33.262  44.491  1.00  0.00     0.177 C 
BRANCH  14  19
ATOM     19  O   UNL     1       5.890 -32.521  45.383  1.00  0.00    -0.385 OA
ATOM     20  H   UNL     1       4.916 -32.621  45.213  1.00  0.00     0.211 HD
ENDBRANCH  14  19
BRANCH  16  21
ATOM     21  O   UNL     1       8.206 -32.905  46.823  1.00  0.00    -0.387 OA
ATOM     22  H   UNL     1       7.692 -32.069  46.669  1.00  0.00     0.211 HD
ENDBRANCH  16  21
BRANCH  17  23
ATOM     23  C   UNL     1       8.976 -33.667  41.988  1.00  0.00     0.191 C 
BRANCH  23  24
ATOM     24  O   UNL     1       9.892 -34.638  41.556  1.00  0.00    -0.394 OA
ATOM     25  H   UNL     1       9.435 -35.516  41.624  1.00  0.00     0.210 HD
ENDBRANCH  23  24
ENDBRANCH  17  23
BRANCH  18  26
ATOM     26  O   UNL     1       8.419 -31.906  44.243  1.00  0.00    -0.387 OA
ATOM     27  H   UNL     1       7.492 -31.860  43.890  1.00  0.00     0.211 HD
ENDBRANCH  18  26
ENDBRANCH  12  13
ENDBRANCH   7  12
BRANCH   4  28
ATOM     28  O   UNL     1       3.221 -40.074  42.792  1.00  0.00    -0.365 OA
ATOM     29  H   UNL     1       3.995 -40.686  42.685  1.00  0.00     0.214 HD
ENDBRANCH   4  28
BRANCH   8  30
ATOM     30  C   UNL     1       6.859 -37.195  41.567  1.00  0.00     0.249 C 
BRANCH  30  31
ATOM     31  O   UNL     1       6.561 -36.834  40.218  1.00  0.00    -0.461 OA
BRANCH  31  32
ATOM     32  C   UNL     1       7.232 -35.831  39.507  1.00  0.00     0.338 C 
ATOM     33  O   UNL     1       8.475 -35.917  39.308  1.00  0.00    -0.246 OA
BRANCH  32  34
ATOM     34  C   UNL     1       6.475 -34.672  38.987  1.00  0.00     0.060 A 
ATOM     35  C   UNL     1       6.659 -34.226  37.665  1.00  0.00     0.015 A 
ATOM     36  C   UNL     1       5.553 -34.000  39.810  1.00  0.00     0.015 A 
ATOM     37  C   UNL     1       5.936 -33.134  37.179  1.00  0.00     0.001 A 
ATOM     38  C   UNL     1       4.833 -32.906  39.320  1.00  0.00     0.001 A 
ATOM     39  C   UNL     1       5.024 -32.473  38.006  1.00  0.00     0.000 A 
ENDBRANCH  32  34
ENDBRANCH  31  32
ENDBRANCH  30  31
ENDBRANCH   8  30
TORSDOF 12
ENDMDL
MODEL 9
REMARK VINA RESULT:    -6.480      2.829      7.446
REMARK INTER + INTRA:         -11.226
REMARK INTER:                  -9.935
REMARK INTRA:                  -1.291
REMARK UNBOUND:                -1.147
REMARK SMILES C[C@@]12C[C@@]3(O)O[C@@H](O1)[C@]1(COC(=O)c4ccccc4)[C@H]3C[C@@]12O[C@@H]1O[C@@H](CO)[C@@H](O)[C@@H](O)[C@H]1O
REMARK SMILES IDX 1 1 2 2 3 3 4 4 20 5 21 6 22 7 9 8 7 9 8 10 6 11 23 12 24 13
REMARK SMILES IDX 33 14 25 15 31 16 26 17 29 18 34 19 32 21 27 23 28 24 30 26
REMARK SMILES IDX 5 28 10 30 11 31 12 32 13 33 14 34 15 35 19 36 16 37 18 38
REMARK SMILES IDX 17 39
REMARK H PARENT 34 20 32 22 28 25 30 27 5 29
REMARK Flexibility Score: inf
ROOT
ATOM      1  C   UNL     1       4.171 -38.779  40.835  1.00  0.00     0.046 C 
ATOM      2  C   UNL     1       4.685 -38.269  42.184  1.00  0.00     0.104 C 
ATOM      3  C   UNL     1       4.336 -39.282  43.338  1.00  0.00     0.104 C 
ATOM      4  C   UNL     1       4.850 -38.559  44.634  1.00  0.00     0.175 C 
ATOM      5  C   UNL     1       4.337 -37.088  44.674  1.00  0.00     0.070 C 
ATOM      6  C   UNL     1       3.163 -36.844  43.720  1.00  0.00     0.050 C 
ATOM      7  C   UNL     1       4.199 -36.819  42.585  1.00  0.00     0.115 C 
ATOM      8  C   UNL     1       5.275 -36.491  43.626  1.00  0.00     0.096 C 
ATOM      9  C   UNL     1       6.386 -37.513  43.424  1.00  0.00     0.267 C 
ATOM     10  O   UNL     1       6.099 -38.177  42.198  1.00  0.00    -0.342 OA
ATOM     11  O   UNL     1       6.253 -38.438  44.491  1.00  0.00    -0.320 OA
ENDROOT
BRANCH   7  12
ATOM     12  O   UNL     1       3.860 -35.859  41.585  1.00  0.00    -0.339 OA
BRANCH  12  13
ATOM     13  C   UNL     1       4.634 -35.917  40.393  1.00  0.00     0.282 C 
ATOM     14  C   UNL     1       3.719 -35.676  39.167  1.00  0.00     0.202 C 
ATOM     15  O   UNL     1       5.684 -34.961  40.418  1.00  0.00    -0.341 OA
ATOM     16  C   UNL     1       3.214 -34.220  39.143  1.00  0.00     0.179 C 
ATOM     17  C   UNL     1       5.198 -33.635  40.557  1.00  0.00     0.178 C 
ATOM     18  C   UNL     1       4.378 -33.231  39.315  1.00  0.00     0.177 C 
BRANCH  14  19
ATOM     19  O   UNL     1       4.420 -35.960  37.983  1.00  0.00    -0.385 OA
ATOM     20  H   UNL     1       3.810 -36.497  37.412  1.00  0.00     0.211 HD
ENDBRANCH  14  19
BRANCH  16  21
ATOM     21  O   UNL     1       2.533 -33.955  37.944  1.00  0.00    -0.387 OA
ATOM     22  H   UNL     1       1.574 -34.155  38.109  1.00  0.00     0.211 HD
ENDBRANCH  16  21
BRANCH  17  23
ATOM     23  C   UNL     1       6.397 -32.700  40.780  1.00  0.00     0.191 C 
BRANCH  23  24
ATOM     24  O   UNL     1       7.508 -33.127  40.036  1.00  0.00    -0.394 OA
ATOM     25  H   UNL     1       7.290 -34.028  39.684  1.00  0.00     0.210 HD
ENDBRANCH  23  24
ENDBRANCH  17  23
BRANCH  18  26
ATOM     26  O   UNL     1       5.203 -33.235  38.176  1.00  0.00    -0.387 OA
ATOM     27  H   UNL     1       5.427 -32.289  37.978  1.00  0.00     0.211 HD
ENDBRANCH  18  26
ENDBRANCH  12  13
ENDBRANCH   7  12
BRANCH   4  28
ATOM     28  O   UNL     1       4.511 -39.253  45.803  1.00  0.00    -0.365 OA
ATOM     29  H   UNL     1       4.239 -40.165  45.524  1.00  0.00     0.214 HD
ENDBRANCH   4  28
BRANCH   8  30
ATOM     30  C   UNL     1       5.703 -35.030  43.864  1.00  0.00     0.249 C 
BRANCH  30  31
ATOM     31  O   UNL     1       7.087 -34.856  43.558  1.00  0.00    -0.461 OA
BRANCH  31  32
ATOM     32  C   UNL     1       8.039 -34.381  44.469  1.00  0.00     0.338 C 
ATOM     33  O   UNL     1       8.598 -35.175  45.276  1.00  0.00    -0.246 OA
BRANCH  32  34
ATOM     34  C   UNL     1       8.390 -32.944  44.480  1.00  0.00     0.060 A 
ATOM     35  C   UNL     1       9.102 -32.369  43.411  1.00  0.00     0.015 A 
ATOM     36  C   UNL     1       8.008 -32.130  45.561  1.00  0.00     0.015 A 
ATOM     37  C   UNL     1       9.423 -31.009  43.425  1.00  0.00     0.001 A 
ATOM     38  C   UNL     1       8.334 -30.770  45.572  1.00  0.00     0.001 A 
ATOM     39  C   UNL     1       9.041 -30.210  44.506  1.00  0.00     0.000 A 
ENDBRANCH  32  34
ENDBRANCH  31  32
ENDBRANCH  30  31
ENDBRANCH   8  30
TORSDOF 12
ENDMDL
