MODEL 1
REMARK VINA RESULT:    -4.807      0.000      0.000
REMARK INTER + INTRA:          -4.807
REMARK INTER:                  -4.807
REMARK INTRA:                   0.000
REMARK UNBOUND:                 0.000
REMARK SMILES C=C1CCC[C@]2(C)CC(=O)C(=C(C)C)C[C@@H]12
REMARK SMILES IDX 13 1 12 2 11 3 15 4 16 5 2 6 1 7 3 8 4 9 5 10 6 11 8 12 9 13
REMARK SMILES IDX 10 14 7 15 14 16
REMARK H PARENT
REMARK Flexibility Score: inf
ROOT
ATOM      1  C   UNL     1     144.648 152.637 168.353  1.00  0.00     0.039 C 
ATOM      2  C   UNL     1     145.164 153.280 167.085  1.00  0.00    -0.070 C 
ATOM      3  C   UNL     1     146.461 153.126 166.689  1.00  0.00    -0.006 C 
ATOM      4  C   UNL     1     147.448 152.317 167.520  1.00  0.00     0.047 C 
ATOM      5  C   UNL     1     148.905 152.828 167.386  1.00  0.00     0.025 C 
ATOM      6  C   UNL     1     149.948 152.029 168.168  1.00  0.00    -0.073 C 
ATOM      7  C   UNL     1     149.662 150.948 168.920  1.00  0.00     0.008 C 
ATOM      8  C   UNL     1     151.368 152.541 168.103  1.00  0.00     0.031 C 
ATOM      9  C   UNL     1     151.806 152.711 166.645  1.00  0.00     0.005 C 
ATOM     10  C   UNL     1     150.796 153.550 165.844  1.00  0.00     0.008 C 
ATOM     11  C   UNL     1     149.347 152.977 165.897  1.00  0.00    -0.018 C 
ATOM     12  C   UNL     1     148.404 153.988 165.199  1.00  0.00     0.088 C 
ATOM     13  C   UNL     1     146.957 153.625 165.374  1.00  0.00     0.159 C 
ATOM     14  O   UNL     1     146.185 153.740 164.384  1.00  0.00    -0.295 OA
ATOM     15  C   UNL     1     149.296 151.621 165.139  1.00  0.00     0.012 C 
ATOM     16  C   UNL     1     144.187 154.128 166.303  1.00  0.00     0.039 C 
ENDROOT
TORSDOF 0
ENDMDL
MODEL 2
REMARK VINA RESULT:    -4.783      3.078      5.620
REMARK INTER + INTRA:          -4.783
REMARK INTER:                  -4.783
REMARK INTRA:                   0.000
REMARK UNBOUND:                 0.000
REMARK SMILES C=C1CCC[C@]2(C)CC(=O)C(=C(C)C)C[C@@H]12
REMARK SMILES IDX 13 1 12 2 11 3 15 4 16 5 2 6 1 7 3 8 4 9 5 10 6 11 8 12 9 13
REMARK SMILES IDX 10 14 7 15 14 16
REMARK H PARENT
REMARK Flexibility Score: inf
ROOT
ATOM      1  C   UNL     1     150.734 150.762 164.892  1.00  0.00     0.039 C 
ATOM      2  C   UNL     1     150.276 151.962 165.690  1.00  0.00    -0.070 C 
ATOM      3  C   UNL     1     149.849 153.103 165.073  1.00  0.00    -0.006 C 
ATOM      4  C   UNL     1     149.838 153.221 163.555  1.00  0.00     0.047 C 
ATOM      5  C   UNL     1     150.062 154.673 163.064  1.00  0.00     0.025 C 
ATOM      6  C   UNL     1     150.021 154.859 161.547  1.00  0.00    -0.073 C 
ATOM      7  C   UNL     1     149.799 153.861 160.670  1.00  0.00     0.008 C 
ATOM      8  C   UNL     1     150.295 156.256 161.038  1.00  0.00     0.031 C 
ATOM      9  C   UNL     1     149.371 157.264 161.727  1.00  0.00     0.005 C 
ATOM     10  C   UNL     1     149.426 157.130 163.258  1.00  0.00     0.008 C 
ATOM     11  C   UNL     1     149.101 155.689 163.757  1.00  0.00    -0.018 C 
ATOM     12  C   UNL     1     149.348 155.641 165.285  1.00  0.00     0.088 C 
ATOM     13  C   UNL     1     149.257 154.244 165.829  1.00  0.00     0.159 C 
ATOM     14  O   UNL     1     148.660 154.063 166.925  1.00  0.00    -0.295 OA
ATOM     15  C   UNL     1     147.609 155.362 163.468  1.00  0.00     0.012 C 
ATOM     16  C   UNL     1     150.350 151.851 167.196  1.00  0.00     0.039 C 
ENDROOT
TORSDOF 0
ENDMDL
MODEL 3
REMARK VINA RESULT:    -4.770      2.257      4.898
REMARK INTER + INTRA:          -4.770
REMARK INTER:                  -4.770
REMARK INTRA:                   0.000
REMARK UNBOUND:                 0.000
REMARK SMILES C=C1CCC[C@]2(C)CC(=O)C(=C(C)C)C[C@@H]12
REMARK SMILES IDX 13 1 12 2 11 3 15 4 16 5 2 6 1 7 3 8 4 9 5 10 6 11 8 12 9 13
REMARK SMILES IDX 10 14 7 15 14 16
REMARK H PARENT
REMARK Flexibility Score: inf
ROOT
ATOM      1  C   UNL     1     152.813 149.872 163.767  1.00  0.00     0.039 C 
ATOM      2  C   UNL     1     151.500 150.358 163.194  1.00  0.00    -0.070 C 
ATOM      3  C   UNL     1     150.626 151.091 163.946  1.00  0.00    -0.006 C 
ATOM      4  C   UNL     1     150.930 151.432 165.398  1.00  0.00     0.047 C 
ATOM      5  C   UNL     1     149.652 151.566 166.263  1.00  0.00     0.025 C 
ATOM      6  C   UNL     1     149.892 151.946 167.724  1.00  0.00    -0.073 C 
ATOM      7  C   UNL     1     151.110 152.168 168.255  1.00  0.00     0.008 C 
ATOM      8  C   UNL     1     148.666 152.027 168.604  1.00  0.00     0.031 C 
ATOM      9  C   UNL     1     147.619 152.950 167.975  1.00  0.00     0.005 C 
ATOM     10  C   UNL     1     147.323 152.563 166.517  1.00  0.00     0.008 C 
ATOM     11  C   UNL     1     148.600 152.526 165.623  1.00  0.00    -0.018 C 
ATOM     12  C   UNL     1     148.201 151.968 164.235  1.00  0.00     0.088 C 
ATOM     13  C   UNL     1     149.397 151.704 163.365  1.00  0.00     0.159 C 
ATOM     14  O   UNL     1     149.338 152.026 162.147  1.00  0.00    -0.295 OA
ATOM     15  C   UNL     1     149.159 153.967 165.455  1.00  0.00     0.012 C 
ATOM     16  C   UNL     1     151.187 149.961 161.770  1.00  0.00     0.039 C 
ENDROOT
TORSDOF 0
ENDMDL
MODEL 4
REMARK VINA RESULT:    -4.688      3.031      5.797
REMARK INTER + INTRA:          -4.688
REMARK INTER:                  -4.688
REMARK INTRA:                   0.000
REMARK UNBOUND:                 0.000
REMARK SMILES C=C1CCC[C@]2(C)CC(=O)C(=C(C)C)C[C@@H]12
REMARK SMILES IDX 13 1 12 2 11 3 15 4 16 5 2 6 1 7 3 8 4 9 5 10 6 11 8 12 9 13
REMARK SMILES IDX 10 14 7 15 14 16
REMARK H PARENT
REMARK Flexibility Score: inf
ROOT
ATOM      1  C   UNL     1     150.458 150.138 162.102  1.00  0.00     0.039 C 
ATOM      2  C   UNL     1     150.627 150.584 163.537  1.00  0.00    -0.070 C 
ATOM      3  C   UNL     1     150.266 151.839 163.937  1.00  0.00    -0.006 C 
ATOM      4  C   UNL     1     149.700 152.849 162.947  1.00  0.00     0.047 C 
ATOM      5  C   UNL     1     150.040 154.312 163.323  1.00  0.00     0.025 C 
ATOM      6  C   UNL     1     149.464 155.374 162.386  1.00  0.00    -0.073 C 
ATOM      7  C   UNL     1     148.701 155.098 161.311  1.00  0.00     0.008 C 
ATOM      8  C   UNL     1     149.830 156.808 162.695  1.00  0.00     0.031 C 
ATOM      9  C   UNL     1     149.496 157.140 164.152  1.00  0.00     0.005 C 
ATOM     10  C   UNL     1     150.102 156.112 165.122  1.00  0.00     0.008 C 
ATOM     11  C   UNL     1     149.676 154.646 164.803  1.00  0.00    -0.018 C 
ATOM     12  C   UNL     1     150.474 153.700 165.734  1.00  0.00     0.088 C 
ATOM     13  C   UNL     1     150.285 152.255 165.369  1.00  0.00     0.159 C 
ATOM     14  O   UNL     1     150.130 151.415 166.297  1.00  0.00    -0.295 OA
ATOM     15  C   UNL     1     148.156 154.475 165.078  1.00  0.00     0.012 C 
ATOM     16  C   UNL     1     151.246 149.590 164.494  1.00  0.00     0.039 C 
ENDROOT
TORSDOF 0
ENDMDL
MODEL 5
REMARK VINA RESULT:    -4.522      1.871      5.428
REMARK INTER + INTRA:          -4.522
REMARK INTER:                  -4.522
REMARK INTRA:                   0.000
REMARK UNBOUND:                 0.000
REMARK SMILES C=C1CCC[C@]2(C)CC(=O)C(=C(C)C)C[C@@H]12
REMARK SMILES IDX 13 1 12 2 11 3 15 4 16 5 2 6 1 7 3 8 4 9 5 10 6 11 8 12 9 13
REMARK SMILES IDX 10 14 7 15 14 16
REMARK H PARENT
REMARK Flexibility Score: inf
ROOT
ATOM      1  C   UNL     1     151.082 152.265 166.092  1.00  0.00     0.039 C 
ATOM      2  C   UNL     1     150.155 152.138 167.281  1.00  0.00    -0.070 C 
ATOM      3  C   UNL     1     148.802 152.261 167.142  1.00  0.00    -0.006 C 
ATOM      4  C   UNL     1     148.173 152.554 165.787  1.00  0.00     0.047 C 
ATOM      5  C   UNL     1     146.857 153.364 165.899  1.00  0.00     0.025 C 
ATOM      6  C   UNL     1     146.158 153.655 164.571  1.00  0.00    -0.073 C 
ATOM      7  C   UNL     1     146.614 153.244 163.372  1.00  0.00     0.008 C 
ATOM      8  C   UNL     1     144.903 154.494 164.646  1.00  0.00     0.031 C 
ATOM      9  C   UNL     1     143.918 153.889 165.651  1.00  0.00     0.005 C 
ATOM     10  C   UNL     1     144.583 153.628 167.012  1.00  0.00     0.008 C 
ATOM     11  C   UNL     1     145.852 152.727 166.909  1.00  0.00    -0.018 C 
ATOM     12  C   UNL     1     146.519 152.674 168.305  1.00  0.00     0.088 C 
ATOM     13  C   UNL     1     147.859 151.996 168.267  1.00  0.00     0.159 C 
ATOM     14  O   UNL     1     148.155 151.195 169.194  1.00  0.00    -0.295 OA
ATOM     15  C   UNL     1     145.437 151.291 166.484  1.00  0.00     0.012 C 
ATOM     16  C   UNL     1     150.801 151.906 168.628  1.00  0.00     0.039 C 
ENDROOT
TORSDOF 0
ENDMDL
MODEL 6
REMARK VINA RESULT:    -4.492      1.859      5.204
REMARK INTER + INTRA:          -4.492
REMARK INTER:                  -4.492
REMARK INTRA:                   0.000
REMARK UNBOUND:                 0.000
REMARK SMILES C=C1CCC[C@]2(C)CC(=O)C(=C(C)C)C[C@@H]12
REMARK SMILES IDX 13 1 12 2 11 3 15 4 16 5 2 6 1 7 3 8 4 9 5 10 6 11 8 12 9 13
REMARK SMILES IDX 10 14 7 15 14 16
REMARK H PARENT
REMARK Flexibility Score: inf
ROOT
ATOM      1  C   UNL     1     150.099 151.488 168.765  1.00  0.00     0.039 C 
ATOM      2  C   UNL     1     149.422 152.199 167.615  1.00  0.00    -0.070 C 
ATOM      3  C   UNL     1     148.061 152.223 167.498  1.00  0.00    -0.006 C 
ATOM      4  C   UNL     1     147.172 151.516 168.512  1.00  0.00     0.047 C 
ATOM      5  C   UNL     1     145.845 151.008 167.893  1.00  0.00     0.025 C 
ATOM      6  C   UNL     1     144.892 150.323 168.873  1.00  0.00    -0.073 C 
ATOM      7  C   UNL     1     145.146 150.165 170.187  1.00  0.00     0.008 C 
ATOM      8  C   UNL     1     143.616 149.765 168.285  1.00  0.00     0.031 C 
ATOM      9  C   UNL     1     142.881 150.847 167.488  1.00  0.00     0.005 C 
ATOM     10  C   UNL     1     143.805 151.523 166.461  1.00  0.00     0.008 C 
ATOM     11  C   UNL     1     145.094 152.123 167.101  1.00  0.00    -0.018 C 
ATOM     12  C   UNL     1     146.011 152.623 165.959  1.00  0.00     0.088 C 
ATOM     13  C   UNL     1     147.365 153.036 166.460  1.00  0.00     0.159 C 
ATOM     14  O   UNL     1     147.885 154.085 165.993  1.00  0.00    -0.295 OA
ATOM     15  C   UNL     1     144.711 153.322 168.014  1.00  0.00     0.012 C 
ATOM     16  C   UNL     1     150.321 152.845 166.586  1.00  0.00     0.039 C 
ENDROOT
TORSDOF 0
ENDMDL
MODEL 7
REMARK VINA RESULT:    -4.443      1.485      2.919
REMARK INTER + INTRA:          -4.443
REMARK INTER:                  -4.443
REMARK INTRA:                   0.000
REMARK UNBOUND:                 0.000
REMARK SMILES C=C1CCC[C@]2(C)CC(=O)C(=C(C)C)C[C@@H]12
REMARK SMILES IDX 13 1 12 2 11 3 15 4 16 5 2 6 1 7 3 8 4 9 5 10 6 11 8 12 9 13
REMARK SMILES IDX 10 14 7 15 14 16
REMARK H PARENT
REMARK Flexibility Score: inf
ROOT
ATOM      1  C   UNL     1     148.303 150.786 169.586  1.00  0.00     0.039 C 
ATOM      2  C   UNL     1     147.273 151.363 168.640  1.00  0.00    -0.070 C 
ATOM      3  C   UNL     1     147.646 152.036 167.512  1.00  0.00    -0.006 C 
ATOM      4  C   UNL     1     149.114 152.252 167.172  1.00  0.00     0.047 C 
ATOM      5  C   UNL     1     149.361 153.561 166.382  1.00  0.00     0.025 C 
ATOM      6  C   UNL     1     150.813 153.812 165.977  1.00  0.00    -0.073 C 
ATOM      7  C   UNL     1     151.830 152.974 166.258  1.00  0.00     0.008 C 
ATOM      8  C   UNL     1     151.092 155.112 165.257  1.00  0.00     0.031 C 
ATOM      9  C   UNL     1     150.165 155.258 164.047  1.00  0.00     0.005 C 
ATOM     10  C   UNL     1     148.690 155.056 164.433  1.00  0.00     0.008 C 
ATOM     11  C   UNL     1     148.426 153.690 165.139  1.00  0.00    -0.018 C 
ATOM     12  C   UNL     1     146.955 153.675 165.622  1.00  0.00     0.088 C 
ATOM     13  C   UNL     1     146.657 152.487 166.490  1.00  0.00     0.159 C 
ATOM     14  O   UNL     1     145.565 151.879 166.324  1.00  0.00    -0.295 OA
ATOM     15  C   UNL     1     148.645 152.531 164.127  1.00  0.00     0.012 C 
ATOM     16  C   UNL     1     145.821 151.192 169.023  1.00  0.00     0.039 C 
ENDROOT
TORSDOF 0
ENDMDL
MODEL 8
REMARK VINA RESULT:    -4.435      1.884      5.563
REMARK INTER + INTRA:          -4.435
REMARK INTER:                  -4.435
REMARK INTRA:                   0.000
REMARK UNBOUND:                 0.000
REMARK SMILES C=C1CCC[C@]2(C)CC(=O)C(=C(C)C)C[C@@H]12
REMARK SMILES IDX 13 1 12 2 11 3 15 4 16 5 2 6 1 7 3 8 4 9 5 10 6 11 8 12 9 13
REMARK SMILES IDX 10 14 7 15 14 16
REMARK H PARENT
REMARK Flexibility Score: inf
ROOT
ATOM      1  C   UNL     1     148.547 154.779 164.364  1.00  0.00     0.039 C 
ATOM      2  C   UNL     1     148.836 153.955 165.599  1.00  0.00    -0.070 C 
ATOM      3  C   UNL     1     147.827 153.413 166.342  1.00  0.00    -0.006 C 
ATOM      4  C   UNL     1     146.368 153.635 165.969  1.00  0.00     0.047 C 
ATOM      5  C   UNL     1     145.428 153.633 167.201  1.00  0.00     0.025 C 
ATOM      6  C   UNL     1     143.943 153.812 166.885  1.00  0.00    -0.073 C 
ATOM      7  C   UNL     1     143.448 153.951 165.639  1.00  0.00     0.008 C 
ATOM      8  C   UNL     1     143.009 153.874 168.072  1.00  0.00     0.031 C 
ATOM      9  C   UNL     1     143.222 152.660 168.980  1.00  0.00     0.005 C 
ATOM     10  C   UNL     1     144.703 152.481 169.352  1.00  0.00     0.008 C 
ATOM     11  C   UNL     1     145.638 152.381 168.107  1.00  0.00    -0.018 C 
ATOM     12  C   UNL     1     147.104 152.371 168.606  1.00  0.00     0.088 C 
ATOM     13  C   UNL     1     148.087 152.479 167.476  1.00  0.00     0.159 C 
ATOM     14  O   UNL     1     149.119 151.755 167.504  1.00  0.00    -0.295 OA
ATOM     15  C   UNL     1     145.347 151.059 167.344  1.00  0.00     0.012 C 
ATOM     16  C   UNL     1     150.288 153.795 165.988  1.00  0.00     0.039 C 
ENDROOT
TORSDOF 0
ENDMDL
MODEL 9
REMARK VINA RESULT:    -4.361      3.265      4.904
REMARK INTER + INTRA:          -4.361
REMARK INTER:                  -4.361
REMARK INTRA:                   0.000
REMARK UNBOUND:                 0.000
REMARK SMILES C=C1CCC[C@]2(C)CC(=O)C(=C(C)C)C[C@@H]12
REMARK SMILES IDX 13 1 12 2 11 3 15 4 16 5 2 6 1 7 3 8 4 9 5 10 6 11 8 12 9 13
REMARK SMILES IDX 10 14 7 15 14 16
REMARK H PARENT
REMARK Flexibility Score: inf
ROOT
ATOM      1  C   UNL     1     146.388 157.742 162.248  1.00  0.00     0.039 C 
ATOM      2  C   UNL     1     147.893 157.595 162.256  1.00  0.00    -0.070 C 
ATOM      3  C   UNL     1     148.498 156.534 162.868  1.00  0.00    -0.006 C 
ATOM      4  C   UNL     1     147.683 155.468 163.586  1.00  0.00     0.047 C 
ATOM      5  C   UNL     1     148.444 154.831 164.775  1.00  0.00     0.025 C 
ATOM      6  C   UNL     1     147.689 153.724 165.512  1.00  0.00    -0.073 C 
ATOM      7  C   UNL     1     146.456 153.299 165.175  1.00  0.00     0.008 C 
ATOM      8  C   UNL     1     148.384 153.125 166.713  1.00  0.00     0.031 C 
ATOM      9  C   UNL     1     149.791 152.653 166.332  1.00  0.00     0.005 C 
ATOM     10  C   UNL     1     150.591 153.762 165.629  1.00  0.00     0.008 C 
ATOM     11  C   UNL     1     149.867 154.334 164.371  1.00  0.00    -0.018 C 
ATOM     12  C   UNL     1     150.685 155.542 163.853  1.00  0.00     0.088 C 
ATOM     13  C   UNL     1     149.966 156.288 162.765  1.00  0.00     0.159 C 
ATOM     14  O   UNL     1     150.628 156.682 161.767  1.00  0.00    -0.295 OA
ATOM     15  C   UNL     1     149.807 153.244 163.265  1.00  0.00     0.012 C 
ATOM     16  C   UNL     1     148.691 158.692 161.590  1.00  0.00     0.039 C 
ENDROOT
TORSDOF 0
ENDMDL
