MODEL 1
REMARK VINA RESULT:    -3.160      0.000      0.000
REMARK INTER + INTRA:          -3.821
REMARK INTER:                  -3.714
REMARK INTRA:                  -0.107
REMARK UNBOUND:                -0.107
REMARK SMILES CCCCC(=O)[O-]
REMARK SMILES IDX 4 1 5 2 6 3 7 4 3 5 2 6 1 7
REMARK H PARENT
REMARK Flexibility Score: inf
ROOT
ATOM      1  C   UNL     1      25.344  27.570 -17.080  1.00  0.00     0.053 C 
ENDROOT
BRANCH   1   2
ATOM      2  C   UNL     1      25.134  28.396 -15.851  1.00  0.00     0.041 C 
ATOM      3  O   UNL     1      24.840  27.843 -14.758  1.00  0.00    -0.550 OA
ATOM      4  O   UNL     1      25.215  29.781 -15.923  1.00  0.00    -0.550 OA
ENDBRANCH   1   2
BRANCH   1   5
ATOM      5  C   UNL     1      26.830  27.523 -17.447  1.00  0.00     0.006 C 
BRANCH   5   6
ATOM      6  C   UNL     1      27.107  28.327 -18.722  1.00  0.00    -0.003 C 
ATOM      7  C   UNL     1      27.951  29.563 -18.422  1.00  0.00     0.004 C 
ENDBRANCH   5   6
ENDBRANCH   1   5
TORSDOF 3
ENDMDL
MODEL 2
REMARK VINA RESULT:    -3.159      0.112      1.230
REMARK INTER + INTRA:          -3.819
REMARK INTER:                  -3.712
REMARK INTRA:                  -0.107
REMARK UNBOUND:                -0.107
REMARK SMILES CCCCC(=O)[O-]
REMARK SMILES IDX 4 1 5 2 6 3 7 4 3 5 2 6 1 7
REMARK H PARENT
REMARK Flexibility Score: inf
ROOT
ATOM      1  C   UNL     1      25.362  27.698 -17.160  1.00  0.00     0.053 C 
ENDROOT
BRANCH   1   2
ATOM      2  C   UNL     1      25.130  28.493 -15.915  1.00  0.00     0.041 C 
ATOM      3  O   UNL     1      25.237  29.747 -15.934  1.00  0.00    -0.550 OA
ATOM      4  O   UNL     1      24.843  27.844 -14.719  1.00  0.00    -0.550 OA
ENDBRANCH   1   2
BRANCH   1   5
ATOM      5  C   UNL     1      26.862  27.521 -17.412  1.00  0.00     0.006 C 
BRANCH   5   6
ATOM      6  C   UNL     1      27.286  28.215 -18.712  1.00  0.00    -0.003 C 
ATOM      7  C   UNL     1      27.930  29.570 -18.428  1.00  0.00     0.004 C 
ENDBRANCH   5   6
ENDBRANCH   1   5
TORSDOF 3
ENDMDL
MODEL 3
REMARK VINA RESULT:    -3.059     21.418     21.911
REMARK INTER + INTRA:          -3.703
REMARK INTER:                  -3.656
REMARK INTRA:                  -0.046
REMARK UNBOUND:                -0.107
REMARK SMILES CCCCC(=O)[O-]
REMARK SMILES IDX 4 1 5 2 6 3 7 4 3 5 2 6 1 7
REMARK H PARENT
REMARK Flexibility Score: inf
ROOT
ATOM      1  C   UNL     1      33.103  13.628  -1.928  1.00  0.00     0.053 C 
ENDROOT
BRANCH   1   2
ATOM      2  C   UNL     1      31.986  14.026  -1.017  1.00  0.00     0.041 C 
ATOM      3  O   UNL     1      31.145  13.170  -0.633  1.00  0.00    -0.550 OA
ATOM      4  O   UNL     1      31.844  15.353  -0.629  1.00  0.00    -0.550 OA
ENDBRANCH   1   2
BRANCH   1   5
ATOM      5  C   UNL     1      34.248  14.641  -1.846  1.00  0.00     0.006 C 
BRANCH   5   6
ATOM      6  C   UNL     1      34.998  14.732  -3.180  1.00  0.00    -0.003 C 
ATOM      7  C   UNL     1      34.704  13.520  -4.061  1.00  0.00     0.004 C 
ENDBRANCH   5   6
ENDBRANCH   1   5
TORSDOF 3
ENDMDL
MODEL 4
REMARK VINA RESULT:    -2.887     13.605     14.481
REMARK INTER + INTRA:          -3.501
REMARK INTER:                  -3.482
REMARK INTRA:                  -0.019
REMARK UNBOUND:                -0.107
REMARK SMILES CCCCC(=O)[O-]
REMARK SMILES IDX 4 1 5 2 6 3 7 4 3 5 2 6 1 7
REMARK H PARENT
REMARK Flexibility Score: inf
ROOT
ATOM      1  C   UNL     1      34.617  17.234 -17.896  1.00  0.00     0.053 C 
ENDROOT
BRANCH   1   2
ATOM      2  C   UNL     1      33.619  18.072 -18.630  1.00  0.00     0.041 C 
ATOM      3  O   UNL     1      33.339  19.229 -18.220  1.00  0.00    -0.550 OA
ATOM      4  O   UNL     1      32.963  17.557 -19.741  1.00  0.00    -0.550 OA
ENDBRANCH   1   2
BRANCH   1   5
ATOM      5  C   UNL     1      34.230  15.755 -17.967  1.00  0.00     0.006 C 
BRANCH   5   6
ATOM      6  C   UNL     1      34.671  15.010 -16.701  1.00  0.00    -0.003 C 
ATOM      7  C   UNL     1      33.533  14.166 -16.134  1.00  0.00     0.004 C 
ENDBRANCH   5   6
ENDBRANCH   1   5
TORSDOF 3
ENDMDL
MODEL 5
REMARK VINA RESULT:    -2.839      2.951      3.946
REMARK INTER + INTRA:          -3.444
REMARK INTER:                  -3.419
REMARK INTRA:                  -0.025
REMARK UNBOUND:                -0.107
REMARK SMILES CCCCC(=O)[O-]
REMARK SMILES IDX 4 1 5 2 6 3 7 4 3 5 2 6 1 7
REMARK H PARENT
REMARK Flexibility Score: inf
ROOT
ATOM      1  C   UNL     1      26.869  29.562 -17.834  1.00  0.00     0.053 C 
ENDROOT
BRANCH   1   2
ATOM      2  C   UNL     1      27.923  30.098 -18.750  1.00  0.00     0.041 C 
ATOM      3  O   UNL     1      27.875  29.851 -19.984  1.00  0.00    -0.550 OA
ATOM      4  O   UNL     1      28.985  30.830 -18.235  1.00  0.00    -0.550 OA
ENDBRANCH   1   2
BRANCH   1   5
ATOM      5  C   UNL     1      26.821  28.033 -17.909  1.00  0.00     0.006 C 
BRANCH   5   6
ATOM      6  C   UNL     1      25.477  27.500 -17.396  1.00  0.00    -0.003 C 
ATOM      7  C   UNL     1      25.250  27.891 -15.938  1.00  0.00     0.004 C 
ENDBRANCH   5   6
ENDBRANCH   1   5
TORSDOF 3
ENDMDL
MODEL 6
REMARK VINA RESULT:    -2.839      2.546      3.764
REMARK INTER + INTRA:          -3.443
REMARK INTER:                  -3.396
REMARK INTRA:                  -0.047
REMARK UNBOUND:                -0.107
REMARK SMILES CCCCC(=O)[O-]
REMARK SMILES IDX 4 1 5 2 6 3 7 4 3 5 2 6 1 7
REMARK H PARENT
REMARK Flexibility Score: inf
ROOT
ATOM      1  C   UNL     1      26.775  27.456 -17.425  1.00  0.00     0.053 C 
ENDROOT
BRANCH   1   2
ATOM      2  C   UNL     1      27.321  28.000 -18.706  1.00  0.00     0.041 C 
ATOM      3  O   UNL     1      27.394  27.266 -19.727  1.00  0.00    -0.550 OA
ATOM      4  O   UNL     1      27.796  29.305 -18.761  1.00  0.00    -0.550 OA
ENDBRANCH   1   2
BRANCH   1   5
ATOM      5  C   UNL     1      25.303  27.845 -17.262  1.00  0.00     0.006 C 
BRANCH   5   6
ATOM      6  C   UNL     1      25.131  28.893 -16.156  1.00  0.00    -0.003 C 
ATOM      7  C   UNL     1      24.916  28.230 -14.798  1.00  0.00     0.004 C 
ENDBRANCH   5   6
ENDBRANCH   1   5
TORSDOF 3
ENDMDL
MODEL 7
REMARK VINA RESULT:    -2.834     21.124     21.846
REMARK INTER + INTRA:          -3.438
REMARK INTER:                  -3.418
REMARK INTRA:                  -0.020
REMARK UNBOUND:                -0.107
REMARK SMILES CCCCC(=O)[O-]
REMARK SMILES IDX 4 1 5 2 6 3 7 4 3 5 2 6 1 7
REMARK H PARENT
REMARK Flexibility Score: inf
ROOT
ATOM      1  C   UNL     1      35.003  14.769  -3.110  1.00  0.00     0.053 C 
ENDROOT
BRANCH   1   2
ATOM      2  C   UNL     1      35.236  14.083  -4.418  1.00  0.00     0.041 C 
ATOM      3  O   UNL     1      36.111  14.514  -5.214  1.00  0.00    -0.550 OA
ATOM      4  O   UNL     1      34.453  12.993  -4.780  1.00  0.00    -0.550 OA
ENDBRANCH   1   2
BRANCH   1   5
ATOM      5  C   UNL     1      33.987  13.991  -2.270  1.00  0.00     0.006 C 
BRANCH   5   6
ATOM      6  C   UNL     1      33.832  14.616  -0.878  1.00  0.00    -0.003 C 
ATOM      7  C   UNL     1      32.388  15.040  -0.623  1.00  0.00     0.004 C 
ENDBRANCH   5   6
ENDBRANCH   1   5
TORSDOF 3
ENDMDL
MODEL 8
REMARK VINA RESULT:    -2.770     14.410     15.198
REMARK INTER + INTRA:          -3.363
REMARK INTER:                  -3.348
REMARK INTRA:                  -0.015
REMARK UNBOUND:                -0.107
REMARK SMILES CCCCC(=O)[O-]
REMARK SMILES IDX 4 1 5 2 6 3 7 4 3 5 2 6 1 7
REMARK H PARENT
REMARK Flexibility Score: inf
ROOT
ATOM      1  C   UNL     1      34.280  15.213 -17.832  1.00  0.00     0.053 C 
ENDROOT
BRANCH   1   2
ATOM      2  C   UNL     1      34.370  14.454 -16.547  1.00  0.00     0.041 C 
ATOM      3  O   UNL     1      35.428  13.843 -16.244  1.00  0.00    -0.550 OA
ATOM      4  O   UNL     1      33.266  14.380 -15.705  1.00  0.00    -0.550 OA
ENDBRANCH   1   2
BRANCH   1   5
ATOM      5  C   UNL     1      34.601  16.693 -17.603  1.00  0.00     0.006 C 
BRANCH   5   6
ATOM      6  C   UNL     1      34.202  17.536 -18.821  1.00  0.00    -0.003 C 
ATOM      7  C   UNL     1      33.298  18.696 -18.416  1.00  0.00     0.004 C 
ENDBRANCH   5   6
ENDBRANCH   1   5
TORSDOF 3
ENDMDL
MODEL 9
REMARK VINA RESULT:    -2.691     21.186     21.841
REMARK INTER + INTRA:          -3.269
REMARK INTER:                  -3.234
REMARK INTRA:                  -0.036
REMARK UNBOUND:                -0.107
REMARK SMILES CCCCC(=O)[O-]
REMARK SMILES IDX 4 1 5 2 6 3 7 4 3 5 2 6 1 7
REMARK H PARENT
REMARK Flexibility Score: inf
ROOT
ATOM      1  C   UNL     1      34.634  14.741  -2.478  1.00  0.00     0.053 C 
ENDROOT
BRANCH   1   2
ATOM      2  C   UNL     1      33.855  14.494  -1.226  1.00  0.00     0.041 C 
ATOM      3  O   UNL     1      32.642  14.163  -1.289  1.00  0.00    -0.550 OA
ATOM      4  O   UNL     1      34.456  14.675   0.014  1.00  0.00    -0.550 OA
ENDBRANCH   1   2
BRANCH   1   5
ATOM      5  C   UNL     1      34.521  13.544  -3.425  1.00  0.00     0.006 C 
BRANCH   5   6
ATOM      6  C   UNL     1      35.263  13.811  -4.740  1.00  0.00    -0.003 C 
ATOM      7  C   UNL     1      36.204  15.006  -4.609  1.00  0.00     0.004 C 
ENDBRANCH   5   6
ENDBRANCH   1   5
TORSDOF 3
ENDMDL
