MODEL 1
REMARK VINA RESULT:    -6.086      0.000      0.000
REMARK INTER + INTRA:          -7.024
REMARK INTER:                  -6.976
REMARK INTRA:                  -0.049
REMARK UNBOUND:                -0.049
REMARK SMILES O=C([O-])c1cc(O)c(O)c(O)c1
REMARK SMILES IDX 4 1 5 2 12 3 6 4 10 5 8 6 2 7 1 8 3 9 7 10 11 12 9 14
REMARK H PARENT 7 11 11 13 9 15
REMARK Flexibility Score: inf
ROOT
ATOM      1  C   UNL     1      17.785  29.946  25.311  1.00  0.00     0.005 A 
ATOM      2  C   UNL     1      18.196  28.609  25.424  1.00  0.00     0.060 A 
ATOM      3  C   UNL     1      18.234  30.879  26.258  1.00  0.00     0.060 A 
ATOM      4  C   UNL     1      19.042  28.199  26.462  1.00  0.00     0.162 A 
ATOM      5  C   UNL     1      19.081  30.482  27.301  1.00  0.00     0.162 A 
ATOM      6  C   UNL     1      19.491  29.146  27.413  1.00  0.00     0.200 A 
ENDROOT
BRANCH   1   7
ATOM      7  C   UNL     1      16.891  30.362  24.208  1.00  0.00     0.072 C 
ATOM      8  O   UNL     1      15.906  29.650  23.878  1.00  0.00    -0.545 OA
ATOM      9  O   UNL     1      17.125  31.546  23.518  1.00  0.00    -0.545 OA
ENDBRANCH   1   7
BRANCH   4  10
ATOM     10  O   UNL     1      19.408  26.852  26.508  1.00  0.00    -0.504 OA
ATOM     11  H   UNL     1      18.766  26.086  26.367  1.00  0.00     0.293 HD
ENDBRANCH   4  10
BRANCH   5  12
ATOM     12  O   UNL     1      19.523  31.417  28.238  1.00  0.00    -0.504 OA
ATOM     13  H   UNL     1      20.509  31.568  28.413  1.00  0.00     0.293 HD
ENDBRANCH   5  12
BRANCH   6  14
ATOM     14  O   UNL     1      20.335  28.805  28.472  1.00  0.00    -0.502 OA
ATOM     15  H   UNL     1      20.783  27.905  28.571  1.00  0.00     0.293 HD
ENDBRANCH   6  14
TORSDOF 4
ENDMDL
MODEL 2
REMARK VINA RESULT:    -6.026      0.081      2.437
REMARK INTER + INTRA:          -6.956
REMARK INTER:                  -6.907
REMARK INTRA:                  -0.049
REMARK UNBOUND:                -0.049
REMARK SMILES O=C([O-])c1cc(O)c(O)c(O)c1
REMARK SMILES IDX 4 1 5 2 12 3 6 4 10 5 8 6 2 7 1 8 3 9 7 10 11 12 9 14
REMARK H PARENT 7 11 11 13 9 15
REMARK Flexibility Score: inf
ROOT
ATOM      1  C   UNL     1      17.768  29.957  25.275  1.00  0.00     0.005 A 
ATOM      2  C   UNL     1      18.245  30.877  26.222  1.00  0.00     0.060 A 
ATOM      3  C   UNL     1      18.160  28.613  25.373  1.00  0.00     0.060 A 
ATOM      4  C   UNL     1      19.098  30.471  27.256  1.00  0.00     0.162 A 
ATOM      5  C   UNL     1      19.012  28.195  26.402  1.00  0.00     0.162 A 
ATOM      6  C   UNL     1      19.487  29.114  27.348  1.00  0.00     0.200 A 
ENDROOT
BRANCH   1   7
ATOM      7  C   UNL     1      16.867  30.403  24.188  1.00  0.00     0.072 C 
ATOM      8  O   UNL     1      15.858  29.720  23.871  1.00  0.00    -0.545 OA
ATOM      9  O   UNL     1      17.123  31.585  23.501  1.00  0.00    -0.545 OA
ENDBRANCH   1   7
BRANCH   4  10
ATOM     10  O   UNL     1      19.530  31.443  28.161  1.00  0.00    -0.504 OA
ATOM     11  H   UNL     1      19.067  32.329  28.304  1.00  0.00     0.293 HD
ENDBRANCH   4  10
BRANCH   5  12
ATOM     12  O   UNL     1      19.396  26.856  26.492  1.00  0.00    -0.504 OA
ATOM     13  H   UNL     1      19.015  26.152  25.872  1.00  0.00     0.293 HD
ENDBRANCH   5  12
BRANCH   6  14
ATOM     14  O   UNL     1      20.335  28.643  28.353  1.00  0.00    -0.502 OA
ATOM     15  H   UNL     1      21.010  27.902  28.223  1.00  0.00     0.293 HD
ENDBRANCH   6  14
TORSDOF 4
ENDMDL
MODEL 3
REMARK VINA RESULT:    -5.129      9.413     10.742
REMARK INTER + INTRA:          -5.928
REMARK INTER:                  -5.875
REMARK INTRA:                  -0.053
REMARK UNBOUND:                -0.049
REMARK SMILES O=C([O-])c1cc(O)c(O)c(O)c1
REMARK SMILES IDX 4 1 5 2 12 3 6 4 10 5 8 6 2 7 1 8 3 9 7 10 11 12 9 14
REMARK H PARENT 7 11 11 13 9 15
REMARK Flexibility Score: inf
ROOT
ATOM      1  C   UNL     1       8.242  33.323  23.088  1.00  0.00     0.005 A 
ATOM      2  C   UNL     1       7.509  32.411  23.863  1.00  0.00     0.060 A 
ATOM      3  C   UNL     1       9.427  33.863  23.610  1.00  0.00     0.060 A 
ATOM      4  C   UNL     1       7.945  32.037  25.140  1.00  0.00     0.162 A 
ATOM      5  C   UNL     1       9.874  33.497  24.886  1.00  0.00     0.162 A 
ATOM      6  C   UNL     1       9.142  32.586  25.659  1.00  0.00     0.200 A 
ENDROOT
BRANCH   1   7
ATOM      7  C   UNL     1       7.767  33.707  21.740  1.00  0.00     0.072 C 
ATOM      8  O   UNL     1       8.509  34.363  20.962  1.00  0.00    -0.545 OA
ATOM      9  O   UNL     1       6.492  33.350  21.313  1.00  0.00    -0.545 OA
ENDBRANCH   1   7
BRANCH   4  10
ATOM     10  O   UNL     1       7.163  31.124  25.852  1.00  0.00    -0.504 OA
ATOM     11  H   UNL     1       7.526  30.492  26.551  1.00  0.00     0.293 HD
ENDBRANCH   4  10
BRANCH   5  12
ATOM     12  O   UNL     1      11.053  34.039  25.396  1.00  0.00    -0.504 OA
ATOM     13  H   UNL     1      11.495  34.846  24.972  1.00  0.00     0.293 HD
ENDBRANCH   5  12
BRANCH   6  14
ATOM     14  O   UNL     1       9.632  32.256  26.925  1.00  0.00    -0.502 OA
ATOM     15  H   UNL     1      10.540  31.847  27.091  1.00  0.00     0.293 HD
ENDBRANCH   6  14
TORSDOF 4
ENDMDL
MODEL 4
REMARK VINA RESULT:    -5.049      9.356     10.793
REMARK INTER + INTRA:          -5.836
REMARK INTER:                  -5.783
REMARK INTRA:                  -0.053
REMARK UNBOUND:                -0.049
REMARK SMILES O=C([O-])c1cc(O)c(O)c(O)c1
REMARK SMILES IDX 4 1 5 2 12 3 6 4 10 5 8 6 2 7 1 8 3 9 7 10 11 12 9 14
REMARK H PARENT 7 11 11 13 9 15
REMARK Flexibility Score: inf
ROOT
ATOM      1  C   UNL     1       8.378  33.347  23.052  1.00  0.00     0.005 A 
ATOM      2  C   UNL     1       9.535  33.905  23.618  1.00  0.00     0.060 A 
ATOM      3  C   UNL     1       7.658  32.387  23.780  1.00  0.00     0.060 A 
ATOM      4  C   UNL     1       9.973  33.520  24.891  1.00  0.00     0.162 A 
ATOM      5  C   UNL     1       8.085  31.993  25.054  1.00  0.00     0.162 A 
ATOM      6  C   UNL     1       9.240  32.552  25.619  1.00  0.00     0.200 A 
ENDROOT
BRANCH   1   7
ATOM      7  C   UNL     1       7.929  33.765  21.705  1.00  0.00     0.072 C 
ATOM      8  O   UNL     1       8.672  34.469  20.972  1.00  0.00    -0.545 OA
ATOM      9  O   UNL     1       6.677  33.388  21.231  1.00  0.00    -0.545 OA
ENDBRANCH   1   7
BRANCH   4  10
ATOM     10  O   UNL     1      11.132  34.119  25.388  1.00  0.00    -0.504 OA
ATOM     11  H   UNL     1      11.171  34.650  26.246  1.00  0.00     0.293 HD
ENDBRANCH   4  10
BRANCH   5  12
ATOM     12  O   UNL     1       7.363  31.040  25.772  1.00  0.00    -0.504 OA
ATOM     13  H   UNL     1       6.430  31.230  26.117  1.00  0.00     0.293 HD
ENDBRANCH   5  12
BRANCH   6  14
ATOM     14  O   UNL     1       9.622  32.123  26.893  1.00  0.00    -0.502 OA
ATOM     15  H   UNL     1      10.582  32.015  27.189  1.00  0.00     0.293 HD
ENDBRANCH   6  14
TORSDOF 4
ENDMDL
MODEL 5
REMARK VINA RESULT:    -4.771      8.244      9.844
REMARK INTER + INTRA:          -5.517
REMARK INTER:                  -5.464
REMARK INTRA:                  -0.053
REMARK UNBOUND:                -0.049
REMARK SMILES O=C([O-])c1cc(O)c(O)c(O)c1
REMARK SMILES IDX 4 1 5 2 12 3 6 4 10 5 8 6 2 7 1 8 3 9 7 10 11 12 9 14
REMARK H PARENT 7 11 11 13 9 15
REMARK Flexibility Score: inf
ROOT
ATOM      1  C   UNL     1      10.760  33.174  22.904  1.00  0.00     0.005 A 
ATOM      2  C   UNL     1      11.191  32.856  24.202  1.00  0.00     0.060 A 
ATOM      3  C   UNL     1       9.384  33.267  22.646  1.00  0.00     0.060 A 
ATOM      4  C   UNL     1      10.270  32.635  25.233  1.00  0.00     0.162 A 
ATOM      5  C   UNL     1       8.453  33.048  23.669  1.00  0.00     0.162 A 
ATOM      6  C   UNL     1       8.884  32.732  24.965  1.00  0.00     0.200 A 
ENDROOT
BRANCH   1   7
ATOM      7  C   UNL     1      11.747  33.404  21.825  1.00  0.00     0.072 C 
ATOM      8  O   UNL     1      11.371  33.538  20.631  1.00  0.00    -0.545 OA
ATOM      9  O   UNL     1      13.105  33.476  22.116  1.00  0.00    -0.545 OA
ENDBRANCH   1   7
BRANCH   4  10
ATOM     10  O   UNL     1      10.774  32.324  26.498  1.00  0.00    -0.504 OA
ATOM     11  H   UNL     1      11.733  32.468  26.777  1.00  0.00     0.293 HD
ENDBRANCH   4  10
BRANCH   5  12
ATOM     12  O   UNL     1       7.087  33.144  23.404  1.00  0.00    -0.504 OA
ATOM     13  H   UNL     1       6.446  33.570  24.064  1.00  0.00     0.293 HD
ENDBRANCH   5  12
BRANCH   6  14
ATOM     14  O   UNL     1       7.912  32.523  25.947  1.00  0.00    -0.502 OA
ATOM     15  H   UNL     1       7.280  33.237  26.279  1.00  0.00     0.293 HD
ENDBRANCH   6  14
TORSDOF 4
ENDMDL
MODEL 6
REMARK VINA RESULT:    -4.759      8.240      9.793
REMARK INTER + INTRA:          -5.504
REMARK INTER:                  -5.451
REMARK INTRA:                  -0.053
REMARK UNBOUND:                -0.049
REMARK SMILES O=C([O-])c1cc(O)c(O)c(O)c1
REMARK SMILES IDX 4 1 5 2 12 3 6 4 10 5 8 6 2 7 1 8 3 9 7 10 11 12 9 14
REMARK H PARENT 7 11 11 13 9 15
REMARK Flexibility Score: inf
ROOT
ATOM      1  C   UNL     1      10.758  33.181  22.893  1.00  0.00     0.005 A 
ATOM      2  C   UNL     1       9.375  33.262  22.668  1.00  0.00     0.060 A 
ATOM      3  C   UNL     1      11.221  32.860  24.179  1.00  0.00     0.060 A 
ATOM      4  C   UNL     1       8.460  33.027  23.702  1.00  0.00     0.162 A 
ATOM      5  C   UNL     1      10.317  32.623  25.222  1.00  0.00     0.162 A 
ATOM      6  C   UNL     1       8.936  32.704  24.995  1.00  0.00     0.200 A 
ENDROOT
BRANCH   1   7
ATOM      7  C   UNL     1      11.711  33.432  21.789  1.00  0.00     0.072 C 
ATOM      8  O   UNL     1      11.296  33.605  20.612  1.00  0.00    -0.545 OA
ATOM      9  O   UNL     1      13.078  33.480  22.035  1.00  0.00    -0.545 OA
ENDBRANCH   1   7
BRANCH   4  10
ATOM     10  O   UNL     1       7.100  33.126  23.401  1.00  0.00    -0.504 OA
ATOM     11  H   UNL     1       6.564  32.395  22.956  1.00  0.00     0.293 HD
ENDBRANCH   4  10
BRANCH   5  12
ATOM     12  O   UNL     1      10.786  32.304  26.496  1.00  0.00    -0.504 OA
ATOM     13  H   UNL     1      11.673  32.654  26.838  1.00  0.00     0.293 HD
ENDBRANCH   5  12
BRANCH   6  14
ATOM     14  O   UNL     1       8.078  32.459  26.071  1.00  0.00    -0.502 OA
ATOM     15  H   UNL     1       7.276  33.029  26.296  1.00  0.00     0.293 HD
ENDBRANCH   6  14
TORSDOF 4
ENDMDL
MODEL 7
REMARK VINA RESULT:    -4.713      4.003      5.983
REMARK INTER + INTRA:          -5.451
REMARK INTER:                  -5.398
REMARK INTRA:                  -0.053
REMARK UNBOUND:                -0.049
REMARK SMILES O=C([O-])c1cc(O)c(O)c(O)c1
REMARK SMILES IDX 4 1 5 2 12 3 6 4 10 5 8 6 2 7 1 8 3 9 7 10 11 12 9 14
REMARK H PARENT 7 11 11 13 9 15
REMARK Flexibility Score: inf
ROOT
ATOM      1  C   UNL     1      14.211  29.752  21.637  1.00  0.00     0.005 A 
ATOM      2  C   UNL     1      14.646  31.014  21.201  1.00  0.00     0.060 A 
ATOM      3  C   UNL     1      14.723  29.231  22.835  1.00  0.00     0.060 A 
ATOM      4  C   UNL     1      15.575  31.752  21.944  1.00  0.00     0.162 A 
ATOM      5  C   UNL     1      15.653  29.959  23.587  1.00  0.00     0.162 A 
ATOM      6  C   UNL     1      16.086  31.220  23.152  1.00  0.00     0.200 A 
ENDROOT
BRANCH   1   7
ATOM      7  C   UNL     1      13.228  28.985  20.840  1.00  0.00     0.072 C 
ATOM      8  O   UNL     1      12.658  29.510  19.847  1.00  0.00    -0.545 OA
ATOM      9  O   UNL     1      12.918  27.672  21.177  1.00  0.00    -0.545 OA
ENDBRANCH   1   7
BRANCH   4  10
ATOM     10  O   UNL     1      15.960  33.000  21.447  1.00  0.00    -0.504 OA
ATOM     11  H   UNL     1      15.735  33.879  21.890  1.00  0.00     0.293 HD
ENDBRANCH   4  10
BRANCH   5  12
ATOM     12  O   UNL     1      16.156  29.434  24.777  1.00  0.00    -0.504 OA
ATOM     13  H   UNL     1      17.110  29.099  24.849  1.00  0.00     0.293 HD
ENDBRANCH   5  12
BRANCH   6  14
ATOM     14  O   UNL     1      17.016  31.903  23.939  1.00  0.00    -0.502 OA
ATOM     15  H   UNL     1      17.062  32.909  24.016  1.00  0.00     0.293 HD
ENDBRANCH   6  14
TORSDOF 4
ENDMDL
MODEL 8
REMARK VINA RESULT:    -4.541      4.288      5.992
REMARK INTER + INTRA:          -5.254
REMARK INTER:                  -5.203
REMARK INTRA:                  -0.051
REMARK UNBOUND:                -0.049
REMARK SMILES O=C([O-])c1cc(O)c(O)c(O)c1
REMARK SMILES IDX 4 1 5 2 12 3 6 4 10 5 8 6 2 7 1 8 3 9 7 10 11 12 9 14
REMARK H PARENT 7 11 11 13 9 15
REMARK Flexibility Score: inf
ROOT
ATOM      1  C   UNL     1      14.107  29.836  21.287  1.00  0.00     0.005 A 
ATOM      2  C   UNL     1      14.551  29.302  22.507  1.00  0.00     0.060 A 
ATOM      3  C   UNL     1      14.588  31.089  20.876  1.00  0.00     0.060 A 
ATOM      4  C   UNL     1      15.461  30.000  23.311  1.00  0.00     0.162 A 
ATOM      5  C   UNL     1      15.498  31.797  21.671  1.00  0.00     0.162 A 
ATOM      6  C   UNL     1      15.942  31.262  22.889  1.00  0.00     0.200 A 
ENDROOT
BRANCH   1   7
ATOM      7  C   UNL     1      13.145  29.085  20.449  1.00  0.00     0.072 C 
ATOM      8  O   UNL     1      12.314  28.299  20.976  1.00  0.00    -0.545 OA
ATOM      9  O   UNL     1      13.146  29.237  19.067  1.00  0.00    -0.545 OA
ENDBRANCH   1   7
BRANCH   4  10
ATOM     10  O   UNL     1      15.857  29.405  24.511  1.00  0.00    -0.504 OA
ATOM     11  H   UNL     1      15.707  28.432  24.737  1.00  0.00     0.293 HD
ENDBRANCH   4  10
BRANCH   5  12
ATOM     12  O   UNL     1      15.971  33.041  21.255  1.00  0.00    -0.504 OA
ATOM     13  H   UNL     1      16.892  33.374  21.516  1.00  0.00     0.293 HD
ENDBRANCH   5  12
BRANCH   6  14
ATOM     14  O   UNL     1      16.849  32.010  23.643  1.00  0.00    -0.502 OA
ATOM     15  H   UNL     1      17.291  32.859  23.318  1.00  0.00     0.293 HD
ENDBRANCH   6  14
TORSDOF 4
ENDMDL
MODEL 9
REMARK VINA RESULT:    -4.456      9.988     11.150
REMARK INTER + INTRA:          -5.156
REMARK INTER:                  -5.103
REMARK INTRA:                  -0.053
REMARK UNBOUND:                -0.049
REMARK SMILES O=C([O-])c1cc(O)c(O)c(O)c1
REMARK SMILES IDX 4 1 5 2 12 3 6 4 10 5 8 6 2 7 1 8 3 9 7 10 11 12 9 14
REMARK H PARENT 7 11 11 13 9 15
REMARK Flexibility Score: inf
ROOT
ATOM      1  C   UNL     1       7.508  31.336  24.065  1.00  0.00     0.005 A 
ATOM      2  C   UNL     1       7.781  32.314  23.095  1.00  0.00     0.060 A 
ATOM      3  C   UNL     1       8.085  31.458  25.338  1.00  0.00     0.060 A 
ATOM      4  C   UNL     1       8.615  33.402  23.383  1.00  0.00     0.162 A 
ATOM      5  C   UNL     1       8.921  32.542  25.639  1.00  0.00     0.162 A 
ATOM      6  C   UNL     1       9.192  33.518  24.670  1.00  0.00     0.200 A 
ENDROOT
BRANCH   1   7
ATOM      7  C   UNL     1       6.625  30.192  23.744  1.00  0.00     0.072 C 
ATOM      8  O   UNL     1       6.252  29.397  24.647  1.00  0.00    -0.545 OA
ATOM      9  O   UNL     1       6.195  29.978  22.439  1.00  0.00    -0.545 OA
ENDBRANCH   1   7
BRANCH   4  10
ATOM     10  O   UNL     1       8.839  34.335  22.368  1.00  0.00    -0.504 OA
ATOM     11  H   UNL     1       8.293  34.392  21.522  1.00  0.00     0.293 HD
ENDBRANCH   4  10
BRANCH   5  12
ATOM     12  O   UNL     1       9.489  32.656  26.907  1.00  0.00    -0.504 OA
ATOM     13  H   UNL     1      10.014  33.478  27.182  1.00  0.00     0.293 HD
ENDBRANCH   5  12
BRANCH   6  14
ATOM     14  O   UNL     1      10.032  34.577  25.023  1.00  0.00    -0.502 OA
ATOM     15  H   UNL     1       9.865  35.541  24.769  1.00  0.00     0.293 HD
ENDBRANCH   6  14
TORSDOF 4
ENDMDL
