MODEL 1
REMARK VINA RESULT:    -2.504      0.000      0.000
REMARK INTER + INTRA:          -3.704
REMARK INTER:                  -3.382
REMARK INTRA:                  -0.322
REMARK UNBOUND:                -0.322
REMARK SMILES CCCCCCCC(=O)[O-]
REMARK SMILES IDX 5 1 6 2 7 3 8 4 9 5 10 6 4 7 3 8 2 9 1 10
REMARK H PARENT
REMARK Flexibility Score: inf
ROOT
ATOM      1  C   UNL     1      73.885  88.430  91.451  1.00  0.00     0.000 C 
ENDROOT
BRANCH   1   2
ATOM      2  C   UNL     1      73.916  89.078  92.848  1.00  0.00     0.006 C 
BRANCH   2   3
ATOM      3  C   UNL     1      74.402  90.534  92.850  1.00  0.00     0.053 C 
BRANCH   3   4
ATOM      4  C   UNL     1      75.885  90.626  92.655  1.00  0.00     0.041 C 
ATOM      5  O   UNL     1      76.388  91.613  92.056  1.00  0.00    -0.550 OA
ATOM      6  O   UNL     1      76.710  89.612  93.120  1.00  0.00    -0.550 OA
ENDBRANCH   3   4
ENDBRANCH   2   3
ENDBRANCH   1   2
BRANCH   1   7
ATOM      7  C   UNL     1      72.765  87.378  91.284  1.00  0.00     0.000 C 
BRANCH   7   8
ATOM      8  C   UNL     1      72.189  86.922  92.635  1.00  0.00    -0.000 C 
BRANCH   8   9
ATOM      9  C   UNL     1      72.639  85.506  93.023  1.00  0.00    -0.003 C 
ATOM     10  C   UNL     1      73.307  84.760  91.868  1.00  0.00     0.004 C 
ENDBRANCH   8   9
ENDBRANCH   7   8
ENDBRANCH   1   7
TORSDOF 6
ENDMDL
MODEL 2
REMARK VINA RESULT:    -2.441     17.449     18.313
REMARK INTER + INTRA:          -3.619
REMARK INTER:                  -3.393
REMARK INTRA:                  -0.226
REMARK UNBOUND:                -0.322
REMARK SMILES CCCCCCCC(=O)[O-]
REMARK SMILES IDX 5 1 6 2 7 3 8 4 9 5 10 6 4 7 3 8 2 9 1 10
REMARK H PARENT
REMARK Flexibility Score: inf
ROOT
ATOM      1  C   UNL     1      74.846  88.470  73.884  1.00  0.00     0.000 C 
ENDROOT
BRANCH   1   2
ATOM      2  C   UNL     1      74.131  89.444  72.930  1.00  0.00     0.006 C 
BRANCH   2   3
ATOM      3  C   UNL     1      74.686  90.875  72.968  1.00  0.00     0.053 C 
BRANCH   3   4
ATOM      4  C   UNL     1      73.999  91.712  74.004  1.00  0.00     0.041 C 
ATOM      5  O   UNL     1      74.597  92.031  75.065  1.00  0.00    -0.550 OA
ATOM      6  O   UNL     1      72.688  92.125  73.804  1.00  0.00    -0.550 OA
ENDBRANCH   3   4
ENDBRANCH   2   3
ENDBRANCH   1   2
BRANCH   1   7
ATOM      7  C   UNL     1      75.044  87.058  73.289  1.00  0.00     0.000 C 
BRANCH   7   8
ATOM      8  C   UNL     1      74.557  85.953  74.240  1.00  0.00    -0.000 C 
BRANCH   8   9
ATOM      9  C   UNL     1      74.765  86.309  75.720  1.00  0.00    -0.003 C 
ATOM     10  C   UNL     1      73.764  85.616  76.643  1.00  0.00     0.004 C 
ENDBRANCH   8   9
ENDBRANCH   7   8
ENDBRANCH   1   7
TORSDOF 6
ENDMDL
MODEL 3
REMARK VINA RESULT:    -2.408      2.694      5.003
REMARK INTER + INTRA:          -3.574
REMARK INTER:                  -3.325
REMARK INTRA:                  -0.249
REMARK UNBOUND:                -0.322
REMARK SMILES CCCCCCCC(=O)[O-]
REMARK SMILES IDX 5 1 6 2 7 3 8 4 9 5 10 6 4 7 3 8 2 9 1 10
REMARK H PARENT
REMARK Flexibility Score: inf
ROOT
ATOM      1  C   UNL     1      74.162  88.387  92.330  1.00  0.00     0.000 C 
ENDROOT
BRANCH   1   2
ATOM      2  C   UNL     1      73.300  87.943  91.134  1.00  0.00     0.006 C 
BRANCH   2   3
ATOM      3  C   UNL     1      73.995  86.942  90.200  1.00  0.00     0.053 C 
BRANCH   3   4
ATOM      4  C   UNL     1      74.718  87.631  89.084  1.00  0.00     0.041 C 
ATOM      5  O   UNL     1      75.866  88.113  89.271  1.00  0.00    -0.550 OA
ATOM      6  O   UNL     1      74.116  87.755  87.839  1.00  0.00    -0.550 OA
ENDBRANCH   3   4
ENDBRANCH   2   3
ENDBRANCH   1   2
BRANCH   1   7
ATOM      7  C   UNL     1      74.155  89.914  92.563  1.00  0.00     0.000 C 
BRANCH   7   8
ATOM      8  C   UNL     1      75.492  90.423  93.125  1.00  0.00    -0.000 C 
BRANCH   8   9
ATOM      9  C   UNL     1      76.559  90.613  92.036  1.00  0.00    -0.003 C 
ATOM     10  C   UNL     1      77.129  92.031  92.007  1.00  0.00     0.004 C 
ENDBRANCH   8   9
ENDBRANCH   7   8
ENDBRANCH   1   7
TORSDOF 6
ENDMDL
MODEL 4
REMARK VINA RESULT:    -2.397      1.764      2.926
REMARK INTER + INTRA:          -3.559
REMARK INTER:                  -3.126
REMARK INTRA:                  -0.433
REMARK UNBOUND:                -0.322
REMARK SMILES CCCCCCCC(=O)[O-]
REMARK SMILES IDX 5 1 6 2 7 3 8 4 9 5 10 6 4 7 3 8 2 9 1 10
REMARK H PARENT
REMARK Flexibility Score: inf
ROOT
ATOM      1  C   UNL     1      73.561  88.361  91.648  1.00  0.00     0.000 C 
ENDROOT
BRANCH   1   2
ATOM      2  C   UNL     1      73.995  89.011  92.975  1.00  0.00     0.006 C 
BRANCH   2   3
ATOM      3  C   UNL     1      74.445  90.472  92.837  1.00  0.00     0.053 C 
BRANCH   3   4
ATOM      4  C   UNL     1      75.927  90.583  92.650  1.00  0.00     0.041 C 
ATOM      5  O   UNL     1      76.422  91.576  92.054  1.00  0.00    -0.550 OA
ATOM      6  O   UNL     1      76.763  89.578  93.121  1.00  0.00    -0.550 OA
ENDBRANCH   3   4
ENDBRANCH   2   3
ENDBRANCH   1   2
BRANCH   1   7
ATOM      7  C   UNL     1      74.629  87.423  91.044  1.00  0.00     0.000 C 
BRANCH   7   8
ATOM      8  C   UNL     1      74.649  87.477  89.507  1.00  0.00    -0.000 C 
BRANCH   8   9
ATOM      9  C   UNL     1      76.067  87.635  88.938  1.00  0.00    -0.003 C 
ATOM     10  C   UNL     1      76.903  88.657  89.708  1.00  0.00     0.004 C 
ENDBRANCH   8   9
ENDBRANCH   7   8
ENDBRANCH   1   7
TORSDOF 6
ENDMDL
MODEL 5
REMARK VINA RESULT:    -2.337     16.078     17.087
REMARK INTER + INTRA:          -3.478
REMARK INTER:                  -3.003
REMARK INTRA:                  -0.475
REMARK UNBOUND:                -0.322
REMARK SMILES CCCCCCCC(=O)[O-]
REMARK SMILES IDX 5 1 6 2 7 3 8 4 9 5 10 6 4 7 3 8 2 9 1 10
REMARK H PARENT
REMARK Flexibility Score: inf
ROOT
ATOM      1  C   UNL     1      76.191  90.276  75.488  1.00  0.00     0.000 C 
ENDROOT
BRANCH   1   2
ATOM      2  C   UNL     1      76.429  91.643  76.157  1.00  0.00     0.006 C 
BRANCH   2   3
ATOM      3  C   UNL     1      75.259  92.123  77.027  1.00  0.00     0.053 C 
BRANCH   3   4
ATOM      4  C   UNL     1      75.504  91.866  78.483  1.00  0.00     0.041 C 
ATOM      5  O   UNL     1      74.541  91.643  79.262  1.00  0.00    -0.550 OA
ATOM      6  O   UNL     1      76.800  91.890  78.983  1.00  0.00    -0.550 OA
ENDBRANCH   3   4
ENDBRANCH   2   3
ENDBRANCH   1   2
BRANCH   1   7
ATOM      7  C   UNL     1      76.485  90.272  73.972  1.00  0.00     0.000 C 
BRANCH   7   8
ATOM      8  C   UNL     1      75.587  91.256  73.204  1.00  0.00    -0.000 C 
BRANCH   8   9
ATOM      9  C   UNL     1      74.095  90.908  73.315  1.00  0.00    -0.003 C 
ATOM     10  C   UNL     1      73.225  92.124  73.629  1.00  0.00     0.004 C 
ENDBRANCH   8   9
ENDBRANCH   7   8
ENDBRANCH   1   7
TORSDOF 6
ENDMDL
MODEL 6
REMARK VINA RESULT:    -2.330      2.450      4.619
REMARK INTER + INTRA:          -3.469
REMARK INTER:                  -2.924
REMARK INTRA:                  -0.544
REMARK UNBOUND:                -0.322
REMARK SMILES CCCCCCCC(=O)[O-]
REMARK SMILES IDX 5 1 6 2 7 3 8 4 9 5 10 6 4 7 3 8 2 9 1 10
REMARK H PARENT
REMARK Flexibility Score: inf
ROOT
ATOM      1  C   UNL     1      74.210  90.050  92.788  1.00  0.00     0.000 C 
ENDROOT
BRANCH   1   2
ATOM      2  C   UNL     1      73.663  88.627  93.008  1.00  0.00     0.006 C 
BRANCH   2   3
ATOM      3  C   UNL     1      73.155  87.949  91.727  1.00  0.00     0.053 C 
BRANCH   3   4
ATOM      4  C   UNL     1      74.283  87.491  90.854  1.00  0.00     0.041 C 
ATOM      5  O   UNL     1      75.251  86.854  91.346  1.00  0.00    -0.550 OA
ATOM      6  O   UNL     1      74.273  87.784  89.497  1.00  0.00    -0.550 OA
ENDBRANCH   3   4
ENDBRANCH   2   3
ENDBRANCH   1   2
BRANCH   1   7
ATOM      7  C   UNL     1      75.715  90.188  93.107  1.00  0.00     0.000 C 
BRANCH   7   8
ATOM      8  C   UNL     1      76.533  90.614  91.877  1.00  0.00    -0.000 C 
BRANCH   8   9
ATOM      9  C   UNL     1      77.551  89.548  91.444  1.00  0.00    -0.003 C 
ATOM     10  C   UNL     1      77.451  89.202  89.959  1.00  0.00     0.004 C 
ENDBRANCH   8   9
ENDBRANCH   7   8
ENDBRANCH   1   7
TORSDOF 6
ENDMDL
MODEL 7
REMARK VINA RESULT:    -2.272     15.018     16.012
REMARK INTER + INTRA:          -3.390
REMARK INTER:                  -3.187
REMARK INTRA:                  -0.203
REMARK UNBOUND:                -0.322
REMARK SMILES CCCCCCCC(=O)[O-]
REMARK SMILES IDX 5 1 6 2 7 3 8 4 9 5 10 6 4 7 3 8 2 9 1 10
REMARK H PARENT
REMARK Flexibility Score: inf
ROOT
ATOM      1  C   UNL     1      75.979  90.899  77.053  1.00  0.00     0.000 C 
ENDROOT
BRANCH   1   2
ATOM      2  C   UNL     1      75.243  92.071  77.730  1.00  0.00     0.006 C 
BRANCH   2   3
ATOM      3  C   UNL     1      75.378  92.092  79.259  1.00  0.00     0.053 C 
BRANCH   3   4
ATOM      4  C   UNL     1      74.411  91.155  79.916  1.00  0.00     0.041 C 
ATOM      5  O   UNL     1      73.266  91.555  80.256  1.00  0.00    -0.550 OA
ATOM      6  O   UNL     1      74.782  89.841  80.170  1.00  0.00    -0.550 OA
ENDBRANCH   3   4
ENDBRANCH   2   3
ENDBRANCH   1   2
BRANCH   1   7
ATOM      7  C   UNL     1      76.081  91.040  75.519  1.00  0.00     0.000 C 
BRANCH   7   8
ATOM      8  C   UNL     1      74.831  91.697  74.910  1.00  0.00    -0.000 C 
BRANCH   8   9
ATOM      9  C   UNL     1      74.750  91.517  73.386  1.00  0.00    -0.003 C 
ATOM     10  C   UNL     1      73.683  90.508  72.965  1.00  0.00     0.004 C 
ENDBRANCH   8   9
ENDBRANCH   7   8
ENDBRANCH   1   7
TORSDOF 6
ENDMDL
MODEL 8
REMARK VINA RESULT:    -2.247     17.440     18.580
REMARK INTER + INTRA:          -3.357
REMARK INTER:                  -3.090
REMARK INTRA:                  -0.267
REMARK UNBOUND:                -0.322
REMARK SMILES CCCCCCCC(=O)[O-]
REMARK SMILES IDX 5 1 6 2 7 3 8 4 9 5 10 6 4 7 3 8 2 9 1 10
REMARK H PARENT
REMARK Flexibility Score: inf
ROOT
ATOM      1  C   UNL     1      74.463  87.535  73.166  1.00  0.00     0.000 C 
ENDROOT
BRANCH   1   2
ATOM      2  C   UNL     1      74.867  86.839  74.479  1.00  0.00     0.006 C 
BRANCH   2   3
ATOM      3  C   UNL     1      74.726  85.310  74.443  1.00  0.00     0.053 C 
BRANCH   3   4
ATOM      4  C   UNL     1      74.177  84.772  75.729  1.00  0.00     0.041 C 
ATOM      5  O   UNL     1      74.324  83.557  76.025  1.00  0.00    -0.550 OA
ATOM      6  O   UNL     1      73.486  85.611  76.594  1.00  0.00    -0.550 OA
ENDBRANCH   3   4
ENDBRANCH   2   3
ENDBRANCH   1   2
BRANCH   1   7
ATOM      7  C   UNL     1      75.061  88.951  73.010  1.00  0.00     0.000 C 
BRANCH   7   8
ATOM      8  C   UNL     1      73.980  90.044  73.031  1.00  0.00    -0.000 C 
BRANCH   8   9
ATOM      9  C   UNL     1      74.321  91.197  73.986  1.00  0.00    -0.003 C 
ATOM     10  C   UNL     1      75.282  90.780  75.099  1.00  0.00     0.004 C 
ENDBRANCH   8   9
ENDBRANCH   7   8
ENDBRANCH   1   7
TORSDOF 6
ENDMDL
MODEL 9
REMARK VINA RESULT:    -2.212     16.835     17.827
REMARK INTER + INTRA:          -3.309
REMARK INTER:                  -2.848
REMARK INTRA:                  -0.461
REMARK UNBOUND:                -0.322
REMARK SMILES CCCCCCCC(=O)[O-]
REMARK SMILES IDX 5 1 6 2 7 3 8 4 9 5 10 6 4 7 3 8 2 9 1 10
REMARK H PARENT
REMARK Flexibility Score: inf
ROOT
ATOM      1  C   UNL     1      75.275  88.437  75.022  1.00  0.00     0.000 C 
ENDROOT
BRANCH   1   2
ATOM      2  C   UNL     1      76.495  89.301  75.395  1.00  0.00     0.006 C 
BRANCH   2   3
ATOM      3  C   UNL     1      76.377  89.992  76.760  1.00  0.00     0.053 C 
BRANCH   3   4
ATOM      4  C   UNL     1      76.103  91.458  76.621  1.00  0.00     0.041 C 
ATOM      5  O   UNL     1      76.655  92.125  75.706  1.00  0.00    -0.550 OA
ATOM      6  O   UNL     1      75.250  92.093  77.513  1.00  0.00    -0.550 OA
ENDBRANCH   3   4
ENDBRANCH   2   3
ENDBRANCH   1   2
BRANCH   1   7
ATOM      7  C   UNL     1      74.514  88.949  73.779  1.00  0.00     0.000 C 
BRANCH   7   8
ATOM      8  C   UNL     1      75.242  90.116  73.092  1.00  0.00    -0.000 C 
BRANCH   8   9
ATOM      9  C   UNL     1      74.348  91.354  72.923  1.00  0.00    -0.003 C 
ATOM     10  C   UNL     1      72.860  91.008  72.878  1.00  0.00     0.004 C 
ENDBRANCH   8   9
ENDBRANCH   7   8
ENDBRANCH   1   7
TORSDOF 6
ENDMDL
