MODEL 1
REMARK VINA RESULT:    -4.397      0.000      0.000
REMARK INTER + INTRA:          -6.030
REMARK INTER:                  -5.682
REMARK INTRA:                  -0.348
REMARK UNBOUND:                -0.348
REMARK SMILES CCCCCCC(=O)[O-]
REMARK SMILES IDX 5 1 6 2 7 3 8 4 9 5 4 6 3 7 2 8 1 9
REMARK H PARENT
REMARK Flexibility Score: inf
ROOT
ATOM      1  C   UNL     1      25.993  11.243  34.390  1.00  0.00     0.006 C 
ENDROOT
BRANCH   1   2
ATOM      2  C   UNL     1      25.076  11.081  35.610  1.00  0.00     0.053 C 
BRANCH   2   3
ATOM      3  C   UNL     1      24.336  12.346  35.922  1.00  0.00     0.041 C 
ATOM      4  O   UNL     1      24.769  13.131  36.806  1.00  0.00    -0.550 OA
ATOM      5  O   UNL     1      23.152  12.642  35.258  1.00  0.00    -0.550 OA
ENDBRANCH   2   3
ENDBRANCH   1   2
BRANCH   1   6
ATOM      6  C   UNL     1      27.479  11.280  34.780  1.00  0.00     0.000 C 
BRANCH   6   7
ATOM      7  C   UNL     1      28.218  12.391  34.019  1.00  0.00    -0.000 C 
BRANCH   7   8
ATOM      8  C   UNL     1      27.386  13.676  33.896  1.00  0.00    -0.003 C 
ATOM      9  C   UNL     1      27.454  14.548  35.151  1.00  0.00     0.004 C 
ENDBRANCH   7   8
ENDBRANCH   6   7
ENDBRANCH   1   6
TORSDOF 5
ENDMDL
MODEL 2
REMARK VINA RESULT:    -4.278      3.514      4.662
REMARK INTER + INTRA:          -5.876
REMARK INTER:                  -5.599
REMARK INTRA:                  -0.277
REMARK UNBOUND:                -0.348
REMARK SMILES CCCCCCC(=O)[O-]
REMARK SMILES IDX 5 1 6 2 7 3 8 4 9 5 4 6 3 7 2 8 1 9
REMARK H PARENT
REMARK Flexibility Score: inf
ROOT
ATOM      1  C   UNL     1      28.415  11.987  33.852  1.00  0.00     0.006 C 
ENDROOT
BRANCH   1   2
ATOM      2  C   UNL     1      27.667  12.596  32.657  1.00  0.00     0.053 C 
BRANCH   2   3
ATOM      3  C   UNL     1      28.202  12.092  31.351  1.00  0.00     0.041 C 
ATOM      4  O   UNL     1      27.839  10.969  30.910  1.00  0.00    -0.550 OA
ATOM      5  O   UNL     1      29.124  12.847  30.639  1.00  0.00    -0.550 OA
ENDBRANCH   2   3
ENDBRANCH   1   2
BRANCH   1   6
ATOM      6  C   UNL     1      27.475  11.229  34.801  1.00  0.00     0.000 C 
BRANCH   6   7
ATOM      7  C   UNL     1      26.019  11.327  34.325  1.00  0.00    -0.000 C 
BRANCH   7   8
ATOM      8  C   UNL     1      25.022  11.420  35.489  1.00  0.00    -0.003 C 
ATOM      9  C   UNL     1      24.962  12.818  36.107  1.00  0.00     0.004 C 
ENDBRANCH   7   8
ENDBRANCH   6   7
ENDBRANCH   1   6
TORSDOF 5
ENDMDL
MODEL 3
REMARK VINA RESULT:    -4.251      3.402      4.547
REMARK INTER + INTRA:          -5.841
REMARK INTER:                  -5.578
REMARK INTRA:                  -0.263
REMARK UNBOUND:                -0.348
REMARK SMILES CCCCCCC(=O)[O-]
REMARK SMILES IDX 5 1 6 2 7 3 8 4 9 5 4 6 3 7 2 8 1 9
REMARK H PARENT
REMARK Flexibility Score: inf
ROOT
ATOM      1  C   UNL     1      28.406  12.072  33.971  1.00  0.00     0.006 C 
ENDROOT
BRANCH   1   2
ATOM      2  C   UNL     1      27.713  12.786  32.802  1.00  0.00     0.053 C 
BRANCH   2   3
ATOM      3  C   UNL     1      28.166  12.252  31.477  1.00  0.00     0.041 C 
ATOM      4  O   UNL     1      28.883  12.959  30.722  1.00  0.00    -0.550 OA
ATOM      5  O   UNL     1      27.768  10.986  31.064  1.00  0.00    -0.550 OA
ENDBRANCH   2   3
ENDBRANCH   1   2
BRANCH   1   6
ATOM      6  C   UNL     1      27.449  11.145  34.736  1.00  0.00     0.000 C 
BRANCH   6   7
ATOM      7  C   UNL     1      25.987  11.456  34.384  1.00  0.00    -0.000 C 
BRANCH   7   8
ATOM      8  C   UNL     1      25.055  11.372  35.602  1.00  0.00    -0.003 C 
ATOM      9  C   UNL     1      24.671  12.747  36.150  1.00  0.00     0.004 C 
ENDBRANCH   7   8
ENDBRANCH   6   7
ENDBRANCH   1   6
TORSDOF 5
ENDMDL
MODEL 4
REMARK VINA RESULT:    -4.173      2.377      4.337
REMARK INTER + INTRA:          -5.741
REMARK INTER:                  -5.546
REMARK INTRA:                  -0.195
REMARK UNBOUND:                -0.348
REMARK SMILES CCCCCCC(=O)[O-]
REMARK SMILES IDX 5 1 6 2 7 3 8 4 9 5 4 6 3 7 2 8 1 9
REMARK H PARENT
REMARK Flexibility Score: inf
ROOT
ATOM      1  C   UNL     1      25.758  11.135  34.541  1.00  0.00     0.006 C 
ENDROOT
BRANCH   1   2
ATOM      2  C   UNL     1      27.276  11.137  34.770  1.00  0.00     0.053 C 
BRANCH   2   3
ATOM      3  C   UNL     1      27.907  12.411  34.296  1.00  0.00     0.041 C 
ATOM      4  O   UNL     1      28.391  12.484  33.135  1.00  0.00    -0.550 OA
ATOM      5  O   UNL     1      27.990  13.506  35.147  1.00  0.00    -0.550 OA
ENDBRANCH   2   3
ENDBRANCH   1   2
BRANCH   1   6
ATOM      6  C   UNL     1      24.971  11.181  35.859  1.00  0.00     0.000 C 
BRANCH   6   7
ATOM      7  C   UNL     1      24.111  12.451  35.941  1.00  0.00    -0.000 C 
BRANCH   7   8
ATOM      8  C   UNL     1      22.668  12.217  35.470  1.00  0.00    -0.003 C 
ATOM      9  C   UNL     1      22.193  10.783  35.706  1.00  0.00     0.004 C 
ENDBRANCH   7   8
ENDBRANCH   6   7
ENDBRANCH   1   6
TORSDOF 5
ENDMDL
MODEL 5
REMARK VINA RESULT:    -4.129      2.311      4.150
REMARK INTER + INTRA:          -5.683
REMARK INTER:                  -5.470
REMARK INTRA:                  -0.213
REMARK UNBOUND:                -0.348
REMARK SMILES CCCCCCC(=O)[O-]
REMARK SMILES IDX 5 1 6 2 7 3 8 4 9 5 4 6 3 7 2 8 1 9
REMARK H PARENT
REMARK Flexibility Score: inf
ROOT
ATOM      1  C   UNL     1      26.034  11.190  34.684  1.00  0.00     0.006 C 
ENDROOT
BRANCH   1   2
ATOM      2  C   UNL     1      27.362  11.845  35.088  1.00  0.00     0.053 C 
BRANCH   2   3
ATOM      3  C   UNL     1      27.628  13.093  34.301  1.00  0.00     0.041 C 
ATOM      4  O   UNL     1      27.497  14.222  34.842  1.00  0.00    -0.550 OA
ATOM      5  O   UNL     1      27.989  13.008  32.962  1.00  0.00    -0.550 OA
ENDBRANCH   2   3
ENDBRANCH   1   2
BRANCH   1   6
ATOM      6  C   UNL     1      25.022  11.167  35.840  1.00  0.00     0.000 C 
BRANCH   6   7
ATOM      7  C   UNL     1      24.224  12.478  35.896  1.00  0.00    -0.000 C 
BRANCH   7   8
ATOM      8  C   UNL     1      22.746  12.286  35.527  1.00  0.00    -0.003 C 
ATOM      9  C   UNL     1      22.286  10.834  35.662  1.00  0.00     0.004 C 
ENDBRANCH   7   8
ENDBRANCH   6   7
ENDBRANCH   1   6
TORSDOF 5
ENDMDL
MODEL 6
REMARK VINA RESULT:    -4.096      1.454      1.881
REMARK INTER + INTRA:          -5.641
REMARK INTER:                  -5.384
REMARK INTRA:                  -0.257
REMARK UNBOUND:                -0.348
REMARK SMILES CCCCCCC(=O)[O-]
REMARK SMILES IDX 5 1 6 2 7 3 8 4 9 5 4 6 3 7 2 8 1 9
REMARK H PARENT
REMARK Flexibility Score: inf
ROOT
ATOM      1  C   UNL     1      24.997  11.393  35.863  1.00  0.00     0.006 C 
ENDROOT
BRANCH   1   2
ATOM      2  C   UNL     1      23.851  12.410  35.758  1.00  0.00     0.053 C 
BRANCH   2   3
ATOM      3  C   UNL     1      22.514  11.737  35.702  1.00  0.00     0.041 C 
ATOM      4  O   UNL     1      22.426  10.490  35.858  1.00  0.00    -0.550 OA
ATOM      5  O   UNL     1      21.369  12.481  35.446  1.00  0.00    -0.550 OA
ENDBRANCH   2   3
ENDBRANCH   1   2
BRANCH   1   6
ATOM      6  C   UNL     1      25.897  11.402  34.619  1.00  0.00     0.000 C 
BRANCH   6   7
ATOM      7  C   UNL     1      27.313  11.880  34.970  1.00  0.00    -0.000 C 
BRANCH   7   8
ATOM      8  C   UNL     1      27.686  13.192  34.263  1.00  0.00    -0.003 C 
ATOM      9  C   UNL     1      27.343  14.430  35.093  1.00  0.00     0.004 C 
ENDBRANCH   7   8
ENDBRANCH   6   7
ENDBRANCH   1   6
TORSDOF 5
ENDMDL
MODEL 7
REMARK VINA RESULT:    -4.042      1.014      1.484
REMARK INTER + INTRA:          -5.571
REMARK INTER:                  -5.364
REMARK INTRA:                  -0.207
REMARK UNBOUND:                -0.348
REMARK SMILES CCCCCCC(=O)[O-]
REMARK SMILES IDX 5 1 6 2 7 3 8 4 9 5 4 6 3 7 2 8 1 9
REMARK H PARENT
REMARK Flexibility Score: inf
ROOT
ATOM      1  C   UNL     1      25.976  11.373  34.283  1.00  0.00     0.006 C 
ENDROOT
BRANCH   1   2
ATOM      2  C   UNL     1      25.006  11.068  35.433  1.00  0.00     0.053 C 
BRANCH   2   3
ATOM      3  C   UNL     1      24.285  12.299  35.893  1.00  0.00     0.041 C 
ATOM      4  O   UNL     1      24.865  13.132  36.638  1.00  0.00    -0.550 OA
ATOM      5  O   UNL     1      22.962  12.509  35.524  1.00  0.00    -0.550 OA
ENDBRANCH   2   3
ENDBRANCH   1   2
BRANCH   1   6
ATOM      6  C   UNL     1      27.443  11.177  34.693  1.00  0.00     0.000 C 
BRANCH   6   7
ATOM      7  C   UNL     1      28.339  12.247  34.052  1.00  0.00    -0.000 C 
BRANCH   7   8
ATOM      8  C   UNL     1      27.667  12.944  32.860  1.00  0.00    -0.003 C 
ATOM      9  C   UNL     1      28.294  12.560  31.519  1.00  0.00     0.004 C 
ENDBRANCH   7   8
ENDBRANCH   6   7
ENDBRANCH   1   6
TORSDOF 5
ENDMDL
MODEL 8
REMARK VINA RESULT:    -3.853      1.844      2.705
REMARK INTER + INTRA:          -5.326
REMARK INTER:                  -5.062
REMARK INTRA:                  -0.265
REMARK UNBOUND:                -0.348
REMARK SMILES CCCCCCC(=O)[O-]
REMARK SMILES IDX 5 1 6 2 7 3 8 4 9 5 4 6 3 7 2 8 1 9
REMARK H PARENT
REMARK Flexibility Score: inf
ROOT
ATOM      1  C   UNL     1      24.350  11.124  35.733  1.00  0.00     0.006 C 
ENDROOT
BRANCH   1   2
ATOM      2  C   UNL     1      22.851  11.359  35.500  1.00  0.00     0.053 C 
BRANCH   2   3
ATOM      3  C   UNL     1      22.606  12.285  34.348  1.00  0.00     0.041 C 
ATOM      4  O   UNL     1      23.248  12.142  33.274  1.00  0.00    -0.550 OA
ATOM      5  O   UNL     1      21.694  13.326  34.471  1.00  0.00    -0.550 OA
ENDBRANCH   2   3
ENDBRANCH   1   2
BRANCH   1   6
ATOM      6  C   UNL     1      25.076  12.402  36.179  1.00  0.00     0.000 C 
BRANCH   6   7
ATOM      7  C   UNL     1      26.348  12.627  35.349  1.00  0.00    -0.000 C 
BRANCH   7   8
ATOM      8  C   UNL     1      26.909  11.323  34.761  1.00  0.00    -0.003 C 
ATOM      9  C   UNL     1      28.181  11.542  33.941  1.00  0.00     0.004 C 
ENDBRANCH   7   8
ENDBRANCH   6   7
ENDBRANCH   1   6
TORSDOF 5
ENDMDL
MODEL 9
REMARK VINA RESULT:    -3.805      2.699      4.542
REMARK INTER + INTRA:          -5.264
REMARK INTER:                  -5.076
REMARK INTRA:                  -0.188
REMARK UNBOUND:                -0.348
REMARK SMILES CCCCCCC(=O)[O-]
REMARK SMILES IDX 5 1 6 2 7 3 8 4 9 5 4 6 3 7 2 8 1 9
REMARK H PARENT
REMARK Flexibility Score: inf
ROOT
ATOM      1  C   UNL     1      24.028  10.814  35.883  1.00  0.00     0.006 C 
ENDROOT
BRANCH   1   2
ATOM      2  C   UNL     1      24.821  12.128  35.895  1.00  0.00     0.053 C 
BRANCH   2   3
ATOM      3  C   UNL     1      26.111  12.005  35.142  1.00  0.00     0.041 C 
ATOM      4  O   UNL     1      27.091  12.737  35.442  1.00  0.00    -0.550 OA
ATOM      5  O   UNL     1      26.219  11.106  34.089  1.00  0.00    -0.550 OA
ENDBRANCH   2   3
ENDBRANCH   1   2
BRANCH   1   6
ATOM      6  C   UNL     1      22.530  11.041  35.627  1.00  0.00     0.000 C 
BRANCH   6   7
ATOM      7  C   UNL     1      22.292  12.389  34.931  1.00  0.00    -0.000 C 
BRANCH   7   8
ATOM      8  C   UNL     1      21.006  13.080  35.407  1.00  0.00    -0.003 C 
ATOM      9  C   UNL     1      20.495  14.127  34.416  1.00  0.00     0.004 C 
ENDBRANCH   7   8
ENDBRANCH   6   7
ENDBRANCH   1   6
TORSDOF 5
ENDMDL
