MODEL 1
REMARK VINA RESULT:    -4.958      0.000      0.000
REMARK INTER + INTRA:          -5.393
REMARK INTER:                  -5.393
REMARK INTRA:                   0.000
REMARK UNBOUND:                 0.000
REMARK SMILES Cc1cc(O)c2c(c1)C(=O)c1cc(O)cc(O)c1C2=O
REMARK SMILES IDX 1 1 2 2 8 3 7 4 6 5 4 6 3 7 19 8 20 9 18 10 11 11 9 12 10 13
REMARK SMILES IDX 12 14 13 15 15 16 16 17 5 18 17 20 14 22
REMARK H PARENT 5 19 17 21 14 23
REMARK Flexibility Score: inf
ROOT
ATOM      1  C   UNL     1      14.691  70.125  98.176  1.00  0.00     0.044 C 
ATOM      2  C   UNL     1      13.890  69.559  97.041  1.00  0.00    -0.047 A 
ATOM      3  C   UNL     1      14.431  68.556  96.228  1.00  0.00     0.016 A 
ATOM      4  C   UNL     1      13.704  68.044  95.139  1.00  0.00     0.038 A 
ATOM      5  C   UNL     1      12.418  68.551  94.855  1.00  0.00     0.076 A 
ATOM      6  C   UNL     1      11.886  69.582  95.662  1.00  0.00     0.127 A 
ATOM      7  C   UNL     1      12.626  70.079  96.742  1.00  0.00     0.050 A 
ATOM      8  C   UNL     1      11.645  67.971  93.725  1.00  0.00     0.201 C 
ATOM      9  O   UNL     1      10.397  68.135  93.679  1.00  0.00    -0.288 OA
ATOM     10  C   UNL     1      12.324  67.105  92.720  1.00  0.00     0.076 A 
ATOM     11  C   UNL     1      13.588  66.559  93.048  1.00  0.00     0.041 A 
ATOM     12  C   UNL     1      14.281  66.979  94.288  1.00  0.00     0.194 C 
ATOM     13  O   UNL     1      15.375  66.439  94.612  1.00  0.00    -0.289 OA
ATOM     14  C   UNL     1      14.191  65.624  92.188  1.00  0.00     0.059 A 
ATOM     15  C   UNL     1      13.560  65.239  91.003  1.00  0.00     0.120 A 
ATOM     16  C   UNL     1      12.338  65.809  90.653  1.00  0.00     0.093 A 
ATOM     17  C   UNL     1      11.729  66.761  91.475  1.00  0.00     0.131 A 
ENDROOT
BRANCH   6  18
ATOM     18  O   UNL     1      10.629  70.123  95.387  1.00  0.00    -0.507 OA
ATOM     19  H   UNL     1       9.777  69.694  95.730  1.00  0.00     0.293 HD
ENDBRANCH   6  18
BRANCH  17  20
ATOM     20  O   UNL     1      10.560  67.361  90.999  1.00  0.00    -0.507 OA
ATOM     21  H   UNL     1       9.668  67.307  91.471  1.00  0.00     0.293 HD
ENDBRANCH  17  20
BRANCH  15  22
ATOM     22  O   UNL     1      14.147  64.300  90.158  1.00  0.00    -0.508 OA
ATOM     23  H   UNL     1      14.822  63.627  90.501  1.00  0.00     0.293 HD
ENDBRANCH  15  22
TORSDOF 3
ENDMDL
MODEL 2
REMARK VINA RESULT:    -4.877      1.351      5.497
REMARK INTER + INTRA:          -5.305
REMARK INTER:                  -5.305
REMARK INTRA:                   0.000
REMARK UNBOUND:                 0.000
REMARK SMILES Cc1cc(O)c2c(c1)C(=O)c1cc(O)cc(O)c1C2=O
REMARK SMILES IDX 1 1 2 2 8 3 7 4 6 5 4 6 3 7 19 8 20 9 18 10 11 11 9 12 10 13
REMARK SMILES IDX 12 14 13 15 15 16 16 17 5 18 17 20 14 22
REMARK H PARENT 5 19 17 21 14 23
REMARK Flexibility Score: inf
ROOT
ATOM      1  C   UNL     1      13.897  64.145  90.141  1.00  0.00     0.044 C 
ATOM      2  C   UNL     1      13.445  65.282  91.009  1.00  0.00    -0.047 A 
ATOM      3  C   UNL     1      14.012  65.472  92.275  1.00  0.00     0.016 A 
ATOM      4  C   UNL     1      13.570  66.511  93.112  1.00  0.00     0.038 A 
ATOM      5  C   UNL     1      12.538  67.370  92.677  1.00  0.00     0.076 A 
ATOM      6  C   UNL     1      11.949  67.159  91.408  1.00  0.00     0.127 A 
ATOM      7  C   UNL     1      12.403  66.117  90.590  1.00  0.00     0.050 A 
ATOM      8  C   UNL     1      12.110  68.490  93.555  1.00  0.00     0.201 C 
ATOM      9  O   UNL     1      11.477  69.460  93.059  1.00  0.00    -0.288 OA
ATOM     10  C   UNL     1      12.527  68.520  94.985  1.00  0.00     0.076 A 
ATOM     11  C   UNL     1      13.603  67.694  95.390  1.00  0.00     0.041 A 
ATOM     12  C   UNL     1      14.179  66.709  94.446  1.00  0.00     0.194 C 
ATOM     13  O   UNL     1      15.183  66.023  94.786  1.00  0.00    -0.289 OA
ATOM     14  C   UNL     1      14.118  67.804  96.694  1.00  0.00     0.059 A 
ATOM     15  C   UNL     1      13.566  68.712  97.601  1.00  0.00     0.120 A 
ATOM     16  C   UNL     1      12.477  69.493  97.223  1.00  0.00     0.093 A 
ATOM     17  C   UNL     1      11.927  69.386  95.942  1.00  0.00     0.131 A 
ENDROOT
BRANCH   6  18
ATOM     18  O   UNL     1      10.907  67.973  90.964  1.00  0.00    -0.507 OA
ATOM     19  H   UNL     1       9.943  67.658  90.974  1.00  0.00     0.293 HD
ENDBRANCH   6  18
BRANCH  17  20
ATOM     20  O   UNL     1      10.771  70.125  95.680  1.00  0.00    -0.507 OA
ATOM     21  H   UNL     1      10.276  70.100  94.800  1.00  0.00     0.293 HD
ENDBRANCH  17  20
BRANCH  15  22
ATOM     22  O   UNL     1      14.086  68.833  98.888  1.00  0.00    -0.508 OA
ATOM     23  H   UNL     1      13.527  68.631  99.708  1.00  0.00     0.293 HD
ENDBRANCH  15  22
TORSDOF 3
ENDMDL
MODEL 3
REMARK VINA RESULT:    -4.741      2.303      5.142
REMARK INTER + INTRA:          -5.156
REMARK INTER:                  -5.156
REMARK INTRA:                   0.000
REMARK UNBOUND:                 0.000
REMARK SMILES Cc1cc(O)c2c(c1)C(=O)c1cc(O)cc(O)c1C2=O
REMARK SMILES IDX 1 1 2 2 8 3 7 4 6 5 4 6 3 7 19 8 20 9 18 10 11 11 9 12 10 13
REMARK SMILES IDX 12 14 13 15 15 16 16 17 5 18 17 20 14 22
REMARK H PARENT 5 19 17 21 14 23
REMARK Flexibility Score: inf
ROOT
ATOM      1  C   UNL     1      10.042  70.122  92.986  1.00  0.00     0.044 C 
ATOM      2  C   UNL     1      11.148  69.114  93.104  1.00  0.00    -0.047 A 
ATOM      3  C   UNL     1      12.113  69.242  94.111  1.00  0.00     0.016 A 
ATOM      4  C   UNL     1      13.174  68.325  94.208  1.00  0.00     0.038 A 
ATOM      5  C   UNL     1      13.276  67.269  93.278  1.00  0.00     0.076 A 
ATOM      6  C   UNL     1      12.315  67.159  92.247  1.00  0.00     0.127 A 
ATOM      7  C   UNL     1      11.266  68.083  92.166  1.00  0.00     0.050 A 
ATOM      8  C   UNL     1      14.380  66.284  93.419  1.00  0.00     0.201 C 
ATOM      9  O   UNL     1      14.286  65.163  92.853  1.00  0.00    -0.288 OA
ATOM     10  C   UNL     1      15.533  66.576  94.317  1.00  0.00     0.076 A 
ATOM     11  C   UNL     1      15.390  67.601  95.283  1.00  0.00     0.041 A 
ATOM     12  C   UNL     1      14.185  68.463  95.280  1.00  0.00     0.194 C 
ATOM     13  O   UNL     1      14.029  69.330  96.185  1.00  0.00    -0.289 OA
ATOM     14  C   UNL     1      16.400  67.806  96.240  1.00  0.00     0.059 A 
ATOM     15  C   UNL     1      17.552  67.016  96.238  1.00  0.00     0.120 A 
ATOM     16  C   UNL     1      17.718  66.038  95.260  1.00  0.00     0.093 A 
ATOM     17  C   UNL     1      16.743  65.830  94.280  1.00  0.00     0.131 A 
ENDROOT
BRANCH   6  18
ATOM     18  O   UNL     1      12.407  66.144  91.295  1.00  0.00    -0.507 OA
ATOM     19  H   UNL     1      11.943  65.251  91.421  1.00  0.00     0.293 HD
ENDBRANCH   6  18
BRANCH  17  20
ATOM     20  O   UNL     1      17.037  64.906  93.274  1.00  0.00    -0.507 OA
ATOM     21  H   UNL     1      17.283  65.163  92.329  1.00  0.00     0.293 HD
ENDBRANCH  17  20
BRANCH  15  22
ATOM     22  O   UNL     1      18.545  67.207  97.196  1.00  0.00    -0.508 OA
ATOM     23  H   UNL     1      19.369  66.618  97.230  1.00  0.00     0.293 HD
ENDBRANCH  15  22
TORSDOF 3
ENDMDL
MODEL 4
REMARK VINA RESULT:    -4.604      2.178      4.637
REMARK INTER + INTRA:          -5.008
REMARK INTER:                  -5.008
REMARK INTRA:                   0.000
REMARK UNBOUND:                 0.000
REMARK SMILES Cc1cc(O)c2c(c1)C(=O)c1cc(O)cc(O)c1C2=O
REMARK SMILES IDX 1 1 2 2 8 3 7 4 6 5 4 6 3 7 19 8 20 9 18 10 11 11 9 12 10 13
REMARK SMILES IDX 12 14 13 15 15 16 16 17 5 18 17 20 14 22
REMARK H PARENT 5 19 17 21 14 23
REMARK Flexibility Score: inf
ROOT
ATOM      1  C   UNL     1       9.875  69.744  89.773  1.00  0.00     0.044 C 
ATOM      2  C   UNL     1      10.595  69.493  91.066  1.00  0.00    -0.047 A 
ATOM      3  C   UNL     1      11.785  68.756  91.078  1.00  0.00     0.016 A 
ATOM      4  C   UNL     1      12.448  68.483  92.287  1.00  0.00     0.038 A 
ATOM      5  C   UNL     1      11.906  68.948  93.504  1.00  0.00     0.076 A 
ATOM      6  C   UNL     1      10.690  69.670  93.490  1.00  0.00     0.127 A 
ATOM      7  C   UNL     1      10.044  69.931  92.275  1.00  0.00     0.050 A 
ATOM      8  C   UNL     1      12.640  68.687  94.770  1.00  0.00     0.201 C 
ATOM      9  O   UNL     1      12.385  69.384  95.789  1.00  0.00    -0.288 OA
ATOM     10  C   UNL     1      13.747  67.691  94.801  1.00  0.00     0.076 A 
ATOM     11  C   UNL     1      14.317  67.280  93.572  1.00  0.00     0.041 A 
ATOM     12  C   UNL     1      13.709  67.709  92.290  1.00  0.00     0.194 C 
ATOM     13  O   UNL     1      14.259  67.398  91.197  1.00  0.00    -0.289 OA
ATOM     14  C   UNL     1      15.456  66.455  93.570  1.00  0.00     0.059 A 
ATOM     15  C   UNL     1      16.023  66.024  94.771  1.00  0.00     0.120 A 
ATOM     16  C   UNL     1      15.437  66.386  95.982  1.00  0.00     0.093 A 
ATOM     17  C   UNL     1      14.290  67.183  96.014  1.00  0.00     0.131 A 
ENDROOT
BRANCH   6  18
ATOM     18  O   UNL     1      10.115  70.117  94.680  1.00  0.00    -0.507 OA
ATOM     19  H   UNL     1      10.360  71.012  95.087  1.00  0.00     0.293 HD
ENDBRANCH   6  18
BRANCH  17  20
ATOM     20  O   UNL     1      13.705  67.410  97.262  1.00  0.00    -0.507 OA
ATOM     21  H   UNL     1      12.711  67.361  97.435  1.00  0.00     0.293 HD
ENDBRANCH  17  20
BRANCH  15  22
ATOM     22  O   UNL     1      17.161  65.221  94.770  1.00  0.00    -0.508 OA
ATOM     23  H   UNL     1      17.294  64.488  94.082  1.00  0.00     0.293 HD
ENDBRANCH  15  22
TORSDOF 3
ENDMDL
MODEL 5
REMARK VINA RESULT:    -4.479      2.679      4.968
REMARK INTER + INTRA:          -4.872
REMARK INTER:                  -4.872
REMARK INTRA:                   0.000
REMARK UNBOUND:                 0.000
REMARK SMILES Cc1cc(O)c2c(c1)C(=O)c1cc(O)cc(O)c1C2=O
REMARK SMILES IDX 1 1 2 2 8 3 7 4 6 5 4 6 3 7 19 8 20 9 18 10 11 11 9 12 10 13
REMARK SMILES IDX 12 14 13 15 15 16 16 17 5 18 17 20 14 22
REMARK H PARENT 5 19 17 21 14 23
REMARK Flexibility Score: inf
ROOT
ATOM      1  C   UNL     1      19.653  67.089  96.904  1.00  0.00     0.044 C 
ATOM      2  C   UNL     1      18.406  66.875  96.096  1.00  0.00    -0.047 A 
ATOM      3  C   UNL     1      17.210  67.500  96.469  1.00  0.00     0.016 A 
ATOM      4  C   UNL     1      16.027  67.277  95.742  1.00  0.00     0.038 A 
ATOM      5  C   UNL     1      16.041  66.409  94.629  1.00  0.00     0.076 A 
ATOM      6  C   UNL     1      17.245  65.760  94.272  1.00  0.00     0.127 A 
ATOM      7  C   UNL     1      18.413  65.994  95.010  1.00  0.00     0.050 A 
ATOM      8  C   UNL     1      14.793  66.217  93.845  1.00  0.00     0.201 C 
ATOM      9  O   UNL     1      14.861  65.759  92.673  1.00  0.00    -0.288 OA
ATOM     10  C   UNL     1      13.486  66.669  94.398  1.00  0.00     0.076 A 
ATOM     11  C   UNL     1      13.492  67.585  95.477  1.00  0.00     0.041 A 
ATOM     12  C   UNL     1      14.768  67.947  96.138  1.00  0.00     0.194 C 
ATOM     13  O   UNL     1      14.780  68.816  97.053  1.00  0.00    -0.289 OA
ATOM     14  C   UNL     1      12.284  68.145  95.928  1.00  0.00     0.059 A 
ATOM     15  C   UNL     1      11.071  67.793  95.330  1.00  0.00     0.120 A 
ATOM     16  C   UNL     1      11.054  66.856  94.300  1.00  0.00     0.093 A 
ATOM     17  C   UNL     1      12.238  66.263  93.849  1.00  0.00     0.131 A 
ENDROOT
BRANCH   6  18
ATOM     18  O   UNL     1      17.283  64.873  93.196  1.00  0.00    -0.507 OA
ATOM     19  H   UNL     1      18.049  64.873  92.531  1.00  0.00     0.293 HD
ENDBRANCH   6  18
BRANCH  17  20
ATOM     20  O   UNL     1      12.121  65.256  92.888  1.00  0.00    -0.507 OA
ATOM     21  H   UNL     1      12.007  65.433  91.900  1.00  0.00     0.293 HD
ENDBRANCH  17  20
BRANCH  15  22
ATOM     22  O   UNL     1       9.875  68.360  95.764  1.00  0.00    -0.508 OA
ATOM     23  H   UNL     1       9.010  67.832  95.772  1.00  0.00     0.293 HD
ENDBRANCH  15  22
TORSDOF 3
ENDMDL
MODEL 6
REMARK VINA RESULT:    -4.341      2.903      4.489
REMARK INTER + INTRA:          -4.721
REMARK INTER:                  -4.721
REMARK INTRA:                   0.000
REMARK UNBOUND:                 0.000
REMARK SMILES Cc1cc(O)c2c(c1)C(=O)c1cc(O)cc(O)c1C2=O
REMARK SMILES IDX 1 1 2 2 8 3 7 4 6 5 4 6 3 7 19 8 20 9 18 10 11 11 9 12 10 13
REMARK SMILES IDX 12 14 13 15 15 16 16 17 5 18 17 20 14 22
REMARK H PARENT 5 19 17 21 14 23
REMARK Flexibility Score: inf
ROOT
ATOM      1  C   UNL     1      13.603  70.104  88.430  1.00  0.00     0.044 C 
ATOM      2  C   UNL     1      13.030  69.533  89.694  1.00  0.00    -0.047 A 
ATOM      3  C   UNL     1      13.601  68.394  90.274  1.00  0.00     0.016 A 
ATOM      4  C   UNL     1      13.050  67.829  91.438  1.00  0.00     0.038 A 
ATOM      5  C   UNL     1      11.906  68.410  92.025  1.00  0.00     0.076 A 
ATOM      6  C   UNL     1      11.317  69.544  91.421  1.00  0.00     0.127 A 
ATOM      7  C   UNL     1      11.880  70.092  90.262  1.00  0.00     0.050 A 
ATOM      8  C   UNL     1      11.360  67.825  93.279  1.00  0.00     0.201 C 
ATOM      9  O   UNL     1      10.596  68.517  94.003  1.00  0.00    -0.288 OA
ATOM     10  C   UNL     1      11.806  66.478  93.732  1.00  0.00     0.076 A 
ATOM     11  C   UNL     1      12.989  65.938  93.173  1.00  0.00     0.041 A 
ATOM     12  C   UNL     1      13.663  66.628  92.049  1.00  0.00     0.194 C 
ATOM     13  O   UNL     1      14.755  66.182  91.598  1.00  0.00    -0.289 OA
ATOM     14  C   UNL     1      13.519  64.738  93.681  1.00  0.00     0.059 A 
ATOM     15  C   UNL     1      12.879  64.065  94.724  1.00  0.00     0.120 A 
ATOM     16  C   UNL     1      11.689  64.567  95.245  1.00  0.00     0.093 A 
ATOM     17  C   UNL     1      11.126  65.743  94.742  1.00  0.00     0.131 A 
ENDROOT
BRANCH   6  18
ATOM     18  O   UNL     1      10.168  70.122  91.962  1.00  0.00    -0.507 OA
ATOM     19  H   UNL     1       9.926  71.091  91.789  1.00  0.00     0.293 HD
ENDBRANCH   6  18
BRANCH  17  20
ATOM     20  O   UNL     1       9.878  66.119  95.246  1.00  0.00    -0.507 OA
ATOM     21  H   UNL     1       9.323  66.874  94.867  1.00  0.00     0.293 HD
ENDBRANCH  17  20
BRANCH  15  22
ATOM     22  O   UNL     1      13.412  62.885  95.239  1.00  0.00    -0.508 OA
ATOM     23  H   UNL     1      13.922  62.871  96.114  1.00  0.00     0.293 HD
ENDBRANCH  15  22
TORSDOF 3
ENDMDL
MODEL 7
REMARK VINA RESULT:    -4.322      3.158      4.008
REMARK INTER + INTRA:          -4.701
REMARK INTER:                  -4.701
REMARK INTRA:                   0.000
REMARK UNBOUND:                 0.000
REMARK SMILES Cc1cc(O)c2c(c1)C(=O)c1cc(O)cc(O)c1C2=O
REMARK SMILES IDX 1 1 2 2 8 3 7 4 6 5 4 6 3 7 19 8 20 9 18 10 11 11 9 12 10 13
REMARK SMILES IDX 12 14 13 15 15 16 16 17 5 18 17 20 14 22
REMARK H PARENT 5 19 17 21 14 23
REMARK Flexibility Score: inf
ROOT
ATOM      1  C   UNL     1      13.255  62.818  95.671  1.00  0.00     0.044 C 
ATOM      2  C   UNL     1      12.689  63.983  94.914  1.00  0.00    -0.047 A 
ATOM      3  C   UNL     1      13.351  64.476  93.782  1.00  0.00     0.016 A 
ATOM      4  C   UNL     1      12.850  65.590  93.087  1.00  0.00     0.038 A 
ATOM      5  C   UNL     1      11.673  66.226  93.536  1.00  0.00     0.076 A 
ATOM      6  C   UNL     1      11.023  65.742  94.694  1.00  0.00     0.127 A 
ATOM      7  C   UNL     1      11.538  64.631  95.374  1.00  0.00     0.050 A 
ATOM      8  C   UNL     1      11.134  67.377  92.766  1.00  0.00     0.201 C 
ATOM      9  O   UNL     1       9.930  67.717  92.921  1.00  0.00    -0.288 OA
ATOM     10  C   UNL     1      11.975  68.048  91.736  1.00  0.00     0.076 A 
ATOM     11  C   UNL     1      13.120  67.368  91.255  1.00  0.00     0.041 A 
ATOM     12  C   UNL     1      13.551  66.100  91.887  1.00  0.00     0.194 C 
ATOM     13  O   UNL     1      14.531  65.461  91.412  1.00  0.00    -0.289 OA
ATOM     14  C   UNL     1      13.853  67.905  90.181  1.00  0.00     0.059 A 
ATOM     15  C   UNL     1      13.471  69.113  89.593  1.00  0.00     0.120 A 
ATOM     16  C   UNL     1      12.373  69.809  90.094  1.00  0.00     0.093 A 
ATOM     17  C   UNL     1      11.642  69.313  91.177  1.00  0.00     0.131 A 
ENDROOT
BRANCH   6  18
ATOM     18  O   UNL     1       9.875  66.369  95.180  1.00  0.00    -0.507 OA
ATOM     19  H   UNL     1       9.891  67.325  95.516  1.00  0.00     0.293 HD
ENDBRANCH   6  18
BRANCH  17  20
ATOM     20  O   UNL     1      10.624  70.125  91.684  1.00  0.00    -0.507 OA
ATOM     21  H   UNL     1      10.239  70.917  91.190  1.00  0.00     0.293 HD
ENDBRANCH  17  20
BRANCH  15  22
ATOM     22  O   UNL     1      14.186  69.636  88.519  1.00  0.00    -0.508 OA
ATOM     23  H   UNL     1      13.802  70.366  87.930  1.00  0.00     0.293 HD
ENDBRANCH  15  22
TORSDOF 3
ENDMDL
MODEL 8
REMARK VINA RESULT:    -4.028      2.735      5.407
REMARK INTER + INTRA:          -4.381
REMARK INTER:                  -4.381
REMARK INTRA:                   0.000
REMARK UNBOUND:                 0.000
REMARK SMILES Cc1cc(O)c2c(c1)C(=O)c1cc(O)cc(O)c1C2=O
REMARK SMILES IDX 1 1 2 2 8 3 7 4 6 5 4 6 3 7 19 8 20 9 18 10 11 11 9 12 10 13
REMARK SMILES IDX 12 14 13 15 15 16 16 17 5 18 17 20 14 22
REMARK H PARENT 5 19 17 21 14 23
REMARK Flexibility Score: inf
ROOT
ATOM      1  C   UNL     1      14.187  70.103  88.847  1.00  0.00     0.044 C 
ATOM      2  C   UNL     1      13.386  69.824  90.086  1.00  0.00    -0.047 A 
ATOM      3  C   UNL     1      13.994  69.884  91.346  1.00  0.00     0.016 A 
ATOM      4  C   UNL     1      13.263  69.588  92.510  1.00  0.00     0.038 A 
ATOM      5  C   UNL     1      11.904  69.220  92.410  1.00  0.00     0.076 A 
ATOM      6  C   UNL     1      11.302  69.135  91.133  1.00  0.00     0.127 A 
ATOM      7  C   UNL     1      12.047  69.432  89.986  1.00  0.00     0.050 A 
ATOM      8  C   UNL     1      11.134  68.951  93.652  1.00  0.00     0.201 C 
ATOM      9  O   UNL     1       9.875  68.983  93.620  1.00  0.00    -0.288 OA
ATOM     10  C   UNL     1      11.846  68.760  94.947  1.00  0.00     0.076 A 
ATOM     11  C   UNL     1      13.191  69.190  95.045  1.00  0.00     0.041 A 
ATOM     12  C   UNL     1      13.911  69.660  93.838  1.00  0.00     0.194 C 
ATOM     13  O   UNL     1      15.087  70.108  93.941  1.00  0.00    -0.289 OA
ATOM     14  C   UNL     1      13.847  69.160  96.288  1.00  0.00     0.059 A 
ATOM     15  C   UNL     1      13.187  68.695  97.428  1.00  0.00     0.120 A 
ATOM     16  C   UNL     1      11.879  68.227  97.328  1.00  0.00     0.093 A 
ATOM     17  C   UNL     1      11.212  68.220  96.100  1.00  0.00     0.131 A 
ENDROOT
BRANCH   6  18
ATOM     18  O   UNL     1       9.969  68.744  91.001  1.00  0.00    -0.507 OA
ATOM     19  H   UNL     1       9.533  68.634  90.092  1.00  0.00     0.293 HD
ENDBRANCH   6  18
BRANCH  17  20
ATOM     20  O   UNL     1       9.943  67.634  96.066  1.00  0.00    -0.507 OA
ATOM     21  H   UNL     1       9.786  66.640  95.979  1.00  0.00     0.293 HD
ENDBRANCH  17  20
BRANCH  15  22
ATOM     22  O   UNL     1      13.830  68.681  98.664  1.00  0.00    -0.508 OA
ATOM     23  H   UNL     1      13.427  68.212  99.467  1.00  0.00     0.293 HD
ENDBRANCH  15  22
TORSDOF 3
ENDMDL
