MODEL 1
REMARK VINA RESULT:    -5.292      0.000      0.000
REMARK INTER + INTRA:          -8.081
REMARK INTER:                  -7.148
REMARK INTRA:                  -0.934
REMARK UNBOUND:                -0.934
REMARK SMILES CC(=O)CCC=C(C)CCC=C(C)C
REMARK SMILES IDX 7 1 6 2 8 3 9 4 10 5 11 6 13 7 12 8 14 9 5 10 4 11 2 12 3 13
REMARK SMILES IDX 1 14
REMARK H PARENT
REMARK Flexibility Score: inf
ROOT
ATOM      1  C   UNL     1      47.055  19.597  21.181  1.00  0.00    -0.077 C 
ATOM      2  C   UNL     1      46.198  20.350  20.455  1.00  0.00    -0.028 C 
ATOM      3  C   UNL     1      46.787  19.255  22.629  1.00  0.00     0.039 C 
ENDROOT
BRANCH   1   4
ATOM      4  C   UNL     1      48.309  19.065  20.521  1.00  0.00     0.034 C 
BRANCH   4   5
ATOM      5  C   UNL     1      49.501  19.989  20.795  1.00  0.00     0.032 C 
BRANCH   5   6
ATOM      6  C   UNL     1      49.813  20.833  19.584  1.00  0.00    -0.028 C 
ATOM      7  C   UNL     1      49.861  22.893  18.213  1.00  0.00     0.039 C 
ATOM      8  C   UNL     1      49.531  22.152  19.483  1.00  0.00    -0.080 C 
ATOM      9  C   UNL     1      48.929  22.933  20.624  1.00  0.00     0.039 C 
ENDBRANCH   5   6
ENDBRANCH   4   5
ENDBRANCH   1   4
BRANCH   2  10
ATOM     10  C   UNL     1      44.935  20.970  20.997  1.00  0.00     0.035 C 
BRANCH  10  11
ATOM     11  C   UNL     1      44.923  22.485  20.749  1.00  0.00     0.079 C 
BRANCH  11  12
ATOM     12  C   UNL     1      43.530  23.065  20.690  1.00  0.00     0.130 C 
ATOM     13  O   UNL     1      43.298  24.085  20.058  1.00  0.00    -0.300 OA
ATOM     14  C   UNL     1      42.409  22.394  21.426  1.00  0.00     0.087 C 
ENDBRANCH  11  12
ENDBRANCH  10  11
ENDBRANCH   2  10
TORSDOF 6
ENDMDL
MODEL 2
REMARK VINA RESULT:    -5.278      2.823      5.731
REMARK INTER + INTRA:          -8.063
REMARK INTER:                  -7.077
REMARK INTRA:                  -0.986
REMARK UNBOUND:                -0.934
REMARK SMILES CC(=O)CCC=C(C)CCC=C(C)C
REMARK SMILES IDX 7 1 6 2 8 3 9 4 10 5 11 6 13 7 12 8 14 9 5 10 4 11 2 12 3 13
REMARK SMILES IDX 1 14
REMARK H PARENT
REMARK Flexibility Score: inf
ROOT
ATOM      1  C   UNL     1      49.713  21.872  19.755  1.00  0.00    -0.077 C 
ATOM      2  C   UNL     1      49.434  22.582  20.872  1.00  0.00    -0.028 C 
ATOM      3  C   UNL     1      49.787  22.522  18.393  1.00  0.00     0.039 C 
ENDROOT
BRANCH   1   4
ATOM      4  C   UNL     1      49.980  20.386  19.876  1.00  0.00     0.034 C 
BRANCH   4   5
ATOM      5  C   UNL     1      48.679  19.587  19.731  1.00  0.00     0.032 C 
BRANCH   5   6
ATOM      6  C   UNL     1      48.222  19.063  21.069  1.00  0.00    -0.028 C 
ATOM      7  C   UNL     1      46.786  18.941  23.081  1.00  0.00     0.039 C 
ATOM      8  C   UNL     1      47.136  19.519  21.734  1.00  0.00    -0.080 C 
ATOM      9  C   UNL     1      46.222  20.568  21.154  1.00  0.00     0.039 C 
ENDBRANCH   5   6
ENDBRANCH   4   5
ENDBRANCH   1   4
BRANCH   2  10
ATOM     10  C   UNL     1      49.114  24.056  20.889  1.00  0.00     0.035 C 
BRANCH  10  11
ATOM     11  C   UNL     1      50.092  24.813  21.799  1.00  0.00     0.079 C 
BRANCH  11  12
ATOM     12  C   UNL     1      51.142  25.581  21.032  1.00  0.00     0.130 C 
ATOM     13  O   UNL     1      51.083  26.797  20.928  1.00  0.00    -0.300 OA
ATOM     14  C   UNL     1      52.271  24.849  20.373  1.00  0.00     0.087 C 
ENDBRANCH  11  12
ENDBRANCH  10  11
ENDBRANCH   2  10
TORSDOF 6
ENDMDL
MODEL 3
REMARK VINA RESULT:    -5.221      2.700      4.824
REMARK INTER + INTRA:          -7.986
REMARK INTER:                  -7.001
REMARK INTRA:                  -0.986
REMARK UNBOUND:                -0.934
REMARK SMILES CC(=O)CCC=C(C)CCC=C(C)C
REMARK SMILES IDX 7 1 6 2 8 3 9 4 10 5 11 6 13 7 12 8 14 9 5 10 4 11 2 12 3 13
REMARK SMILES IDX 1 14
REMARK H PARENT
REMARK Flexibility Score: inf
ROOT
ATOM      1  C   UNL     1      50.300  22.242  18.616  1.00  0.00    -0.077 C 
ATOM      2  C   UNL     1      49.318  21.831  19.451  1.00  0.00    -0.028 C 
ATOM      3  C   UNL     1      51.607  21.494  18.493  1.00  0.00     0.039 C 
ENDROOT
BRANCH   1   4
ATOM      4  C   UNL     1      50.075  23.473  17.766  1.00  0.00     0.034 C 
BRANCH   4   5
ATOM      5  C   UNL     1      49.878  24.713  18.646  1.00  0.00     0.032 C 
BRANCH   5   6
ATOM      6  C   UNL     1      51.187  25.149  19.255  1.00  0.00    -0.028 C 
ATOM      7  C   UNL     1      52.780  25.642  21.084  1.00  0.00     0.039 C 
ATOM      8  C   UNL     1      51.444  25.160  20.582  1.00  0.00    -0.080 C 
ATOM      9  C   UNL     1      50.445  24.659  21.596  1.00  0.00     0.039 C 
ENDBRANCH   5   6
ENDBRANCH   4   5
ENDBRANCH   1   4
BRANCH   2  10
ATOM     10  C   UNL     1      49.424  20.646  20.377  1.00  0.00     0.035 C 
BRANCH  10  11
ATOM     11  C   UNL     1      48.344  19.603  20.053  1.00  0.00     0.079 C 
BRANCH  11  12
ATOM     12  C   UNL     1      47.117  19.734  20.922  1.00  0.00     0.130 C 
ATOM     13  O   UNL     1      46.094  20.251  20.495  1.00  0.00    -0.300 OA
ATOM     14  C   UNL     1      47.144  19.236  22.335  1.00  0.00     0.087 C 
ENDBRANCH  11  12
ENDBRANCH  10  11
ENDBRANCH   2  10
TORSDOF 6
ENDMDL
MODEL 4
REMARK VINA RESULT:    -5.166      2.665      4.463
REMARK INTER + INTRA:          -7.911
REMARK INTER:                  -6.989
REMARK INTRA:                  -0.922
REMARK UNBOUND:                -0.934
REMARK SMILES CC(=O)CCC=C(C)CCC=C(C)C
REMARK SMILES IDX 7 1 6 2 8 3 9 4 10 5 11 6 13 7 12 8 14 9 5 10 4 11 2 12 3 13
REMARK SMILES IDX 1 14
REMARK H PARENT
REMARK Flexibility Score: inf
ROOT
ATOM      1  C   UNL     1      49.422  21.978  19.652  1.00  0.00    -0.077 C 
ATOM      2  C   UNL     1      49.653  20.663  19.865  1.00  0.00    -0.028 C 
ATOM      3  C   UNL     1      48.821  22.866  20.717  1.00  0.00     0.039 C 
ENDROOT
BRANCH   1   4
ATOM      4  C   UNL     1      49.791  22.583  18.314  1.00  0.00     0.034 C 
BRANCH   4   5
ATOM      5  C   UNL     1      51.307  22.794  18.213  1.00  0.00     0.032 C 
BRANCH   5   6
ATOM      6  C   UNL     1      51.630  24.248  17.980  1.00  0.00    -0.028 C 
ATOM      7  C   UNL     1      52.195  26.572  18.619  1.00  0.00     0.039 C 
ATOM      8  C   UNL     1      51.913  25.132  18.964  1.00  0.00    -0.080 C 
ATOM      9  C   UNL     1      52.003  24.719  20.412  1.00  0.00     0.039 C 
ENDBRANCH   5   6
ENDBRANCH   4   5
ENDBRANCH   1   4
BRANCH   2  10
ATOM     10  C   UNL     1      49.301  19.928  21.134  1.00  0.00     0.035 C 
BRANCH  10  11
ATOM     11  C   UNL     1      48.005  19.124  20.954  1.00  0.00     0.079 C 
BRANCH  11  12
ATOM     12  C   UNL     1      46.932  19.501  21.948  1.00  0.00     0.130 C 
ATOM     13  O   UNL     1      46.867  18.957  23.041  1.00  0.00    -0.300 OA
ATOM     14  C   UNL     1      45.920  20.547  21.594  1.00  0.00     0.087 C 
ENDBRANCH  11  12
ENDBRANCH  10  11
ENDBRANCH   2  10
TORSDOF 6
ENDMDL
MODEL 5
REMARK VINA RESULT:    -5.125      1.943      2.992
REMARK INTER + INTRA:          -7.857
REMARK INTER:                  -7.093
REMARK INTRA:                  -0.763
REMARK UNBOUND:                -0.934
REMARK SMILES CC(=O)CCC=C(C)CCC=C(C)C
REMARK SMILES IDX 7 1 6 2 8 3 9 4 10 5 11 6 13 7 12 8 14 9 5 10 4 11 2 12 3 13
REMARK SMILES IDX 1 14
REMARK H PARENT
REMARK Flexibility Score: inf
ROOT
ATOM      1  C   UNL     1      49.520  20.377  19.872  1.00  0.00    -0.077 C 
ATOM      2  C   UNL     1      48.289  20.902  20.069  1.00  0.00    -0.028 C 
ATOM      3  C   UNL     1      49.927  19.050  20.470  1.00  0.00     0.039 C 
ENDROOT
BRANCH   1   4
ATOM      4  C   UNL     1      50.513  21.130  19.012  1.00  0.00     0.034 C 
BRANCH   4   5
ATOM      5  C   UNL     1      50.052  22.575  18.789  1.00  0.00     0.032 C 
BRANCH   5   6
ATOM      6  C   UNL     1      51.142  23.548  19.163  1.00  0.00    -0.028 C 
ATOM      7  C   UNL     1      52.319  25.186  20.597  1.00  0.00     0.039 C 
ATOM      8  C   UNL     1      51.197  24.215  20.339  1.00  0.00    -0.080 C 
ATOM      9  C   UNL     1      50.187  23.989  21.436  1.00  0.00     0.039 C 
ENDBRANCH   5   6
ENDBRANCH   4   5
ENDBRANCH   1   4
BRANCH   2  10
ATOM     10  C   UNL     1      47.221  20.275  20.929  1.00  0.00     0.035 C 
BRANCH  10  11
ATOM     11  C   UNL     1      45.835  20.459  20.295  1.00  0.00     0.079 C 
BRANCH  11  12
ATOM     12  C   UNL     1      44.892  21.264  21.157  1.00  0.00     0.130 C 
ATOM     13  O   UNL     1      44.416  20.793  22.180  1.00  0.00    -0.300 OA
ATOM     14  C   UNL     1      44.516  22.658  20.755  1.00  0.00     0.087 C 
ENDBRANCH  11  12
ENDBRANCH  10  11
ENDBRANCH   2  10
TORSDOF 6
ENDMDL
MODEL 6
REMARK VINA RESULT:    -5.102      2.829      4.845
REMARK INTER + INTRA:          -7.825
REMARK INTER:                  -6.804
REMARK INTRA:                  -1.022
REMARK UNBOUND:                -0.934
REMARK SMILES CC(=O)CCC=C(C)CCC=C(C)C
REMARK SMILES IDX 7 1 6 2 8 3 9 4 10 5 11 6 13 7 12 8 14 9 5 10 4 11 2 12 3 13
REMARK SMILES IDX 1 14
REMARK H PARENT
REMARK Flexibility Score: inf
ROOT
ATOM      1  C   UNL     1      50.310  22.380  18.421  1.00  0.00    -0.077 C 
ATOM      2  C   UNL     1      49.229  21.771  18.960  1.00  0.00    -0.028 C 
ATOM      3  C   UNL     1      51.685  21.754  18.469  1.00  0.00     0.039 C 
ENDROOT
BRANCH   1   4
ATOM      4  C   UNL     1      50.134  23.716  17.732  1.00  0.00     0.034 C 
BRANCH   4   5
ATOM      5  C   UNL     1      50.591  24.862  18.644  1.00  0.00     0.032 C 
BRANCH   5   6
ATOM      6  C   UNL     1      49.438  25.384  19.464  1.00  0.00    -0.028 C 
ATOM      7  C   UNL     1      48.039  25.654  21.487  1.00  0.00     0.039 C 
ATOM      8  C   UNL     1      49.243  25.100  20.771  1.00  0.00    -0.080 C 
ATOM      9  C   UNL     1      50.222  24.272  21.566  1.00  0.00     0.039 C 
ENDBRANCH   5   6
ENDBRANCH   4   5
ENDBRANCH   1   4
BRANCH   2  10
ATOM     10  C   UNL     1      49.269  20.460  19.704  1.00  0.00     0.035 C 
BRANCH  10  11
ATOM     11  C   UNL     1      48.692  20.618  21.118  1.00  0.00     0.079 C 
BRANCH  11  12
ATOM     12  C   UNL     1      47.339  19.969  21.281  1.00  0.00     0.130 C 
ATOM     13  O   UNL     1      46.485  20.064  20.412  1.00  0.00    -0.300 OA
ATOM     14  C   UNL     1      47.023  19.203  22.530  1.00  0.00     0.087 C 
ENDBRANCH  11  12
ENDBRANCH  10  11
ENDBRANCH   2  10
TORSDOF 6
ENDMDL
MODEL 7
REMARK VINA RESULT:    -5.081      2.811      6.018
REMARK INTER + INTRA:          -7.797
REMARK INTER:                  -7.013
REMARK INTRA:                  -0.784
REMARK UNBOUND:                -0.934
REMARK SMILES CC(=O)CCC=C(C)CCC=C(C)C
REMARK SMILES IDX 7 1 6 2 8 3 9 4 10 5 11 6 13 7 12 8 14 9 5 10 4 11 2 12 3 13
REMARK SMILES IDX 1 14
REMARK H PARENT
REMARK Flexibility Score: inf
ROOT
ATOM      1  C   UNL     1      49.438  22.041  19.951  1.00  0.00    -0.077 C 
ATOM      2  C   UNL     1      49.857  22.115  18.667  1.00  0.00    -0.028 C 
ATOM      3  C   UNL     1      48.979  23.264  20.712  1.00  0.00     0.039 C 
ENDROOT
BRANCH   1   4
ATOM      4  C   UNL     1      49.409  20.694  20.640  1.00  0.00     0.034 C 
BRANCH   4   5
ATOM      5  C   UNL     1      48.280  19.821  20.080  1.00  0.00     0.032 C 
BRANCH   5   6
ATOM      6  C   UNL     1      46.933  20.415  20.409  1.00  0.00    -0.028 C 
ATOM      7  C   UNL     1      44.882  20.772  21.747  1.00  0.00     0.039 C 
ATOM      8  C   UNL     1      46.234  20.142  21.534  1.00  0.00    -0.080 C 
ATOM      9  C   UNL     1      46.782  19.253  22.622  1.00  0.00     0.039 C 
ENDBRANCH   5   6
ENDBRANCH   4   5
ENDBRANCH   1   4
BRANCH   2  10
ATOM     10  C   UNL     1      49.969  23.394  17.876  1.00  0.00     0.035 C 
BRANCH  10  11
ATOM     11  C   UNL     1      51.422  23.888  17.844  1.00  0.00     0.079 C 
BRANCH  11  12
ATOM     12  C   UNL     1      51.729  24.894  18.927  1.00  0.00     0.130 C 
ATOM     13  O   UNL     1      52.186  24.540  20.004  1.00  0.00    -0.300 OA
ATOM     14  C   UNL     1      51.462  26.350  18.695  1.00  0.00     0.087 C 
ENDBRANCH  11  12
ENDBRANCH  10  11
ENDBRANCH   2  10
TORSDOF 6
ENDMDL
MODEL 8
REMARK VINA RESULT:    -4.976      2.043      5.065
REMARK INTER + INTRA:          -7.655
REMARK INTER:                  -6.889
REMARK INTRA:                  -0.765
REMARK UNBOUND:                -0.934
REMARK SMILES CC(=O)CCC=C(C)CCC=C(C)C
REMARK SMILES IDX 7 1 6 2 8 3 9 4 10 5 11 6 13 7 12 8 14 9 5 10 4 11 2 12 3 13
REMARK SMILES IDX 1 14
REMARK H PARENT
REMARK Flexibility Score: inf
ROOT
ATOM      1  C   UNL     1      49.931  22.545  19.576  1.00  0.00    -0.077 C 
ATOM      2  C   UNL     1      50.229  23.053  20.793  1.00  0.00    -0.028 C 
ATOM      3  C   UNL     1      50.040  23.375  18.317  1.00  0.00     0.039 C 
ENDROOT
BRANCH   1   4
ATOM      4  C   UNL     1      49.495  21.100  19.468  1.00  0.00     0.034 C 
BRANCH   4   5
ATOM      5  C   UNL     1      48.866  20.622  20.782  1.00  0.00     0.032 C 
BRANCH   5   6
ATOM      6  C   UNL     1      47.387  20.917  20.806  1.00  0.00    -0.028 C 
ATOM      7  C   UNL     1      45.031  20.619  21.501  1.00  0.00     0.039 C 
ATOM      8  C   UNL     1      46.492  20.260  21.578  1.00  0.00    -0.080 C 
ATOM      9  C   UNL     1      46.911  19.197  22.562  1.00  0.00     0.039 C 
ENDBRANCH   5   6
ENDBRANCH   4   5
ENDBRANCH   1   4
BRANCH   2  10
ATOM     10  C   UNL     1      50.640  24.482  21.046  1.00  0.00     0.035 C 
BRANCH  10  11
ATOM     11  C   UNL     1      49.549  25.233  21.823  1.00  0.00     0.079 C 
BRANCH  11  12
ATOM     12  C   UNL     1      48.317  25.509  20.994  1.00  0.00     0.130 C 
ATOM     13  O   UNL     1      47.308  24.830  21.119  1.00  0.00    -0.300 OA
ATOM     14  C   UNL     1      48.325  26.623  19.992  1.00  0.00     0.087 C 
ENDBRANCH  11  12
ENDBRANCH  10  11
ENDBRANCH   2  10
TORSDOF 6
ENDMDL
MODEL 9
REMARK VINA RESULT:    -4.915      3.429      5.130
REMARK INTER + INTRA:          -7.573
REMARK INTER:                  -7.218
REMARK INTRA:                  -0.355
REMARK UNBOUND:                -0.934
REMARK SMILES CC(=O)CCC=C(C)CCC=C(C)C
REMARK SMILES IDX 7 1 6 2 8 3 9 4 10 5 11 6 13 7 12 8 14 9 5 10 4 11 2 12 3 13
REMARK SMILES IDX 1 14
REMARK H PARENT
REMARK Flexibility Score: inf
ROOT
ATOM      1  C   UNL     1      49.840  22.496  20.147  1.00  0.00    -0.077 C 
ATOM      2  C   UNL     1      49.358  21.404  20.784  1.00  0.00    -0.028 C 
ATOM      3  C   UNL     1      49.745  22.651  18.646  1.00  0.00     0.039 C 
ENDROOT
BRANCH   1   4
ATOM      4  C   UNL     1      50.475  23.602  20.961  1.00  0.00     0.034 C 
BRANCH   4   5
ATOM      5  C   UNL     1      51.221  24.586  20.053  1.00  0.00     0.032 C 
BRANCH   5   6
ATOM      6  C   UNL     1      52.363  25.236  20.794  1.00  0.00    -0.028 C 
ATOM      7  C   UNL     1      53.451  26.912  22.254  1.00  0.00     0.039 C 
ATOM      8  C   UNL     1      52.236  26.328  21.582  1.00  0.00    -0.080 C 
ATOM      9  C   UNL     1      50.897  26.968  21.855  1.00  0.00     0.039 C 
ENDBRANCH   5   6
ENDBRANCH   4   5
ENDBRANCH   1   4
BRANCH   2  10
ATOM     10  C   UNL     1      48.736  20.216  20.093  1.00  0.00     0.035 C 
BRANCH  10  11
ATOM     11  C   UNL     1      48.344  19.138  21.113  1.00  0.00     0.079 C 
BRANCH  11  12
ATOM     12  C   UNL     1      47.087  19.476  21.878  1.00  0.00     0.130 C 
ATOM     13  O   UNL     1      46.922  19.084  23.024  1.00  0.00    -0.300 OA
ATOM     14  C   UNL     1      46.013  20.295  21.228  1.00  0.00     0.087 C 
ENDBRANCH  11  12
ENDBRANCH  10  11
ENDBRANCH   2  10
TORSDOF 6
ENDMDL
