MODEL 1
REMARK VINA RESULT:    -4.382      0.000      0.000
REMARK INTER + INTRA:         -17.182
REMARK INTER:                 -11.043
REMARK INTRA:                  -6.138
REMARK UNBOUND:                -6.138
REMARK SMILES CCCCCCCCCCCCCCCCCCCCCCCCCCCC(=O)[O-]
REMARK SMILES IDX 15 1 16 2 17 3 18 4 19 5 20 6 21 7 22 8 23 9 24 10 25 11
REMARK SMILES IDX 26 12 27 13 28 14 29 15 30 16 14 17 13 18 12 19 11 20 10 21
REMARK SMILES IDX 9 22 8 23 7 24 6 25 5 26 4 27 3 28 2 29 1 30
REMARK H PARENT
REMARK Flexibility Score: inf
ROOT
ATOM      1  C   UNL     1      17.187 -45.047  26.634  1.00  0.00     0.000 C 
ENDROOT
BRANCH   1   2
ATOM      2  C   UNL     1      16.935 -44.638  28.094  1.00  0.00     0.000 C 
BRANCH   2   3
ATOM      3  C   UNL     1      15.449 -44.366  28.389  1.00  0.00     0.000 C 
BRANCH   3   4
ATOM      4  C   UNL     1      14.741 -45.595  29.000  1.00  0.00     0.000 C 
BRANCH   4   5
ATOM      5  C   UNL     1      13.331 -45.292  29.532  1.00  0.00     0.000 C 
BRANCH   5   6
ATOM      6  C   UNL     1      12.974 -43.801  29.465  1.00  0.00     0.000 C 
BRANCH   6   7
ATOM      7  C   UNL     1      12.421 -43.304  30.805  1.00  0.00     0.000 C 
BRANCH   7   8
ATOM      8  C   UNL     1      13.228 -42.100  31.317  1.00  0.00     0.000 C 
BRANCH   8   9
ATOM      9  C   UNL     1      14.523 -42.514  32.033  1.00  0.00     0.000 C 
BRANCH   9  10
ATOM     10  C   UNL     1      14.356 -43.793  32.870  1.00  0.00     0.000 C 
BRANCH  10  11
ATOM     11  C   UNL     1      15.544 -44.757  32.717  1.00  0.00     0.000 C 
BRANCH  11  12
ATOM     12  C   UNL     1      16.671 -44.169  31.850  1.00  0.00     0.006 C 
BRANCH  12  13
ATOM     13  C   UNL     1      17.870 -45.121  31.734  1.00  0.00     0.053 C 
BRANCH  13  14
ATOM     14  C   UNL     1      18.976 -44.742  32.672  1.00  0.00     0.041 C 
ATOM     15  O   UNL     1      19.888 -45.568  32.941  1.00  0.00    -0.550 OA
ATOM     16  O   UNL     1      18.981 -43.491  33.274  1.00  0.00    -0.550 OA
ENDBRANCH  13  14
ENDBRANCH  12  13
ENDBRANCH  11  12
ENDBRANCH  10  11
ENDBRANCH   9  10
ENDBRANCH   8   9
ENDBRANCH   7   8
ENDBRANCH   6   7
ENDBRANCH   5   6
ENDBRANCH   4   5
ENDBRANCH   3   4
ENDBRANCH   2   3
ENDBRANCH   1   2
BRANCH   1  17
ATOM     17  C   UNL     1      17.470 -43.841  25.721  1.00  0.00     0.000 C 
BRANCH  17  18
ATOM     18  C   UNL     1      18.183 -42.689  26.454  1.00  0.00     0.000 C 
BRANCH  18  19
ATOM     19  C   UNL     1      18.635 -41.521  25.560  1.00  0.00     0.000 C 
BRANCH  19  20
ATOM     20  C   UNL     1      18.378 -40.144  26.197  1.00  0.00     0.000 C 
BRANCH  20  21
ATOM     21  C   UNL     1      17.454 -39.259  25.338  1.00  0.00     0.000 C 
BRANCH  21  22
ATOM     22  C   UNL     1      16.114 -39.918  24.961  1.00  0.00    -0.000 C 
BRANCH  22  23
ATOM     23  C   UNL     1      15.039 -39.734  26.047  1.00  0.00    -0.000 C 
BRANCH  23  24
ATOM     24  C   UNL     1      14.714 -41.042  26.786  1.00  0.00    -0.000 C 
BRANCH  24  25
ATOM     25  C   UNL     1      15.075 -40.986  28.278  1.00  0.00    -0.000 C 
BRANCH  25  26
ATOM     26  C   UNL     1      15.551 -39.581  28.674  1.00  0.00    -0.000 C 
BRANCH  26  27
ATOM     27  C   UNL     1      16.789 -39.601  29.587  1.00  0.00    -0.000 C 
BRANCH  27  28
ATOM     28  C   UNL     1      17.343 -41.020  29.844  1.00  0.00    -0.000 C 
BRANCH  28  29
ATOM     29  C   UNL     1      18.869 -41.023  30.018  1.00  0.00    -0.003 C 
ATOM     30  C   UNL     1      19.451 -42.407  29.752  1.00  0.00     0.004 C 
ENDBRANCH  28  29
ENDBRANCH  27  28
ENDBRANCH  26  27
ENDBRANCH  25  26
ENDBRANCH  24  25
ENDBRANCH  23  24
ENDBRANCH  22  23
ENDBRANCH  21  22
ENDBRANCH  20  21
ENDBRANCH  19  20
ENDBRANCH  18  19
ENDBRANCH  17  18
ENDBRANCH   1  17
TORSDOF 26
ENDMDL
MODEL 2
REMARK VINA RESULT:    -4.295      2.734      6.188
REMARK INTER + INTRA:         -16.961
REMARK INTER:                 -10.897
REMARK INTRA:                  -6.064
REMARK UNBOUND:                -6.138
REMARK SMILES CCCCCCCCCCCCCCCCCCCCCCCCCCCC(=O)[O-]
REMARK SMILES IDX 15 1 16 2 17 3 18 4 19 5 20 6 21 7 22 8 23 9 24 10 25 11
REMARK SMILES IDX 26 12 27 13 28 14 29 15 30 16 14 17 13 18 12 19 11 20 10 21
REMARK SMILES IDX 9 22 8 23 7 24 6 25 5 26 4 27 3 28 2 29 1 30
REMARK H PARENT
REMARK Flexibility Score: inf
ROOT
ATOM      1  C   UNL     1      17.297 -45.055  28.774  1.00  0.00     0.000 C 
ENDROOT
BRANCH   1   2
ATOM      2  C   UNL     1      17.014 -45.507  27.332  1.00  0.00     0.000 C 
BRANCH   2   3
ATOM      3  C   UNL     1      17.564 -44.527  26.280  1.00  0.00     0.000 C 
BRANCH   3   4
ATOM      4  C   UNL     1      16.446 -43.684  25.629  1.00  0.00     0.000 C 
BRANCH   4   5
ATOM      5  C   UNL     1      16.486 -42.198  26.024  1.00  0.00     0.000 C 
BRANCH   5   6
ATOM      6  C   UNL     1      17.760 -41.488  25.547  1.00  0.00     0.000 C 
BRANCH   6   7
ATOM      7  C   UNL     1      18.392 -40.668  26.679  1.00  0.00     0.000 C 
BRANCH   7   8
ATOM      8  C   UNL     1      18.489 -41.500  27.967  1.00  0.00     0.000 C 
BRANCH   8   9
ATOM      9  C   UNL     1      18.582 -40.631  29.231  1.00  0.00     0.000 C 
BRANCH   9  10
ATOM     10  C   UNL     1      17.291 -40.659  30.066  1.00  0.00     0.000 C 
BRANCH  10  11
ATOM     11  C   UNL     1      16.201 -39.738  29.495  1.00  0.00     0.000 C 
BRANCH  11  12
ATOM     12  C   UNL     1      14.964 -40.517  29.015  1.00  0.00     0.006 C 
BRANCH  12  13
ATOM     13  C   UNL     1      14.267 -39.829  27.831  1.00  0.00     0.053 C 
BRANCH  13  14
ATOM     14  C   UNL     1      12.965 -39.208  28.234  1.00  0.00     0.041 C 
ATOM     15  O   UNL     1      12.222 -39.784  29.073  1.00  0.00    -0.550 OA
ATOM     16  O   UNL     1      12.557 -38.012  27.659  1.00  0.00    -0.550 OA
ENDBRANCH  13  14
ENDBRANCH  12  13
ENDBRANCH  11  12
ENDBRANCH  10  11
ENDBRANCH   9  10
ENDBRANCH   8   9
ENDBRANCH   7   8
ENDBRANCH   6   7
ENDBRANCH   5   6
ENDBRANCH   4   5
ENDBRANCH   3   4
ENDBRANCH   2   3
ENDBRANCH   1   2
BRANCH   1  17
ATOM     17  C   UNL     1      16.183 -44.157  29.342  1.00  0.00     0.000 C 
BRANCH  17  18
ATOM     18  C   UNL     1      14.777 -44.760  29.161  1.00  0.00     0.000 C 
BRANCH  18  19
ATOM     19  C   UNL     1      13.848 -43.988  28.207  1.00  0.00     0.000 C 
BRANCH  19  20
ATOM     20  C   UNL     1      12.503 -43.613  28.853  1.00  0.00     0.000 C 
BRANCH  20  21
ATOM     21  C   UNL     1      12.516 -43.782  30.385  1.00  0.00     0.000 C 
BRANCH  21  22
ATOM     22  C   UNL     1      12.680 -42.465  31.167  1.00  0.00    -0.000 C 
BRANCH  22  23
ATOM     23  C   UNL     1      13.949 -42.449  32.036  1.00  0.00    -0.000 C 
BRANCH  23  24
ATOM     24  C   UNL     1      14.112 -43.729  32.871  1.00  0.00    -0.000 C 
BRANCH  24  25
ATOM     25  C   UNL     1      15.583 -44.133  33.056  1.00  0.00    -0.000 C 
BRANCH  25  26
ATOM     26  C   UNL     1      16.473 -42.895  33.242  1.00  0.00    -0.000 C 
BRANCH  26  27
ATOM     27  C   UNL     1      17.896 -43.091  32.691  1.00  0.00    -0.000 C 
BRANCH  27  28
ATOM     28  C   UNL     1      18.298 -44.573  32.532  1.00  0.00    -0.000 C 
BRANCH  28  29
ATOM     29  C   UNL     1      19.685 -44.731  31.893  1.00  0.00    -0.003 C 
ATOM     30  C   UNL     1      19.985 -43.582  30.935  1.00  0.00     0.004 C 
ENDBRANCH  28  29
ENDBRANCH  27  28
ENDBRANCH  26  27
ENDBRANCH  25  26
ENDBRANCH  24  25
ENDBRANCH  23  24
ENDBRANCH  22  23
ENDBRANCH  21  22
ENDBRANCH  20  21
ENDBRANCH  19  20
ENDBRANCH  18  19
ENDBRANCH  17  18
ENDBRANCH   1  17
TORSDOF 26
ENDMDL
MODEL 3
REMARK VINA RESULT:    -4.294      1.382      4.822
REMARK INTER + INTRA:         -16.959
REMARK INTER:                 -11.553
REMARK INTRA:                  -5.406
REMARK UNBOUND:                -6.138
REMARK SMILES CCCCCCCCCCCCCCCCCCCCCCCCCCCC(=O)[O-]
REMARK SMILES IDX 15 1 16 2 17 3 18 4 19 5 20 6 21 7 22 8 23 9 24 10 25 11
REMARK SMILES IDX 26 12 27 13 28 14 29 15 30 16 14 17 13 18 12 19 11 20 10 21
REMARK SMILES IDX 9 22 8 23 7 24 6 25 5 26 4 27 3 28 2 29 1 30
REMARK H PARENT
REMARK Flexibility Score: inf
ROOT
ATOM      1  C   UNL     1      18.869 -42.477  24.926  1.00  0.00     0.000 C 
ENDROOT
BRANCH   1   2
ATOM      2  C   UNL     1      18.599 -41.154  24.191  1.00  0.00     0.000 C 
BRANCH   2   3
ATOM      3  C   UNL     1      17.756 -40.171  25.022  1.00  0.00     0.000 C 
BRANCH   3   4
ATOM      4  C   UNL     1      18.579 -39.504  26.146  1.00  0.00     0.000 C 
BRANCH   4   5
ATOM      5  C   UNL     1      17.962 -39.673  27.544  1.00  0.00     0.000 C 
BRANCH   5   6
ATOM      6  C   UNL     1      18.754 -40.641  28.434  1.00  0.00     0.000 C 
BRANCH   6   7
ATOM      7  C   UNL     1      17.860 -41.774  28.950  1.00  0.00     0.000 C 
BRANCH   7   8
ATOM      8  C   UNL     1      17.662 -41.664  30.470  1.00  0.00     0.000 C 
BRANCH   8   9
ATOM      9  C   UNL     1      16.181 -41.690  30.881  1.00  0.00     0.000 C 
BRANCH   9  10
ATOM     10  C   UNL     1      15.906 -42.654  32.047  1.00  0.00     0.000 C 
BRANCH  10  11
ATOM     11  C   UNL     1      17.199 -43.169  32.702  1.00  0.00     0.000 C 
BRANCH  11  12
ATOM     12  C   UNL     1      17.161 -44.684  32.967  1.00  0.00     0.006 C 
BRANCH  12  13
ATOM     13  C   UNL     1      18.362 -45.412  32.346  1.00  0.00     0.053 C 
BRANCH  13  14
ATOM     14  C   UNL     1      19.605 -44.578  32.392  1.00  0.00     0.041 C 
ATOM     15  O   UNL     1      20.173 -44.348  33.492  1.00  0.00    -0.550 OA
ATOM     16  O   UNL     1      20.118 -44.027  31.225  1.00  0.00    -0.550 OA
ENDBRANCH  13  14
ENDBRANCH  12  13
ENDBRANCH  11  12
ENDBRANCH  10  11
ENDBRANCH   9  10
ENDBRANCH   8   9
ENDBRANCH   7   8
ENDBRANCH   6   7
ENDBRANCH   5   6
ENDBRANCH   4   5
ENDBRANCH   3   4
ENDBRANCH   2   3
ENDBRANCH   1   2
BRANCH   1  17
ATOM     17  C   UNL     1      17.598 -43.078  25.552  1.00  0.00     0.000 C 
BRANCH  17  18
ATOM     18  C   UNL     1      17.719 -44.589  25.820  1.00  0.00     0.000 C 
BRANCH  18  19
ATOM     19  C   UNL     1      16.755 -45.148  26.882  1.00  0.00     0.000 C 
BRANCH  19  20
ATOM     20  C   UNL     1      17.421 -45.336  28.257  1.00  0.00     0.000 C 
BRANCH  20  21
ATOM     21  C   UNL     1      16.416 -45.230  29.419  1.00  0.00     0.000 C 
BRANCH  21  22
ATOM     22  C   UNL     1      14.955 -45.520  29.024  1.00  0.00    -0.000 C 
BRANCH  22  23
ATOM     23  C   UNL     1      13.948 -45.013  30.071  1.00  0.00    -0.000 C 
BRANCH  23  24
ATOM     24  C   UNL     1      12.660 -44.463  29.436  1.00  0.00    -0.000 C 
BRANCH  24  25
ATOM     25  C   UNL     1      12.596 -44.704  27.921  1.00  0.00    -0.000 C 
BRANCH  25  26
ATOM     26  C   UNL     1      12.475 -43.376  27.159  1.00  0.00    -0.000 C 
BRANCH  26  27
ATOM     27  C   UNL     1      13.819 -42.883  26.596  1.00  0.00    -0.000 C 
BRANCH  27  28
ATOM     28  C   UNL     1      14.571 -41.923  27.543  1.00  0.00    -0.000 C 
BRANCH  28  29
ATOM     29  C   UNL     1      14.302 -40.449  27.205  1.00  0.00    -0.003 C 
ATOM     30  C   UNL     1      14.480 -39.561  28.433  1.00  0.00     0.004 C 
ENDBRANCH  28  29
ENDBRANCH  27  28
ENDBRANCH  26  27
ENDBRANCH  25  26
ENDBRANCH  24  25
ENDBRANCH  23  24
ENDBRANCH  22  23
ENDBRANCH  21  22
ENDBRANCH  20  21
ENDBRANCH  19  20
ENDBRANCH  18  19
ENDBRANCH  17  18
ENDBRANCH   1  17
TORSDOF 26
ENDMDL
MODEL 4
REMARK VINA RESULT:    -4.246      1.418      2.468
REMARK INTER + INTRA:         -16.837
REMARK INTER:                 -11.041
REMARK INTRA:                  -5.796
REMARK UNBOUND:                -6.138
REMARK SMILES CCCCCCCCCCCCCCCCCCCCCCCCCCCC(=O)[O-]
REMARK SMILES IDX 15 1 16 2 17 3 18 4 19 5 20 6 21 7 22 8 23 9 24 10 25 11
REMARK SMILES IDX 26 12 27 13 28 14 29 15 30 16 14 17 13 18 12 19 11 20 10 21
REMARK SMILES IDX 9 22 8 23 7 24 6 25 5 26 4 27 3 28 2 29 1 30
REMARK H PARENT
REMARK Flexibility Score: inf
ROOT
ATOM      1  C   UNL     1      15.257 -43.814  28.429  1.00  0.00     0.000 C 
ENDROOT
BRANCH   1   2
ATOM      2  C   UNL     1      14.798 -45.247  28.744  1.00  0.00     0.000 C 
BRANCH   2   3
ATOM      3  C   UNL     1      13.485 -45.291  29.546  1.00  0.00     0.000 C 
BRANCH   3   4
ATOM      4  C   UNL     1      12.245 -45.387  28.629  1.00  0.00     0.000 C 
BRANCH   4   5
ATOM      5  C   UNL     1      11.135 -44.386  28.989  1.00  0.00     0.000 C 
BRANCH   5   6
ATOM      6  C   UNL     1      11.320 -43.762  30.379  1.00  0.00     0.000 C 
BRANCH   6   7
ATOM      7  C   UNL     1      11.512 -42.244  30.283  1.00  0.00     0.000 C 
BRANCH   7   8
ATOM      8  C   UNL     1      12.938 -41.847  30.696  1.00  0.00     0.000 C 
BRANCH   8   9
ATOM      9  C   UNL     1      13.375 -42.493  32.020  1.00  0.00     0.000 C 
BRANCH   9  10
ATOM     10  C   UNL     1      14.862 -42.884  32.026  1.00  0.00     0.000 C 
BRANCH  10  11
ATOM     11  C   UNL     1      15.122 -44.202  32.775  1.00  0.00     0.000 C 
BRANCH  11  12
ATOM     12  C   UNL     1      16.323 -44.977  32.205  1.00  0.00     0.006 C 
BRANCH  12  13
ATOM     13  C   UNL     1      17.550 -44.076  31.997  1.00  0.00     0.053 C 
BRANCH  13  14
ATOM     14  C   UNL     1      18.246 -44.372  30.704  1.00  0.00     0.041 C 
ATOM     15  O   UNL     1      17.934 -45.393  30.036  1.00  0.00    -0.550 OA
ATOM     16  O   UNL     1      19.261 -43.538  30.254  1.00  0.00    -0.550 OA
ENDBRANCH  13  14
ENDBRANCH  12  13
ENDBRANCH  11  12
ENDBRANCH  10  11
ENDBRANCH   9  10
ENDBRANCH   8   9
ENDBRANCH   7   8
ENDBRANCH   6   7
ENDBRANCH   5   6
ENDBRANCH   4   5
ENDBRANCH   3   4
ENDBRANCH   2   3
ENDBRANCH   1   2
BRANCH   1  17
ATOM     17  C   UNL     1      14.581 -43.238  27.172  1.00  0.00     0.000 C 
BRANCH  17  18
ATOM     18  C   UNL     1      15.553 -43.081  25.988  1.00  0.00     0.000 C 
BRANCH  18  19
ATOM     19  C   UNL     1      16.891 -43.828  26.132  1.00  0.00     0.000 C 
BRANCH  19  20
ATOM     20  C   UNL     1      18.108 -42.948  25.797  1.00  0.00     0.000 C 
BRANCH  20  21
ATOM     21  C   UNL     1      18.373 -41.875  26.871  1.00  0.00     0.000 C 
BRANCH  21  22
ATOM     22  C   UNL     1      18.426 -40.434  26.329  1.00  0.00    -0.000 C 
BRANCH  22  23
ATOM     23  C   UNL     1      17.839 -40.314  24.911  1.00  0.00    -0.000 C 
BRANCH  23  24
ATOM     24  C   UNL     1      16.433 -39.695  24.902  1.00  0.00    -0.000 C 
BRANCH  24  25
ATOM     25  C   UNL     1      16.107 -38.943  26.202  1.00  0.00    -0.000 C 
BRANCH  25  26
ATOM     26  C   UNL     1      14.840 -39.509  26.859  1.00  0.00    -0.000 C 
BRANCH  26  27
ATOM     27  C   UNL     1      14.624 -38.991  28.292  1.00  0.00    -0.000 C 
BRANCH  27  28
ATOM     28  C   UNL     1      15.892 -39.062  29.171  1.00  0.00    -0.000 C 
BRANCH  28  29
ATOM     29  C   UNL     1      16.251 -40.506  29.552  1.00  0.00    -0.003 C 
ATOM     30  C   UNL     1      17.388 -40.541  30.569  1.00  0.00     0.004 C 
ENDBRANCH  28  29
ENDBRANCH  27  28
ENDBRANCH  26  27
ENDBRANCH  25  26
ENDBRANCH  24  25
ENDBRANCH  23  24
ENDBRANCH  22  23
ENDBRANCH  21  22
ENDBRANCH  20  21
ENDBRANCH  19  20
ENDBRANCH  18  19
ENDBRANCH  17  18
ENDBRANCH   1  17
TORSDOF 26
ENDMDL
MODEL 5
REMARK VINA RESULT:    -4.240      3.429      6.647
REMARK INTER + INTRA:         -16.822
REMARK INTER:                 -11.246
REMARK INTRA:                  -5.576
REMARK UNBOUND:                -6.138
REMARK SMILES CCCCCCCCCCCCCCCCCCCCCCCCCCCC(=O)[O-]
REMARK SMILES IDX 15 1 16 2 17 3 18 4 19 5 20 6 21 7 22 8 23 9 24 10 25 11
REMARK SMILES IDX 26 12 27 13 28 14 29 15 30 16 14 17 13 18 12 19 11 20 10 21
REMARK SMILES IDX 9 22 8 23 7 24 6 25 5 26 4 27 3 28 2 29 1 30
REMARK H PARENT
REMARK Flexibility Score: inf
ROOT
ATOM      1  C   UNL     1      18.800 -42.049  24.643  1.00  0.00     0.000 C 
ENDROOT
BRANCH   1   2
ATOM      2  C   UNL     1      17.815 -40.871  24.575  1.00  0.00     0.000 C 
BRANCH   2   3
ATOM      3  C   UNL     1      18.398 -39.571  25.159  1.00  0.00     0.000 C 
BRANCH   3   4
ATOM      4  C   UNL     1      17.330 -38.733  25.894  1.00  0.00     0.000 C 
BRANCH   4   5
ATOM      5  C   UNL     1      17.481 -38.750  27.425  1.00  0.00     0.000 C 
BRANCH   5   6
ATOM      6  C   UNL     1      18.655 -39.617  27.900  1.00  0.00     0.000 C 
BRANCH   6   7
ATOM      7  C   UNL     1      18.295 -40.380  29.180  1.00  0.00     0.000 C 
BRANCH   7   8
ATOM      8  C   UNL     1      17.294 -41.507  28.882  1.00  0.00     0.000 C 
BRANCH   8   9
ATOM      9  C   UNL     1      15.971 -41.346  29.648  1.00  0.00     0.000 C 
BRANCH   9  10
ATOM     10  C   UNL     1      14.768 -41.136  28.714  1.00  0.00     0.000 C 
BRANCH  10  11
ATOM     11  C   UNL     1      15.074 -41.531  27.260  1.00  0.00     0.000 C 
BRANCH  11  12
ATOM     12  C   UNL     1      14.331 -40.649  26.241  1.00  0.00     0.006 C 
BRANCH  12  13
ATOM     13  C   UNL     1      14.191 -41.335  24.874  1.00  0.00     0.053 C 
BRANCH  13  14
ATOM     14  C   UNL     1      13.277 -40.577  23.961  1.00  0.00     0.041 C 
ATOM     15  O   UNL     1      12.236 -40.033  24.416  1.00  0.00    -0.550 OA
ATOM     16  O   UNL     1      13.558 -40.498  22.603  1.00  0.00    -0.550 OA
ENDBRANCH  13  14
ENDBRANCH  12  13
ENDBRANCH  11  12
ENDBRANCH  10  11
ENDBRANCH   9  10
ENDBRANCH   8   9
ENDBRANCH   7   8
ENDBRANCH   6   7
ENDBRANCH   5   6
ENDBRANCH   4   5
ENDBRANCH   3   4
ENDBRANCH   2   3
ENDBRANCH   1   2
BRANCH   1  17
ATOM     17  C   UNL     1      18.628 -42.892  25.919  1.00  0.00     0.000 C 
BRANCH  17  18
ATOM     18  C   UNL     1      17.866 -44.207  25.671  1.00  0.00     0.000 C 
BRANCH  18  19
ATOM     19  C   UNL     1      16.746 -44.519  26.680  1.00  0.00     0.000 C 
BRANCH  19  20
ATOM     20  C   UNL     1      17.202 -45.460  27.809  1.00  0.00     0.000 C 
BRANCH  20  21
ATOM     21  C   UNL     1      16.487 -45.171  29.143  1.00  0.00     0.000 C 
BRANCH  21  22
ATOM     22  C   UNL     1      14.967 -44.956  29.016  1.00  0.00    -0.000 C 
BRANCH  22  23
ATOM     23  C   UNL     1      14.244 -45.029  30.372  1.00  0.00    -0.000 C 
BRANCH  23  24
ATOM     24  C   UNL     1      15.199 -45.335  31.537  1.00  0.00    -0.000 C 
BRANCH  24  25
ATOM     25  C   UNL     1      14.913 -44.479  32.780  1.00  0.00    -0.000 C 
BRANCH  25  26
ATOM     26  C   UNL     1      15.534 -43.081  32.637  1.00  0.00    -0.000 C 
BRANCH  26  27
ATOM     27  C   UNL     1      16.884 -42.948  33.362  1.00  0.00    -0.000 C 
BRANCH  27  28
ATOM     28  C   UNL     1      18.048 -42.546  32.429  1.00  0.00    -0.000 C 
BRANCH  28  29
ATOM     29  C   UNL     1      18.585 -43.741  31.626  1.00  0.00    -0.003 C 
ATOM     30  C   UNL     1      18.809 -44.953  32.525  1.00  0.00     0.004 C 
ENDBRANCH  28  29
ENDBRANCH  27  28
ENDBRANCH  26  27
ENDBRANCH  25  26
ENDBRANCH  24  25
ENDBRANCH  23  24
ENDBRANCH  22  23
ENDBRANCH  21  22
ENDBRANCH  20  21
ENDBRANCH  19  20
ENDBRANCH  18  19
ENDBRANCH  17  18
ENDBRANCH   1  17
TORSDOF 26
ENDMDL
MODEL 6
REMARK VINA RESULT:    -4.234      1.140      4.114
REMARK INTER + INTRA:         -16.807
REMARK INTER:                 -11.075
REMARK INTRA:                  -5.733
REMARK UNBOUND:                -6.138
REMARK SMILES CCCCCCCCCCCCCCCCCCCCCCCCCCCC(=O)[O-]
REMARK SMILES IDX 15 1 16 2 17 3 18 4 19 5 20 6 21 7 22 8 23 9 24 10 25 11
REMARK SMILES IDX 26 12 27 13 28 14 29 15 30 16 14 17 13 18 12 19 11 20 10 21
REMARK SMILES IDX 9 22 8 23 7 24 6 25 5 26 4 27 3 28 2 29 1 30
REMARK H PARENT
REMARK Flexibility Score: inf
ROOT
ATOM      1  C   UNL     1      13.303 -44.672  28.565  1.00  0.00     0.000 C 
ENDROOT
BRANCH   1   2
ATOM      2  C   UNL     1      11.856 -44.529  29.064  1.00  0.00     0.000 C 
BRANCH   2   3
ATOM      3  C   UNL     1      11.596 -43.183  29.764  1.00  0.00     0.000 C 
BRANCH   3   4
ATOM      4  C   UNL     1      11.939 -43.233  31.268  1.00  0.00     0.000 C 
BRANCH   4   5
ATOM      5  C   UNL     1      13.229 -42.477  31.631  1.00  0.00     0.000 C 
BRANCH   5   6
ATOM      6  C   UNL     1      14.167 -43.294  32.530  1.00  0.00     0.000 C 
BRANCH   6   7
ATOM      7  C   UNL     1      15.599 -42.749  32.473  1.00  0.00     0.000 C 
BRANCH   7   8
ATOM      8  C   UNL     1      15.924 -42.212  31.070  1.00  0.00     0.000 C 
BRANCH   8   9
ATOM      9  C   UNL     1      16.890 -41.017  31.099  1.00  0.00     0.000 C 
BRANCH   9  10
ATOM     10  C   UNL     1      17.799 -40.960  29.861  1.00  0.00     0.000 C 
BRANCH  10  11
ATOM     11  C   UNL     1      18.395 -42.332  29.504  1.00  0.00     0.000 C 
BRANCH  11  12
ATOM     12  C   UNL     1      19.743 -42.587  30.200  1.00  0.00     0.006 C 
BRANCH  12  13
ATOM     13  C   UNL     1      19.861 -44.025  30.728  1.00  0.00     0.053 C 
BRANCH  13  14
ATOM     14  C   UNL     1      18.968 -44.262  31.907  1.00  0.00     0.041 C 
ATOM     15  O   UNL     1      18.123 -45.196  31.883  1.00  0.00    -0.550 OA
ATOM     16  O   UNL     1      19.045 -43.432  33.017  1.00  0.00    -0.550 OA
ENDBRANCH  13  14
ENDBRANCH  12  13
ENDBRANCH  11  12
ENDBRANCH  10  11
ENDBRANCH   9  10
ENDBRANCH   8   9
ENDBRANCH   7   8
ENDBRANCH   6   7
ENDBRANCH   5   6
ENDBRANCH   4   5
ENDBRANCH   3   4
ENDBRANCH   2   3
ENDBRANCH   1   2
BRANCH   1  17
ATOM     17  C   UNL     1      14.180 -45.500  29.521  1.00  0.00     0.000 C 
BRANCH  17  18
ATOM     18  C   UNL     1      15.686 -45.236  29.333  1.00  0.00     0.000 C 
BRANCH  18  19
ATOM     19  C   UNL     1      16.078 -44.588  27.992  1.00  0.00     0.000 C 
BRANCH  19  20
ATOM     20  C   UNL     1      17.213 -45.338  27.274  1.00  0.00     0.000 C 
BRANCH  20  21
ATOM     21  C   UNL     1      17.515 -44.756  25.879  1.00  0.00     0.000 C 
BRANCH  21  22
ATOM     22  C   UNL     1      17.397 -43.222  25.792  1.00  0.00    -0.000 C 
BRANCH  22  23
ATOM     23  C   UNL     1      18.753 -42.538  25.544  1.00  0.00    -0.000 C 
BRANCH  23  24
ATOM     24  C   UNL     1      18.714 -41.027  25.820  1.00  0.00    -0.000 C 
BRANCH  24  25
ATOM     25  C   UNL     1      17.333 -40.410  25.549  1.00  0.00    -0.000 C 
BRANCH  25  26
ATOM     26  C   UNL     1      16.991 -39.347  26.604  1.00  0.00    -0.000 C 
BRANCH  26  27
ATOM     27  C   UNL     1      15.534 -39.432  27.090  1.00  0.00    -0.000 C 
BRANCH  27  28
ATOM     28  C   UNL     1      15.036 -40.878  27.300  1.00  0.00    -0.000 C 
BRANCH  28  29
ATOM     29  C   UNL     1      13.969 -40.968  28.402  1.00  0.00    -0.003 C 
ATOM     30  C   UNL     1      13.465 -39.583  28.795  1.00  0.00     0.004 C 
ENDBRANCH  28  29
ENDBRANCH  27  28
ENDBRANCH  26  27
ENDBRANCH  25  26
ENDBRANCH  24  25
ENDBRANCH  23  24
ENDBRANCH  22  23
ENDBRANCH  21  22
ENDBRANCH  20  21
ENDBRANCH  19  20
ENDBRANCH  18  19
ENDBRANCH  17  18
ENDBRANCH   1  17
TORSDOF 26
ENDMDL
MODEL 7
REMARK VINA RESULT:    -4.231      1.340      3.540
REMARK INTER + INTRA:         -16.800
REMARK INTER:                 -11.033
REMARK INTRA:                  -5.767
REMARK UNBOUND:                -6.138
REMARK SMILES CCCCCCCCCCCCCCCCCCCCCCCCCCCC(=O)[O-]
REMARK SMILES IDX 15 1 16 2 17 3 18 4 19 5 20 6 21 7 22 8 23 9 24 10 25 11
REMARK SMILES IDX 26 12 27 13 28 14 29 15 30 16 14 17 13 18 12 19 11 20 10 21
REMARK SMILES IDX 9 22 8 23 7 24 6 25 5 26 4 27 3 28 2 29 1 30
REMARK H PARENT
REMARK Flexibility Score: inf
ROOT
ATOM      1  C   UNL     1      16.822 -44.994  28.162  1.00  0.00     0.000 C 
ENDROOT
BRANCH   1   2
ATOM      2  C   UNL     1      15.469 -45.430  28.749  1.00  0.00     0.000 C 
BRANCH   2   3
ATOM      3  C   UNL     1      14.386 -44.344  28.624  1.00  0.00     0.000 C 
BRANCH   3   4
ATOM      4  C   UNL     1      13.529 -44.225  29.903  1.00  0.00     0.000 C 
BRANCH   4   5
ATOM      5  C   UNL     1      14.220 -43.452  31.038  1.00  0.00     0.000 C 
BRANCH   5   6
ATOM      6  C   UNL     1      14.894 -42.160  30.556  1.00  0.00     0.000 C 
BRANCH   6   7
ATOM      7  C   UNL     1      16.383 -42.143  30.921  1.00  0.00     0.000 C 
BRANCH   7   8
ATOM      8  C   UNL     1      16.986 -40.748  30.694  1.00  0.00     0.000 C 
BRANCH   8   9
ATOM      9  C   UNL     1      18.315 -40.793  29.923  1.00  0.00     0.000 C 
BRANCH   9  10
ATOM     10  C   UNL     1      18.788 -42.229  29.640  1.00  0.00     0.000 C 
BRANCH  10  11
ATOM     11  C   UNL     1      20.058 -42.596  30.425  1.00  0.00     0.000 C 
BRANCH  11  12
ATOM     12  C   UNL     1      19.754 -43.444  31.672  1.00  0.00     0.006 C 
BRANCH  12  13
ATOM     13  C   UNL     1      18.884 -44.666  31.345  1.00  0.00     0.053 C 
BRANCH  13  14
ATOM     14  C   UNL     1      18.287 -45.273  32.578  1.00  0.00     0.041 C 
ATOM     15  O   UNL     1      17.113 -44.976  32.926  1.00  0.00    -0.550 OA
ATOM     16  O   UNL     1      19.038 -46.140  33.361  1.00  0.00    -0.550 OA
ENDBRANCH  13  14
ENDBRANCH  12  13
ENDBRANCH  11  12
ENDBRANCH  10  11
ENDBRANCH   9  10
ENDBRANCH   8   9
ENDBRANCH   7   8
ENDBRANCH   6   7
ENDBRANCH   5   6
ENDBRANCH   4   5
ENDBRANCH   3   4
ENDBRANCH   2   3
ENDBRANCH   1   2
BRANCH   1  17
ATOM     17  C   UNL     1      16.684 -43.848  27.144  1.00  0.00     0.000 C 
BRANCH  17  18
ATOM     18  C   UNL     1      17.285 -44.194  25.769  1.00  0.00     0.000 C 
BRANCH  18  19
ATOM     19  C   UNL     1      18.534 -43.386  25.375  1.00  0.00     0.000 C 
BRANCH  19  20
ATOM     20  C   UNL     1      18.503 -41.940  25.897  1.00  0.00     0.000 C 
BRANCH  20  21
ATOM     21  C   UNL     1      18.218 -40.915  24.782  1.00  0.00     0.000 C 
BRANCH  21  22
ATOM     22  C   UNL     1      18.505 -39.453  25.174  1.00  0.00    -0.000 C 
BRANCH  22  23
ATOM     23  C   UNL     1      17.987 -39.107  26.582  1.00  0.00    -0.000 C 
BRANCH  23  24
ATOM     24  C   UNL     1      16.599 -38.446  26.556  1.00  0.00    -0.000 C 
BRANCH  24  25
ATOM     25  C   UNL     1      15.651 -39.017  27.621  1.00  0.00    -0.000 C 
BRANCH  25  26
ATOM     26  C   UNL     1      15.470 -40.531  27.440  1.00  0.00    -0.000 C 
BRANCH  26  27
ATOM     27  C   UNL     1      14.031 -40.923  27.067  1.00  0.00    -0.000 C 
BRANCH  27  28
ATOM     28  C   UNL     1      13.940 -41.816  25.810  1.00  0.00    -0.000 C 
BRANCH  28  29
ATOM     29  C   UNL     1      14.788 -41.271  24.651  1.00  0.00    -0.003 C 
ATOM     30  C   UNL     1      14.146 -40.032  24.034  1.00  0.00     0.004 C 
ENDBRANCH  28  29
ENDBRANCH  27  28
ENDBRANCH  26  27
ENDBRANCH  25  26
ENDBRANCH  24  25
ENDBRANCH  23  24
ENDBRANCH  22  23
ENDBRANCH  21  22
ENDBRANCH  20  21
ENDBRANCH  19  20
ENDBRANCH  18  19
ENDBRANCH  17  18
ENDBRANCH   1  17
TORSDOF 26
ENDMDL
MODEL 8
REMARK VINA RESULT:    -4.228      1.462      5.755
REMARK INTER + INTRA:         -16.794
REMARK INTER:                 -10.794
REMARK INTRA:                  -6.000
REMARK UNBOUND:                -6.138
REMARK SMILES CCCCCCCCCCCCCCCCCCCCCCCCCCCC(=O)[O-]
REMARK SMILES IDX 15 1 16 2 17 3 18 4 19 5 20 6 21 7 22 8 23 9 24 10 25 11
REMARK SMILES IDX 26 12 27 13 28 14 29 15 30 16 14 17 13 18 12 19 11 20 10 21
REMARK SMILES IDX 9 22 8 23 7 24 6 25 5 26 4 27 3 28 2 29 1 30
REMARK H PARENT
REMARK Flexibility Score: inf
ROOT
ATOM      1  C   UNL     1      15.212 -43.003  26.357  1.00  0.00     0.000 C 
ENDROOT
BRANCH   1   2
ATOM      2  C   UNL     1      16.372 -43.204  25.369  1.00  0.00     0.000 C 
BRANCH   2   3
ATOM      3  C   UNL     1      17.735 -43.349  26.071  1.00  0.00     0.000 C 
BRANCH   3   4
ATOM      4  C   UNL     1      18.808 -42.426  25.453  1.00  0.00     0.000 C 
BRANCH   4   5
ATOM      5  C   UNL     1      18.224 -41.273  24.620  1.00  0.00     0.000 C 
BRANCH   5   6
ATOM      6  C   UNL     1      18.577 -39.890  25.184  1.00  0.00     0.000 C 
BRANCH   6   7
ATOM      7  C   UNL     1      17.835 -39.623  26.498  1.00  0.00     0.000 C 
BRANCH   7   8
ATOM      8  C   UNL     1      18.827 -39.414  27.653  1.00  0.00     0.000 C 
BRANCH   8   9
ATOM      9  C   UNL     1      18.406 -40.143  28.939  1.00  0.00     0.000 C 
BRANCH   9  10
ATOM     10  C   UNL     1      19.049 -41.534  29.069  1.00  0.00     0.000 C 
BRANCH  10  11
ATOM     11  C   UNL     1      19.330 -41.918  30.531  1.00  0.00     0.000 C 
BRANCH  11  12
ATOM     12  C   UNL     1      19.920 -43.333  30.665  1.00  0.00     0.006 C 
BRANCH  12  13
ATOM     13  C   UNL     1      18.832 -44.402  30.841  1.00  0.00     0.053 C 
BRANCH  13  14
ATOM     14  C   UNL     1      18.541 -44.669  32.286  1.00  0.00     0.041 C 
ATOM     15  O   UNL     1      18.050 -43.763  33.011  1.00  0.00    -0.550 OA
ATOM     16  O   UNL     1      18.841 -45.906  32.840  1.00  0.00    -0.550 OA
ENDBRANCH  13  14
ENDBRANCH  12  13
ENDBRANCH  11  12
ENDBRANCH  10  11
ENDBRANCH   9  10
ENDBRANCH   8   9
ENDBRANCH   7   8
ENDBRANCH   6   7
ENDBRANCH   5   6
ENDBRANCH   4   5
ENDBRANCH   3   4
ENDBRANCH   2   3
ENDBRANCH   1   2
BRANCH   1  17
ATOM     17  C   UNL     1      15.695 -42.655  27.776  1.00  0.00     0.000 C 
BRANCH  17  18
ATOM     18  C   UNL     1      15.081 -41.349  28.315  1.00  0.00     0.000 C 
BRANCH  18  19
ATOM     19  C   UNL     1      14.955 -41.265  29.847  1.00  0.00     0.000 C 
BRANCH  19  20
ATOM     20  C   UNL     1      15.673 -42.416  30.572  1.00  0.00     0.000 C 
BRANCH  20  21
ATOM     21  C   UNL     1      14.829 -43.010  31.716  1.00  0.00     0.000 C 
BRANCH  21  22
ATOM     22  C   UNL     1      14.462 -44.495  31.529  1.00  0.00    -0.000 C 
BRANCH  22  23
ATOM     23  C   UNL     1      15.322 -45.186  30.455  1.00  0.00    -0.000 C 
BRANCH  23  24
ATOM     24  C   UNL     1      14.523 -45.532  29.189  1.00  0.00    -0.000 C 
BRANCH  24  25
ATOM     25  C   UNL     1      13.018 -45.265  29.345  1.00  0.00    -0.000 C 
BRANCH  25  26
ATOM     26  C   UNL     1      12.459 -44.543  28.110  1.00  0.00    -0.000 C 
BRANCH  26  27
ATOM     27  C   UNL     1      11.723 -43.238  28.461  1.00  0.00    -0.000 C 
BRANCH  27  28
ATOM     28  C   UNL     1      11.448 -43.071  29.971  1.00  0.00    -0.000 C 
BRANCH  28  29
ATOM     29  C   UNL     1      11.295 -41.596  30.371  1.00  0.00    -0.003 C 
ATOM     30  C   UNL     1      11.344 -40.685  29.148  1.00  0.00     0.004 C 
ENDBRANCH  28  29
ENDBRANCH  27  28
ENDBRANCH  26  27
ENDBRANCH  25  26
ENDBRANCH  24  25
ENDBRANCH  23  24
ENDBRANCH  22  23
ENDBRANCH  21  22
ENDBRANCH  20  21
ENDBRANCH  19  20
ENDBRANCH  18  19
ENDBRANCH  17  18
ENDBRANCH   1  17
TORSDOF 26
ENDMDL
MODEL 9
REMARK VINA RESULT:    -4.200      2.916      5.965
REMARK INTER + INTRA:         -16.723
REMARK INTER:                 -11.326
REMARK INTRA:                  -5.397
REMARK UNBOUND:                -6.138
REMARK SMILES CCCCCCCCCCCCCCCCCCCCCCCCCCCC(=O)[O-]
REMARK SMILES IDX 15 1 16 2 17 3 18 4 19 5 20 6 21 7 22 8 23 9 24 10 25 11
REMARK SMILES IDX 26 12 27 13 28 14 29 15 30 16 14 17 13 18 12 19 11 20 10 21
REMARK SMILES IDX 9 22 8 23 7 24 6 25 5 26 4 27 3 28 2 29 1 30
REMARK H PARENT
REMARK Flexibility Score: inf
ROOT
ATOM      1  C   UNL     1      18.200 -39.656  25.424  1.00  0.00     0.000 C 
ENDROOT
BRANCH   1   2
ATOM      2  C   UNL     1      18.270 -40.747  24.343  1.00  0.00     0.000 C 
BRANCH   2   3
ATOM      3  C   UNL     1      18.647 -42.127  24.911  1.00  0.00     0.000 C 
BRANCH   3   4
ATOM      4  C   UNL     1      18.706 -42.126  26.454  1.00  0.00     0.000 C 
BRANCH   4   5
ATOM      5  C   UNL     1      17.611 -42.981  27.112  1.00  0.00     0.000 C 
BRANCH   5   6
ATOM      6  C   UNL     1      17.362 -44.305  26.376  1.00  0.00     0.000 C 
BRANCH   6   7
ATOM      7  C   UNL     1      17.170 -45.460  27.365  1.00  0.00     0.000 C 
BRANCH   7   8
ATOM      8  C   UNL     1      16.565 -44.955  28.684  1.00  0.00     0.000 C 
BRANCH   8   9
ATOM      9  C   UNL     1      15.126 -45.447  28.906  1.00  0.00     0.000 C 
BRANCH   9  10
ATOM     10  C   UNL     1      14.159 -44.307  29.266  1.00  0.00     0.000 C 
BRANCH  10  11
ATOM     11  C   UNL     1      14.857 -42.938  29.321  1.00  0.00     0.000 C 
BRANCH  11  12
ATOM     12  C   UNL     1      14.293 -41.947  28.288  1.00  0.00     0.006 C 
BRANCH  12  13
ATOM     13  C   UNL     1      13.878 -42.641  26.983  1.00  0.00     0.053 C 
BRANCH  13  14
ATOM     14  C   UNL     1      12.449 -42.361  26.631  1.00  0.00     0.041 C 
ATOM     15  O   UNL     1      11.897 -42.980  25.682  1.00  0.00    -0.550 OA
ATOM     16  O   UNL     1      11.736 -41.395  27.329  1.00  0.00    -0.550 OA
ENDBRANCH  13  14
ENDBRANCH  12  13
ENDBRANCH  11  12
ENDBRANCH  10  11
ENDBRANCH   9  10
ENDBRANCH   8   9
ENDBRANCH   7   8
ENDBRANCH   6   7
ENDBRANCH   5   6
ENDBRANCH   4   5
ENDBRANCH   3   4
ENDBRANCH   2   3
ENDBRANCH   1   2
BRANCH   1  17
ATOM     17  C   UNL     1      16.804 -39.019  25.534  1.00  0.00     0.000 C 
BRANCH  17  18
ATOM     18  C   UNL     1      16.359 -38.799  26.992  1.00  0.00     0.000 C 
BRANCH  18  19
ATOM     19  C   UNL     1      17.443 -39.047  28.056  1.00  0.00     0.000 C 
BRANCH  19  20
ATOM     20  C   UNL     1      16.864 -39.491  29.410  1.00  0.00     0.000 C 
BRANCH  20  21
ATOM     21  C   UNL     1      17.738 -40.554  30.105  1.00  0.00     0.000 C 
BRANCH  21  22
ATOM     22  C   UNL     1      19.210 -40.562  29.651  1.00  0.00    -0.000 C 
BRANCH  22  23
ATOM     23  C   UNL     1      20.036 -41.660  30.343  1.00  0.00    -0.000 C 
BRANCH  23  24
ATOM     24  C   UNL     1      19.504 -43.072  30.054  1.00  0.00    -0.000 C 
BRANCH  24  25
ATOM     25  C   UNL     1      19.349 -43.920  31.325  1.00  0.00    -0.000 C 
BRANCH  25  26
ATOM     26  C   UNL     1      18.876 -43.058  32.505  1.00  0.00    -0.000 C 
BRANCH  26  27
ATOM     27  C   UNL     1      17.430 -43.364  32.931  1.00  0.00    -0.000 C 
BRANCH  27  28
ATOM     28  C   UNL     1      17.098 -44.872  32.949  1.00  0.00    -0.000 C 
BRANCH  28  29
ATOM     29  C   UNL     1      15.647 -45.149  32.528  1.00  0.00    -0.003 C 
ATOM     30  C   UNL     1      14.720 -44.020  32.967  1.00  0.00     0.004 C 
ENDBRANCH  28  29
ENDBRANCH  27  28
ENDBRANCH  26  27
ENDBRANCH  25  26
ENDBRANCH  24  25
ENDBRANCH  23  24
ENDBRANCH  22  23
ENDBRANCH  21  22
ENDBRANCH  20  21
ENDBRANCH  19  20
ENDBRANCH  18  19
ENDBRANCH  17  18
ENDBRANCH   1  17
TORSDOF 26
ENDMDL
