MODEL 1
REMARK VINA RESULT:    -5.498      0.000      0.000
REMARK INTER + INTRA:          -5.659
REMARK INTER:                  -5.659
REMARK INTRA:                   0.000
REMARK UNBOUND:                 0.000
REMARK SMILES Cc1cccc(O)c1C
REMARK SMILES IDX 1 1 2 2 8 3 6 4 5 5 4 6 3 7 9 8 7 9
REMARK H PARENT 7 10
REMARK Flexibility Score: inf
ROOT
ATOM      1  C   UNL     1      33.330 -15.091  43.249  1.00  0.00     0.045 C 
ATOM      2  C   UNL     1      32.343 -14.663  42.193  1.00  0.00    -0.045 A 
ATOM      3  C   UNL     1      31.974 -13.301  42.011  1.00  0.00    -0.006 A 
ATOM      4  C   UNL     1      31.040 -12.971  40.997  1.00  0.00     0.118 A 
ATOM      5  C   UNL     1      30.493 -13.976  40.194  1.00  0.00     0.046 A 
ATOM      6  C   UNL     1      30.858 -15.306  40.377  1.00  0.00     0.004 A 
ATOM      7  C   UNL     1      31.775 -15.649  41.368  1.00  0.00     0.004 A 
ATOM      8  C   UNL     1      32.553 -12.198  42.869  1.00  0.00     0.048 C 
ENDROOT
BRANCH   4   9
ATOM      9  O   UNL     1      30.631 -11.656  40.761  1.00  0.00    -0.508 OA
ATOM     10  H   UNL     1      29.831 -11.414  40.191  1.00  0.00     0.293 HD
ENDBRANCH   4   9
TORSDOF 1
ENDMDL
MODEL 2
REMARK VINA RESULT:    -4.963      1.016      2.639
REMARK INTER + INTRA:          -5.109
REMARK INTER:                  -5.109
REMARK INTRA:                   0.000
REMARK UNBOUND:                 0.000
REMARK SMILES Cc1cccc(O)c1C
REMARK SMILES IDX 1 1 2 2 8 3 6 4 5 5 4 6 3 7 9 8 7 9
REMARK H PARENT 7 10
REMARK Flexibility Score: inf
ROOT
ATOM      1  C   UNL     1      33.288 -14.796  43.501  1.00  0.00     0.045 C 
ATOM      2  C   UNL     1      32.449 -13.760  42.797  1.00  0.00    -0.045 A 
ATOM      3  C   UNL     1      31.707 -14.060  41.621  1.00  0.00    -0.006 A 
ATOM      4  C   UNL     1      30.940 -13.036  41.011  1.00  0.00     0.118 A 
ATOM      5  C   UNL     1      30.919 -11.752  41.564  1.00  0.00     0.046 A 
ATOM      6  C   UNL     1      31.647 -11.465  42.714  1.00  0.00     0.004 A 
ATOM      7  C   UNL     1      32.407 -12.458  43.327  1.00  0.00     0.004 A 
ATOM      8  C   UNL     1      31.715 -15.442  41.006  1.00  0.00     0.048 C 
ENDROOT
BRANCH   4   9
ATOM      9  O   UNL     1      30.187 -13.258  39.855  1.00  0.00    -0.508 OA
ATOM     10  H   UNL     1      29.180 -13.349  39.854  1.00  0.00     0.293 HD
ENDBRANCH   4   9
TORSDOF 1
ENDMDL
MODEL 3
REMARK VINA RESULT:    -4.912      1.497      2.841
REMARK INTER + INTRA:          -5.056
REMARK INTER:                  -5.056
REMARK INTRA:                   0.000
REMARK UNBOUND:                 0.000
REMARK SMILES Cc1cccc(O)c1C
REMARK SMILES IDX 1 1 2 2 8 3 6 4 5 5 4 6 3 7 9 8 7 9
REMARK H PARENT 7 10
REMARK Flexibility Score: inf
ROOT
ATOM      1  C   UNL     1      30.278 -14.697  39.964  1.00  0.00     0.045 C 
ATOM      2  C   UNL     1      31.308 -14.687  41.064  1.00  0.00    -0.045 A 
ATOM      3  C   UNL     1      31.658 -13.496  41.760  1.00  0.00    -0.006 A 
ATOM      4  C   UNL     1      32.636 -13.560  42.784  1.00  0.00     0.118 A 
ATOM      5  C   UNL     1      33.243 -14.779  43.099  1.00  0.00     0.046 A 
ATOM      6  C   UNL     1      32.896 -15.940  42.414  1.00  0.00     0.004 A 
ATOM      7  C   UNL     1      31.938 -15.897  41.404  1.00  0.00     0.004 A 
ATOM      8  C   UNL     1      31.014 -12.166  41.436  1.00  0.00     0.048 C 
ENDROOT
BRANCH   4   9
ATOM      9  O   UNL     1      33.029 -12.432  43.509  1.00  0.00    -0.508 OA
ATOM     10  H   UNL     1      33.205 -11.530  43.086  1.00  0.00     0.293 HD
ENDBRANCH   4   9
TORSDOF 1
ENDMDL
MODEL 4
REMARK VINA RESULT:    -4.895      1.970      2.992
REMARK INTER + INTRA:          -5.038
REMARK INTER:                  -5.038
REMARK INTRA:                   0.000
REMARK UNBOUND:                 0.000
REMARK SMILES Cc1cccc(O)c1C
REMARK SMILES IDX 1 1 2 2 8 3 6 4 5 5 4 6 3 7 9 8 7 9
REMARK H PARENT 7 10
REMARK Flexibility Score: inf
ROOT
ATOM      1  C   UNL     1      30.644 -12.526  40.833  1.00  0.00     0.045 C 
ATOM      2  C   UNL     1      31.405 -13.718  41.354  1.00  0.00    -0.045 A 
ATOM      3  C   UNL     1      32.433 -13.591  42.329  1.00  0.00    -0.006 A 
ATOM      4  C   UNL     1      33.107 -14.756  42.774  1.00  0.00     0.118 A 
ATOM      5  C   UNL     1      32.761 -16.007  42.257  1.00  0.00     0.046 A 
ATOM      6  C   UNL     1      31.753 -16.125  41.304  1.00  0.00     0.004 A 
ATOM      7  C   UNL     1      31.080 -14.991  40.854  1.00  0.00     0.004 A 
ATOM      8  C   UNL     1      32.825 -12.247  42.902  1.00  0.00     0.048 C 
ENDROOT
BRANCH   4   9
ATOM      9  O   UNL     1      34.127 -14.707  43.728  1.00  0.00    -0.508 OA
ATOM     10  H   UNL     1      35.110 -14.661  43.493  1.00  0.00     0.293 HD
ENDBRANCH   4   9
TORSDOF 1
ENDMDL
MODEL 5
REMARK VINA RESULT:    -4.864      1.552      2.661
REMARK INTER + INTRA:          -5.006
REMARK INTER:                  -5.006
REMARK INTRA:                   0.000
REMARK UNBOUND:                 0.000
REMARK SMILES Cc1cccc(O)c1C
REMARK SMILES IDX 1 1 2 2 8 3 6 4 5 5 4 6 3 7 9 8 7 9
REMARK H PARENT 7 10
REMARK Flexibility Score: inf
ROOT
ATOM      1  C   UNL     1      32.841 -12.131  43.224  1.00  0.00     0.045 C 
ATOM      2  C   UNL     1      32.552 -13.512  42.693  1.00  0.00    -0.045 A 
ATOM      3  C   UNL     1      31.508 -13.758  41.758  1.00  0.00    -0.006 A 
ATOM      4  C   UNL     1      31.293 -15.082  41.300  1.00  0.00     0.118 A 
ATOM      5  C   UNL     1      32.098 -16.125  41.767  1.00  0.00     0.046 A 
ATOM      6  C   UNL     1      33.117 -15.877  42.681  1.00  0.00     0.004 A 
ATOM      7  C   UNL     1      33.344 -14.582  43.143  1.00  0.00     0.004 A 
ATOM      8  C   UNL     1      30.625 -12.645  41.240  1.00  0.00     0.048 C 
ENDROOT
BRANCH   4   9
ATOM      9  O   UNL     1      30.287 -15.399  40.383  1.00  0.00    -0.508 OA
ATOM     10  H   UNL     1      30.371 -16.134  39.694  1.00  0.00     0.293 HD
ENDBRANCH   4   9
TORSDOF 1
ENDMDL
MODEL 6
REMARK VINA RESULT:    -4.819      1.830      3.440
REMARK INTER + INTRA:          -4.959
REMARK INTER:                  -4.959
REMARK INTRA:                   0.000
REMARK UNBOUND:                 0.000
REMARK SMILES Cc1cccc(O)c1C
REMARK SMILES IDX 1 1 2 2 8 3 6 4 5 5 4 6 3 7 9 8 7 9
REMARK H PARENT 7 10
REMARK Flexibility Score: inf
ROOT
ATOM      1  C   UNL     1      30.373 -15.094  39.903  1.00  0.00     0.045 C 
ATOM      2  C   UNL     1      31.036 -14.201  40.921  1.00  0.00    -0.045 A 
ATOM      3  C   UNL     1      32.039 -14.682  41.808  1.00  0.00    -0.006 A 
ATOM      4  C   UNL     1      32.619 -13.786  42.741  1.00  0.00     0.118 A 
ATOM      5  C   UNL     1      32.206 -12.451  42.782  1.00  0.00     0.046 A 
ATOM      6  C   UNL     1      31.225 -11.987  41.911  1.00  0.00     0.004 A 
ATOM      7  C   UNL     1      30.642 -12.853  40.988  1.00  0.00     0.004 A 
ATOM      8  C   UNL     1      32.501 -16.122  41.783  1.00  0.00     0.048 C 
ENDROOT
BRANCH   4   9
ATOM      9  O   UNL     1      33.608 -14.187  43.643  1.00  0.00    -0.508 OA
ATOM     10  H   UNL     1      34.569 -14.359  43.378  1.00  0.00     0.293 HD
ENDBRANCH   4   9
TORSDOF 1
ENDMDL
MODEL 7
REMARK VINA RESULT:    -4.798      1.540      2.613
REMARK INTER + INTRA:          -4.939
REMARK INTER:                  -4.939
REMARK INTRA:                   0.000
REMARK UNBOUND:                 0.000
REMARK SMILES Cc1cccc(O)c1C
REMARK SMILES IDX 1 1 2 2 8 3 6 4 5 5 4 6 3 7 9 8 7 9
REMARK H PARENT 7 10
REMARK Flexibility Score: inf
ROOT
ATOM      1  C   UNL     1      31.710 -16.056  41.303  1.00  0.00     0.045 C 
ATOM      2  C   UNL     1      31.653 -14.585  41.623  1.00  0.00    -0.045 A 
ATOM      3  C   UNL     1      32.540 -13.980  42.557  1.00  0.00    -0.006 A 
ATOM      4  C   UNL     1      32.430 -12.589  42.809  1.00  0.00     0.118 A 
ATOM      5  C   UNL     1      31.460 -11.831  42.147  1.00  0.00     0.046 A 
ATOM      6  C   UNL     1      30.596 -12.429  41.235  1.00  0.00     0.004 A 
ATOM      7  C   UNL     1      30.689 -13.794  40.974  1.00  0.00     0.004 A 
ATOM      8  C   UNL     1      33.596 -14.781  43.286  1.00  0.00     0.048 C 
ENDROOT
BRANCH   4   9
ATOM      9  O   UNL     1      33.266 -11.928  43.713  1.00  0.00    -0.508 OA
ATOM     10  H   UNL     1      33.835 -12.406  44.400  1.00  0.00     0.293 HD
ENDBRANCH   4   9
TORSDOF 1
ENDMDL
MODEL 8
REMARK VINA RESULT:    -4.660      3.194      4.608
REMARK INTER + INTRA:          -4.797
REMARK INTER:                  -4.797
REMARK INTRA:                   0.000
REMARK UNBOUND:                 0.000
REMARK SMILES Cc1cccc(O)c1C
REMARK SMILES IDX 1 1 2 2 8 3 6 4 5 5 4 6 3 7 9 8 7 9
REMARK H PARENT 7 10
REMARK Flexibility Score: inf
ROOT
ATOM      1  C   UNL     1      30.739 -12.584  41.591  1.00  0.00     0.045 C 
ATOM      2  C   UNL     1      30.436 -11.746  42.806  1.00  0.00    -0.045 A 
ATOM      3  C   UNL     1      31.462 -11.118  43.565  1.00  0.00    -0.006 A 
ATOM      4  C   UNL     1      31.104 -10.343  44.697  1.00  0.00     0.118 A 
ATOM      5  C   UNL     1      29.760 -10.204  45.055  1.00  0.00     0.046 A 
ATOM      6  C   UNL     1      28.761 -10.820  44.308  1.00  0.00     0.004 A 
ATOM      7  C   UNL     1      29.094 -11.586  43.192  1.00  0.00     0.004 A 
ATOM      8  C   UNL     1      32.922 -11.256  43.197  1.00  0.00     0.048 C 
ENDROOT
BRANCH   4   9
ATOM      9  O   UNL     1      32.058  -9.699  45.490  1.00  0.00    -0.508 OA
ATOM     10  H   UNL     1      31.908  -8.796  45.921  1.00  0.00     0.293 HD
ENDBRANCH   4   9
TORSDOF 1
ENDMDL
MODEL 9
REMARK VINA RESULT:    -4.513      8.431      9.626
REMARK INTER + INTRA:          -4.645
REMARK INTER:                  -4.645
REMARK INTRA:                   0.000
REMARK UNBOUND:                 0.000
REMARK SMILES Cc1cccc(O)c1C
REMARK SMILES IDX 1 1 2 2 8 3 6 4 5 5 4 6 3 7 9 8 7 9
REMARK H PARENT 7 10
REMARK Flexibility Score: inf
ROOT
ATOM      1  C   UNL     1      25.776  -4.974  42.751  1.00  0.00     0.045 C 
ATOM      2  C   UNL     1      25.508  -5.923  41.610  1.00  0.00    -0.045 A 
ATOM      3  C   UNL     1      26.558  -6.590  40.920  1.00  0.00    -0.006 A 
ATOM      4  C   UNL     1      26.233  -7.469  39.856  1.00  0.00     0.118 A 
ATOM      5  C   UNL     1      24.897  -7.670  39.497  1.00  0.00     0.046 A 
ATOM      6  C   UNL     1      23.875  -7.015  40.177  1.00  0.00     0.004 A 
ATOM      7  C   UNL     1      24.175  -6.147  41.224  1.00  0.00     0.004 A 
ATOM      8  C   UNL     1      28.010  -6.386  41.291  1.00  0.00     0.048 C 
ENDROOT
BRANCH   4   9
ATOM      9  O   UNL     1      27.211  -8.157  39.134  1.00  0.00    -0.508 OA
ATOM     10  H   UNL     1      28.202  -8.082  39.324  1.00  0.00     0.293 HD
ENDBRANCH   4   9
TORSDOF 1
ENDMDL
