MODEL 1
REMARK VINA RESULT:    -3.519      0.000      0.000
REMARK INTER + INTRA:          -4.441
REMARK INTER:                  -4.342
REMARK INTRA:                  -0.099
REMARK UNBOUND:                -0.099
REMARK SMILES CCCCCC(=O)[O-]
REMARK SMILES IDX 4 1 5 2 6 3 7 4 8 5 3 6 2 7 1 8
REMARK H PARENT
REMARK Flexibility Score: inf
ROOT
ATOM      1  C   UNL     1     -16.168 -14.362  -4.053  1.00  0.00     0.006 C 
ENDROOT
BRANCH   1   2
ATOM      2  C   UNL     1     -16.147 -14.497  -5.579  1.00  0.00     0.053 C 
BRANCH   2   3
ATOM      3  C   UNL     1     -16.449 -13.182  -6.226  1.00  0.00     0.041 C 
ATOM      4  O   UNL     1     -15.696 -12.193  -6.032  1.00  0.00    -0.550 OA
ATOM      5  O   UNL     1     -17.536 -13.063  -7.082  1.00  0.00    -0.550 OA
ENDBRANCH   2   3
ENDBRANCH   1   2
BRANCH   1   6
ATOM      6  C   UNL     1     -15.756 -15.676  -3.379  1.00  0.00     0.000 C 
BRANCH   6   7
ATOM      7  C   UNL     1     -16.935 -16.300  -2.624  1.00  0.00    -0.003 C 
ATOM      8  C   UNL     1     -17.598 -17.400  -3.448  1.00  0.00     0.004 C 
ENDBRANCH   6   7
ENDBRANCH   1   6
TORSDOF 4
ENDMDL
MODEL 2
REMARK VINA RESULT:    -3.504      3.297      4.633
REMARK INTER + INTRA:          -4.422
REMARK INTER:                  -4.261
REMARK INTRA:                  -0.161
REMARK UNBOUND:                -0.099
REMARK SMILES CCCCCC(=O)[O-]
REMARK SMILES IDX 4 1 5 2 6 3 7 4 8 5 3 6 2 7 1 8
REMARK H PARENT
REMARK Flexibility Score: inf
ROOT
ATOM      1  C   UNL     1     -16.002 -17.007  -2.763  1.00  0.00     0.006 C 
ENDROOT
BRANCH   1   2
ATOM      2  C   UNL     1     -17.510 -16.981  -3.032  1.00  0.00     0.053 C 
BRANCH   2   3
ATOM      3  C   UNL     1     -17.927 -18.196  -3.796  1.00  0.00     0.041 C 
ATOM      4  O   UNL     1     -18.912 -18.880  -3.411  1.00  0.00    -0.550 OA
ATOM      5  O   UNL     1     -17.260 -18.547  -4.963  1.00  0.00    -0.550 OA
ENDBRANCH   2   3
ENDBRANCH   1   2
BRANCH   1   6
ATOM      6  C   UNL     1     -15.313 -15.780  -3.373  1.00  0.00     0.000 C 
BRANCH   6   7
ATOM      7  C   UNL     1     -16.343 -14.732  -3.810  1.00  0.00    -0.003 C 
ATOM      8  C   UNL     1     -16.209 -14.415  -5.297  1.00  0.00     0.004 C 
ENDBRANCH   6   7
ENDBRANCH   1   6
TORSDOF 4
ENDMDL
MODEL 3
REMARK VINA RESULT:    -3.368      9.989     10.502
REMARK INTER + INTRA:          -4.255
REMARK INTER:                  -4.138
REMARK INTRA:                  -0.117
REMARK UNBOUND:                -0.099
REMARK SMILES CCCCCC(=O)[O-]
REMARK SMILES IDX 4 1 5 2 6 3 7 4 8 5 3 6 2 7 1 8
REMARK H PARENT
REMARK Flexibility Score: inf
ROOT
ATOM      1  C   UNL     1     -22.514 -12.349   4.486  1.00  0.00     0.006 C 
ENDROOT
BRANCH   1   2
ATOM      2  C   UNL     1     -21.126 -12.536   3.867  1.00  0.00     0.053 C 
BRANCH   2   3
ATOM      3  C   UNL     1     -20.351 -11.258   3.921  1.00  0.00     0.041 C 
ATOM      4  O   UNL     1     -20.935 -10.174   4.181  1.00  0.00    -0.550 OA
ATOM      5  O   UNL     1     -18.975 -11.271   3.732  1.00  0.00    -0.550 OA
ENDBRANCH   2   3
ENDBRANCH   1   2
BRANCH   1   6
ATOM      6  C   UNL     1     -23.459 -13.483   4.070  1.00  0.00     0.000 C 
BRANCH   6   7
ATOM      7  C   UNL     1     -22.843 -14.330   2.950  1.00  0.00    -0.003 C 
ATOM      8  C   UNL     1     -23.745 -15.506   2.588  1.00  0.00     0.004 C 
ENDBRANCH   6   7
ENDBRANCH   1   6
TORSDOF 4
ENDMDL
MODEL 4
REMARK VINA RESULT:    -3.326      2.000      2.977
REMARK INTER + INTRA:          -4.203
REMARK INTER:                  -4.070
REMARK INTRA:                  -0.133
REMARK UNBOUND:                -0.099
REMARK SMILES CCCCCC(=O)[O-]
REMARK SMILES IDX 4 1 5 2 6 3 7 4 8 5 3 6 2 7 1 8
REMARK H PARENT
REMARK Flexibility Score: inf
ROOT
ATOM      1  C   UNL     1     -16.336 -17.335  -3.172  1.00  0.00     0.006 C 
ENDROOT
BRANCH   1   2
ATOM      2  C   UNL     1     -15.900 -15.880  -2.981  1.00  0.00     0.053 C 
BRANCH   2   3
ATOM      3  C   UNL     1     -15.939 -15.145  -4.283  1.00  0.00     0.041 C 
ATOM      4  O   UNL     1     -16.281 -13.934  -4.317  1.00  0.00    -0.550 OA
ATOM      5  O   UNL     1     -15.552 -15.784  -5.453  1.00  0.00    -0.550 OA
ENDBRANCH   2   3
ENDBRANCH   1   2
BRANCH   1   6
ATOM      6  C   UNL     1     -17.859 -17.437  -3.326  1.00  0.00     0.000 C 
BRANCH   6   7
ATOM      7  C   UNL     1     -18.236 -18.475  -4.389  1.00  0.00    -0.003 C 
ATOM      8  C   UNL     1     -19.547 -19.173  -4.038  1.00  0.00     0.004 C 
ENDBRANCH   6   7
ENDBRANCH   1   6
TORSDOF 4
ENDMDL
MODEL 5
REMARK VINA RESULT:    -3.251     10.172     11.172
REMARK INTER + INTRA:          -4.111
REMARK INTER:                  -4.020
REMARK INTRA:                  -0.090
REMARK UNBOUND:                -0.099
REMARK SMILES CCCCCC(=O)[O-]
REMARK SMILES IDX 4 1 5 2 6 3 7 4 8 5 3 6 2 7 1 8
REMARK H PARENT
REMARK Flexibility Score: inf
ROOT
ATOM      1  C   UNL     1     -21.713 -12.253   4.130  1.00  0.00     0.006 C 
ENDROOT
BRANCH   1   2
ATOM      2  C   UNL     1     -23.120 -12.773   4.437  1.00  0.00     0.053 C 
BRANCH   2   3
ATOM      3  C   UNL     1     -23.454 -13.934   3.556  1.00  0.00     0.041 C 
ATOM      4  O   UNL     1     -22.576 -14.433   2.805  1.00  0.00    -0.550 OA
ATOM      5  O   UNL     1     -24.723 -14.498   3.600  1.00  0.00    -0.550 OA
ENDBRANCH   2   3
ENDBRANCH   1   2
BRANCH   1   6
ATOM      6  C   UNL     1     -21.590 -10.763   4.471  1.00  0.00     0.000 C 
BRANCH   6   7
ATOM      7  C   UNL     1     -20.249 -10.197   3.987  1.00  0.00    -0.003 C 
ATOM      8  C   UNL     1     -19.299 -11.314   3.567  1.00  0.00     0.004 C 
ENDBRANCH   6   7
ENDBRANCH   1   6
TORSDOF 4
ENDMDL
MODEL 6
REMARK VINA RESULT:    -3.231      2.256      3.342
REMARK INTER + INTRA:          -4.086
REMARK INTER:                  -4.002
REMARK INTRA:                  -0.084
REMARK UNBOUND:                -0.099
REMARK SMILES CCCCCC(=O)[O-]
REMARK SMILES IDX 4 1 5 2 6 3 7 4 8 5 3 6 2 7 1 8
REMARK H PARENT
REMARK Flexibility Score: inf
ROOT
ATOM      1  C   UNL     1     -17.531 -16.960  -3.046  1.00  0.00     0.006 C 
ENDROOT
BRANCH   1   2
ATOM      2  C   UNL     1     -16.056 -16.568  -3.165  1.00  0.00     0.053 C 
BRANCH   2   3
ATOM      3  C   UNL     1     -15.868 -15.557  -4.251  1.00  0.00     0.041 C 
ATOM      4  O   UNL     1     -15.362 -15.898  -5.353  1.00  0.00    -0.550 OA
ATOM      5  O   UNL     1     -16.298 -14.250  -4.066  1.00  0.00    -0.550 OA
ENDBRANCH   2   3
ENDBRANCH   1   2
BRANCH   1   6
ATOM      6  C   UNL     1     -17.896 -18.046  -4.066  1.00  0.00     0.000 C 
BRANCH   6   7
ATOM      7  C   UNL     1     -18.903 -19.040  -3.475  1.00  0.00    -0.003 C 
ATOM      8  C   UNL     1     -20.066 -19.279  -4.433  1.00  0.00     0.004 C 
ENDBRANCH   6   7
ENDBRANCH   1   6
TORSDOF 4
ENDMDL
MODEL 7
REMARK VINA RESULT:    -3.207     10.284     11.114
REMARK INTER + INTRA:          -4.056
REMARK INTER:                  -3.938
REMARK INTRA:                  -0.118
REMARK UNBOUND:                -0.099
REMARK SMILES CCCCCC(=O)[O-]
REMARK SMILES IDX 4 1 5 2 6 3 7 4 8 5 3 6 2 7 1 8
REMARK H PARENT
REMARK Flexibility Score: inf
ROOT
ATOM      1  C   UNL     1     -22.990 -12.687   4.429  1.00  0.00     0.006 C 
ENDROOT
BRANCH   1   2
ATOM      2  C   UNL     1     -22.513 -13.689   3.373  1.00  0.00     0.053 C 
BRANCH   2   3
ATOM      3  C   UNL     1     -23.594 -14.674   3.059  1.00  0.00     0.041 C 
ATOM      4  O   UNL     1     -23.304 -15.807   2.594  1.00  0.00    -0.550 OA
ATOM      5  O   UNL     1     -24.920 -14.359   3.327  1.00  0.00    -0.550 OA
ENDBRANCH   2   3
ENDBRANCH   1   2
BRANCH   1   6
ATOM      6  C   UNL     1     -21.859 -11.732   4.831  1.00  0.00     0.000 C 
BRANCH   6   7
ATOM      7  C   UNL     1     -20.539 -12.131   4.161  1.00  0.00    -0.003 C 
ATOM      8  C   UNL     1     -19.695 -10.902   3.833  1.00  0.00     0.004 C 
ENDBRANCH   6   7
ENDBRANCH   1   6
TORSDOF 4
ENDMDL
MODEL 8
REMARK VINA RESULT:    -3.189      3.789      5.059
REMARK INTER + INTRA:          -4.034
REMARK INTER:                  -3.929
REMARK INTRA:                  -0.104
REMARK UNBOUND:                -0.099
REMARK SMILES CCCCCC(=O)[O-]
REMARK SMILES IDX 4 1 5 2 6 3 7 4 8 5 3 6 2 7 1 8
REMARK H PARENT
REMARK Flexibility Score: inf
ROOT
ATOM      1  C   UNL     1     -16.813 -17.245  -4.124  1.00  0.00     0.006 C 
ENDROOT
BRANCH   1   2
ATOM      2  C   UNL     1     -18.062 -17.742  -3.390  1.00  0.00     0.053 C 
BRANCH   2   3
ATOM      3  C   UNL     1     -18.639 -18.934  -4.085  1.00  0.00     0.041 C 
ATOM      4  O   UNL     1     -19.796 -19.338  -3.796  1.00  0.00    -0.550 OA
ATOM      5  O   UNL     1     -17.919 -19.570  -5.088  1.00  0.00    -0.550 OA
ENDBRANCH   2   3
ENDBRANCH   1   2
BRANCH   1   6
ATOM      6  C   UNL     1     -15.836 -16.572  -3.153  1.00  0.00     0.000 C 
BRANCH   6   7
ATOM      7  C   UNL     1     -15.690 -15.078  -3.466  1.00  0.00    -0.003 C 
ATOM      8  C   UNL     1     -16.320 -14.734  -4.813  1.00  0.00     0.004 C 
ENDBRANCH   6   7
ENDBRANCH   1   6
TORSDOF 4
ENDMDL
MODEL 9
REMARK VINA RESULT:    -3.120      4.598      5.942
REMARK INTER + INTRA:          -3.949
REMARK INTER:                  -3.860
REMARK INTRA:                  -0.089
REMARK UNBOUND:                -0.099
REMARK SMILES CCCCCC(=O)[O-]
REMARK SMILES IDX 4 1 5 2 6 3 7 4 8 5 3 6 2 7 1 8
REMARK H PARENT
REMARK Flexibility Score: inf
ROOT
ATOM      1  C   UNL     1     -17.778 -18.492  -4.534  1.00  0.00     0.006 C 
ENDROOT
BRANCH   1   2
ATOM      2  C   UNL     1     -18.718 -18.722  -3.347  1.00  0.00     0.053 C 
BRANCH   2   3
ATOM      3  C   UNL     1     -19.811 -19.671  -3.720  1.00  0.00     0.041 C 
ATOM      4  O   UNL     1     -20.742 -19.299  -4.482  1.00  0.00    -0.550 OA
ATOM      5  O   UNL     1     -19.777 -20.983  -3.266  1.00  0.00    -0.550 OA
ENDBRANCH   2   3
ENDBRANCH   1   2
BRANCH   1   6
ATOM      6  C   UNL     1     -17.109 -17.114  -4.447  1.00  0.00     0.000 C 
BRANCH   6   7
ATOM      7  C   UNL     1     -16.616 -16.832  -3.023  1.00  0.00    -0.003 C 
ATOM      8  C   UNL     1     -15.328 -16.013  -3.038  1.00  0.00     0.004 C 
ENDBRANCH   6   7
ENDBRANCH   1   6
TORSDOF 4
ENDMDL
