MODEL 1
REMARK VINA RESULT:    -3.901      0.000      0.000
REMARK INTER + INTRA:          -7.899
REMARK INTER:                  -6.865
REMARK INTRA:                  -1.034
REMARK UNBOUND:                -1.034
REMARK SMILES CCCCCCCCCCCCCCC(=O)[O-]
REMARK SMILES IDX 9 1 10 2 11 3 12 4 13 5 14 6 15 7 16 8 17 9 8 10 7 11 6 12
REMARK SMILES IDX 5 13 4 14 3 15 2 16 1 17
REMARK H PARENT
REMARK Flexibility Score: inf
ROOT
ATOM      1  C   UNL     1      48.030  46.912  42.607  1.00  0.00     0.000 C 
ENDROOT
BRANCH   1   2
ATOM      2  C   UNL     1      49.468  47.428  42.477  1.00  0.00     0.000 C 
BRANCH   2   3
ATOM      3  C   UNL     1      50.473  46.266  42.501  1.00  0.00     0.000 C 
BRANCH   3   4
ATOM      4  C   UNL     1      51.861  46.684  43.018  1.00  0.00     0.000 C 
BRANCH   4   5
ATOM      5  C   UNL     1      52.367  45.894  44.243  1.00  0.00     0.006 C 
BRANCH   5   6
ATOM      6  C   UNL     1      51.274  45.516  45.255  1.00  0.00     0.053 C 
BRANCH   6   7
ATOM      7  C   UNL     1      50.861  46.683  46.096  1.00  0.00     0.041 C 
ATOM      8  O   UNL     1      49.641  46.970  46.226  1.00  0.00    -0.550 OA
ATOM      9  O   UNL     1      51.819  47.434  46.764  1.00  0.00    -0.550 OA
ENDBRANCH   6   7
ENDBRANCH   5   6
ENDBRANCH   4   5
ENDBRANCH   3   4
ENDBRANCH   2   3
ENDBRANCH   1   2
BRANCH   1  10
ATOM     10  C   UNL     1      47.923  45.454  42.141  1.00  0.00     0.000 C 
BRANCH  10  11
ATOM     11  C   UNL     1      46.866  45.308  41.036  1.00  0.00    -0.000 C 
BRANCH  11  12
ATOM     12  C   UNL     1      45.582  46.096  41.337  1.00  0.00    -0.000 C 
BRANCH  12  13
ATOM     13  C   UNL     1      44.326  45.211  41.328  1.00  0.00    -0.000 C 
BRANCH  13  14
ATOM     14  C   UNL     1      43.075  46.031  41.679  1.00  0.00    -0.000 C 
BRANCH  14  15
ATOM     15  C   UNL     1      43.064  47.422  41.019  1.00  0.00    -0.000 C 
BRANCH  15  16
ATOM     16  C   UNL     1      42.845  48.597  41.989  1.00  0.00    -0.003 C 
ATOM     17  C   UNL     1      44.054  49.527  42.085  1.00  0.00     0.004 C 
ENDBRANCH  15  16
ENDBRANCH  14  15
ENDBRANCH  13  14
ENDBRANCH  12  13
ENDBRANCH  11  12
ENDBRANCH  10  11
ENDBRANCH   1  10
TORSDOF 13
ENDMDL
MODEL 2
REMARK VINA RESULT:    -3.703      2.995      7.406
REMARK INTER + INTRA:          -7.551
REMARK INTER:                  -6.645
REMARK INTRA:                  -0.906
REMARK UNBOUND:                -1.034
REMARK SMILES CCCCCCCCCCCCCCC(=O)[O-]
REMARK SMILES IDX 9 1 10 2 11 3 12 4 13 5 14 6 15 7 16 8 17 9 8 10 7 11 6 12
REMARK SMILES IDX 5 13 4 14 3 15 2 16 1 17
REMARK H PARENT
REMARK Flexibility Score: inf
ROOT
ATOM      1  C   UNL     1      47.575  47.289  42.512  1.00  0.00     0.000 C 
ENDROOT
BRANCH   1   2
ATOM      2  C   UNL     1      47.123  46.010  41.798  1.00  0.00     0.000 C 
BRANCH   2   3
ATOM      3  C   UNL     1      45.927  46.289  40.875  1.00  0.00     0.000 C 
BRANCH   3   4
ATOM      4  C   UNL     1      44.594  46.400  41.636  1.00  0.00     0.000 C 
BRANCH   4   5
ATOM      5  C   UNL     1      43.526  47.283  40.958  1.00  0.00     0.006 C 
BRANCH   5   6
ATOM      6  C   UNL     1      42.826  48.276  41.899  1.00  0.00     0.053 C 
BRANCH   6   7
ATOM      7  C   UNL     1      43.721  49.414  42.280  1.00  0.00     0.041 C 
ATOM      8  O   UNL     1      44.585  49.840  41.469  1.00  0.00    -0.550 OA
ATOM      9  O   UNL     1      43.578  50.028  43.518  1.00  0.00    -0.550 OA
ENDBRANCH   6   7
ENDBRANCH   5   6
ENDBRANCH   4   5
ENDBRANCH   3   4
ENDBRANCH   2   3
ENDBRANCH   1   2
BRANCH   1  10
ATOM     10  C   UNL     1      49.088  47.274  42.764  1.00  0.00     0.000 C 
BRANCH  10  11
ATOM     11  C   UNL     1      49.863  47.118  41.447  1.00  0.00    -0.000 C 
BRANCH  11  12
ATOM     12  C   UNL     1      50.908  45.994  41.505  1.00  0.00    -0.000 C 
BRANCH  12  13
ATOM     13  C   UNL     1      50.950  45.292  42.871  1.00  0.00    -0.000 C 
BRANCH  13  14
ATOM     14  C   UNL     1      52.378  45.279  43.437  1.00  0.00    -0.000 C 
BRANCH  14  15
ATOM     15  C   UNL     1      52.512  46.079  44.746  1.00  0.00    -0.000 C 
BRANCH  15  16
ATOM     16  C   UNL     1      51.208  46.727  45.245  1.00  0.00    -0.003 C 
ATOM     17  C   UNL     1      51.310  47.248  46.679  1.00  0.00     0.004 C 
ENDBRANCH  15  16
ENDBRANCH  14  15
ENDBRANCH  13  14
ENDBRANCH  12  13
ENDBRANCH  11  12
ENDBRANCH  10  11
ENDBRANCH   1  10
TORSDOF 13
ENDMDL
MODEL 3
REMARK VINA RESULT:    -3.656      1.027      1.559
REMARK INTER + INTRA:          -7.468
REMARK INTER:                  -6.460
REMARK INTRA:                  -1.008
REMARK UNBOUND:                -1.034
REMARK SMILES CCCCCCCCCCCCCCC(=O)[O-]
REMARK SMILES IDX 9 1 10 2 11 3 12 4 13 5 14 6 15 7 16 8 17 9 8 10 7 11 6 12
REMARK SMILES IDX 5 13 4 14 3 15 2 16 1 17
REMARK H PARENT
REMARK Flexibility Score: inf
ROOT
ATOM      1  C   UNL     1      47.470  47.212  42.000  1.00  0.00     0.000 C 
ENDROOT
BRANCH   1   2
ATOM      2  C   UNL     1      48.732  47.389  41.146  1.00  0.00     0.000 C 
BRANCH   2   3
ATOM      3  C   UNL     1      49.989  47.432  42.026  1.00  0.00     0.000 C 
BRANCH   3   4
ATOM      4  C   UNL     1      50.462  46.035  42.468  1.00  0.00     0.000 C 
BRANCH   4   5
ATOM      5  C   UNL     1      50.058  45.633  43.902  1.00  0.00     0.006 C 
BRANCH   5   6
ATOM      6  C   UNL     1      50.099  46.781  44.923  1.00  0.00     0.053 C 
BRANCH   6   7
ATOM      7  C   UNL     1      51.384  46.805  45.690  1.00  0.00     0.041 C 
ATOM      8  O   UNL     1      52.421  46.279  45.205  1.00  0.00    -0.550 OA
ATOM      9  O   UNL     1      51.447  47.439  46.924  1.00  0.00    -0.550 OA
ENDBRANCH   6   7
ENDBRANCH   5   6
ENDBRANCH   4   5
ENDBRANCH   3   4
ENDBRANCH   2   3
ENDBRANCH   1   2
BRANCH   1  10
ATOM     10  C   UNL     1      46.762  45.891  41.670  1.00  0.00     0.000 C 
BRANCH  10  11
ATOM     11  C   UNL     1      45.463  46.143  40.890  1.00  0.00    -0.000 C 
BRANCH  11  12
ATOM     12  C   UNL     1      44.376  45.103  41.199  1.00  0.00    -0.000 C 
BRANCH  12  13
ATOM     13  C   UNL     1      43.088  45.735  41.747  1.00  0.00    -0.000 C 
BRANCH  13  14
ATOM     14  C   UNL     1      42.739  47.020  40.982  1.00  0.00    -0.000 C 
BRANCH  14  15
ATOM     15  C   UNL     1      42.536  48.233  41.909  1.00  0.00    -0.000 C 
BRANCH  15  16
ATOM     16  C   UNL     1      43.780  49.120  42.096  1.00  0.00    -0.003 C 
ATOM     17  C   UNL     1      43.682  50.036  43.316  1.00  0.00     0.004 C 
ENDBRANCH  15  16
ENDBRANCH  14  15
ENDBRANCH  13  14
ENDBRANCH  12  13
ENDBRANCH  11  12
ENDBRANCH  10  11
ENDBRANCH   1  10
TORSDOF 13
ENDMDL
MODEL 4
REMARK VINA RESULT:    -3.600      3.281      7.185
REMARK INTER + INTRA:          -7.371
REMARK INTER:                  -5.862
REMARK INTRA:                  -1.509
REMARK UNBOUND:                -1.034
REMARK SMILES CCCCCCCCCCCCCCC(=O)[O-]
REMARK SMILES IDX 9 1 10 2 11 3 12 4 13 5 14 6 15 7 16 8 17 9 8 10 7 11 6 12
REMARK SMILES IDX 5 13 4 14 3 15 2 16 1 17
REMARK H PARENT
REMARK Flexibility Score: inf
ROOT
ATOM      1  C   UNL     1      49.693  47.675  41.343  1.00  0.00     0.000 C 
ENDROOT
BRANCH   1   2
ATOM      2  C   UNL     1      48.875  47.375  42.605  1.00  0.00     0.000 C 
BRANCH   2   3
ATOM      3  C   UNL     1      48.019  46.113  42.418  1.00  0.00     0.000 C 
BRANCH   3   4
ATOM      4  C   UNL     1      47.380  46.022  41.021  1.00  0.00     0.000 C 
BRANCH   4   5
ATOM      5  C   UNL     1      45.844  46.165  40.994  1.00  0.00     0.006 C 
BRANCH   5   6
ATOM      6  C   UNL     1      45.317  47.503  41.537  1.00  0.00     0.053 C 
BRANCH   6   7
ATOM      7  C   UNL     1      43.824  47.516  41.642  1.00  0.00     0.041 C 
ATOM      8  O   UNL     1      43.182  48.575  41.410  1.00  0.00    -0.550 OA
ATOM      9  O   UNL     1      43.137  46.352  41.962  1.00  0.00    -0.550 OA
ENDBRANCH   6   7
ENDBRANCH   5   6
ENDBRANCH   4   5
ENDBRANCH   3   4
ENDBRANCH   2   3
ENDBRANCH   1   2
BRANCH   1  10
ATOM     10  C   UNL     1      51.184  47.398  41.574  1.00  0.00     0.000 C 
BRANCH  10  11
ATOM     11  C   UNL     1      51.565  45.995  41.079  1.00  0.00    -0.000 C 
BRANCH  11  12
ATOM     12  C   UNL     1      51.831  45.013  42.231  1.00  0.00    -0.000 C 
BRANCH  12  13
ATOM     13  C   UNL     1      53.073  45.388  43.055  1.00  0.00    -0.000 C 
BRANCH  13  14
ATOM     14  C   UNL     1      52.676  45.861  44.461  1.00  0.00    -0.000 C 
BRANCH  14  15
ATOM     15  C   UNL     1      51.265  45.402  44.873  1.00  0.00    -0.000 C 
BRANCH  15  16
ATOM     16  C   UNL     1      50.462  46.432  45.689  1.00  0.00    -0.003 C 
ATOM     17  C   UNL     1      51.348  47.336  46.546  1.00  0.00     0.004 C 
ENDBRANCH  15  16
ENDBRANCH  14  15
ENDBRANCH  13  14
ENDBRANCH  12  13
ENDBRANCH  11  12
ENDBRANCH  10  11
ENDBRANCH   1  10
TORSDOF 13
ENDMDL
MODEL 5
REMARK VINA RESULT:    -3.560      2.069      2.582
REMARK INTER + INTRA:          -7.300
REMARK INTER:                  -6.302
REMARK INTRA:                  -0.998
REMARK UNBOUND:                -1.034
REMARK SMILES CCCCCCCCCCCCCCC(=O)[O-]
REMARK SMILES IDX 9 1 10 2 11 3 12 4 13 5 14 6 15 7 16 8 17 9 8 10 7 11 6 12
REMARK SMILES IDX 5 13 4 14 3 15 2 16 1 17
REMARK H PARENT
REMARK Flexibility Score: inf
ROOT
ATOM      1  C   UNL     1      49.443  47.166  42.862  1.00  0.00     0.000 C 
ENDROOT
BRANCH   1   2
ATOM      2  C   UNL     1      49.104  46.213  44.015  1.00  0.00     0.000 C 
BRANCH   2   3
ATOM      3  C   UNL     1      50.002  46.480  45.231  1.00  0.00     0.000 C 
BRANCH   3   4
ATOM      4  C   UNL     1      51.490  46.610  44.862  1.00  0.00     0.000 C 
BRANCH   4   5
ATOM      5  C   UNL     1      52.206  45.277  44.558  1.00  0.00     0.006 C 
BRANCH   5   6
ATOM      6  C   UNL     1      52.606  45.089  43.086  1.00  0.00     0.053 C 
BRANCH   6   7
ATOM      7  C   UNL     1      53.576  46.135  42.630  1.00  0.00     0.041 C 
ATOM      8  O   UNL     1      53.213  47.022  41.813  1.00  0.00    -0.550 OA
ATOM      9  O   UNL     1      54.870  46.152  43.134  1.00  0.00    -0.550 OA
ENDBRANCH   6   7
ENDBRANCH   5   6
ENDBRANCH   4   5
ENDBRANCH   3   4
ENDBRANCH   2   3
ENDBRANCH   1   2
BRANCH   1  10
ATOM     10  C   UNL     1      48.999  46.580  41.515  1.00  0.00     0.000 C 
BRANCH  10  11
ATOM     11  C   UNL     1      47.481  46.722  41.328  1.00  0.00    -0.000 C 
BRANCH  11  12
ATOM     12  C   UNL     1      46.782  45.370  41.121  1.00  0.00    -0.000 C 
BRANCH  12  13
ATOM     13  C   UNL     1      45.250  45.491  41.092  1.00  0.00    -0.000 C 
BRANCH  13  14
ATOM     14  C   UNL     1      44.801  46.876  41.583  1.00  0.00    -0.000 C 
BRANCH  14  15
ATOM     15  C   UNL     1      43.270  47.026  41.635  1.00  0.00    -0.000 C 
BRANCH  15  16
ATOM     16  C   UNL     1      42.767  48.471  41.800  1.00  0.00    -0.003 C 
ATOM     17  C   UNL     1      43.842  49.422  42.327  1.00  0.00     0.004 C 
ENDBRANCH  15  16
ENDBRANCH  14  15
ENDBRANCH  13  14
ENDBRANCH  12  13
ENDBRANCH  11  12
ENDBRANCH  10  11
ENDBRANCH   1  10
TORSDOF 13
ENDMDL
MODEL 6
REMARK VINA RESULT:    -3.290      3.261      7.395
REMARK INTER + INTRA:          -6.824
REMARK INTER:                  -5.352
REMARK INTRA:                  -1.472
REMARK UNBOUND:                -1.034
REMARK SMILES CCCCCCCCCCCCCCC(=O)[O-]
REMARK SMILES IDX 9 1 10 2 11 3 12 4 13 5 14 6 15 7 16 8 17 9 8 10 7 11 6 12
REMARK SMILES IDX 5 13 4 14 3 15 2 16 1 17
REMARK H PARENT
REMARK Flexibility Score: inf
ROOT
ATOM      1  C   UNL     1      49.318  45.599  42.790  1.00  0.00     0.000 C 
ENDROOT
BRANCH   1   2
ATOM      2  C   UNL     1      48.414  45.847  41.577  1.00  0.00     0.000 C 
BRANCH   2   3
ATOM      3  C   UNL     1      48.250  47.351  41.312  1.00  0.00     0.000 C 
BRANCH   3   4
ATOM      4  C   UNL     1      46.824  47.731  40.875  1.00  0.00     0.000 C 
BRANCH   4   5
ATOM      5  C   UNL     1      45.733  47.510  41.943  1.00  0.00     0.006 C 
BRANCH   5   6
ATOM      6  C   UNL     1      44.337  48.012  41.544  1.00  0.00     0.053 C 
BRANCH   6   7
ATOM      7  C   UNL     1      44.139  49.455  41.890  1.00  0.00     0.041 C 
ATOM      8  O   UNL     1      43.515  49.777  42.936  1.00  0.00    -0.550 OA
ATOM      9  O   UNL     1      44.675  50.446  41.076  1.00  0.00    -0.550 OA
ENDBRANCH   6   7
ENDBRANCH   5   6
ENDBRANCH   4   5
ENDBRANCH   3   4
ENDBRANCH   2   3
ENDBRANCH   1   2
BRANCH   1  10
ATOM     10  C   UNL     1      49.156  46.710  43.835  1.00  0.00     0.000 C 
BRANCH  10  11
ATOM     11  C   UNL     1      49.907  46.362  45.129  1.00  0.00    -0.000 C 
BRANCH  11  12
ATOM     12  C   UNL     1      51.160  45.510  44.875  1.00  0.00    -0.000 C 
BRANCH  12  13
ATOM     13  C   UNL     1      52.454  46.337  44.896  1.00  0.00    -0.000 C 
BRANCH  13  14
ATOM     14  C   UNL     1      53.451  45.823  43.847  1.00  0.00    -0.000 C 
BRANCH  14  15
ATOM     15  C   UNL     1      52.791  45.518  42.490  1.00  0.00    -0.000 C 
BRANCH  15  16
ATOM     16  C   UNL     1      53.016  46.587  41.407  1.00  0.00    -0.003 C 
ATOM     17  C   UNL     1      51.947  47.680  41.416  1.00  0.00     0.004 C 
ENDBRANCH  15  16
ENDBRANCH  14  15
ENDBRANCH  13  14
ENDBRANCH  12  13
ENDBRANCH  11  12
ENDBRANCH  10  11
ENDBRANCH   1  10
TORSDOF 13
ENDMDL
MODEL 7
REMARK VINA RESULT:    -2.850     21.360     23.880
REMARK INTER + INTRA:          -6.050
REMARK INTER:                  -5.371
REMARK INTRA:                  -0.679
REMARK UNBOUND:                -1.034
REMARK SMILES CCCCCCCCCCCCCCC(=O)[O-]
REMARK SMILES IDX 9 1 10 2 11 3 12 4 13 5 14 6 15 7 16 8 17 9 8 10 7 11 6 12
REMARK SMILES IDX 5 13 4 14 3 15 2 16 1 17
REMARK H PARENT
REMARK Flexibility Score: inf
ROOT
ATOM      1  C   UNL     1      44.492  63.616  56.405  1.00  0.00     0.000 C 
ENDROOT
BRANCH   1   2
ATOM      2  C   UNL     1      45.100  64.586  55.385  1.00  0.00     0.000 C 
BRANCH   2   3
ATOM      3  C   UNL     1      44.024  65.123  54.429  1.00  0.00     0.000 C 
BRANCH   3   4
ATOM      4  C   UNL     1      42.597  64.966  54.982  1.00  0.00     0.000 C 
BRANCH   4   5
ATOM      5  C   UNL     1      41.471  65.125  53.938  1.00  0.00     0.006 C 
BRANCH   5   6
ATOM      6  C   UNL     1      41.726  64.398  52.609  1.00  0.00     0.053 C 
BRANCH   6   7
ATOM      7  C   UNL     1      40.641  64.659  51.610  1.00  0.00     0.041 C 
ATOM      8  O   UNL     1      40.888  64.596  50.376  1.00  0.00    -0.550 OA
ATOM      9  O   UNL     1      39.350  64.938  52.040  1.00  0.00    -0.550 OA
ENDBRANCH   6   7
ENDBRANCH   5   6
ENDBRANCH   4   5
ENDBRANCH   3   4
ENDBRANCH   2   3
ENDBRANCH   1   2
BRANCH   1  10
ATOM     10  C   UNL     1      45.443  63.393  57.588  1.00  0.00     0.000 C 
BRANCH  10  11
ATOM     11  C   UNL     1      45.320  64.530  58.614  1.00  0.00    -0.000 C 
BRANCH  11  12
ATOM     12  C   UNL     1      45.514  64.047  60.059  1.00  0.00    -0.000 C 
BRANCH  12  13
ATOM     13  C   UNL     1      46.824  63.266  60.253  1.00  0.00    -0.000 C 
BRANCH  13  14
ATOM     14  C   UNL     1      47.936  64.184  60.781  1.00  0.00    -0.000 C 
BRANCH  14  15
ATOM     15  C   UNL     1      49.079  64.387  59.769  1.00  0.00    -0.000 C 
BRANCH  15  16
ATOM     16  C   UNL     1      50.487  64.095  60.316  1.00  0.00    -0.003 C 
ATOM     17  C   UNL     1      51.520  63.862  59.214  1.00  0.00     0.004 C 
ENDBRANCH  15  16
ENDBRANCH  14  15
ENDBRANCH  13  14
ENDBRANCH  12  13
ENDBRANCH  11  12
ENDBRANCH  10  11
ENDBRANCH   1  10
TORSDOF 13
ENDMDL
MODEL 8
REMARK VINA RESULT:    -2.566     22.571     24.807
REMARK INTER + INTRA:          -5.551
REMARK INTER:                  -4.894
REMARK INTRA:                  -0.656
REMARK UNBOUND:                -1.034
REMARK SMILES CCCCCCCCCCCCCCC(=O)[O-]
REMARK SMILES IDX 9 1 10 2 11 3 12 4 13 5 14 6 15 7 16 8 17 9 8 10 7 11 6 12
REMARK SMILES IDX 5 13 4 14 3 15 2 16 1 17
REMARK H PARENT
REMARK Flexibility Score: inf
ROOT
ATOM      1  C   UNL     1      44.772  63.784  56.727  1.00  0.00     0.000 C 
ENDROOT
BRANCH   1   2
ATOM      2  C   UNL     1      43.651  64.116  55.734  1.00  0.00     0.000 C 
BRANCH   2   3
ATOM      3  C   UNL     1      42.273  63.813  56.340  1.00  0.00     0.000 C 
BRANCH   3   4
ATOM      4  C   UNL     1      41.509  65.082  56.758  1.00  0.00     0.000 C 
BRANCH   4   5
ATOM      5  C   UNL     1      40.580  64.914  57.978  1.00  0.00     0.006 C 
BRANCH   5   6
ATOM      6  C   UNL     1      39.087  65.121  57.678  1.00  0.00     0.053 C 
BRANCH   6   7
ATOM      7  C   UNL     1      38.259  63.956  58.122  1.00  0.00     0.041 C 
ATOM      8  O   UNL     1      37.011  64.077  58.250  1.00  0.00    -0.550 OA
ATOM      9  O   UNL     1      38.858  62.726  58.361  1.00  0.00    -0.550 OA
ENDBRANCH   6   7
ENDBRANCH   5   6
ENDBRANCH   4   5
ENDBRANCH   3   4
ENDBRANCH   2   3
ENDBRANCH   1   2
BRANCH   1  10
ATOM     10  C   UNL     1      44.960  64.918  57.744  1.00  0.00     0.000 C 
BRANCH  10  11
ATOM     11  C   UNL     1      46.271  64.744  58.525  1.00  0.00    -0.000 C 
BRANCH  11  12
ATOM     12  C   UNL     1      46.054  64.127  59.915  1.00  0.00    -0.000 C 
BRANCH  12  13
ATOM     13  C   UNL     1      46.909  62.871  60.148  1.00  0.00    -0.000 C 
BRANCH  13  14
ATOM     14  C   UNL     1      48.206  63.221  60.892  1.00  0.00    -0.000 C 
BRANCH  14  15
ATOM     15  C   UNL     1      49.468  62.977  60.045  1.00  0.00    -0.000 C 
BRANCH  15  16
ATOM     16  C   UNL     1      50.219  64.252  59.622  1.00  0.00    -0.003 C 
ATOM     17  C   UNL     1      51.678  63.990  59.247  1.00  0.00     0.004 C 
ENDBRANCH  15  16
ENDBRANCH  14  15
ENDBRANCH  13  14
ENDBRANCH  12  13
ENDBRANCH  11  12
ENDBRANCH  10  11
ENDBRANCH   1  10
TORSDOF 13
ENDMDL
