MODEL 1
REMARK VINA RESULT:    -1.859      0.000      0.000
REMARK INTER + INTRA:          -1.859
REMARK INTER:                  -1.859
REMARK INTRA:                   0.000
REMARK UNBOUND:                 0.000
REMARK SMILES CC(=O)[O-]
REMARK SMILES IDX 1 1 2 2 3 3 4 4
REMARK H PARENT
REMARK Flexibility Score: inf
ROOT
ATOM      1  C   UNL     1      31.069   7.784  16.068  1.00  0.00     0.063 C 
ATOM      2  C   UNL     1      30.081   7.575  14.970  1.00  0.00     0.038 C 
ATOM      3  O   UNL     1      29.857   8.494  14.140  1.00  0.00    -0.550 OA
ATOM      4  O   UNL     1      29.447   6.348  14.830  1.00  0.00    -0.550 OA
ENDROOT
TORSDOF 0
ENDMDL
MODEL 2
REMARK VINA RESULT:    -1.810      1.429      1.762
REMARK INTER + INTRA:          -1.810
REMARK INTER:                  -1.810
REMARK INTRA:                   0.000
REMARK UNBOUND:                 0.000
REMARK SMILES CC(=O)[O-]
REMARK SMILES IDX 1 1 2 2 3 3 4 4
REMARK H PARENT
REMARK Flexibility Score: inf
ROOT
ATOM      1  C   UNL     1      29.632   6.322  14.687  1.00  0.00     0.063 C 
ATOM      2  C   UNL     1      30.173   7.695  14.902  1.00  0.00     0.038 C 
ATOM      3  O   UNL     1      29.978   8.592  14.041  1.00  0.00    -0.550 OA
ATOM      4  O   UNL     1      30.846   8.001  16.077  1.00  0.00    -0.550 OA
ENDROOT
TORSDOF 0
ENDMDL
MODEL 3
REMARK VINA RESULT:    -1.802      1.417      2.075
REMARK INTER + INTRA:          -1.802
REMARK INTER:                  -1.802
REMARK INTRA:                   0.000
REMARK UNBOUND:                 0.000
REMARK SMILES CC(=O)[O-]
REMARK SMILES IDX 1 1 2 2 3 3 4 4
REMARK H PARENT
REMARK Flexibility Score: inf
ROOT
ATOM      1  C   UNL     1      29.609   6.345  14.701  1.00  0.00     0.063 C 
ATOM      2  C   UNL     1      30.152   7.715  14.930  1.00  0.00     0.038 C 
ATOM      3  O   UNL     1      30.770   7.978  15.994  1.00  0.00    -0.550 OA
ATOM      4  O   UNL     1      30.021   8.688  13.949  1.00  0.00    -0.550 OA
ENDROOT
TORSDOF 0
ENDMDL
MODEL 4
REMARK VINA RESULT:    -0.919     15.830     16.133
REMARK INTER + INTRA:          -0.919
REMARK INTER:                  -0.919
REMARK INTRA:                   0.000
REMARK UNBOUND:                 0.000
REMARK SMILES CC(=O)[O-]
REMARK SMILES IDX 1 1 2 2 3 3 4 4
REMARK H PARENT
REMARK Flexibility Score: inf
ROOT
ATOM      1  C   UNL     1      17.629  16.042  13.880  1.00  0.00     0.063 C 
ATOM      2  C   UNL     1      17.463  17.390  14.495  1.00  0.00     0.038 C 
ATOM      3  O   UNL     1      16.876  17.510  15.602  1.00  0.00    -0.550 OA
ATOM      4  O   UNL     1      18.001  18.510  13.875  1.00  0.00    -0.550 OA
ENDROOT
TORSDOF 0
ENDMDL
MODEL 5
REMARK VINA RESULT:    -0.822     15.692     16.105
REMARK INTER + INTRA:          -0.822
REMARK INTER:                  -0.822
REMARK INTRA:                   0.000
REMARK UNBOUND:                 0.000
REMARK SMILES CC(=O)[O-]
REMARK SMILES IDX 1 1 2 2 3 3 4 4
REMARK H PARENT
REMARK Flexibility Score: inf
ROOT
ATOM      1  C   UNL     1      18.002  18.648  13.949  1.00  0.00     0.063 C 
ATOM      2  C   UNL     1      17.416  17.331  14.328  1.00  0.00     0.038 C 
ATOM      3  O   UNL     1      16.365  17.283  15.018  1.00  0.00    -0.550 OA
ATOM      4  O   UNL     1      17.998  16.154  13.875  1.00  0.00    -0.550 OA
ENDROOT
TORSDOF 0
ENDMDL
MODEL 6
REMARK VINA RESULT:     0.071     16.690     16.872
REMARK INTER + INTRA:           0.071
REMARK INTER:                   0.071
REMARK INTRA:                   0.000
REMARK UNBOUND:                 0.000
REMARK SMILES CC(=O)[O-]
REMARK SMILES IDX 1 1 2 2 3 3 4 4
REMARK H PARENT
REMARK Flexibility Score: inf
ROOT
ATOM      1  C   UNL     1      18.227  17.393  20.160  1.00  0.00     0.063 C 
ATOM      2  C   UNL     1      16.920  17.104  19.503  1.00  0.00     0.038 C 
ATOM      3  O   UNL     1      16.545  17.786  18.515  1.00  0.00    -0.550 OA
ATOM      4  O   UNL     1      16.137  16.046  19.948  1.00  0.00    -0.550 OA
ENDROOT
TORSDOF 0
ENDMDL
MODEL 7
REMARK VINA RESULT:     0.500     16.620     16.923
REMARK INTER + INTRA:           0.500
REMARK INTER:                   0.500
REMARK INTRA:                   0.000
REMARK UNBOUND:                 0.000
REMARK SMILES CC(=O)[O-]
REMARK SMILES IDX 1 1 2 2 3 3 4 4
REMARK H PARENT
REMARK Flexibility Score: inf
ROOT
ATOM      1  C   UNL     1      16.210  15.986  20.060  1.00  0.00     0.063 C 
ATOM      2  C   UNL     1      17.031  17.122  19.550  1.00  0.00     0.038 C 
ATOM      3  O   UNL     1      16.582  17.865  18.639  1.00  0.00    -0.550 OA
ATOM      4  O   UNL     1      18.270  17.394  20.115  1.00  0.00    -0.550 OA
ENDROOT
TORSDOF 0
ENDMDL
MODEL 8
REMARK VINA RESULT:     0.656     16.504     16.827
REMARK INTER + INTRA:           0.656
REMARK INTER:                   0.656
REMARK INTRA:                   0.000
REMARK UNBOUND:                 0.000
REMARK SMILES CC(=O)[O-]
REMARK SMILES IDX 1 1 2 2 3 3 4 4
REMARK H PARENT
REMARK Flexibility Score: inf
ROOT
ATOM      1  C   UNL     1      16.458  17.838  18.786  1.00  0.00     0.063 C 
ATOM      2  C   UNL     1      17.289  17.073  19.760  1.00  0.00     0.038 C 
ATOM      3  O   UNL     1      16.900  15.951  20.177  1.00  0.00    -0.550 OA
ATOM      4  O   UNL     1      18.518  17.573  20.169  1.00  0.00    -0.550 OA
ENDROOT
TORSDOF 0
ENDMDL
