MODEL 1
REMARK VINA RESULT:    -3.711      0.000      0.000
REMARK INTER + INTRA:          -4.604
REMARK INTER:                  -4.470
REMARK INTRA:                  -0.134
REMARK UNBOUND:                -0.134
REMARK SMILES CC[C@H](C)[C@H]([NH3+])C(=O)[O-]
REMARK SMILES IDX 3 1 4 2 5 3 6 4 7 8 8 9 9 10 2 11 1 12
REMARK H PARENT 6 5 6 6 6 7
REMARK Flexibility Score: inf
ROOT
ATOM      1  C   UNL     1      -0.099  -4.400   8.705  1.00  0.00     0.050 C 
ATOM      2  C   UNL     1       1.055  -5.220   9.310  1.00  0.00     0.014 C 
ENDROOT
BRANCH   1   3
ATOM      3  C   UNL     1      -1.302  -5.259   8.195  1.00  0.00     0.230 C 
BRANCH   3   4
ATOM      4  N   UNL     1      -1.371  -5.276   6.727  1.00  0.00    -0.350 N 
ATOM      5  H   UNL     1      -2.277  -5.704   6.425  1.00  0.00     0.345 HD
ATOM      6  H   UNL     1      -1.313  -4.309   6.333  1.00  0.00     0.345 HD
ATOM      7  H   UNL     1      -0.594  -5.856   6.335  1.00  0.00     0.345 HD
ENDBRANCH   3   4
BRANCH   3   8
ATOM      8  C   UNL     1      -2.633  -4.851   8.776  1.00  0.00     0.099 C 
ATOM      9  O   UNL     1      -3.649  -5.582   8.634  1.00  0.00    -0.544 OA
ATOM     10  O   UNL     1      -2.740  -3.667   9.495  1.00  0.00    -0.544 OA
ENDBRANCH   3   8
ENDBRANCH   1   3
BRANCH   1  11
ATOM     11  C   UNL     1       0.393  -3.351   7.669  1.00  0.00     0.006 C 
ATOM     12  C   UNL     1       0.281  -1.886   8.105  1.00  0.00     0.004 C 
ENDBRANCH   1  11
TORSDOF 4
ENDMDL
MODEL 2
REMARK VINA RESULT:    -3.676      3.752      4.608
REMARK INTER + INTRA:          -4.562
REMARK INTER:                  -4.465
REMARK INTRA:                  -0.097
REMARK UNBOUND:                -0.134
REMARK SMILES CC[C@H](C)[C@H]([NH3+])C(=O)[O-]
REMARK SMILES IDX 3 1 4 2 5 3 6 4 7 8 8 9 9 10 2 11 1 12
REMARK H PARENT 6 5 6 6 6 7
REMARK Flexibility Score: inf
ROOT
ATOM      1  C   UNL     1       1.012  -4.813   7.295  1.00  0.00     0.050 C 
ATOM      2  C   UNL     1       1.722  -5.691   8.342  1.00  0.00     0.014 C 
ENDROOT
BRANCH   1   3
ATOM      3  C   UNL     1       1.602  -3.372   7.156  1.00  0.00     0.230 C 
BRANCH   3   4
ATOM      4  N   UNL     1       0.551  -2.347   7.229  1.00  0.00    -0.350 N 
ATOM      5  H   UNL     1      -0.363  -2.760   6.931  1.00  0.00     0.345 HD
ATOM      6  H   UNL     1       0.447  -1.978   8.201  1.00  0.00     0.345 HD
ATOM      7  H   UNL     1       0.773  -1.555   6.582  1.00  0.00     0.345 HD
ENDBRANCH   3   4
BRANCH   3   8
ATOM      8  C   UNL     1       2.441  -3.172   5.919  1.00  0.00     0.099 C 
ATOM      9  O   UNL     1       2.283  -3.905   4.907  1.00  0.00    -0.544 OA
ATOM     10  O   UNL     1       3.387  -2.155   5.883  1.00  0.00    -0.544 OA
ENDBRANCH   3   8
ENDBRANCH   1   3
BRANCH   1  11
ATOM     11  C   UNL     1      -0.535  -4.834   7.450  1.00  0.00     0.006 C 
ATOM     12  C   UNL     1      -1.068  -5.601   8.666  1.00  0.00     0.004 C 
ENDBRANCH   1  11
TORSDOF 4
ENDMDL
MODEL 3
REMARK VINA RESULT:    -3.544      7.635      8.394
REMARK INTER + INTRA:          -4.403
REMARK INTER:                  -4.314
REMARK INTRA:                  -0.089
REMARK UNBOUND:                -0.134
REMARK SMILES CC[C@H](C)[C@H]([NH3+])C(=O)[O-]
REMARK SMILES IDX 3 1 4 2 5 3 6 4 7 8 8 9 9 10 2 11 1 12
REMARK H PARENT 6 5 6 6 6 7
REMARK Flexibility Score: inf
ROOT
ATOM      1  C   UNL     1       5.865  -2.053   4.002  1.00  0.00     0.050 C 
ATOM      2  C   UNL     1       7.008  -1.744   4.987  1.00  0.00     0.014 C 
ENDROOT
BRANCH   1   3
ATOM      3  C   UNL     1       5.679  -3.573   3.689  1.00  0.00     0.230 C 
BRANCH   3   4
ATOM      4  N   UNL     1       5.390  -3.802   2.266  1.00  0.00    -0.350 N 
ATOM      5  H   UNL     1       6.033  -3.221   1.680  1.00  0.00     0.345 HD
ATOM      6  H   UNL     1       5.524  -4.807   2.008  1.00  0.00     0.345 HD
ATOM      7  H   UNL     1       4.408  -3.517   2.046  1.00  0.00     0.345 HD
ENDBRANCH   3   4
BRANCH   3   8
ATOM      8  C   UNL     1       4.641  -4.252   4.547  1.00  0.00     0.099 C 
ATOM      9  O   UNL     1       3.462  -3.811   4.603  1.00  0.00    -0.544 OA
ATOM     10  O   UNL     1       4.978  -5.389   5.270  1.00  0.00    -0.544 OA
ENDBRANCH   3   8
ENDBRANCH   1   3
BRANCH   1  11
ATOM     11  C   UNL     1       5.917  -1.163   2.729  1.00  0.00     0.006 C 
ATOM     12  C   UNL     1       7.301  -0.616   2.360  1.00  0.00     0.004 C 
ENDBRANCH   1  11
TORSDOF 4
ENDMDL
MODEL 4
REMARK VINA RESULT:    -3.529      3.311      4.310
REMARK INTER + INTRA:          -4.385
REMARK INTER:                  -4.284
REMARK INTRA:                  -0.101
REMARK UNBOUND:                -0.134
REMARK SMILES CC[C@H](C)[C@H]([NH3+])C(=O)[O-]
REMARK SMILES IDX 3 1 4 2 5 3 6 4 7 8 8 9 9 10 2 11 1 12
REMARK H PARENT 6 5 6 6 6 7
REMARK Flexibility Score: inf
ROOT
ATOM      1  C   UNL     1       0.403  -3.850   8.286  1.00  0.00     0.050 C 
ATOM      2  C   UNL     1      -0.406  -2.713   8.937  1.00  0.00     0.014 C 
ENDROOT
BRANCH   1   3
ATOM      3  C   UNL     1       0.546  -3.732   6.734  1.00  0.00     0.230 C 
BRANCH   3   4
ATOM      4  N   UNL     1      -0.030  -4.897   6.047  1.00  0.00    -0.350 N 
ATOM      5  H   UNL     1       0.343  -4.947   5.070  1.00  0.00     0.345 HD
ATOM      6  H   UNL     1       0.212  -5.787   6.540  1.00  0.00     0.345 HD
ATOM      7  H   UNL     1      -1.070  -4.806   5.990  1.00  0.00     0.345 HD
ENDBRANCH   3   4
BRANCH   3   8
ATOM      8  C   UNL     1       1.961  -3.498   6.267  1.00  0.00     0.099 C 
ATOM      9  O   UNL     1       2.853  -3.125   7.074  1.00  0.00    -0.544 OA
ATOM     10  O   UNL     1       2.293  -3.715   4.935  1.00  0.00    -0.544 OA
ENDBRANCH   3   8
ENDBRANCH   1   3
BRANCH   1  11
ATOM     11  C   UNL     1      -0.060  -5.257   8.758  1.00  0.00     0.006 C 
ATOM     12  C   UNL     1      -1.469  -5.324   9.358  1.00  0.00     0.004 C 
ENDBRANCH   1  11
TORSDOF 4
ENDMDL
MODEL 5
REMARK VINA RESULT:    -3.517      3.452      4.330
REMARK INTER + INTRA:          -4.371
REMARK INTER:                  -4.221
REMARK INTRA:                  -0.150
REMARK UNBOUND:                -0.134
REMARK SMILES CC[C@H](C)[C@H]([NH3+])C(=O)[O-]
REMARK SMILES IDX 3 1 4 2 5 3 6 4 7 8 8 9 9 10 2 11 1 12
REMARK H PARENT 6 5 6 6 6 7
REMARK Flexibility Score: inf
ROOT
ATOM      1  C   UNL     1       0.522  -4.060   8.335  1.00  0.00     0.050 C 
ATOM      2  C   UNL     1      -0.667  -3.445   9.098  1.00  0.00     0.014 C 
ENDROOT
BRANCH   1   3
ATOM      3  C   UNL     1       0.516  -3.777   6.798  1.00  0.00     0.230 C 
BRANCH   3   4
ATOM      4  N   UNL     1      -0.036  -4.908   6.040  1.00  0.00    -0.350 N 
ATOM      5  H   UNL     1       0.737  -5.561   5.773  1.00  0.00     0.345 HD
ATOM      6  H   UNL     1      -0.738  -5.438   6.606  1.00  0.00     0.345 HD
ATOM      7  H   UNL     1      -0.489  -4.568   5.161  1.00  0.00     0.345 HD
ENDBRANCH   3   4
BRANCH   3   8
ATOM      8  C   UNL     1       1.864  -3.387   6.244  1.00  0.00     0.099 C 
ATOM      9  O   UNL     1       2.694  -2.755   6.951  1.00  0.00    -0.544 OA
ATOM     10  O   UNL     1       2.207  -3.745   4.946  1.00  0.00    -0.544 OA
ENDBRANCH   3   8
ENDBRANCH   1   3
BRANCH   1  11
ATOM     11  C   UNL     1       0.745  -5.558   8.686  1.00  0.00     0.006 C 
ATOM     12  C   UNL     1       2.208  -5.988   8.849  1.00  0.00     0.004 C 
ENDBRANCH   1  11
TORSDOF 4
ENDMDL
MODEL 6
REMARK VINA RESULT:    -3.476     15.571     16.850
REMARK INTER + INTRA:          -4.322
REMARK INTER:                  -4.234
REMARK INTRA:                  -0.088
REMARK UNBOUND:                -0.134
REMARK SMILES CC[C@H](C)[C@H]([NH3+])C(=O)[O-]
REMARK SMILES IDX 3 1 4 2 5 3 6 4 7 8 8 9 9 10 2 11 1 12
REMARK H PARENT 6 5 6 6 6 7
REMARK Flexibility Score: inf
ROOT
ATOM      1  C   UNL     1       3.937   7.863   0.382  1.00  0.00     0.050 C 
ATOM      2  C   UNL     1       3.788   9.093   1.297  1.00  0.00     0.014 C 
ENDROOT
BRANCH   1   3
ATOM      3  C   UNL     1       5.168   7.920  -0.579  1.00  0.00     0.230 C 
BRANCH   3   4
ATOM      4  N   UNL     1       6.385   7.407   0.066  1.00  0.00    -0.350 N 
ATOM      5  H   UNL     1       6.147   6.564   0.640  1.00  0.00     0.345 HD
ATOM      6  H   UNL     1       7.104   7.134  -0.642  1.00  0.00     0.345 HD
ATOM      7  H   UNL     1       6.787   8.130   0.706  1.00  0.00     0.345 HD
ENDBRANCH   3   4
BRANCH   3   8
ATOM      8  C   UNL     1       5.425   9.288  -1.162  1.00  0.00     0.099 C 
ATOM      9  O   UNL     1       6.486   9.913  -0.897  1.00  0.00    -0.544 OA
ATOM     10  O   UNL     1       4.492   9.859  -2.019  1.00  0.00    -0.544 OA
ENDBRANCH   3   8
ENDBRANCH   1   3
BRANCH   1  11
ATOM     11  C   UNL     1       2.610   7.490  -0.337  1.00  0.00     0.006 C 
ATOM     12  C   UNL     1       1.600   6.701   0.505  1.00  0.00     0.004 C 
ENDBRANCH   1  11
TORSDOF 4
ENDMDL
MODEL 7
REMARK VINA RESULT:    -3.465      9.430     10.318
REMARK INTER + INTRA:          -4.308
REMARK INTER:                  -4.237
REMARK INTRA:                  -0.071
REMARK UNBOUND:                -0.134
REMARK SMILES CC[C@H](C)[C@H]([NH3+])C(=O)[O-]
REMARK SMILES IDX 3 1 4 2 5 3 6 4 7 8 8 9 9 10 2 11 1 12
REMARK H PARENT 6 5 6 6 6 7
REMARK Flexibility Score: inf
ROOT
ATOM      1  C   UNL     1       5.841  -2.020   3.384  1.00  0.00     0.050 C 
ATOM      2  C   UNL     1       5.681  -3.546   3.258  1.00  0.00     0.014 C 
ENDROOT
BRANCH   1   3
ATOM      3  C   UNL     1       6.867  -1.395   2.383  1.00  0.00     0.230 C 
BRANCH   3   4
ATOM      4  N   UNL     1       6.711   0.063   2.287  1.00  0.00    -0.350 N 
ATOM      5  H   UNL     1       6.243   0.423   3.151  1.00  0.00     0.345 HD
ATOM      6  H   UNL     1       7.637   0.538   2.188  1.00  0.00     0.345 HD
ATOM      7  H   UNL     1       6.108   0.309   1.468  1.00  0.00     0.345 HD
ENDBRANCH   3   4
BRANCH   3   8
ATOM      8  C   UNL     1       6.834  -2.015   1.008  1.00  0.00     0.099 C 
ATOM      9  O   UNL     1       5.984  -1.646   0.155  1.00  0.00    -0.544 OA
ATOM     10  O   UNL     1       7.763  -2.991   0.668  1.00  0.00    -0.544 OA
ENDBRANCH   3   8
ENDBRANCH   1   3
BRANCH   1  11
ATOM     11  C   UNL     1       6.058  -1.563   4.854  1.00  0.00     0.006 C 
ATOM     12  C   UNL     1       4.874  -0.835   5.502  1.00  0.00     0.004 C 
ENDBRANCH   1  11
TORSDOF 4
ENDMDL
MODEL 8
REMARK VINA RESULT:    -3.411     11.587     12.263
REMARK INTER + INTRA:          -4.243
REMARK INTER:                  -4.086
REMARK INTRA:                  -0.156
REMARK UNBOUND:                -0.134
REMARK SMILES CC[C@H](C)[C@H]([NH3+])C(=O)[O-]
REMARK SMILES IDX 3 1 4 2 5 3 6 4 7 8 8 9 9 10 2 11 1 12
REMARK H PARENT 6 5 6 6 6 7
REMARK Flexibility Score: inf
ROOT
ATOM      1  C   UNL     1      -2.635  -2.025  -3.951  1.00  0.00     0.050 C 
ATOM      2  C   UNL     1      -2.715  -2.011  -5.489  1.00  0.00     0.014 C 
ENDROOT
BRANCH   1   3
ATOM      3  C   UNL     1      -1.749  -0.890  -3.342  1.00  0.00     0.230 C 
BRANCH   3   4
ATOM      4  N   UNL     1      -0.411  -1.382  -2.982  1.00  0.00    -0.350 N 
ATOM      5  H   UNL     1       0.106  -1.658  -3.849  1.00  0.00     0.345 HD
ATOM      6  H   UNL     1       0.142  -0.647  -2.485  1.00  0.00     0.345 HD
ATOM      7  H   UNL     1      -0.489  -2.227  -2.370  1.00  0.00     0.345 HD
ENDBRANCH   3   4
BRANCH   3   8
ATOM      8  C   UNL     1      -2.380  -0.186  -2.167  1.00  0.00     0.099 C 
ATOM      9  O   UNL     1      -3.574  -0.420  -1.840  1.00  0.00    -0.544 OA
ATOM     10  O   UNL     1      -1.632   0.715  -1.419  1.00  0.00    -0.544 OA
ENDBRANCH   3   8
ENDBRANCH   1   3
BRANCH   1  11
ATOM     11  C   UNL     1      -2.308  -3.434  -3.383  1.00  0.00     0.006 C 
ATOM     12  C   UNL     1      -3.339  -4.009  -2.404  1.00  0.00     0.004 C 
ENDBRANCH   1  11
TORSDOF 4
ENDMDL
MODEL 9
REMARK VINA RESULT:    -3.382     13.569     14.232
REMARK INTER + INTRA:          -4.209
REMARK INTER:                  -4.107
REMARK INTRA:                  -0.101
REMARK UNBOUND:                -0.134
REMARK SMILES CC[C@H](C)[C@H]([NH3+])C(=O)[O-]
REMARK SMILES IDX 3 1 4 2 5 3 6 4 7 8 8 9 9 10 2 11 1 12
REMARK H PARENT 6 5 6 6 6 7
REMARK Flexibility Score: inf
ROOT
ATOM      1  C   UNL     1      -2.386  -0.437  -5.491  1.00  0.00     0.050 C 
ATOM      2  C   UNL     1      -3.790  -1.042  -5.681  1.00  0.00     0.014 C 
ENDROOT
BRANCH   1   3
ATOM      3  C   UNL     1      -2.215   0.392  -4.177  1.00  0.00     0.230 C 
BRANCH   3   4
ATOM      4  N   UNL     1      -1.529   1.668  -4.426  1.00  0.00    -0.350 N 
ATOM      5  H   UNL     1      -2.123   2.270  -5.042  1.00  0.00     0.345 HD
ATOM      6  H   UNL     1      -1.349   2.182  -3.534  1.00  0.00     0.345 HD
ATOM      7  H   UNL     1      -0.621   1.500  -4.917  1.00  0.00     0.345 HD
ENDBRANCH   3   4
BRANCH   3   8
ATOM      8  C   UNL     1      -1.529  -0.361  -3.064  1.00  0.00     0.099 C 
ATOM      9  O   UNL     1      -1.643   0.012  -1.866  1.00  0.00    -0.544 OA
ATOM     10  O   UNL     1      -0.777  -1.492  -3.357  1.00  0.00    -0.544 OA
ENDBRANCH   3   8
ENDBRANCH   1   3
BRANCH   1  11
ATOM     11  C   UNL     1      -1.879   0.305  -6.759  1.00  0.00     0.006 C 
ATOM     12  C   UNL     1      -2.964   0.732  -7.754  1.00  0.00     0.004 C 
ENDBRANCH   1  11
TORSDOF 4
ENDMDL
