MODEL 1
REMARK VINA RESULT:    -5.569      0.000      0.000
REMARK INTER + INTRA:          -8.408
REMARK INTER:                  -7.685
REMARK INTRA:                  -0.723
REMARK UNBOUND:                -0.723
REMARK SMILES CCCCc1cccc(O)c1CCCC
REMARK SMILES IDX 5 1 11 2 9 3 8 4 7 5 6 6 4 7 3 8 2 9 1 10 12 11 13 12 14 13
REMARK SMILES IDX 15 14 10 15
REMARK H PARENT 10 16
REMARK Flexibility Score: inf
ROOT
ATOM      1  C   UNL     1      -4.988  -4.754  14.359  1.00  0.00    -0.041 A 
ATOM      2  C   UNL     1      -5.826  -5.332  13.358  1.00  0.00    -0.003 A 
ATOM      3  C   UNL     1      -5.445  -5.224  12.000  1.00  0.00     0.119 A 
ATOM      4  C   UNL     1      -4.244  -4.598  11.649  1.00  0.00     0.046 A 
ATOM      5  C   UNL     1      -3.410  -4.074  12.631  1.00  0.00     0.004 A 
ATOM      6  C   UNL     1      -3.777  -4.151  13.973  1.00  0.00     0.004 A 
ENDROOT
BRANCH   1   7
ATOM      7  C   UNL     1      -5.334  -4.748  15.835  1.00  0.00     0.036 C 
BRANCH   7   8
ATOM      8  C   UNL     1      -4.440  -3.776  16.619  1.00  0.00     0.004 C 
BRANCH   8   9
ATOM      9  C   UNL     1      -5.173  -2.483  17.008  1.00  0.00    -0.003 C 
ATOM     10  C   UNL     1      -4.668  -1.266  16.233  1.00  0.00     0.004 C 
ENDBRANCH   8   9
ENDBRANCH   7   8
ENDBRANCH   1   7
BRANCH   2  11
ATOM     11  C   UNL     1      -7.095  -6.097  13.692  1.00  0.00     0.040 C 
BRANCH  11  12
ATOM     12  C   UNL     1      -6.855  -7.614  13.657  1.00  0.00     0.005 C 
BRANCH  12  13
ATOM     13  C   UNL     1      -8.000  -8.371  14.339  1.00  0.00    -0.003 C 
ATOM     14  C   UNL     1      -9.193  -7.456  14.592  1.00  0.00     0.004 C 
ENDBRANCH  12  13
ENDBRANCH  11  12
ENDBRANCH   2  11
BRANCH   3  15
ATOM     15  O   UNL     1      -6.266  -5.741  10.996  1.00  0.00    -0.508 OA
ATOM     16  H   UNL     1      -5.910  -6.377  10.292  1.00  0.00     0.293 HD
ENDBRANCH   3  15
TORSDOF 7
ENDMDL
MODEL 2
REMARK VINA RESULT:    -5.434     10.007     11.552
REMARK INTER + INTRA:          -8.222
REMARK INTER:                  -6.934
REMARK INTRA:                  -1.288
REMARK UNBOUND:                -0.723
REMARK SMILES CCCCc1cccc(O)c1CCCC
REMARK SMILES IDX 5 1 11 2 9 3 8 4 7 5 6 6 4 7 3 8 2 9 1 10 12 11 13 12 14 13
REMARK SMILES IDX 15 14 10 15
REMARK H PARENT 10 16
REMARK Flexibility Score: inf
ROOT
ATOM      1  C   UNL     1      -3.839  -5.544   2.556  1.00  0.00    -0.041 A 
ATOM      2  C   UNL     1      -4.714  -6.511   3.139  1.00  0.00    -0.003 A 
ATOM      3  C   UNL     1      -4.155  -7.610   3.832  1.00  0.00     0.119 A 
ATOM      4  C   UNL     1      -2.769  -7.724   3.979  1.00  0.00     0.046 A 
ATOM      5  C   UNL     1      -1.922  -6.757   3.446  1.00  0.00     0.004 A 
ATOM      6  C   UNL     1      -2.451  -5.679   2.742  1.00  0.00     0.004 A 
ENDROOT
BRANCH   1   7
ATOM      7  C   UNL     1      -4.326  -4.369   1.732  1.00  0.00     0.036 C 
BRANCH   7   8
ATOM      8  C   UNL     1      -4.188  -3.047   2.502  1.00  0.00     0.004 C 
BRANCH   8   9
ATOM      9  C   UNL     1      -5.468  -2.673   3.266  1.00  0.00    -0.003 C 
ATOM     10  C   UNL     1      -5.445  -3.151   4.717  1.00  0.00     0.004 C 
ENDBRANCH   8   9
ENDBRANCH   7   8
ENDBRANCH   1   7
BRANCH   2  11
ATOM     11  C   UNL     1      -6.227  -6.388   3.082  1.00  0.00     0.040 C 
BRANCH  11  12
ATOM     12  C   UNL     1      -6.784  -6.975   1.776  1.00  0.00     0.005 C 
BRANCH  12  13
ATOM     13  C   UNL     1      -7.670  -5.959   1.046  1.00  0.00    -0.003 C 
ATOM     14  C   UNL     1      -8.066  -4.811   1.968  1.00  0.00     0.004 C 
ENDBRANCH  12  13
ENDBRANCH  11  12
ENDBRANCH   2  11
BRANCH   3  15
ATOM     15  O   UNL     1      -4.984  -8.593   4.375  1.00  0.00    -0.508 OA
ATOM     16  H   UNL     1      -5.755  -8.361   4.990  1.00  0.00     0.293 HD
ENDBRANCH   3  15
TORSDOF 7
ENDMDL
MODEL 3
REMARK VINA RESULT:    -5.247     10.387     11.673
REMARK INTER + INTRA:          -7.964
REMARK INTER:                  -6.754
REMARK INTRA:                  -1.210
REMARK UNBOUND:                -0.723
REMARK SMILES CCCCc1cccc(O)c1CCCC
REMARK SMILES IDX 5 1 11 2 9 3 8 4 7 5 6 6 4 7 3 8 2 9 1 10 12 11 13 12 14 13
REMARK SMILES IDX 15 14 10 15
REMARK H PARENT 10 16
REMARK Flexibility Score: inf
ROOT
ATOM      1  C   UNL     1      -2.957  -5.633   2.560  1.00  0.00    -0.041 A 
ATOM      2  C   UNL     1      -4.303  -6.025   2.835  1.00  0.00    -0.003 A 
ATOM      3  C   UNL     1      -4.533  -7.196   3.595  1.00  0.00     0.119 A 
ATOM      4  C   UNL     1      -3.459  -7.933   4.104  1.00  0.00     0.046 A 
ATOM      5  C   UNL     1      -2.150  -7.523   3.870  1.00  0.00     0.004 A 
ATOM      6  C   UNL     1      -1.901  -6.386   3.106  1.00  0.00     0.004 A 
ENDROOT
BRANCH   1   7
ATOM      7  C   UNL     1      -2.596  -4.440   1.697  1.00  0.00     0.036 C 
BRANCH   7   8
ATOM      8  C   UNL     1      -1.145  -3.995   1.932  1.00  0.00     0.004 C 
BRANCH   8   9
ATOM      9  C   UNL     1      -1.049  -2.734   2.805  1.00  0.00    -0.003 C 
ATOM     10  C   UNL     1      -0.748  -3.053   4.269  1.00  0.00     0.004 C 
ENDBRANCH   8   9
ENDBRANCH   7   8
ENDBRANCH   1   7
BRANCH   2  11
ATOM     11  C   UNL     1      -5.503  -5.214   2.379  1.00  0.00     0.040 C 
BRANCH  11  12
ATOM     12  C   UNL     1      -6.025  -4.311   3.507  1.00  0.00     0.005 C 
BRANCH  12  13
ATOM     13  C   UNL     1      -5.583  -2.857   3.302  1.00  0.00    -0.003 C 
ATOM     14  C   UNL     1      -4.550  -2.442   4.344  1.00  0.00     0.004 C 
ENDBRANCH  12  13
ENDBRANCH  11  12
ENDBRANCH   2  11
BRANCH   3  15
ATOM     15  O   UNL     1      -5.837  -7.628   3.843  1.00  0.00    -0.508 OA
ATOM     16  H   UNL     1      -6.639  -7.173   3.420  1.00  0.00     0.293 HD
ENDBRANCH   3  15
TORSDOF 7
ENDMDL
MODEL 4
REMARK VINA RESULT:    -5.082     13.687     16.315
REMARK INTER + INTRA:          -7.736
REMARK INTER:                  -6.601
REMARK INTRA:                  -1.134
REMARK UNBOUND:                -0.723
REMARK SMILES CCCCc1cccc(O)c1CCCC
REMARK SMILES IDX 5 1 11 2 9 3 8 4 7 5 6 6 4 7 3 8 2 9 1 10 12 11 13 12 14 13
REMARK SMILES IDX 15 14 10 15
REMARK H PARENT 10 16
REMARK Flexibility Score: inf
ROOT
ATOM      1  C   UNL     1      -1.512   4.923   2.058  1.00  0.00    -0.041 A 
ATOM      2  C   UNL     1      -0.138   5.275   1.888  1.00  0.00    -0.003 A 
ATOM      3  C   UNL     1       0.338   6.475   2.467  1.00  0.00     0.119 A 
ATOM      4  C   UNL     1      -0.514   7.280   3.230  1.00  0.00     0.046 A 
ATOM      5  C   UNL     1      -1.841   6.911   3.429  1.00  0.00     0.004 A 
ATOM      6  C   UNL     1      -2.336   5.745   2.849  1.00  0.00     0.004 A 
ENDROOT
BRANCH   1   7
ATOM      7  C   UNL     1      -2.145   3.701   1.423  1.00  0.00     0.036 C 
BRANCH   7   8
ATOM      8  C   UNL     1      -3.158   3.037   2.366  1.00  0.00     0.004 C 
BRANCH   8   9
ATOM      9  C   UNL     1      -2.485   2.156   3.430  1.00  0.00    -0.003 C 
ATOM     10  C   UNL     1      -3.175   2.247   4.790  1.00  0.00     0.004 C 
ENDBRANCH   8   9
ENDBRANCH   7   8
ENDBRANCH   1   7
BRANCH   2  11
ATOM     11  C   UNL     1       0.848   4.393   1.142  1.00  0.00     0.040 C 
BRANCH  11  12
ATOM     12  C   UNL     1       1.788   3.665   2.116  1.00  0.00     0.005 C 
BRANCH  12  13
ATOM     13  C   UNL     1       1.095   2.453   2.750  1.00  0.00    -0.003 C 
ATOM     14  C   UNL     1       0.789   1.383   1.707  1.00  0.00     0.004 C 
ENDBRANCH  12  13
ENDBRANCH  11  12
ENDBRANCH   2  11
BRANCH   3  15
ATOM     15  O   UNL     1       1.665   6.867   2.280  1.00  0.00    -0.508 OA
ATOM     16  H   UNL     1       2.292   6.352   1.674  1.00  0.00     0.293 HD
ENDBRANCH   3  15
TORSDOF 7
ENDMDL
MODEL 5
REMARK VINA RESULT:    -4.960     11.269     13.455
REMARK INTER + INTRA:          -7.568
REMARK INTER:                  -6.284
REMARK INTRA:                  -1.284
REMARK UNBOUND:                -0.723
REMARK SMILES CCCCc1cccc(O)c1CCCC
REMARK SMILES IDX 5 1 11 2 9 3 8 4 7 5 6 6 4 7 3 8 2 9 1 10 12 11 13 12 14 13
REMARK SMILES IDX 15 14 10 15
REMARK H PARENT 10 16
REMARK Flexibility Score: inf
ROOT
ATOM      1  C   UNL     1       1.499   5.331  19.779  1.00  0.00    -0.041 A 
ATOM      2  C   UNL     1       0.349   6.178  19.753  1.00  0.00    -0.003 A 
ATOM      3  C   UNL     1       0.372   7.340  18.947  1.00  0.00     0.119 A 
ATOM      4  C   UNL     1       1.488   7.630  18.155  1.00  0.00     0.046 A 
ATOM      5  C   UNL     1       2.589   6.780  18.151  1.00  0.00     0.004 A 
ATOM      6  C   UNL     1       2.596   5.642  18.954  1.00  0.00     0.004 A 
ENDROOT
BRANCH   1   7
ATOM      7  C   UNL     1       1.611   4.103  20.661  1.00  0.00     0.036 C 
BRANCH   7   8
ATOM      8  C   UNL     1       2.377   2.973  19.957  1.00  0.00     0.004 C 
BRANCH   8   9
ATOM      9  C   UNL     1       1.442   1.946  19.301  1.00  0.00    -0.003 C 
ATOM     10  C   UNL     1       1.266   2.185  17.802  1.00  0.00     0.004 C 
ENDBRANCH   8   9
ENDBRANCH   7   8
ENDBRANCH   1   7
BRANCH   2  11
ATOM     11  C   UNL     1      -0.920   5.862  20.527  1.00  0.00     0.040 C 
BRANCH  11  12
ATOM     12  C   UNL     1      -2.033   5.368  19.590  1.00  0.00     0.005 C 
BRANCH  12  13
ATOM     13  C   UNL     1      -1.808   3.907  19.186  1.00  0.00    -0.003 C 
ATOM     14  C   UNL     1      -2.025   2.968  20.369  1.00  0.00     0.004 C 
ENDBRANCH  12  13
ENDBRANCH  11  12
ENDBRANCH   2  11
BRANCH   3  15
ATOM     15  O   UNL     1      -0.720   8.209  18.935  1.00  0.00    -0.508 OA
ATOM     16  H   UNL     1      -1.601   7.964  19.372  1.00  0.00     0.293 HD
ENDBRANCH   3  15
TORSDOF 7
ENDMDL
MODEL 6
REMARK VINA RESULT:    -4.839     13.951     16.526
REMARK INTER + INTRA:          -7.401
REMARK INTER:                  -6.368
REMARK INTRA:                  -1.032
REMARK UNBOUND:                -0.723
REMARK SMILES CCCCc1cccc(O)c1CCCC
REMARK SMILES IDX 5 1 11 2 9 3 8 4 7 5 6 6 4 7 3 8 2 9 1 10 12 11 13 12 14 13
REMARK SMILES IDX 15 14 10 15
REMARK H PARENT 10 16
REMARK Flexibility Score: inf
ROOT
ATOM      1  C   UNL     1      -0.154   3.999   1.261  1.00  0.00    -0.041 A 
ATOM      2  C   UNL     1       0.209   5.307   1.705  1.00  0.00    -0.003 A 
ATOM      3  C   UNL     1       1.578   5.612   1.886  1.00  0.00     0.119 A 
ATOM      4  C   UNL     1       2.561   4.661   1.594  1.00  0.00     0.046 A 
ATOM      5  C   UNL     1       2.204   3.402   1.121  1.00  0.00     0.004 A 
ATOM      6  C   UNL     1       0.861   3.074   0.956  1.00  0.00     0.004 A 
ENDROOT
BRANCH   1   7
ATOM      7  C   UNL     1      -1.591   3.541   1.102  1.00  0.00     0.036 C 
BRANCH   7   8
ATOM      8  C   UNL     1      -1.858   2.246   1.883  1.00  0.00     0.004 C 
BRANCH   8   9
ATOM      9  C   UNL     1      -2.888   2.438   3.007  1.00  0.00    -0.003 C 
ATOM     10  C   UNL     1      -2.531   1.656   4.271  1.00  0.00     0.004 C 
ENDBRANCH   8   9
ENDBRANCH   7   8
ENDBRANCH   1   7
BRANCH   2  11
ATOM     11  C   UNL     1      -0.813   6.403   1.953  1.00  0.00     0.040 C 
BRANCH  11  12
ATOM     12  C   UNL     1      -1.222   6.456   3.433  1.00  0.00     0.005 C 
BRANCH  12  13
ATOM     13  C   UNL     1      -2.746   6.410   3.588  1.00  0.00    -0.003 C 
ATOM     14  C   UNL     1      -3.152   5.589   4.808  1.00  0.00     0.004 C 
ENDBRANCH  12  13
ENDBRANCH  11  12
ENDBRANCH   2  11
BRANCH   3  15
ATOM     15  O   UNL     1       1.961   6.868   2.361  1.00  0.00    -0.508 OA
ATOM     16  H   UNL     1       2.141   7.035   3.344  1.00  0.00     0.293 HD
ENDBRANCH   3  15
TORSDOF 7
ENDMDL
MODEL 7
REMARK VINA RESULT:    -4.769      7.163      8.984
REMARK INTER + INTRA:          -7.304
REMARK INTER:                  -6.196
REMARK INTRA:                  -1.108
REMARK UNBOUND:                -0.723
REMARK SMILES CCCCc1cccc(O)c1CCCC
REMARK SMILES IDX 5 1 11 2 9 3 8 4 7 5 6 6 4 7 3 8 2 9 1 10 12 11 13 12 14 13
REMARK SMILES IDX 15 14 10 15
REMARK H PARENT 10 16
REMARK Flexibility Score: inf
ROOT
ATOM      1  C   UNL     1      -1.120  -4.889  20.523  1.00  0.00    -0.041 A 
ATOM      2  C   UNL     1       0.038  -5.715  20.401  1.00  0.00    -0.003 A 
ATOM      3  C   UNL     1      -0.108  -7.026  19.890  1.00  0.00     0.119 A 
ATOM      4  C   UNL     1      -1.360  -7.488  19.471  1.00  0.00     0.046 A 
ATOM      5  C   UNL     1      -2.478  -6.664  19.552  1.00  0.00     0.004 A 
ATOM      6  C   UNL     1      -2.360  -5.378  20.073  1.00  0.00     0.004 A 
ENDROOT
BRANCH   1   7
ATOM      7  C   UNL     1      -1.092  -3.497  21.124  1.00  0.00     0.036 C 
BRANCH   7   8
ATOM      8  C   UNL     1      -2.141  -2.583  20.475  1.00  0.00     0.004 C 
BRANCH   8   9
ATOM      9  C   UNL     1      -1.606  -1.167  20.210  1.00  0.00    -0.003 C 
ATOM     10  C   UNL     1      -1.730  -0.757  18.743  1.00  0.00     0.004 C 
ENDBRANCH   8   9
ENDBRANCH   7   8
ENDBRANCH   1   7
BRANCH   2  11
ATOM     11  C   UNL     1       1.433  -5.232  20.761  1.00  0.00     0.040 C 
BRANCH  11  12
ATOM     12  C   UNL     1       2.170  -4.694  19.525  1.00  0.00     0.005 C 
BRANCH  12  13
ATOM     13  C   UNL     1       2.287  -3.166  19.573  1.00  0.00    -0.003 C 
ATOM     14  C   UNL     1       1.498  -2.516  18.440  1.00  0.00     0.004 C 
ENDBRANCH  12  13
ENDBRANCH  11  12
ENDBRANCH   2  11
BRANCH   3  15
ATOM     15  O   UNL     1       0.999  -7.872  19.799  1.00  0.00    -0.508 OA
ATOM     16  H   UNL     1       1.904  -7.536  19.490  1.00  0.00     0.293 HD
ENDBRANCH   3  15
TORSDOF 7
ENDMDL
MODEL 8
REMARK VINA RESULT:    -4.717     10.040     12.266
REMARK INTER + INTRA:          -7.232
REMARK INTER:                  -5.923
REMARK INTRA:                  -1.309
REMARK UNBOUND:                -0.723
REMARK SMILES CCCCc1cccc(O)c1CCCC
REMARK SMILES IDX 5 1 11 2 9 3 8 4 7 5 6 6 4 7 3 8 2 9 1 10 12 11 13 12 14 13
REMARK SMILES IDX 15 14 10 15
REMARK H PARENT 10 16
REMARK Flexibility Score: inf
ROOT
ATOM      1  C   UNL     1      -4.186  -5.762   2.492  1.00  0.00    -0.041 A 
ATOM      2  C   UNL     1      -2.792  -5.834   2.795  1.00  0.00    -0.003 A 
ATOM      3  C   UNL     1      -2.336  -6.834   3.686  1.00  0.00     0.119 A 
ATOM      4  C   UNL     1      -3.231  -7.763   4.226  1.00  0.00     0.046 A 
ATOM      5  C   UNL     1      -4.581  -7.715   3.895  1.00  0.00     0.004 A 
ATOM      6  C   UNL     1      -5.055  -6.726   3.037  1.00  0.00     0.004 A 
ENDROOT
BRANCH   1   7
ATOM      7  C   UNL     1      -4.793  -4.690   1.609  1.00  0.00     0.036 C 
BRANCH   7   8
ATOM      8  C   UNL     1      -5.926  -3.944   2.329  1.00  0.00     0.004 C 
BRANCH   8   9
ATOM      9  C   UNL     1      -5.406  -2.845   3.268  1.00  0.00    -0.003 C 
ATOM     10  C   UNL     1      -5.458  -3.256   4.739  1.00  0.00     0.004 C 
ENDBRANCH   8   9
ENDBRANCH   7   8
ENDBRANCH   1   7
BRANCH   2  11
ATOM     11  C   UNL     1      -1.767  -4.905   2.168  1.00  0.00     0.040 C 
BRANCH  11  12
ATOM     12  C   UNL     1      -1.579  -3.635   3.012  1.00  0.00     0.005 C 
BRANCH  12  13
ATOM     13  C   UNL     1      -1.199  -2.438   2.134  1.00  0.00    -0.003 C 
ATOM     14  C   UNL     1      -2.063  -2.379   0.878  1.00  0.00     0.004 C 
ENDBRANCH  12  13
ENDBRANCH  11  12
ENDBRANCH   2  11
BRANCH   3  15
ATOM     15  O   UNL     1      -0.986  -6.902   4.034  1.00  0.00    -0.508 OA
ATOM     16  H   UNL     1      -0.604  -6.354   4.797  1.00  0.00     0.293 HD
ENDBRANCH   3  15
TORSDOF 7
ENDMDL
MODEL 9
REMARK VINA RESULT:    -4.676     10.966     12.463
REMARK INTER + INTRA:          -7.176
REMARK INTER:                  -6.045
REMARK INTRA:                  -1.131
REMARK UNBOUND:                -0.723
REMARK SMILES CCCCc1cccc(O)c1CCCC
REMARK SMILES IDX 5 1 11 2 9 3 8 4 7 5 6 6 4 7 3 8 2 9 1 10 12 11 13 12 14 13
REMARK SMILES IDX 15 14 10 15
REMARK H PARENT 10 16
REMARK Flexibility Score: inf
ROOT
ATOM      1  C   UNL     1      -4.491  -6.174   3.082  1.00  0.00    -0.041 A 
ATOM      2  C   UNL     1      -3.548  -5.408   2.331  1.00  0.00    -0.003 A 
ATOM      3  C   UNL     1      -2.171  -5.709   2.454  1.00  0.00     0.119 A 
ATOM      4  C   UNL     1      -1.746  -6.767   3.263  1.00  0.00     0.046 A 
ATOM      5  C   UNL     1      -2.672  -7.538   3.959  1.00  0.00     0.004 A 
ATOM      6  C   UNL     1      -4.031  -7.245   3.870  1.00  0.00     0.004 A 
ENDROOT
BRANCH   1   7
ATOM      7  C   UNL     1      -5.981  -5.893   3.083  1.00  0.00     0.036 C 
BRANCH   7   8
ATOM      8  C   UNL     1      -6.716  -6.747   2.039  1.00  0.00     0.004 C 
BRANCH   8   9
ATOM      9  C   UNL     1      -7.667  -5.919   1.163  1.00  0.00    -0.003 C 
ATOM     10  C   UNL     1      -7.813  -4.478   1.654  1.00  0.00     0.004 C 
ENDBRANCH   8   9
ENDBRANCH   7   8
ENDBRANCH   1   7
BRANCH   2  11
ATOM     11  C   UNL     1      -3.963  -4.306   1.372  1.00  0.00     0.040 C 
BRANCH  11  12
ATOM     12  C   UNL     1      -3.714  -2.917   1.981  1.00  0.00     0.005 C 
BRANCH  12  13
ATOM     13  C   UNL     1      -5.033  -2.171   2.212  1.00  0.00    -0.003 C 
ATOM     14  C   UNL     1      -5.496  -2.305   3.660  1.00  0.00     0.004 C 
ENDBRANCH  12  13
ENDBRANCH  11  12
ENDBRANCH   2  11
BRANCH   3  15
ATOM     15  O   UNL     1      -1.222  -4.950   1.766  1.00  0.00    -0.508 OA
ATOM     16  H   UNL     1      -1.300  -4.772   0.771  1.00  0.00     0.293 HD
ENDBRANCH   3  15
TORSDOF 7
ENDMDL
