MODEL 1
REMARK VINA RESULT:    -5.886      0.000      0.000
REMARK INTER + INTRA:          -7.975
REMARK INTER:                  -7.434
REMARK INTRA:                  -0.541
REMARK UNBOUND:                -0.541
REMARK SMILES Oc1ccc(CCc2cc(O)cc(O)c2)cc1
REMARK SMILES IDX 6 1 5 2 4 3 3 4 2 5 16 6 17 7 1 8 7 10 8 11 15 12 9 13 13 14
REMARK SMILES IDX 10 15 12 16 14 17 11 19
REMARK H PARENT 1 9 14 18 11 20
REMARK Flexibility Score: inf
ROOT
ATOM      1  C   UNL     1      11.759 -26.818  13.200  1.00  0.00     0.040 C 
ENDROOT
BRANCH   1   2
ATOM      2  C   UNL     1      10.706 -26.431  14.203  1.00  0.00    -0.047 A 
ATOM      3  C   UNL     1       9.726 -25.481  13.870  1.00  0.00     0.007 A 
ATOM      4  C   UNL     1       8.728 -25.145  14.791  1.00  0.00     0.046 A 
ATOM      5  C   UNL     1       8.695 -25.763  16.049  1.00  0.00     0.115 A 
ATOM      6  C   UNL     1      10.660 -27.055  15.460  1.00  0.00     0.007 A 
ATOM      7  C   UNL     1       9.662 -26.718  16.379  1.00  0.00     0.046 A 
BRANCH   5   8
ATOM      8  O   UNL     1       7.707 -25.436  16.975  1.00  0.00    -0.508 OA
ATOM      9  H   UNL     1       7.653 -24.511  17.387  1.00  0.00     0.293 HD
ENDBRANCH   5   8
ENDBRANCH   1   2
BRANCH   1  10
ATOM     10  C   UNL     1      13.152 -26.432  13.706  1.00  0.00     0.040 C 
BRANCH  10  11
ATOM     11  C   UNL     1      13.739 -25.339  12.854  1.00  0.00    -0.040 A 
ATOM     12  C   UNL     1      12.956 -24.710  11.872  1.00  0.00     0.050 A 
ATOM     13  C   UNL     1      15.056 -24.902  13.071  1.00  0.00     0.050 A 
ATOM     14  C   UNL     1      13.492 -23.670  11.099  1.00  0.00     0.119 A 
ATOM     15  C   UNL     1      15.593 -23.865  12.301  1.00  0.00     0.119 A 
ATOM     16  C   UNL     1      14.809 -23.252  11.313  1.00  0.00     0.092 A 
BRANCH  14  17
ATOM     17  O   UNL     1      12.724 -23.044  10.120  1.00  0.00    -0.508 OA
ATOM     18  H   UNL     1      11.713 -23.117  10.113  1.00  0.00     0.293 HD
ENDBRANCH  14  17
BRANCH  15  19
ATOM     19  O   UNL     1      16.904 -23.450  12.525  1.00  0.00    -0.508 OA
ATOM     20  H   UNL     1      17.190 -23.060  13.416  1.00  0.00     0.293 HD
ENDBRANCH  15  19
ENDBRANCH  10  11
ENDBRANCH   1  10
TORSDOF 6
ENDMDL
MODEL 2
REMARK VINA RESULT:    -5.865      1.811      2.845
REMARK INTER + INTRA:          -7.948
REMARK INTER:                  -7.398
REMARK INTRA:                  -0.550
REMARK UNBOUND:                -0.541
REMARK SMILES Oc1ccc(CCc2cc(O)cc(O)c2)cc1
REMARK SMILES IDX 6 1 5 2 4 3 3 4 2 5 16 6 17 7 1 8 7 10 8 11 15 12 9 13 13 14
REMARK SMILES IDX 10 15 12 16 14 17 11 19
REMARK H PARENT 1 9 14 18 11 20
REMARK Flexibility Score: inf
ROOT
ATOM      1  C   UNL     1       9.893 -27.072  13.956  1.00  0.00     0.040 C 
ENDROOT
BRANCH   1   2
ATOM      2  C   UNL     1       8.992 -26.071  14.627  1.00  0.00    -0.047 A 
ATOM      3  C   UNL     1       9.087 -25.847  16.010  1.00  0.00     0.007 A 
ATOM      4  C   UNL     1       8.271 -24.893  16.627  1.00  0.00     0.046 A 
ATOM      5  C   UNL     1       7.361 -24.147  15.866  1.00  0.00     0.115 A 
ATOM      6  C   UNL     1       8.087 -25.312  13.867  1.00  0.00     0.007 A 
ATOM      7  C   UNL     1       7.273 -24.359  14.487  1.00  0.00     0.046 A 
BRANCH   5   8
ATOM      8  O   UNL     1       6.543 -23.195  16.470  1.00  0.00    -0.508 OA
ATOM      9  H   UNL     1       6.868 -22.250  16.643  1.00  0.00     0.293 HD
ENDBRANCH   5   8
ENDBRANCH   1   2
BRANCH   1  10
ATOM     10  C   UNL     1      11.354 -26.829  14.349  1.00  0.00     0.040 C 
BRANCH  10  11
ATOM     11  C   UNL     1      12.141 -26.322  13.170  1.00  0.00    -0.040 A 
ATOM     12  C   UNL     1      12.556 -24.981  13.121  1.00  0.00     0.050 A 
ATOM     13  C   UNL     1      12.514 -27.198  12.139  1.00  0.00     0.050 A 
ATOM     14  C   UNL     1      13.317 -24.515  12.040  1.00  0.00     0.119 A 
ATOM     15  C   UNL     1      13.273 -26.736  11.058  1.00  0.00     0.119 A 
ATOM     16  C   UNL     1      13.671 -25.392  11.009  1.00  0.00     0.092 A 
BRANCH  14  17
ATOM     17  O   UNL     1      13.728 -23.185  11.981  1.00  0.00    -0.508 OA
ATOM     18  H   UNL     1      13.678 -22.580  12.791  1.00  0.00     0.293 HD
ENDBRANCH  14  17
BRANCH  15  19
ATOM     19  O   UNL     1      13.627 -27.618  10.040  1.00  0.00    -0.508 OA
ATOM     20  H   UNL     1      12.951 -28.255   9.632  1.00  0.00     0.293 HD
ENDBRANCH  15  19
ENDBRANCH  10  11
ENDBRANCH   1  10
TORSDOF 6
ENDMDL
MODEL 3
REMARK VINA RESULT:    -5.853      1.830      2.798
REMARK INTER + INTRA:          -7.933
REMARK INTER:                  -7.388
REMARK INTRA:                  -0.546
REMARK UNBOUND:                -0.541
REMARK SMILES Oc1ccc(CCc2cc(O)cc(O)c2)cc1
REMARK SMILES IDX 6 1 5 2 4 3 3 4 2 5 16 6 17 7 1 8 7 10 8 11 15 12 9 13 13 14
REMARK SMILES IDX 10 15 12 16 14 17 11 19
REMARK H PARENT 1 9 14 18 11 20
REMARK Flexibility Score: inf
ROOT
ATOM      1  C   UNL     1       9.833 -27.016  13.945  1.00  0.00     0.040 C 
ENDROOT
BRANCH   1   2
ATOM      2  C   UNL     1       8.934 -26.025  14.634  1.00  0.00    -0.047 A 
ATOM      3  C   UNL     1       9.006 -25.852  16.026  1.00  0.00     0.007 A 
ATOM      4  C   UNL     1       8.194 -24.907  16.662  1.00  0.00     0.046 A 
ATOM      5  C   UNL     1       7.309 -24.121  15.911  1.00  0.00     0.115 A 
ATOM      6  C   UNL     1       8.054 -25.226  13.886  1.00  0.00     0.007 A 
ATOM      7  C   UNL     1       7.243 -24.283  14.524  1.00  0.00     0.046 A 
BRANCH   5   8
ATOM      8  O   UNL     1       6.494 -23.178  16.533  1.00  0.00    -0.508 OA
ATOM      9  H   UNL     1       5.506 -23.107  16.317  1.00  0.00     0.293 HD
ENDBRANCH   5   8
ENDBRANCH   1   2
BRANCH   1  10
ATOM     10  C   UNL     1      11.287 -26.822  14.388  1.00  0.00     0.040 C 
BRANCH  10  11
ATOM     11  C   UNL     1      12.133 -26.356  13.233  1.00  0.00    -0.040 A 
ATOM     12  C   UNL     1      12.500 -27.255  12.218  1.00  0.00     0.050 A 
ATOM     13  C   UNL     1      12.513 -25.009  13.132  1.00  0.00     0.050 A 
ATOM     14  C   UNL     1      13.260 -26.816  11.125  1.00  0.00     0.119 A 
ATOM     15  C   UNL     1      13.272 -24.567  12.043  1.00  0.00     0.119 A 
ATOM     16  C   UNL     1      13.647 -25.474  11.041  1.00  0.00     0.092 A 
BRANCH  14  17
ATOM     17  O   UNL     1      13.633 -27.702  10.117  1.00  0.00    -0.508 OA
ATOM     18  H   UNL     1      14.492 -27.578   9.595  1.00  0.00     0.293 HD
ENDBRANCH  14  17
BRANCH  15  19
ATOM     19  O   UNL     1      13.647 -23.228  11.964  1.00  0.00    -0.508 OA
ATOM     20  H   UNL     1      13.495 -22.685  11.122  1.00  0.00     0.293 HD
ENDBRANCH  15  19
ENDBRANCH  10  11
ENDBRANCH   1  10
TORSDOF 6
ENDMDL
MODEL 4
REMARK VINA RESULT:    -5.804      1.379      6.569
REMARK INTER + INTRA:          -7.872
REMARK INTER:                  -7.346
REMARK INTRA:                  -0.526
REMARK UNBOUND:                -0.541
REMARK SMILES Oc1ccc(CCc2cc(O)cc(O)c2)cc1
REMARK SMILES IDX 6 1 5 2 4 3 3 4 2 5 16 6 17 7 1 8 7 10 8 11 15 12 9 13 13 14
REMARK SMILES IDX 10 15 12 16 14 17 11 19
REMARK H PARENT 1 9 14 18 11 20
REMARK Flexibility Score: inf
ROOT
ATOM      1  C   UNL     1      12.099 -26.830  14.265  1.00  0.00     0.040 C 
ENDROOT
BRANCH   1   2
ATOM      2  C   UNL     1      13.102 -25.990  13.520  1.00  0.00    -0.047 A 
ATOM      3  C   UNL     1      12.732 -24.738  13.003  1.00  0.00     0.007 A 
ATOM      4  C   UNL     1      13.673 -23.944  12.339  1.00  0.00     0.046 A 
ATOM      5  C   UNL     1      14.994 -24.391  12.195  1.00  0.00     0.115 A 
ATOM      6  C   UNL     1      14.430 -26.427  13.384  1.00  0.00     0.007 A 
ATOM      7  C   UNL     1      15.368 -25.632  12.720  1.00  0.00     0.046 A 
BRANCH   5   8
ATOM      8  O   UNL     1      15.940 -23.609  11.535  1.00  0.00    -0.508 OA
ATOM      9  H   UNL     1      15.837 -23.368  10.556  1.00  0.00     0.293 HD
ENDBRANCH   5   8
ENDBRANCH   1   2
BRANCH   1  10
ATOM     10  C   UNL     1      10.768 -26.878  13.506  1.00  0.00     0.040 C 
BRANCH  10  11
ATOM     11  C   UNL     1       9.651 -26.353  14.366  1.00  0.00    -0.040 A 
ATOM     12  C   UNL     1       8.823 -25.319  13.897  1.00  0.00     0.050 A 
ATOM     13  C   UNL     1       9.391 -26.929  15.620  1.00  0.00     0.050 A 
ATOM     14  C   UNL     1       7.761 -24.851  14.684  1.00  0.00     0.119 A 
ATOM     15  C   UNL     1       8.332 -26.464  16.407  1.00  0.00     0.119 A 
ATOM     16  C   UNL     1       7.519 -25.422  15.937  1.00  0.00     0.092 A 
BRANCH  14  17
ATOM     17  O   UNL     1       6.939 -23.822  14.228  1.00  0.00    -0.508 OA
ATOM     18  H   UNL     1       7.314 -23.036  13.710  1.00  0.00     0.293 HD
ENDBRANCH  14  17
BRANCH  15  19
ATOM     19  O   UNL     1       8.094 -27.043  17.651  1.00  0.00    -0.508 OA
ATOM     20  H   UNL     1       7.349 -27.717  17.788  1.00  0.00     0.293 HD
ENDBRANCH  15  19
ENDBRANCH  10  11
ENDBRANCH   1  10
TORSDOF 6
ENDMDL
MODEL 5
REMARK VINA RESULT:    -5.793      1.388      6.757
REMARK INTER + INTRA:          -7.857
REMARK INTER:                  -7.325
REMARK INTRA:                  -0.532
REMARK UNBOUND:                -0.541
REMARK SMILES Oc1ccc(CCc2cc(O)cc(O)c2)cc1
REMARK SMILES IDX 6 1 5 2 4 3 3 4 2 5 16 6 17 7 1 8 7 10 8 11 15 12 9 13 13 14
REMARK SMILES IDX 10 15 12 16 14 17 11 19
REMARK H PARENT 1 9 14 18 11 20
REMARK Flexibility Score: inf
ROOT
ATOM      1  C   UNL     1      12.052 -26.855  14.236  1.00  0.00     0.040 C 
ENDROOT
BRANCH   1   2
ATOM      2  C   UNL     1      13.068 -26.010  13.515  1.00  0.00    -0.047 A 
ATOM      3  C   UNL     1      12.707 -24.756  12.996  1.00  0.00     0.007 A 
ATOM      4  C   UNL     1      13.660 -23.957  12.355  1.00  0.00     0.046 A 
ATOM      5  C   UNL     1      14.984 -24.401  12.235  1.00  0.00     0.115 A 
ATOM      6  C   UNL     1      14.399 -26.444  13.403  1.00  0.00     0.007 A 
ATOM      7  C   UNL     1      15.349 -25.644  12.762  1.00  0.00     0.046 A 
BRANCH   5   8
ATOM      8  O   UNL     1      15.941 -23.615  11.598  1.00  0.00    -0.508 OA
ATOM      9  H   UNL     1      16.838 -23.420  12.029  1.00  0.00     0.293 HD
ENDBRANCH   5   8
ENDBRANCH   1   2
BRANCH   1  10
ATOM     10  C   UNL     1      10.723 -26.866  13.472  1.00  0.00     0.040 C 
BRANCH  10  11
ATOM     11  C   UNL     1       9.604 -26.380  14.354  1.00  0.00    -0.040 A 
ATOM     12  C   UNL     1       9.412 -26.941  15.627  1.00  0.00     0.050 A 
ATOM     13  C   UNL     1       8.780 -25.324  13.933  1.00  0.00     0.050 A 
ATOM     14  C   UNL     1       8.390 -26.468  16.462  1.00  0.00     0.119 A 
ATOM     15  C   UNL     1       7.759 -24.849  14.764  1.00  0.00     0.119 A 
ATOM     16  C   UNL     1       7.564 -25.425  16.028  1.00  0.00     0.092 A 
BRANCH  14  17
ATOM     17  O   UNL     1       8.189 -27.023  17.723  1.00  0.00    -0.508 OA
ATOM     18  H   UNL     1       8.967 -27.257  18.328  1.00  0.00     0.293 HD
ENDBRANCH  14  17
BRANCH  15  19
ATOM     19  O   UNL     1       6.947 -23.806  14.327  1.00  0.00    -0.508 OA
ATOM     20  H   UNL     1       7.169 -22.839  14.535  1.00  0.00     0.293 HD
ENDBRANCH  15  19
ENDBRANCH  10  11
ENDBRANCH   1  10
TORSDOF 6
ENDMDL
MODEL 6
REMARK VINA RESULT:    -5.692      1.878      7.112
REMARK INTER + INTRA:          -7.731
REMARK INTER:                  -7.240
REMARK INTRA:                  -0.491
REMARK UNBOUND:                -0.541
REMARK SMILES Oc1ccc(CCc2cc(O)cc(O)c2)cc1
REMARK SMILES IDX 6 1 5 2 4 3 3 4 2 5 16 6 17 7 1 8 7 10 8 11 15 12 9 13 13 14
REMARK SMILES IDX 10 15 12 16 14 17 11 19
REMARK H PARENT 1 9 14 18 11 20
REMARK Flexibility Score: inf
ROOT
ATOM      1  C   UNL     1      10.170 -26.673  13.875  1.00  0.00     0.040 C 
ENDROOT
BRANCH   1   2
ATOM      2  C   UNL     1      11.606 -26.332  13.581  1.00  0.00    -0.047 A 
ATOM      3  C   UNL     1      11.953 -25.045  13.140  1.00  0.00     0.007 A 
ATOM      4  C   UNL     1      13.291 -24.719  12.898  1.00  0.00     0.046 A 
ATOM      5  C   UNL     1      14.296 -25.674  13.103  1.00  0.00     0.115 A 
ATOM      6  C   UNL     1      12.619 -27.282  13.797  1.00  0.00     0.007 A 
ATOM      7  C   UNL     1      13.956 -26.953  13.554  1.00  0.00     0.046 A 
BRANCH   5   8
ATOM      8  O   UNL     1      15.633 -25.362  12.865  1.00  0.00    -0.508 OA
ATOM      9  H   UNL     1      16.194 -24.877  13.555  1.00  0.00     0.293 HD
ENDBRANCH   5   8
ENDBRANCH   1   2
BRANCH   1  10
ATOM     10  C   UNL     1       9.309 -25.406  13.891  1.00  0.00     0.040 C 
BRANCH  10  11
ATOM     11  C   UNL     1       8.419 -25.387  15.105  1.00  0.00    -0.040 A 
ATOM     12  C   UNL     1       8.341 -26.512  15.942  1.00  0.00     0.050 A 
ATOM     13  C   UNL     1       7.705 -24.226  15.441  1.00  0.00     0.050 A 
ATOM     14  C   UNL     1       7.538 -26.485  17.091  1.00  0.00     0.119 A 
ATOM     15  C   UNL     1       6.903 -24.196  16.586  1.00  0.00     0.119 A 
ATOM     16  C   UNL     1       6.818 -25.328  17.409  1.00  0.00     0.092 A 
BRANCH  14  17
ATOM     17  O   UNL     1       7.451 -27.598  17.923  1.00  0.00    -0.508 OA
ATOM     18  H   UNL     1       8.272 -28.133  18.179  1.00  0.00     0.293 HD
ENDBRANCH  14  17
BRANCH  15  19
ATOM     19  O   UNL     1       6.195 -23.038  16.900  1.00  0.00    -0.508 OA
ATOM     20  H   UNL     1       5.184 -23.038  16.973  1.00  0.00     0.293 HD
ENDBRANCH  15  19
ENDBRANCH  10  11
ENDBRANCH   1  10
TORSDOF 6
ENDMDL
MODEL 7
REMARK VINA RESULT:    -5.643      1.649      2.737
REMARK INTER + INTRA:          -7.669
REMARK INTER:                  -7.266
REMARK INTRA:                  -0.403
REMARK UNBOUND:                -0.541
REMARK SMILES Oc1ccc(CCc2cc(O)cc(O)c2)cc1
REMARK SMILES IDX 6 1 5 2 4 3 3 4 2 5 16 6 17 7 1 8 7 10 8 11 15 12 9 13 13 14
REMARK SMILES IDX 10 15 12 16 14 17 11 19
REMARK H PARENT 1 9 14 18 11 20
REMARK Flexibility Score: inf
ROOT
ATOM      1  C   UNL     1      10.939 -26.457  14.174  1.00  0.00     0.040 C 
ENDROOT
BRANCH   1   2
ATOM      2  C   UNL     1       9.517 -26.229  14.612  1.00  0.00    -0.047 A 
ATOM      3  C   UNL     1       9.050 -26.777  15.818  1.00  0.00     0.007 A 
ATOM      4  C   UNL     1       7.739 -26.536  16.240  1.00  0.00     0.046 A 
ATOM      5  C   UNL     1       6.885 -25.738  15.466  1.00  0.00     0.115 A 
ATOM      6  C   UNL     1       8.662 -25.419  13.846  1.00  0.00     0.007 A 
ATOM      7  C   UNL     1       7.351 -25.181  14.271  1.00  0.00     0.046 A 
BRANCH   5   8
ATOM      8  O   UNL     1       5.577 -25.493  15.875  1.00  0.00    -0.508 OA
ATOM      9  H   UNL     1       5.263 -25.723  16.811  1.00  0.00     0.293 HD
ENDBRANCH   5   8
ENDBRANCH   1   2
BRANCH   1  10
ATOM     10  C   UNL     1      11.394 -25.346  13.223  1.00  0.00     0.040 C 
BRANCH  10  11
ATOM     11  C   UNL     1      12.895 -25.337  13.101  1.00  0.00    -0.040 A 
ATOM     12  C   UNL     1      13.639 -26.475  13.450  1.00  0.00     0.050 A 
ATOM     13  C   UNL     1      13.556 -24.212  12.584  1.00  0.00     0.050 A 
ATOM     14  C   UNL     1      15.034 -26.480  13.307  1.00  0.00     0.119 A 
ATOM     15  C   UNL     1      14.948 -24.213  12.440  1.00  0.00     0.119 A 
ATOM     16  C   UNL     1      15.685 -25.348  12.805  1.00  0.00     0.092 A 
BRANCH  14  17
ATOM     17  O   UNL     1      15.781 -27.603  13.656  1.00  0.00    -0.508 OA
ATOM     18  H   UNL     1      15.599 -28.509  13.242  1.00  0.00     0.293 HD
ENDBRANCH  14  17
BRANCH  15  19
ATOM     19  O   UNL     1      15.587 -23.085  11.932  1.00  0.00    -0.508 OA
ATOM     20  H   UNL     1      16.035 -22.410  12.542  1.00  0.00     0.293 HD
ENDBRANCH  15  19
ENDBRANCH  10  11
ENDBRANCH   1  10
TORSDOF 6
ENDMDL
MODEL 8
REMARK VINA RESULT:    -5.580      1.429      1.530
REMARK INTER + INTRA:          -7.589
REMARK INTER:                  -7.113
REMARK INTRA:                  -0.476
REMARK UNBOUND:                -0.541
REMARK SMILES Oc1ccc(CCc2cc(O)cc(O)c2)cc1
REMARK SMILES IDX 6 1 5 2 4 3 3 4 2 5 16 6 17 7 1 8 7 10 8 11 15 12 9 13 13 14
REMARK SMILES IDX 10 15 12 16 14 17 11 19
REMARK H PARENT 1 9 14 18 11 20
REMARK Flexibility Score: inf
ROOT
ATOM      1  C   UNL     1      11.389 -26.830  13.441  1.00  0.00     0.040 C 
ENDROOT
BRANCH   1   2
ATOM      2  C   UNL     1      10.174 -26.452  14.245  1.00  0.00    -0.047 A 
ATOM      3  C   UNL     1       9.412 -25.327  13.890  1.00  0.00     0.007 A 
ATOM      4  C   UNL     1       8.264 -24.995  14.617  1.00  0.00     0.046 A 
ATOM      5  C   UNL     1       7.863 -25.790  15.700  1.00  0.00     0.115 A 
ATOM      6  C   UNL     1       9.761 -27.251  15.323  1.00  0.00     0.007 A 
ATOM      7  C   UNL     1       8.613 -26.917  16.049  1.00  0.00     0.046 A 
BRANCH   5   8
ATOM      8  O   UNL     1       6.723 -25.469  16.433  1.00  0.00    -0.508 OA
ATOM      9  H   UNL     1       6.662 -25.657  17.427  1.00  0.00     0.293 HD
ENDBRANCH   5   8
ENDBRANCH   1   2
BRANCH   1  10
ATOM     10  C   UNL     1      12.576 -25.931  13.806  1.00  0.00     0.040 C 
BRANCH  10  11
ATOM     11  C   UNL     1      13.187 -25.334  12.566  1.00  0.00    -0.040 A 
ATOM     12  C   UNL     1      13.188 -26.056  11.361  1.00  0.00     0.050 A 
ATOM     13  C   UNL     1      13.708 -24.031  12.591  1.00  0.00     0.050 A 
ATOM     14  C   UNL     1      13.727 -25.488  10.197  1.00  0.00     0.119 A 
ATOM     15  C   UNL     1      14.247 -23.463  11.432  1.00  0.00     0.119 A 
ATOM     16  C   UNL     1      14.258 -24.195  10.236  1.00  0.00     0.092 A 
BRANCH  14  17
ATOM     17  O   UNL     1      13.738 -26.199   9.000  1.00  0.00    -0.508 OA
ATOM     18  H   UNL     1      13.793 -27.211   8.985  1.00  0.00     0.293 HD
ENDBRANCH  14  17
BRANCH  15  19
ATOM     19  O   UNL     1      14.767 -22.171  11.477  1.00  0.00    -0.508 OA
ATOM     20  H   UNL     1      15.523 -21.883  10.866  1.00  0.00     0.293 HD
ENDBRANCH  15  19
ENDBRANCH  10  11
ENDBRANCH   1  10
TORSDOF 6
ENDMDL
MODEL 9
REMARK VINA RESULT:    -5.415      1.379      1.909
REMARK INTER + INTRA:          -7.380
REMARK INTER:                  -6.939
REMARK INTRA:                  -0.441
REMARK UNBOUND:                -0.541
REMARK SMILES Oc1ccc(CCc2cc(O)cc(O)c2)cc1
REMARK SMILES IDX 6 1 5 2 4 3 3 4 2 5 16 6 17 7 1 8 7 10 8 11 15 12 9 13 13 14
REMARK SMILES IDX 10 15 12 16 14 17 11 19
REMARK H PARENT 1 9 14 18 11 20
REMARK Flexibility Score: inf
ROOT
ATOM      1  C   UNL     1      11.426 -26.817  13.239  1.00  0.00     0.040 C 
ENDROOT
BRANCH   1   2
ATOM      2  C   UNL     1      10.513 -26.470  14.384  1.00  0.00    -0.047 A 
ATOM      3  C   UNL     1       9.379 -25.670  14.169  1.00  0.00     0.007 A 
ATOM      4  C   UNL     1       8.513 -25.375  15.227  1.00  0.00     0.046 A 
ATOM      5  C   UNL     1       8.767 -25.885  16.507  1.00  0.00     0.115 A 
ATOM      6  C   UNL     1      10.756 -26.990  15.666  1.00  0.00     0.007 A 
ATOM      7  C   UNL     1       9.888 -26.693  16.722  1.00  0.00     0.046 A 
BRANCH   5   8
ATOM      8  O   UNL     1       7.913 -25.598  17.569  1.00  0.00    -0.508 OA
ATOM      9  H   UNL     1       7.393 -26.328  18.043  1.00  0.00     0.293 HD
ENDBRANCH   5   8
ENDBRANCH   1   2
BRANCH   1  10
ATOM     10  C   UNL     1      12.843 -26.300  13.506  1.00  0.00     0.040 C 
BRANCH  10  11
ATOM     11  C   UNL     1      13.351 -25.515  12.326  1.00  0.00    -0.040 A 
ATOM     12  C   UNL     1      13.808 -24.198  12.497  1.00  0.00     0.050 A 
ATOM     13  C   UNL     1      13.423 -26.112  11.057  1.00  0.00     0.050 A 
ATOM     14  C   UNL     1      14.311 -23.477  11.405  1.00  0.00     0.119 A 
ATOM     15  C   UNL     1      13.924 -25.394   9.966  1.00  0.00     0.119 A 
ATOM     16  C   UNL     1      14.366 -24.075  10.142  1.00  0.00     0.092 A 
BRANCH  14  17
ATOM     17  O   UNL     1      14.761 -22.168  11.565  1.00  0.00    -0.508 OA
ATOM     18  H   UNL     1      15.304 -21.704  10.847  1.00  0.00     0.293 HD
ENDBRANCH  14  17
BRANCH  15  19
ATOM     19  O   UNL     1      13.982 -26.000   8.713  1.00  0.00    -0.508 OA
ATOM     20  H   UNL     1      14.469 -26.878   8.571  1.00  0.00     0.293 HD
ENDBRANCH  15  19
ENDBRANCH  10  11
ENDBRANCH   1  10
TORSDOF 6
ENDMDL
