MODEL 1
REMARK VINA RESULT:    -5.167      0.000      0.000
REMARK INTER + INTRA:          -9.029
REMARK INTER:                  -8.188
REMARK INTRA:                  -0.842
REMARK UNBOUND:                -0.842
REMARK SMILES CCCCCCCCCCCC(=O)[O-]
REMARK SMILES IDX 7 1 8 2 9 3 10 4 11 5 12 6 13 7 14 8 6 9 5 10 4 11 3 12 2 13
REMARK SMILES IDX 1 14
REMARK H PARENT
REMARK Flexibility Score: inf
ROOT
ATOM      1  C   UNL     1      10.903 -12.764  24.340  1.00  0.00     0.000 C 
ENDROOT
BRANCH   1   2
ATOM      2  C   UNL     1      12.322 -13.164  24.782  1.00  0.00     0.000 C 
BRANCH   2   3
ATOM      3  C   UNL     1      13.204 -11.955  25.127  1.00  0.00     0.000 C 
BRANCH   3   4
ATOM      4  C   UNL     1      14.440 -12.387  25.931  1.00  0.00     0.006 C 
BRANCH   4   5
ATOM      5  C   UNL     1      14.084 -13.354  27.068  1.00  0.00     0.053 C 
BRANCH   5   6
ATOM      6  C   UNL     1      14.902 -14.607  27.004  1.00  0.00     0.041 C 
ATOM      7  O   UNL     1      16.044 -14.648  27.536  1.00  0.00    -0.550 OA
ATOM      8  O   UNL     1      14.392 -15.741  26.387  1.00  0.00    -0.550 OA
ENDBRANCH   5   6
ENDBRANCH   4   5
ENDBRANCH   3   4
ENDBRANCH   2   3
ENDBRANCH   1   2
BRANCH   1   9
ATOM      9  C   UNL     1      10.347 -11.494  25.010  1.00  0.00     0.000 C 
BRANCH   9  10
ATOM     10  C   UNL     1       8.887 -11.647  25.469  1.00  0.00    -0.000 C 
BRANCH  10  11
ATOM     11  C   UNL     1       8.541 -13.105  25.841  1.00  0.00    -0.000 C 
BRANCH  11  12
ATOM     12  C   UNL     1       8.293 -13.316  27.347  1.00  0.00    -0.000 C 
BRANCH  12  13
ATOM     13  C   UNL     1       9.040 -12.333  28.263  1.00  0.00    -0.003 C 
ATOM     14  C   UNL     1      10.120 -13.013  29.105  1.00  0.00     0.004 C 
ENDBRANCH  12  13
ENDBRANCH  11  12
ENDBRANCH  10  11
ENDBRANCH   9  10
ENDBRANCH   1   9
TORSDOF 10
ENDMDL
MODEL 2
REMARK VINA RESULT:    -5.070      1.443      1.878
REMARK INTER + INTRA:          -8.875
REMARK INTER:                  -8.193
REMARK INTRA:                  -0.683
REMARK UNBOUND:                -0.842
REMARK SMILES CCCCCCCCCCCC(=O)[O-]
REMARK SMILES IDX 7 1 8 2 9 3 10 4 11 5 12 6 13 7 14 8 6 9 5 10 4 11 3 12 2 13
REMARK SMILES IDX 1 14
REMARK H PARENT
REMARK Flexibility Score: inf
ROOT
ATOM      1  C   UNL     1       9.732 -11.769  24.090  1.00  0.00     0.000 C 
ENDROOT
BRANCH   1   2
ATOM      2  C   UNL     1      11.011 -12.627  24.100  1.00  0.00     0.000 C 
BRANCH   2   3
ATOM      3  C   UNL     1      11.923 -12.326  25.298  1.00  0.00     0.000 C 
BRANCH   3   4
ATOM      4  C   UNL     1      13.391 -12.624  24.959  1.00  0.00     0.006 C 
BRANCH   4   5
ATOM      5  C   UNL     1      13.670 -14.129  24.854  1.00  0.00     0.053 C 
BRANCH   5   6
ATOM      6  C   UNL     1      15.135 -14.428  24.950  1.00  0.00     0.041 C 
ATOM      7  O   UNL     1      15.974 -13.683  24.377  1.00  0.00    -0.550 OA
ATOM      8  O   UNL     1      15.577 -15.511  25.699  1.00  0.00    -0.550 OA
ENDBRANCH   5   6
ENDBRANCH   4   5
ENDBRANCH   3   4
ENDBRANCH   2   3
ENDBRANCH   1   2
BRANCH   1   9
ATOM      9  C   UNL     1       8.982 -11.705  25.433  1.00  0.00     0.000 C 
BRANCH   9  10
ATOM     10  C   UNL     1       8.269 -13.021  25.786  1.00  0.00    -0.000 C 
BRANCH  10  11
ATOM     11  C   UNL     1       8.306 -13.318  27.301  1.00  0.00    -0.000 C 
BRANCH  11  12
ATOM     12  C   UNL     1       9.335 -12.468  28.072  1.00  0.00    -0.000 C 
BRANCH  12  13
ATOM     13  C   UNL     1       9.248 -12.590  29.601  1.00  0.00    -0.003 C 
ATOM     14  C   UNL     1       8.051 -11.841  30.188  1.00  0.00     0.004 C 
ENDBRANCH  12  13
ENDBRANCH  11  12
ENDBRANCH  10  11
ENDBRANCH   9  10
ENDBRANCH   1   9
TORSDOF 10
ENDMDL
MODEL 3
REMARK VINA RESULT:    -4.976      1.380      2.002
REMARK INTER + INTRA:          -8.727
REMARK INTER:                  -7.922
REMARK INTRA:                  -0.805
REMARK UNBOUND:                -0.842
REMARK SMILES CCCCCCCCCCCC(=O)[O-]
REMARK SMILES IDX 7 1 8 2 9 3 10 4 11 5 12 6 13 7 14 8 6 9 5 10 4 11 3 12 2 13
REMARK SMILES IDX 1 14
REMARK H PARENT
REMARK Flexibility Score: inf
ROOT
ATOM      1  C   UNL     1      12.795 -11.810  25.045  1.00  0.00     0.000 C 
ENDROOT
BRANCH   1   2
ATOM      2  C   UNL     1      14.033 -12.421  25.727  1.00  0.00     0.000 C 
BRANCH   2   3
ATOM      3  C   UNL     1      13.675 -13.341  26.902  1.00  0.00     0.000 C 
BRANCH   3   4
ATOM      4  C   UNL     1      14.462 -14.658  26.829  1.00  0.00     0.006 C 
BRANCH   4   5
ATOM      5  C   UNL     1      14.827 -15.038  25.388  1.00  0.00     0.053 C 
BRANCH   5   6
ATOM      6  C   UNL     1      16.310 -15.139  25.201  1.00  0.00     0.041 C 
ATOM      7  O   UNL     1      17.091 -14.804  26.130  1.00  0.00    -0.550 OA
ATOM      8  O   UNL     1      16.829 -15.634  24.011  1.00  0.00    -0.550 OA
ENDBRANCH   5   6
ENDBRANCH   4   5
ENDBRANCH   3   4
ENDBRANCH   2   3
ENDBRANCH   1   2
BRANCH   1   9
ATOM      9  C   UNL     1      11.474 -12.556  25.307  1.00  0.00     0.000 C 
BRANCH   9  10
ATOM     10  C   UNL     1      10.252 -11.841  24.705  1.00  0.00    -0.000 C 
BRANCH  10  11
ATOM     11  C   UNL     1       9.178 -11.524  25.768  1.00  0.00    -0.000 C 
BRANCH  11  12
ATOM     12  C   UNL     1       8.880 -12.701  26.717  1.00  0.00    -0.000 C 
BRANCH  12  13
ATOM     13  C   UNL     1       8.972 -12.357  28.212  1.00  0.00    -0.003 C 
ATOM     14  C   UNL     1      10.170 -13.014  28.898  1.00  0.00     0.004 C 
ENDBRANCH  12  13
ENDBRANCH  11  12
ENDBRANCH  10  11
ENDBRANCH   9  10
ENDBRANCH   1   9
TORSDOF 10
ENDMDL
MODEL 4
REMARK VINA RESULT:    -4.947      1.740      3.375
REMARK INTER + INTRA:          -8.682
REMARK INTER:                  -8.145
REMARK INTRA:                  -0.536
REMARK UNBOUND:                -0.842
REMARK SMILES CCCCCCCCCCCC(=O)[O-]
REMARK SMILES IDX 7 1 8 2 9 3 10 4 11 5 12 6 13 7 14 8 6 9 5 10 4 11 3 12 2 13
REMARK SMILES IDX 1 14
REMARK H PARENT
REMARK Flexibility Score: inf
ROOT
ATOM      1  C   UNL     1      11.052 -13.693  29.847  1.00  0.00     0.000 C 
ENDROOT
BRANCH   1   2
ATOM      2  C   UNL     1      12.583 -13.549  29.774  1.00  0.00     0.000 C 
BRANCH   2   3
ATOM      3  C   UNL     1      13.129 -13.679  28.345  1.00  0.00     0.000 C 
BRANCH   3   4
ATOM      4  C   UNL     1      14.626 -13.336  28.295  1.00  0.00     0.006 C 
BRANCH   4   5
ATOM      5  C   UNL     1      15.416 -14.310  27.410  1.00  0.00     0.053 C 
BRANCH   5   6
ATOM      6  C   UNL     1      15.095 -14.124  25.959  1.00  0.00     0.041 C 
ATOM      7  O   UNL     1      14.955 -12.966  25.483  1.00  0.00    -0.550 OA
ATOM      8  O   UNL     1      14.982 -15.228  25.124  1.00  0.00    -0.550 OA
ENDBRANCH   5   6
ENDBRANCH   4   5
ENDBRANCH   3   4
ENDBRANCH   2   3
ENDBRANCH   1   2
BRANCH   1   9
ATOM      9  C   UNL     1      10.275 -12.936  28.755  1.00  0.00     0.000 C 
BRANCH   9  10
ATOM     10  C   UNL     1       8.764 -13.222  28.785  1.00  0.00    -0.000 C 
BRANCH  10  11
ATOM     11  C   UNL     1       8.161 -13.332  27.368  1.00  0.00    -0.000 C 
BRANCH  11  12
ATOM     12  C   UNL     1       9.113 -12.855  26.253  1.00  0.00    -0.000 C 
BRANCH  12  13
ATOM     13  C   UNL     1       8.778 -11.471  25.674  1.00  0.00    -0.003 C 
ATOM     14  C   UNL     1       9.357 -11.259  24.275  1.00  0.00     0.004 C 
ENDBRANCH  12  13
ENDBRANCH  11  12
ENDBRANCH  10  11
ENDBRANCH   9  10
ENDBRANCH   1   9
TORSDOF 10
ENDMDL
MODEL 5
REMARK VINA RESULT:    -4.877      2.384      5.077
REMARK INTER + INTRA:          -8.571
REMARK INTER:                  -7.961
REMARK INTRA:                  -0.610
REMARK UNBOUND:                -0.842
REMARK SMILES CCCCCCCCCCCC(=O)[O-]
REMARK SMILES IDX 7 1 8 2 9 3 10 4 11 5 12 6 13 7 14 8 6 9 5 10 4 11 3 12 2 13
REMARK SMILES IDX 1 14
REMARK H PARENT
REMARK Flexibility Score: inf
ROOT
ATOM      1  C   UNL     1       9.733 -11.268  24.701  1.00  0.00     0.000 C 
ENDROOT
BRANCH   1   2
ATOM      2  C   UNL     1       8.633 -11.647  25.710  1.00  0.00     0.000 C 
BRANCH   2   3
ATOM      3  C   UNL     1       8.614 -13.147  26.039  1.00  0.00     0.000 C 
BRANCH   3   4
ATOM      4  C   UNL     1       8.155 -13.386  27.486  1.00  0.00     0.006 C 
BRANCH   4   5
ATOM      5  C   UNL     1       8.619 -12.273  28.434  1.00  0.00     0.053 C 
BRANCH   5   6
ATOM      6  C   UNL     1       9.756 -12.721  29.300  1.00  0.00     0.041 C 
ATOM      7  O   UNL     1      10.799 -13.200  28.780  1.00  0.00    -0.550 OA
ATOM      8  O   UNL     1       9.679 -12.581  30.679  1.00  0.00    -0.550 OA
ENDBRANCH   5   6
ENDBRANCH   4   5
ENDBRANCH   3   4
ENDBRANCH   2   3
ENDBRANCH   1   2
BRANCH   1   9
ATOM      9  C   UNL     1      10.723 -12.398  24.365  1.00  0.00     0.000 C 
BRANCH   9  10
ATOM     10  C   UNL     1      11.835 -12.556  25.416  1.00  0.00    -0.000 C 
BRANCH  10  11
ATOM     11  C   UNL     1      13.142 -11.849  24.994  1.00  0.00    -0.000 C 
BRANCH  11  12
ATOM     12  C   UNL     1      14.377 -12.304  25.795  1.00  0.00    -0.000 C 
BRANCH  12  13
ATOM     13  C   UNL     1      14.168 -13.583  26.622  1.00  0.00    -0.003 C 
ATOM     14  C   UNL     1      14.324 -13.348  28.124  1.00  0.00     0.004 C 
ENDBRANCH  12  13
ENDBRANCH  11  12
ENDBRANCH  10  11
ENDBRANCH   9  10
ENDBRANCH   1   9
TORSDOF 10
ENDMDL
MODEL 6
REMARK VINA RESULT:    -4.867      2.224      3.786
REMARK INTER + INTRA:          -8.554
REMARK INTER:                  -8.024
REMARK INTRA:                  -0.530
REMARK UNBOUND:                -0.842
REMARK SMILES CCCCCCCCCCCC(=O)[O-]
REMARK SMILES IDX 7 1 8 2 9 3 10 4 11 5 12 6 13 7 14 8 6 9 5 10 4 11 3 12 2 13
REMARK SMILES IDX 1 14
REMARK H PARENT
REMARK Flexibility Score: inf
ROOT
ATOM      1  C   UNL     1      11.068 -13.717  29.801  1.00  0.00     0.000 C 
ENDROOT
BRANCH   1   2
ATOM      2  C   UNL     1      12.597 -13.647  29.635  1.00  0.00     0.000 C 
BRANCH   2   3
ATOM      3  C   UNL     1      13.040 -13.638  28.165  1.00  0.00     0.000 C 
BRANCH   3   4
ATOM      4  C   UNL     1      14.557 -13.426  28.049  1.00  0.00     0.006 C 
BRANCH   4   5
ATOM      5  C   UNL     1      15.131 -12.669  29.254  1.00  0.00     0.053 C 
BRANCH   5   6
ATOM      6  C   UNL     1      16.623 -12.560  29.179  1.00  0.00     0.041 C 
ATOM      7  O   UNL     1      17.202 -12.526  28.061  1.00  0.00    -0.550 OA
ATOM      8  O   UNL     1      17.374 -12.465  30.344  1.00  0.00    -0.550 OA
ENDBRANCH   5   6
ENDBRANCH   4   5
ENDBRANCH   3   4
ENDBRANCH   2   3
ENDBRANCH   1   2
BRANCH   1   9
ATOM      9  C   UNL     1      10.263 -12.963  28.726  1.00  0.00     0.000 C 
BRANCH   9  10
ATOM     10  C   UNL     1       8.764 -13.310  28.745  1.00  0.00    -0.000 C 
BRANCH  10  11
ATOM     11  C   UNL     1       8.158 -13.357  27.326  1.00  0.00    -0.000 C 
BRANCH  11  12
ATOM     12  C   UNL     1       9.120 -12.867  26.226  1.00  0.00    -0.000 C 
BRANCH  12  13
ATOM     13  C   UNL     1       8.798 -11.470  25.670  1.00  0.00    -0.003 C 
ATOM     14  C   UNL     1       9.344 -11.255  24.258  1.00  0.00     0.004 C 
ENDBRANCH  12  13
ENDBRANCH  11  12
ENDBRANCH  10  11
ENDBRANCH   9  10
ENDBRANCH   1   9
TORSDOF 10
ENDMDL
MODEL 7
REMARK VINA RESULT:    -4.827      1.397      3.908
REMARK INTER + INTRA:          -8.491
REMARK INTER:                  -7.654
REMARK INTRA:                  -0.837
REMARK UNBOUND:                -0.842
REMARK SMILES CCCCCCCCCCCC(=O)[O-]
REMARK SMILES IDX 7 1 8 2 9 3 10 4 11 5 12 6 13 7 14 8 6 9 5 10 4 11 3 12 2 13
REMARK SMILES IDX 1 14
REMARK H PARENT
REMARK Flexibility Score: inf
ROOT
ATOM      1  C   UNL     1       8.152 -13.362  27.912  1.00  0.00     0.000 C 
ENDROOT
BRANCH   1   2
ATOM      2  C   UNL     1       9.037 -12.518  28.847  1.00  0.00     0.000 C 
BRANCH   2   3
ATOM      3  C   UNL     1      10.178 -13.326  29.481  1.00  0.00     0.000 C 
BRANCH   3   4
ATOM      4  C   UNL     1      11.418 -13.331  28.574  1.00  0.00     0.006 C 
BRANCH   4   5
ATOM      5  C   UNL     1      12.708 -13.617  29.354  1.00  0.00     0.053 C 
BRANCH   5   6
ATOM      6  C   UNL     1      13.915 -13.553  28.469  1.00  0.00     0.041 C 
ATOM      7  O   UNL     1      15.005 -13.107  28.915  1.00  0.00    -0.550 OA
ATOM      8  O   UNL     1      13.846 -14.017  27.162  1.00  0.00    -0.550 OA
ENDBRANCH   5   6
ENDBRANCH   4   5
ENDBRANCH   3   4
ENDBRANCH   2   3
ENDBRANCH   1   2
BRANCH   1   9
ATOM      9  C   UNL     1       8.443 -13.189  26.410  1.00  0.00     0.000 C 
BRANCH   9  10
ATOM     10  C   UNL     1       9.040 -11.813  26.068  1.00  0.00    -0.000 C 
BRANCH  10  11
ATOM     11  C   UNL     1       9.970 -11.869  24.837  1.00  0.00    -0.000 C 
BRANCH  11  12
ATOM     12  C   UNL     1      11.222 -12.742  25.046  1.00  0.00    -0.000 C 
BRANCH  12  13
ATOM     13  C   UNL     1      12.521 -12.143  24.483  1.00  0.00    -0.003 C 
ATOM     14  C   UNL     1      12.883 -12.702  23.107  1.00  0.00     0.004 C 
ENDBRANCH  12  13
ENDBRANCH  11  12
ENDBRANCH  10  11
ENDBRANCH   9  10
ENDBRANCH   1   9
TORSDOF 10
ENDMDL
MODEL 8
REMARK VINA RESULT:    -4.715      2.532      3.248
REMARK INTER + INTRA:          -8.313
REMARK INTER:                  -7.642
REMARK INTRA:                  -0.671
REMARK UNBOUND:                -0.842
REMARK SMILES CCCCCCCCCCCC(=O)[O-]
REMARK SMILES IDX 7 1 8 2 9 3 10 4 11 5 12 6 13 7 14 8 6 9 5 10 4 11 3 12 2 13
REMARK SMILES IDX 1 14
REMARK H PARENT
REMARK Flexibility Score: inf
ROOT
ATOM      1  C   UNL     1       9.783 -12.243  23.499  1.00  0.00     0.000 C 
ENDROOT
BRANCH   1   2
ATOM      2  C   UNL     1       9.704 -12.239  21.962  1.00  0.00     0.000 C 
BRANCH   2   3
ATOM      3  C   UNL     1      10.942 -12.858  21.297  1.00  0.00     0.000 C 
BRANCH   3   4
ATOM      4  C   UNL     1      11.984 -13.267  22.350  1.00  0.00     0.006 C 
BRANCH   4   5
ATOM      5  C   UNL     1      13.262 -12.423  22.260  1.00  0.00     0.053 C 
BRANCH   5   6
ATOM      6  C   UNL     1      13.871 -12.194  23.610  1.00  0.00     0.041 C 
ATOM      7  O   UNL     1      15.082 -12.475  23.815  1.00  0.00    -0.550 OA
ATOM      8  O   UNL     1      13.111 -11.642  24.632  1.00  0.00    -0.550 OA
ENDBRANCH   5   6
ENDBRANCH   4   5
ENDBRANCH   3   4
ENDBRANCH   2   3
ENDBRANCH   1   2
BRANCH   1   9
ATOM      9  C   UNL     1       9.051 -11.078  24.191  1.00  0.00     0.000 C 
BRANCH   9  10
ATOM     10  C   UNL     1       9.045 -11.200  25.724  1.00  0.00    -0.000 C 
BRANCH  10  11
ATOM     11  C   UNL     1       9.424 -12.619  26.200  1.00  0.00    -0.000 C 
BRANCH  11  12
ATOM     12  C   UNL     1       8.297 -13.334  26.970  1.00  0.00    -0.000 C 
BRANCH  12  13
ATOM     13  C   UNL     1       8.376 -13.193  28.498  1.00  0.00    -0.003 C 
ATOM     14  C   UNL     1       9.792 -12.896  28.993  1.00  0.00     0.004 C 
ENDBRANCH  12  13
ENDBRANCH  11  12
ENDBRANCH  10  11
ENDBRANCH   9  10
ENDBRANCH   1   9
TORSDOF 10
ENDMDL
MODEL 9
REMARK VINA RESULT:    -4.653      1.666      2.356
REMARK INTER + INTRA:          -8.214
REMARK INTER:                  -7.613
REMARK INTRA:                  -0.601
REMARK UNBOUND:                -0.842
REMARK SMILES CCCCCCCCCCCC(=O)[O-]
REMARK SMILES IDX 7 1 8 2 9 3 10 4 11 5 12 6 13 7 14 8 6 9 5 10 4 11 3 12 2 13
REMARK SMILES IDX 1 14
REMARK H PARENT
REMARK Flexibility Score: inf
ROOT
ATOM      1  C   UNL     1      12.780 -11.897  24.708  1.00  0.00     0.000 C 
ENDROOT
BRANCH   1   2
ATOM      2  C   UNL     1      14.092 -12.340  25.381  1.00  0.00     0.000 C 
BRANCH   2   3
ATOM      3  C   UNL     1      13.937 -13.629  26.202  1.00  0.00     0.000 C 
BRANCH   3   4
ATOM      4  C   UNL     1      14.345 -13.401  27.665  1.00  0.00     0.006 C 
BRANCH   4   5
ATOM      5  C   UNL     1      15.751 -13.936  27.966  1.00  0.00     0.053 C 
BRANCH   5   6
ATOM      6  C   UNL     1      16.709 -12.829  28.282  1.00  0.00     0.041 C 
ATOM      7  O   UNL     1      17.073 -12.028  27.381  1.00  0.00    -0.550 OA
ATOM      8  O   UNL     1      17.175 -12.661  29.580  1.00  0.00    -0.550 OA
ENDBRANCH   5   6
ENDBRANCH   4   5
ENDBRANCH   3   4
ENDBRANCH   2   3
ENDBRANCH   1   2
BRANCH   1   9
ATOM      9  C   UNL     1      11.495 -12.347  25.428  1.00  0.00     0.000 C 
BRANCH   9  10
ATOM     10  C   UNL     1      10.215 -11.967  24.664  1.00  0.00    -0.000 C 
BRANCH  10  11
ATOM     11  C   UNL     1       9.011 -11.762  25.609  1.00  0.00    -0.000 C 
BRANCH  11  12
ATOM     12  C   UNL     1       8.287 -13.071  25.980  1.00  0.00    -0.000 C 
BRANCH  12  13
ATOM     13  C   UNL     1       8.159 -13.325  27.491  1.00  0.00    -0.003 C 
ATOM     14  C   UNL     1       9.059 -12.411  28.323  1.00  0.00     0.004 C 
ENDBRANCH  12  13
ENDBRANCH  11  12
ENDBRANCH  10  11
ENDBRANCH   9  10
ENDBRANCH   1   9
TORSDOF 10
ENDMDL
