MODEL 1
REMARK VINA RESULT:    -5.977      0.000      0.000
REMARK INTER + INTRA:          -7.712
REMARK INTER:                  -7.374
REMARK INTRA:                  -0.337
REMARK UNBOUND:                -0.337
REMARK SMILES O=c1c(O)c(-c2cc(O)c(O)c(O)c2)oc2cc(O)cc(O)c12
REMARK SMILES IDX 5 1 3 2 2 3 1 4 23 5 21 6 20 7 18 8 17 9 16 10 15 11 6 12
REMARK SMILES IDX 7 13 8 14 14 15 10 16 12 17 9 18 11 20 13 22 4 24 22 26
REMARK SMILES IDX 19 28
REMARK H PARENT 9 19 11 21 13 23 4 25 22 27 19 29
REMARK Flexibility Score: inf
ROOT
ATOM      1  C   UNL     1     -20.062  23.550  34.725  1.00  0.00     0.180 A 
ATOM      2  C   UNL     1     -18.781  23.121  34.330  1.00  0.00     0.208 A 
ATOM      3  C   UNL     1     -17.999  23.969  33.530  1.00  0.00     0.238 A 
ATOM      4  O   UNL     1     -16.854  23.590  33.160  1.00  0.00    -0.285 OA
ATOM      5  C   UNL     1     -18.500  25.232  33.156  1.00  0.00     0.111 A 
ATOM      6  C   UNL     1     -17.774  26.147  32.354  1.00  0.00     0.134 A 
ATOM      7  C   UNL     1     -18.338  27.390  32.033  1.00  0.00     0.093 A 
ATOM      8  C   UNL     1     -19.612  27.735  32.498  1.00  0.00     0.123 A 
ATOM      9  C   UNL     1     -20.332  26.836  33.287  1.00  0.00     0.094 A 
ATOM     10  C   UNL     1     -19.787  25.592  33.618  1.00  0.00     0.146 A 
ATOM     11  O   UNL     1     -20.496  24.755  34.366  1.00  0.00    -0.452 OA
ENDROOT
BRANCH   1  12
ATOM     12  C   UNL     1     -20.954  22.706  35.553  1.00  0.00     0.029 A 
ATOM     13  C   UNL     1     -21.997  21.961  34.978  1.00  0.00     0.062 A 
ATOM     14  C   UNL     1     -22.845  21.187  35.777  1.00  0.00     0.162 A 
ATOM     15  C   UNL     1     -20.793  22.693  36.947  1.00  0.00     0.062 A 
ATOM     16  C   UNL     1     -22.665  21.159  37.171  1.00  0.00     0.200 A 
ATOM     17  C   UNL     1     -21.637  21.919  37.756  1.00  0.00     0.162 A 
BRANCH  14  18
ATOM     18  O   UNL     1     -23.865  20.456  35.168  1.00  0.00    -0.504 OA
ATOM     19  H   UNL     1     -23.676  19.641  34.597  1.00  0.00     0.293 HD
ENDBRANCH  14  18
BRANCH  16  20
ATOM     20  O   UNL     1     -23.512  20.382  37.960  1.00  0.00    -0.502 OA
ATOM     21  H   UNL     1     -23.457  20.379  38.971  1.00  0.00     0.293 HD
ENDBRANCH  16  20
BRANCH  17  22
ATOM     22  O   UNL     1     -21.457  21.904  39.138  1.00  0.00    -0.504 OA
ATOM     23  H   UNL     1     -20.535  21.850  39.554  1.00  0.00     0.293 HD
ENDBRANCH  17  22
ENDBRANCH   1  12
BRANCH   2  24
ATOM     24  O   UNL     1     -18.288  21.884  34.755  1.00  0.00    -0.502 OA
ATOM     25  H   UNL     1     -18.744  21.010  34.524  1.00  0.00     0.293 HD
ENDBRANCH   2  24
BRANCH   6  26
ATOM     26  O   UNL     1     -16.501  25.831  31.877  1.00  0.00    -0.507 OA
ATOM     27  H   UNL     1     -15.718  25.689  32.503  1.00  0.00     0.293 HD
ENDBRANCH   6  26
BRANCH   8  28
ATOM     28  O   UNL     1     -20.173  28.970  32.179  1.00  0.00    -0.508 OA
ATOM     29  H   UNL     1     -20.154  29.334  31.233  1.00  0.00     0.293 HD
ENDBRANCH   8  28
TORSDOF 7
ENDMDL
MODEL 2
REMARK VINA RESULT:    -5.831      5.691      8.233
REMARK INTER + INTRA:          -7.531
REMARK INTER:                  -7.223
REMARK INTRA:                  -0.309
REMARK UNBOUND:                -0.337
REMARK SMILES O=c1c(O)c(-c2cc(O)c(O)c(O)c2)oc2cc(O)cc(O)c12
REMARK SMILES IDX 5 1 3 2 2 3 1 4 23 5 21 6 20 7 18 8 17 9 16 10 15 11 6 12
REMARK SMILES IDX 7 13 8 14 14 15 10 16 12 17 9 18 11 20 13 22 4 24 22 26
REMARK SMILES IDX 19 28
REMARK H PARENT 9 19 11 21 13 23 4 25 22 27 19 29
REMARK Flexibility Score: inf
ROOT
ATOM      1  C   UNL     1     -19.086  21.285  41.552  1.00  0.00     0.180 A 
ATOM      2  C   UNL     1     -20.470  21.440  41.763  1.00  0.00     0.208 A 
ATOM      3  C   UNL     1     -21.108  22.586  41.263  1.00  0.00     0.238 A 
ATOM      4  O   UNL     1     -22.345  22.740  41.456  1.00  0.00    -0.285 OA
ATOM      5  C   UNL     1     -20.361  23.544  40.549  1.00  0.00     0.111 A 
ATOM      6  C   UNL     1     -20.929  24.724  40.010  1.00  0.00     0.134 A 
ATOM      7  C   UNL     1     -20.120  25.625  39.302  1.00  0.00     0.093 A 
ATOM      8  C   UNL     1     -18.756  25.369  39.124  1.00  0.00     0.123 A 
ATOM      9  C   UNL     1     -18.191  24.207  39.654  1.00  0.00     0.094 A 
ATOM     10  C   UNL     1     -18.981  23.297  40.363  1.00  0.00     0.146 A 
ATOM     11  O   UNL     1     -18.417  22.203  40.861  1.00  0.00    -0.452 OA
ENDROOT
BRANCH   1  12
ATOM     12  C   UNL     1     -18.338  20.114  42.064  1.00  0.00     0.029 A 
ATOM     13  C   UNL     1     -17.988  19.046  41.221  1.00  0.00     0.062 A 
ATOM     14  C   UNL     1     -17.302  17.935  41.726  1.00  0.00     0.162 A 
ATOM     15  C   UNL     1     -18.022  20.040  43.429  1.00  0.00     0.062 A 
ATOM     16  C   UNL     1     -16.967  17.877  43.089  1.00  0.00     0.200 A 
ATOM     17  C   UNL     1     -17.332  18.932  43.942  1.00  0.00     0.162 A 
BRANCH  14  18
ATOM     18  O   UNL     1     -16.966  16.898  40.856  1.00  0.00    -0.504 OA
ATOM     19  H   UNL     1     -16.894  17.036  39.855  1.00  0.00     0.293 HD
ENDBRANCH  14  18
BRANCH  16  20
ATOM     20  O   UNL     1     -16.279  16.768  43.583  1.00  0.00    -0.502 OA
ATOM     21  H   UNL     1     -16.683  16.144  44.269  1.00  0.00     0.293 HD
ENDBRANCH  16  20
BRANCH  17  22
ATOM     22  O   UNL     1     -17.011  18.878  45.298  1.00  0.00    -0.504 OA
ATOM     23  H   UNL     1     -17.718  18.979  46.016  1.00  0.00     0.293 HD
ENDBRANCH  17  22
ENDBRANCH   1  12
BRANCH   2  24
ATOM     24  O   UNL     1     -21.197  20.451  42.432  1.00  0.00    -0.502 OA
ATOM     25  H   UNL     1     -21.550  19.627  41.962  1.00  0.00     0.293 HD
ENDBRANCH   2  24
BRANCH   6  26
ATOM     26  O   UNL     1     -22.286  25.007  40.172  1.00  0.00    -0.507 OA
ATOM     27  H   UNL     1     -22.774  25.645  39.555  1.00  0.00     0.293 HD
ENDBRANCH   6  26
BRANCH   8  28
ATOM     28  O   UNL     1     -17.951  26.263  38.421  1.00  0.00    -0.508 OA
ATOM     29  H   UNL     1     -17.076  26.602  38.803  1.00  0.00     0.293 HD
ENDBRANCH   8  28
TORSDOF 7
ENDMDL
MODEL 3
REMARK VINA RESULT:    -5.814      6.512     10.468
REMARK INTER + INTRA:          -7.511
REMARK INTER:                  -7.146
REMARK INTRA:                  -0.365
REMARK UNBOUND:                -0.337
REMARK SMILES O=c1c(O)c(-c2cc(O)c(O)c(O)c2)oc2cc(O)cc(O)c12
REMARK SMILES IDX 5 1 3 2 2 3 1 4 23 5 21 6 20 7 18 8 17 9 16 10 15 11 6 12
REMARK SMILES IDX 7 13 8 14 14 15 10 16 12 17 9 18 11 20 13 22 4 24 22 26
REMARK SMILES IDX 19 28
REMARK H PARENT 9 19 11 21 13 23 4 25 22 27 19 29
REMARK Flexibility Score: inf
ROOT
ATOM      1  C   UNL     1     -18.314  20.034  41.904  1.00  0.00     0.180 A 
ATOM      2  C   UNL     1     -18.021  19.934  43.277  1.00  0.00     0.208 A 
ATOM      3  C   UNL     1     -17.359  18.789  43.748  1.00  0.00     0.238 A 
ATOM      4  O   UNL     1     -17.101  18.683  44.978  1.00  0.00    -0.285 OA
ATOM      5  C   UNL     1     -16.985  17.777  42.840  1.00  0.00     0.111 A 
ATOM      6  C   UNL     1     -16.312  16.594  43.232  1.00  0.00     0.134 A 
ATOM      7  C   UNL     1     -15.966  15.638  42.267  1.00  0.00     0.093 A 
ATOM      8  C   UNL     1     -16.279  15.842  40.918  1.00  0.00     0.123 A 
ATOM      9  C   UNL     1     -16.943  17.006  40.527  1.00  0.00     0.094 A 
ATOM     10  C   UNL     1     -17.298  17.971  41.474  1.00  0.00     0.146 A 
ATOM     11  O   UNL     1     -17.933  19.066  41.075  1.00  0.00    -0.452 OA
ENDROOT
BRANCH   1  12
ATOM     12  C   UNL     1     -19.026  21.201  41.334  1.00  0.00     0.029 A 
ATOM     13  C   UNL     1     -20.424  21.211  41.203  1.00  0.00     0.062 A 
ATOM     14  C   UNL     1     -21.080  22.312  40.640  1.00  0.00     0.162 A 
ATOM     15  C   UNL     1     -18.287  22.296  40.862  1.00  0.00     0.062 A 
ATOM     16  C   UNL     1     -20.336  23.416  40.190  1.00  0.00     0.200 A 
ATOM     17  C   UNL     1     -18.935  23.405  40.299  1.00  0.00     0.162 A 
BRANCH  14  18
ATOM     18  O   UNL     1     -22.470  22.287  40.533  1.00  0.00    -0.504 OA
ATOM     19  H   UNL     1     -22.960  21.541  40.055  1.00  0.00     0.293 HD
ENDBRANCH  14  18
BRANCH  16  20
ATOM     20  O   UNL     1     -20.998  24.512  39.635  1.00  0.00    -0.502 OA
ATOM     21  H   UNL     1     -21.660  24.415  38.875  1.00  0.00     0.293 HD
ENDBRANCH  16  20
BRANCH  17  22
ATOM     22  O   UNL     1     -18.190  24.493  39.847  1.00  0.00    -0.504 OA
ATOM     23  H   UNL     1     -17.648  24.448  38.992  1.00  0.00     0.293 HD
ENDBRANCH  17  22
ENDBRANCH   1  12
BRANCH   2  24
ATOM     24  O   UNL     1     -18.358  20.973  44.149  1.00  0.00    -0.502 OA
ATOM     25  H   UNL     1     -19.174  20.937  44.746  1.00  0.00     0.293 HD
ENDBRANCH   2  24
BRANCH   6  26
ATOM     26  O   UNL     1     -15.986  16.363  44.570  1.00  0.00    -0.507 OA
ATOM     27  H   UNL     1     -15.993  15.432  44.966  1.00  0.00     0.293 HD
ENDBRANCH   6  26
BRANCH   8  28
ATOM     28  O   UNL     1     -15.935  14.893  39.958  1.00  0.00    -0.508 OA
ATOM     29  H   UNL     1     -16.553  14.672  39.185  1.00  0.00     0.293 HD
ENDBRANCH   8  28
TORSDOF 7
ENDMDL
MODEL 4
REMARK VINA RESULT:    -5.523     18.046     19.228
REMARK INTER + INTRA:          -7.152
REMARK INTER:                  -7.044
REMARK INTRA:                  -0.108
REMARK UNBOUND:                -0.337
REMARK SMILES O=c1c(O)c(-c2cc(O)c(O)c(O)c2)oc2cc(O)cc(O)c12
REMARK SMILES IDX 5 1 3 2 2 3 1 4 23 5 21 6 20 7 18 8 17 9 16 10 15 11 6 12
REMARK SMILES IDX 7 13 8 14 14 15 10 16 12 17 9 18 11 20 13 22 4 24 22 26
REMARK SMILES IDX 19 28
REMARK H PARENT 9 19 11 21 13 23 4 25 22 27 19 29
REMARK Flexibility Score: inf
ROOT
ATOM      1  C   UNL     1      -6.990  30.125  45.694  1.00  0.00     0.180 A 
ATOM      2  C   UNL     1      -7.994  30.872  45.050  1.00  0.00     0.208 A 
ATOM      3  C   UNL     1      -8.240  32.187  45.476  1.00  0.00     0.238 A 
ATOM      4  O   UNL     1      -9.146  32.862  44.914  1.00  0.00    -0.285 OA
ATOM      5  C   UNL     1      -7.470  32.736  46.521  1.00  0.00     0.111 A 
ATOM      6  C   UNL     1      -7.653  34.054  47.008  1.00  0.00     0.134 A 
ATOM      7  C   UNL     1      -6.838  34.531  48.045  1.00  0.00     0.093 A 
ATOM      8  C   UNL     1      -5.847  33.717  48.605  1.00  0.00     0.123 A 
ATOM      9  C   UNL     1      -5.664  32.418  48.129  1.00  0.00     0.094 A 
ATOM     10  C   UNL     1      -6.466  31.923  47.096  1.00  0.00     0.146 A 
ATOM     11  O   UNL     1      -6.273  30.682  46.666  1.00  0.00    -0.452 OA
ENDROOT
BRANCH   1  12
ATOM     12  C   UNL     1      -6.684  28.727  45.314  1.00  0.00     0.029 A 
ATOM     13  C   UNL     1      -6.737  27.685  46.255  1.00  0.00     0.062 A 
ATOM     14  C   UNL     1      -6.422  26.373  45.885  1.00  0.00     0.162 A 
ATOM     15  C   UNL     1      -6.276  28.442  44.002  1.00  0.00     0.062 A 
ATOM     16  C   UNL     1      -6.036  26.090  44.564  1.00  0.00     0.200 A 
ATOM     17  C   UNL     1      -5.960  27.130  43.622  1.00  0.00     0.162 A 
BRANCH  14  18
ATOM     18  O   UNL     1      -6.493  25.365  46.847  1.00  0.00    -0.504 OA
ATOM     19  H   UNL     1      -5.669  25.005  47.311  1.00  0.00     0.293 HD
ENDBRANCH  14  18
BRANCH  16  20
ATOM     20  O   UNL     1      -5.727  24.778  44.202  1.00  0.00    -0.502 OA
ATOM     21  H   UNL     1      -5.661  24.487  43.235  1.00  0.00     0.293 HD
ENDBRANCH  16  20
BRANCH  17  22
ATOM     22  O   UNL     1      -5.569  26.859  42.312  1.00  0.00    -0.504 OA
ATOM     23  H   UNL     1      -4.915  26.116  42.094  1.00  0.00     0.293 HD
ENDBRANCH  17  22
ENDBRANCH   1  12
BRANCH   2  24
ATOM     24  O   UNL     1      -8.711  30.322  43.983  1.00  0.00    -0.502 OA
ATOM     25  H   UNL     1      -9.404  30.848  43.467  1.00  0.00     0.293 HD
ENDBRANCH   2  24
BRANCH   6  26
ATOM     26  O   UNL     1      -8.633  34.889  46.469  1.00  0.00    -0.507 OA
ATOM     27  H   UNL     1      -9.079  35.611  47.022  1.00  0.00     0.293 HD
ENDBRANCH   6  26
BRANCH   8  28
ATOM     28  O   UNL     1      -5.037  34.191  49.635  1.00  0.00    -0.508 OA
ATOM     29  H   UNL     1      -4.812  33.616  50.439  1.00  0.00     0.293 HD
ENDBRANCH   8  28
TORSDOF 7
ENDMDL
MODEL 5
REMARK VINA RESULT:    -5.475     15.789     16.795
REMARK INTER + INTRA:          -7.093
REMARK INTER:                  -6.729
REMARK INTRA:                  -0.364
REMARK UNBOUND:                -0.337
REMARK SMILES O=c1c(O)c(-c2cc(O)c(O)c(O)c2)oc2cc(O)cc(O)c12
REMARK SMILES IDX 5 1 3 2 2 3 1 4 23 5 21 6 20 7 18 8 17 9 16 10 15 11 6 12
REMARK SMILES IDX 7 13 8 14 14 15 10 16 12 17 9 18 11 20 13 22 4 24 22 26
REMARK SMILES IDX 19 28
REMARK H PARENT 9 19 11 21 13 23 4 25 22 27 19 29
REMARK Flexibility Score: inf
ROOT
ATOM      1  C   UNL     1      -8.338  28.631  44.350  1.00  0.00     0.180 A 
ATOM      2  C   UNL     1      -7.160  27.861  44.334  1.00  0.00     0.208 A 
ATOM      3  C   UNL     1      -6.078  28.259  45.135  1.00  0.00     0.238 A 
ATOM      4  O   UNL     1      -5.013  27.582  45.120  1.00  0.00    -0.285 OA
ATOM      5  C   UNL     1      -6.198  29.404  45.948  1.00  0.00     0.111 A 
ATOM      6  C   UNL     1      -5.156  29.871  46.787  1.00  0.00     0.134 A 
ATOM      7  C   UNL     1      -5.357  31.014  47.574  1.00  0.00     0.093 A 
ATOM      8  C   UNL     1      -6.577  31.698  47.539  1.00  0.00     0.123 A 
ATOM      9  C   UNL     1      -7.606  31.242  46.714  1.00  0.00     0.094 A 
ATOM     10  C   UNL     1      -7.426  30.105  45.921  1.00  0.00     0.146 A 
ATOM     11  O   UNL     1      -8.420  29.697  45.141  1.00  0.00    -0.452 OA
ENDROOT
BRANCH   1  12
ATOM     12  C   UNL     1      -9.515  28.286  43.520  1.00  0.00     0.029 A 
ATOM     13  C   UNL     1      -9.632  28.737  42.195  1.00  0.00     0.062 A 
ATOM     14  C   UNL     1     -10.762  28.422  41.431  1.00  0.00     0.162 A 
ATOM     15  C   UNL     1     -10.563  27.542  44.084  1.00  0.00     0.062 A 
ATOM     16  C   UNL     1     -11.798  27.657  41.994  1.00  0.00     0.200 A 
ATOM     17  C   UNL     1     -11.698  27.220  43.326  1.00  0.00     0.162 A 
BRANCH  14  18
ATOM     18  O   UNL     1     -10.838  28.882  40.117  1.00  0.00    -0.504 OA
ATOM     19  H   UNL     1     -10.392  29.742  39.821  1.00  0.00     0.293 HD
ENDBRANCH  14  18
BRANCH  16  20
ATOM     20  O   UNL     1     -12.919  27.344  41.225  1.00  0.00    -0.502 OA
ATOM     21  H   UNL     1     -13.823  27.769  41.390  1.00  0.00     0.293 HD
ENDBRANCH  16  20
BRANCH  17  22
ATOM     22  O   UNL     1     -12.725  26.469  43.894  1.00  0.00    -0.504 OA
ATOM     23  H   UNL     1     -13.571  26.903  44.244  1.00  0.00     0.293 HD
ENDBRANCH  17  22
ENDBRANCH   1  12
BRANCH   2  24
ATOM     24  O   UNL     1      -7.084  26.701  43.557  1.00  0.00    -0.502 OA
ATOM     25  H   UNL     1      -7.843  26.399  42.960  1.00  0.00     0.293 HD
ENDBRANCH   2  24
BRANCH   6  26
ATOM     26  O   UNL     1      -3.928  29.209  46.843  1.00  0.00    -0.507 OA
ATOM     27  H   UNL     1      -3.848  28.266  47.202  1.00  0.00     0.293 HD
ENDBRANCH   6  26
BRANCH   8  28
ATOM     28  O   UNL     1      -6.777  32.834  48.321  1.00  0.00    -0.508 OA
ATOM     29  H   UNL     1      -7.277  33.641  47.967  1.00  0.00     0.293 HD
ENDBRANCH   8  28
TORSDOF 7
ENDMDL
MODEL 6
REMARK VINA RESULT:    -5.473      1.581      7.135
REMARK INTER + INTRA:          -7.090
REMARK INTER:                  -6.852
REMARK INTRA:                  -0.238
REMARK UNBOUND:                -0.337
REMARK SMILES O=c1c(O)c(-c2cc(O)c(O)c(O)c2)oc2cc(O)cc(O)c12
REMARK SMILES IDX 5 1 3 2 2 3 1 4 23 5 21 6 20 7 18 8 17 9 16 10 15 11 6 12
REMARK SMILES IDX 7 13 8 14 14 15 10 16 12 17 9 18 11 20 13 22 4 24 22 26
REMARK SMILES IDX 19 28
REMARK H PARENT 9 19 11 21 13 23 4 25 22 27 19 29
REMARK Flexibility Score: inf
ROOT
ATOM      1  C   UNL     1     -19.954  23.772  35.533  1.00  0.00     0.180 A 
ATOM      2  C   UNL     1     -20.726  22.693  35.062  1.00  0.00     0.208 A 
ATOM      3  C   UNL     1     -21.468  21.937  35.984  1.00  0.00     0.238 A 
ATOM      4  O   UNL     1     -22.155  20.961  35.574  1.00  0.00    -0.285 OA
ATOM      5  C   UNL     1     -21.440  22.281  37.350  1.00  0.00     0.111 A 
ATOM      6  C   UNL     1     -22.161  21.573  38.342  1.00  0.00     0.134 A 
ATOM      7  C   UNL     1     -22.089  21.984  39.681  1.00  0.00     0.093 A 
ATOM      8  C   UNL     1     -21.310  23.088  40.046  1.00  0.00     0.123 A 
ATOM      9  C   UNL     1     -20.597  23.789  39.072  1.00  0.00     0.094 A 
ATOM     10  C   UNL     1     -20.655  23.395  37.732  1.00  0.00     0.146 A 
ATOM     11  O   UNL     1     -19.963  24.076  36.827  1.00  0.00    -0.452 OA
ENDROOT
BRANCH   1  12
ATOM     12  C   UNL     1     -19.131  24.605  34.626  1.00  0.00     0.029 A 
ATOM     13  C   UNL     1     -19.485  25.931  34.329  1.00  0.00     0.062 A 
ATOM     14  C   UNL     1     -18.709  26.697  33.452  1.00  0.00     0.162 A 
ATOM     15  C   UNL     1     -18.005  24.042  34.005  1.00  0.00     0.062 A 
ATOM     16  C   UNL     1     -17.570  26.137  32.850  1.00  0.00     0.200 A 
ATOM     17  C   UNL     1     -17.221  24.804  33.126  1.00  0.00     0.162 A 
BRANCH  14  18
ATOM     18  O   UNL     1     -19.090  28.013  33.188  1.00  0.00    -0.504 OA
ATOM     19  H   UNL     1     -19.613  28.567  33.856  1.00  0.00     0.293 HD
ENDBRANCH  14  18
BRANCH  16  20
ATOM     20  O   UNL     1     -16.799  26.909  31.981  1.00  0.00    -0.502 OA
ATOM     21  H   UNL     1     -16.410  27.803  32.253  1.00  0.00     0.293 HD
ENDBRANCH  16  20
BRANCH  17  22
ATOM     22  O   UNL     1     -16.097  24.237  32.526  1.00  0.00    -0.504 OA
ATOM     23  H   UNL     1     -15.213  24.163  33.015  1.00  0.00     0.293 HD
ENDBRANCH  17  22
ENDBRANCH   1  12
BRANCH   2  24
ATOM     24  O   UNL     1     -20.777  22.403  33.695  1.00  0.00    -0.502 OA
ATOM     25  H   UNL     1     -20.086  21.821  33.239  1.00  0.00     0.293 HD
ENDBRANCH   2  24
BRANCH   6  26
ATOM     26  O   UNL     1     -22.946  20.468  38.008  1.00  0.00    -0.507 OA
ATOM     27  H   UNL     1     -22.674  19.824  37.276  1.00  0.00     0.293 HD
ENDBRANCH   6  26
BRANCH   8  28
ATOM     28  O   UNL     1     -21.238  23.497  41.376  1.00  0.00    -0.508 OA
ATOM     29  H   UNL     1     -22.014  23.967  41.830  1.00  0.00     0.293 HD
ENDBRANCH   8  28
TORSDOF 7
ENDMDL
MODEL 7
REMARK VINA RESULT:    -5.431     18.392     19.503
REMARK INTER + INTRA:          -7.038
REMARK INTER:                  -6.738
REMARK INTRA:                  -0.300
REMARK UNBOUND:                -0.337
REMARK SMILES O=c1c(O)c(-c2cc(O)c(O)c(O)c2)oc2cc(O)cc(O)c12
REMARK SMILES IDX 5 1 3 2 2 3 1 4 23 5 21 6 20 7 18 8 17 9 16 10 15 11 6 12
REMARK SMILES IDX 7 13 8 14 14 15 10 16 12 17 9 18 11 20 13 22 4 24 22 26
REMARK SMILES IDX 19 28
REMARK H PARENT 9 19 11 21 13 23 4 25 22 27 19 29
REMARK Flexibility Score: inf
ROOT
ATOM      1  C   UNL     1      -5.953  30.053  45.980  1.00  0.00     0.180 A 
ATOM      2  C   UNL     1      -4.941  30.606  46.788  1.00  0.00     0.208 A 
ATOM      3  C   UNL     1      -5.039  31.953  47.171  1.00  0.00     0.238 A 
ATOM      4  O   UNL     1      -4.133  32.462  47.887  1.00  0.00    -0.285 OA
ATOM      5  C   UNL     1      -6.150  32.716  46.758  1.00  0.00     0.111 A 
ATOM      6  C   UNL     1      -6.325  34.078  47.103  1.00  0.00     0.134 A 
ATOM      7  C   UNL     1      -7.464  34.767  46.660  1.00  0.00     0.093 A 
ATOM      8  C   UNL     1      -8.429  34.121  45.879  1.00  0.00     0.123 A 
ATOM      9  C   UNL     1      -8.259  32.778  45.536  1.00  0.00     0.094 A 
ATOM     10  C   UNL     1      -7.131  32.074  45.967  1.00  0.00     0.146 A 
ATOM     11  O   UNL     1      -6.994  30.800  45.621  1.00  0.00    -0.452 OA
ENDROOT
BRANCH   1  12
ATOM     12  C   UNL     1      -5.912  28.646  45.520  1.00  0.00     0.029 A 
ATOM     13  C   UNL     1      -6.205  27.584  46.390  1.00  0.00     0.062 A 
ATOM     14  C   UNL     1      -6.139  26.259  45.946  1.00  0.00     0.162 A 
ATOM     15  C   UNL     1      -5.517  28.363  44.203  1.00  0.00     0.062 A 
ATOM     16  C   UNL     1      -5.765  25.981  44.620  1.00  0.00     0.200 A 
ATOM     17  C   UNL     1      -5.450  27.038  43.749  1.00  0.00     0.162 A 
BRANCH  14  18
ATOM     18  O   UNL     1      -6.443  25.232  46.839  1.00  0.00    -0.504 OA
ATOM     19  H   UNL     1      -5.738  24.802  47.426  1.00  0.00     0.293 HD
ENDBRANCH  14  18
BRANCH  16  20
ATOM     20  O   UNL     1      -5.705  24.657  44.183  1.00  0.00    -0.502 OA
ATOM     21  H   UNL     1      -5.099  23.972  44.618  1.00  0.00     0.293 HD
ENDBRANCH  16  20
BRANCH  17  22
ATOM     22  O   UNL     1      -5.069  26.770  42.435  1.00  0.00    -0.504 OA
ATOM     23  H   UNL     1      -4.757  25.850  42.148  1.00  0.00     0.293 HD
ENDBRANCH  17  22
ENDBRANCH   1  12
BRANCH   2  24
ATOM     24  O   UNL     1      -3.875  29.814  47.226  1.00  0.00    -0.502 OA
ATOM     25  H   UNL     1      -3.360  29.207  46.603  1.00  0.00     0.293 HD
ENDBRANCH   2  24
BRANCH   6  26
ATOM     26  O   UNL     1      -5.380  34.750  47.881  1.00  0.00    -0.507 OA
ATOM     27  H   UNL     1      -5.437  35.748  48.043  1.00  0.00     0.293 HD
ENDBRANCH   6  26
BRANCH   8  28
ATOM     28  O   UNL     1      -9.560  34.804  45.439  1.00  0.00    -0.508 OA
ATOM     29  H   UNL     1     -10.379  34.909  46.027  1.00  0.00     0.293 HD
ENDBRANCH   8  28
TORSDOF 7
ENDMDL
MODEL 8
REMARK VINA RESULT:    -5.321     15.742     16.658
REMARK INTER + INTRA:          -6.902
REMARK INTER:                  -6.557
REMARK INTRA:                  -0.345
REMARK UNBOUND:                -0.337
REMARK SMILES O=c1c(O)c(-c2cc(O)c(O)c(O)c2)oc2cc(O)cc(O)c12
REMARK SMILES IDX 5 1 3 2 2 3 1 4 23 5 21 6 20 7 18 8 17 9 16 10 15 11 6 12
REMARK SMILES IDX 7 13 8 14 14 15 10 16 12 17 9 18 11 20 13 22 4 24 22 26
REMARK SMILES IDX 19 28
REMARK H PARENT 9 19 11 21 13 23 4 25 22 27 19 29
REMARK Flexibility Score: inf
ROOT
ATOM      1  C   UNL     1      -8.659  29.072  44.654  1.00  0.00     0.180 A 
ATOM      2  C   UNL     1      -7.700  28.663  45.599  1.00  0.00     0.208 A 
ATOM      3  C   UNL     1      -7.073  29.636  46.394  1.00  0.00     0.238 A 
ATOM      4  O   UNL     1      -6.203  29.282  47.237  1.00  0.00    -0.285 OA
ATOM      5  C   UNL     1      -7.428  30.992  46.245  1.00  0.00     0.111 A 
ATOM      6  C   UNL     1      -6.846  32.033  47.009  1.00  0.00     0.134 A 
ATOM      7  C   UNL     1      -7.260  33.358  46.809  1.00  0.00     0.093 A 
ATOM      8  C   UNL     1      -8.243  33.661  45.860  1.00  0.00     0.123 A 
ATOM      9  C   UNL     1      -8.819  32.638  45.104  1.00  0.00     0.094 A 
ATOM     10  C   UNL     1      -8.419  31.311  45.288  1.00  0.00     0.146 A 
ATOM     11  O   UNL     1      -8.979  30.359  44.552  1.00  0.00    -0.452 OA
ENDROOT
BRANCH   1  12
ATOM     12  C   UNL     1      -9.350  28.109  43.767  1.00  0.00     0.029 A 
ATOM     13  C   UNL     1      -8.731  27.606  42.611  1.00  0.00     0.062 A 
ATOM     14  C   UNL     1      -9.406  26.714  41.770  1.00  0.00     0.162 A 
ATOM     15  C   UNL     1     -10.672  27.733  44.053  1.00  0.00     0.062 A 
ATOM     16  C   UNL     1     -10.721  26.324  42.073  1.00  0.00     0.200 A 
ATOM     17  C   UNL     1     -11.355  26.839  43.217  1.00  0.00     0.162 A 
BRANCH  14  18
ATOM     18  O   UNL     1      -8.755  26.232  40.635  1.00  0.00    -0.504 OA
ATOM     19  H   UNL     1      -8.831  26.690  39.735  1.00  0.00     0.293 HD
ENDBRANCH  14  18
BRANCH  16  20
ATOM     20  O   UNL     1     -11.386  25.431  41.232  1.00  0.00    -0.502 OA
ATOM     21  H   UNL     1     -12.147  25.721  40.630  1.00  0.00     0.293 HD
ENDBRANCH  16  20
BRANCH  17  22
ATOM     22  O   UNL     1     -12.663  26.462  43.520  1.00  0.00    -0.504 OA
ATOM     23  H   UNL     1     -12.872  25.835  44.287  1.00  0.00     0.293 HD
ENDBRANCH  17  22
ENDBRANCH   1  12
BRANCH   2  24
ATOM     24  O   UNL     1      -7.401  27.307  45.762  1.00  0.00    -0.502 OA
ATOM     25  H   UNL     1      -6.772  26.813  45.143  1.00  0.00     0.293 HD
ENDBRANCH   2  24
BRANCH   6  26
ATOM     26  O   UNL     1      -5.864  31.761  47.964  1.00  0.00    -0.507 OA
ATOM     27  H   UNL     1      -5.841  30.885  48.470  1.00  0.00     0.293 HD
ENDBRANCH   6  26
BRANCH   8  28
ATOM     28  O   UNL     1      -8.655  34.977  45.660  1.00  0.00    -0.508 OA
ATOM     29  H   UNL     1      -8.583  35.423  44.753  1.00  0.00     0.293 HD
ENDBRANCH   8  28
TORSDOF 7
ENDMDL
MODEL 9
REMARK VINA RESULT:    -5.303      6.845      9.162
REMARK INTER + INTRA:          -6.880
REMARK INTER:                  -6.519
REMARK INTRA:                  -0.362
REMARK UNBOUND:                -0.337
REMARK SMILES O=c1c(O)c(-c2cc(O)c(O)c(O)c2)oc2cc(O)cc(O)c12
REMARK SMILES IDX 5 1 3 2 2 3 1 4 23 5 21 6 20 7 18 8 17 9 16 10 15 11 6 12
REMARK SMILES IDX 7 13 8 14 14 15 10 16 12 17 9 18 11 20 13 22 4 24 22 26
REMARK SMILES IDX 19 28
REMARK H PARENT 9 19 11 21 13 23 4 25 22 27 19 29
REMARK Flexibility Score: inf
ROOT
ATOM      1  C   UNL     1     -21.592  25.940  41.838  1.00  0.00     0.180 A 
ATOM      2  C   UNL     1     -21.331  26.987  40.934  1.00  0.00     0.208 A 
ATOM      3  C   UNL     1     -21.682  28.298  41.294  1.00  0.00     0.238 A 
ATOM      4  O   UNL     1     -21.463  29.243  40.487  1.00  0.00    -0.285 OA
ATOM      5  C   UNL     1     -22.270  28.541  42.552  1.00  0.00     0.111 A 
ATOM      6  C   UNL     1     -22.650  29.832  42.993  1.00  0.00     0.134 A 
ATOM      7  C   UNL     1     -23.220  29.994  44.264  1.00  0.00     0.093 A 
ATOM      8  C   UNL     1     -23.416  28.890  45.102  1.00  0.00     0.123 A 
ATOM      9  C   UNL     1     -23.043  27.616  44.671  1.00  0.00     0.094 A 
ATOM     10  C   UNL     1     -22.474  27.434  43.407  1.00  0.00     0.146 A 
ATOM     11  O   UNL     1     -22.134  26.210  43.022  1.00  0.00    -0.452 OA
ENDROOT
BRANCH   1  12
ATOM     12  C   UNL     1     -21.267  24.530  41.523  1.00  0.00     0.029 A 
ATOM     13  C   UNL     1     -22.146  23.726  40.778  1.00  0.00     0.062 A 
ATOM     14  C   UNL     1     -21.835  22.389  40.510  1.00  0.00     0.162 A 
ATOM     15  C   UNL     1     -20.086  23.966  42.027  1.00  0.00     0.062 A 
ATOM     16  C   UNL     1     -20.639  21.835  40.998  1.00  0.00     0.200 A 
ATOM     17  C   UNL     1     -19.765  22.627  41.762  1.00  0.00     0.162 A 
BRANCH  14  18
ATOM     18  O   UNL     1     -22.730  21.625  39.761  1.00  0.00    -0.504 OA
ATOM     19  H   UNL     1     -22.818  21.729  38.758  1.00  0.00     0.293 HD
ENDBRANCH  14  18
BRANCH  16  20
ATOM     20  O   UNL     1     -20.334  20.502  40.722  1.00  0.00    -0.502 OA
ATOM     21  H   UNL     1     -19.527  20.039  41.122  1.00  0.00     0.293 HD
ENDBRANCH  16  20
BRANCH  17  22
ATOM     22  O   UNL     1     -18.581  22.082  42.257  1.00  0.00    -0.504 OA
ATOM     23  H   UNL     1     -18.577  21.245  42.826  1.00  0.00     0.293 HD
ENDBRANCH  17  22
ENDBRANCH   1  12
BRANCH   2  24
ATOM     24  O   UNL     1     -20.702  26.727  39.713  1.00  0.00    -0.502 OA
ATOM     25  H   UNL     1     -20.344  25.811  39.472  1.00  0.00     0.293 HD
ENDBRANCH   2  24
BRANCH   6  26
ATOM     26  O   UNL     1     -22.466  30.952  42.180  1.00  0.00    -0.507 OA
ATOM     27  H   UNL     1     -21.576  31.431  42.127  1.00  0.00     0.293 HD
ENDBRANCH   6  26
BRANCH   8  28
ATOM     28  O   UNL     1     -23.982  29.050  46.365  1.00  0.00    -0.508 OA
ATOM     29  H   UNL     1     -24.304  29.954  46.692  1.00  0.00     0.293 HD
ENDBRANCH   8  28
TORSDOF 7
ENDMDL
