MODEL 1
REMARK VINA RESULT:     0.945      0.000      0.000
REMARK INTER + INTRA:           1.313
REMARK INTER:                   1.248
REMARK INTRA:                   0.065
REMARK UNBOUND:                 0.065
REMARK SMILES CC[C@@H](C=C[C@H](C)[C@H]1CC[C@@H]2[C@H]3CC=C4C[C@H](O)CC[C@@]4(C)[C@@H]3CC[C@@]21C)C(C)C
REMARK SMILES IDX 6 1 7 2 5 3 4 4 3 5 2 6 1 7 28 8 29 9 30 10 8 11 9 12 26 13
REMARK SMILES IDX 10 14 11 15 25 16 27 17 12 18 24 19 23 20 13 21 21 22 14 23
REMARK SMILES IDX 15 24 20 25 22 26 16 27 19 28 17 29 18 30
REMARK H PARENT 18 31
REMARK Flexibility Score: inf
ROOT
ATOM      1  C   UNL     1      28.286  34.274  23.464  1.00  0.00     0.012 C 
ATOM      2  C   UNL     1      26.884  34.296  24.117  1.00  0.00     0.012 C 
ENDROOT
BRANCH   1   3
ATOM      3  C   UNL     1      28.722  32.836  23.241  1.00  0.00    -0.028 C 
ATOM      4  C   UNL     1      28.621  31.885  24.191  1.00  0.00    -0.027 C 
BRANCH   4   5
ATOM      5  C   UNL     1      29.086  30.456  23.973  1.00  0.00     0.014 C 
BRANCH   5   6
ATOM      6  C   UNL     1      29.103  30.126  22.448  1.00  0.00     0.004 C 
ATOM      7  C   UNL     1      29.118  28.620  22.184  1.00  0.00     0.004 C 
ENDBRANCH   5   6
BRANCH   5   8
ATOM      8  C   UNL     1      28.250  29.430  24.802  1.00  0.00    -0.011 C 
ATOM      9  C   UNL     1      28.639  29.467  26.292  1.00  0.00     0.008 C 
ATOM     10  C   UNL     1      26.734  29.686  24.680  1.00  0.00     0.008 C 
ENDBRANCH   5   8
ENDBRANCH   4   5
ENDBRANCH   1   3
BRANCH   1  11
ATOM     11  C   UNL     1      28.468  35.119  22.150  1.00  0.00     0.002 C 
ATOM     12  C   UNL     1      28.654  34.332  20.860  1.00  0.00     0.005 C 
ATOM     13  C   UNL     1      27.396  36.205  21.809  1.00  0.00    -0.026 C 
ATOM     14  C   UNL     1      28.576  35.393  19.775  1.00  0.00     0.005 C 
ATOM     15  C   UNL     1      27.571  36.445  20.271  1.00  0.00    -0.001 C 
ATOM     16  C   UNL     1      27.653  37.501  22.631  1.00  0.00     0.007 C 
ATOM     17  C   UNL     1      25.953  35.705  22.075  1.00  0.00     0.012 C 
ATOM     18  C   UNL     1      28.008  37.894  19.893  1.00  0.00     0.000 C 
ATOM     19  C   UNL     1      26.863  38.698  22.084  1.00  0.00     0.005 C 
ATOM     20  C   UNL     1      27.086  38.954  20.558  1.00  0.00     0.003 C 
ATOM     21  C   UNL     1      27.968  38.073  18.367  1.00  0.00     0.031 C 
ATOM     22  C   UNL     1      27.544  40.427  20.208  1.00  0.00    -0.008 C 
ATOM     23  C   UNL     1      28.169  39.498  17.936  1.00  0.00    -0.027 C 
ATOM     24  C   UNL     1      27.856  40.560  18.706  1.00  0.00    -0.065 C 
ATOM     25  C   UNL     1      26.375  41.400  20.560  1.00  0.00     0.014 C 
ATOM     26  C   UNL     1      28.826  40.831  21.000  1.00  0.00     0.016 C 
ATOM     27  C   UNL     1      27.975  41.950  18.105  1.00  0.00     0.063 C 
ATOM     28  C   UNL     1      26.573  42.824  20.019  1.00  0.00     0.033 C 
ATOM     29  C   UNL     1      26.765  42.809  18.494  1.00  0.00     0.118 C 
BRANCH  29  30
ATOM     30  O   UNL     1      26.906  44.113  17.991  1.00  0.00    -0.393 OA
ATOM     31  H   UNL     1      27.578  44.582  18.555  1.00  0.00     0.210 HD
ENDBRANCH  29  30
ENDBRANCH   1  11
TORSDOF 6
ENDMDL
MODEL 2
REMARK VINA RESULT:     2.550      3.717     10.008
REMARK INTER + INTRA:           3.435
REMARK INTER:                   3.741
REMARK INTRA:                  -0.306
REMARK UNBOUND:                 0.065
REMARK SMILES CC[C@@H](C=C[C@H](C)[C@H]1CC[C@@H]2[C@H]3CC=C4C[C@H](O)CC[C@@]4(C)[C@@H]3CC[C@@]21C)C(C)C
REMARK SMILES IDX 6 1 7 2 5 3 4 4 3 5 2 6 1 7 28 8 29 9 30 10 8 11 9 12 26 13
REMARK SMILES IDX 10 14 11 15 25 16 27 17 12 18 24 19 23 20 13 21 21 22 14 23
REMARK SMILES IDX 15 24 20 25 22 26 16 27 19 28 17 29 18 30
REMARK H PARENT 18 31
REMARK Flexibility Score: inf
ROOT
ATOM      1  C   UNL     1      26.685  36.648  21.176  1.00  0.00     0.012 C 
ATOM      2  C   UNL     1      26.494  37.250  22.588  1.00  0.00     0.012 C 
ENDROOT
BRANCH   1   3
ATOM      3  C   UNL     1      27.632  37.523  20.373  1.00  0.00    -0.028 C 
ATOM      4  C   UNL     1      27.222  38.298  19.348  1.00  0.00    -0.027 C 
BRANCH   4   5
ATOM      5  C   UNL     1      28.177  39.148  18.529  1.00  0.00     0.014 C 
BRANCH   5   6
ATOM      6  C   UNL     1      28.091  40.637  18.986  1.00  0.00     0.004 C 
ATOM      7  C   UNL     1      26.792  40.937  19.733  1.00  0.00     0.004 C 
ENDBRANCH   5   6
BRANCH   5   8
ATOM      8  C   UNL     1      27.953  38.973  16.994  1.00  0.00    -0.011 C 
ATOM      9  C   UNL     1      29.031  38.068  16.370  1.00  0.00     0.008 C 
ATOM     10  C   UNL     1      26.565  38.383  16.675  1.00  0.00     0.008 C 
ENDBRANCH   5   8
ENDBRANCH   4   5
ENDBRANCH   1   3
BRANCH   1  11
ATOM     11  C   UNL     1      27.127  35.141  21.103  1.00  0.00     0.002 C 
ATOM     12  C   UNL     1      27.861  34.712  19.840  1.00  0.00     0.005 C 
ATOM     13  C   UNL     1      27.975  34.556  22.280  1.00  0.00    -0.026 C 
ATOM     14  C   UNL     1      28.340  33.306  20.160  1.00  0.00     0.005 C 
ATOM     15  C   UNL     1      28.664  33.291  21.663  1.00  0.00    -0.001 C 
ATOM     16  C   UNL     1      27.058  34.187  23.481  1.00  0.00     0.007 C 
ATOM     17  C   UNL     1      29.073  35.541  22.755  1.00  0.00     0.012 C 
ATOM     18  C   UNL     1      28.256  31.945  22.336  1.00  0.00     0.000 C 
ATOM     19  C   UNL     1      27.775  33.296  24.504  1.00  0.00     0.005 C 
ATOM     20  C   UNL     1      28.416  32.014  23.881  1.00  0.00     0.003 C 
ATOM     21  C   UNL     1      29.122  30.800  21.788  1.00  0.00     0.031 C 
ATOM     22  C   UNL     1      27.972  30.664  24.574  1.00  0.00    -0.008 C 
ATOM     23  C   UNL     1      28.938  29.511  22.536  1.00  0.00    -0.027 C 
ATOM     24  C   UNL     1      28.551  29.449  23.827  1.00  0.00    -0.065 C 
ATOM     25  C   UNL     1      28.524  30.658  26.034  1.00  0.00     0.014 C 
ATOM     26  C   UNL     1      26.418  30.516  24.595  1.00  0.00     0.016 C 
ATOM     27  C   UNL     1      28.536  28.094  24.513  1.00  0.00     0.063 C 
ATOM     28  C   UNL     1      28.405  29.296  26.734  1.00  0.00     0.033 C 
ATOM     29  C   UNL     1      29.121  28.201  25.927  1.00  0.00     0.118 C 
BRANCH  29  30
ATOM     30  O   UNL     1      29.049  26.961  26.583  1.00  0.00    -0.393 OA
ATOM     31  H   UNL     1      29.403  27.088  27.505  1.00  0.00     0.210 HD
ENDBRANCH  29  30
ENDBRANCH   1  11
TORSDOF 6
ENDMDL
MODEL 3
REMARK VINA RESULT:     3.148      4.505     10.064
REMARK INTER + INTRA:           4.225
REMARK INTER:                   4.741
REMARK INTRA:                  -0.516
REMARK UNBOUND:                 0.065
REMARK SMILES CC[C@@H](C=C[C@H](C)[C@H]1CC[C@@H]2[C@H]3CC=C4C[C@H](O)CC[C@@]4(C)[C@@H]3CC[C@@]21C)C(C)C
REMARK SMILES IDX 6 1 7 2 5 3 4 4 3 5 2 6 1 7 28 8 29 9 30 10 8 11 9 12 26 13
REMARK SMILES IDX 10 14 11 15 25 16 27 17 12 18 24 19 23 20 13 21 21 22 14 23
REMARK SMILES IDX 15 24 20 25 22 26 16 27 19 28 17 29 18 30
REMARK H PARENT 18 31
REMARK Flexibility Score: inf
ROOT
ATOM      1  C   UNL     1      27.248  36.237  21.930  1.00  0.00     0.012 C 
ATOM      2  C   UNL     1      28.344  37.263  21.558  1.00  0.00     0.012 C 
ENDROOT
BRANCH   1   3
ATOM      3  C   UNL     1      25.960  36.581  21.203  1.00  0.00    -0.028 C 
ATOM      4  C   UNL     1      24.741  36.405  21.751  1.00  0.00    -0.027 C 
BRANCH   4   5
ATOM      5  C   UNL     1      23.455  36.722  21.008  1.00  0.00     0.014 C 
BRANCH   5   6
ATOM      6  C   UNL     1      23.684  36.605  19.469  1.00  0.00     0.004 C 
ATOM      7  C   UNL     1      22.515  35.918  18.763  1.00  0.00     0.004 C 
ENDBRANCH   5   6
BRANCH   5   8
ATOM      8  C   UNL     1      22.858  38.103  21.426  1.00  0.00    -0.011 C 
ATOM      9  C   UNL     1      23.961  39.167  21.575  1.00  0.00     0.008 C 
ATOM     10  C   UNL     1      21.813  38.613  20.413  1.00  0.00     0.008 C 
ENDBRANCH   5   8
ENDBRANCH   4   5
ENDBRANCH   1   3
BRANCH   1  11
ATOM     11  C   UNL     1      27.606  34.718  21.736  1.00  0.00     0.002 C 
ATOM     12  C   UNL     1      28.592  34.392  20.623  1.00  0.00     0.005 C 
ATOM     13  C   UNL     1      28.114  33.909  22.974  1.00  0.00    -0.026 C 
ATOM     14  C   UNL     1      28.898  32.919  20.831  1.00  0.00     0.005 C 
ATOM     15  C   UNL     1      28.856  32.678  22.349  1.00  0.00    -0.001 C 
ATOM     16  C   UNL     1      26.918  33.472  23.868  1.00  0.00     0.007 C 
ATOM     17  C   UNL     1      29.124  34.719  23.827  1.00  0.00     0.012 C 
ATOM     18  C   UNL     1      28.222  31.299  22.704  1.00  0.00     0.000 C 
ATOM     19  C   UNL     1      27.319  32.392  24.883  1.00  0.00     0.005 C 
ATOM     20  C   UNL     1      28.014  31.150  24.237  1.00  0.00     0.003 C 
ATOM     21  C   UNL     1      29.125  30.161  22.203  1.00  0.00     0.031 C 
ATOM     22  C   UNL     1      27.340  29.767  24.603  1.00  0.00    -0.008 C 
ATOM     23  C   UNL     1      28.694  28.808  22.690  1.00  0.00    -0.027 C 
ATOM     24  C   UNL     1      28.008  28.612  23.835  1.00  0.00    -0.065 C 
ATOM     25  C   UNL     1      27.528  29.520  26.133  1.00  0.00     0.014 C 
ATOM     26  C   UNL     1      25.819  29.761  24.249  1.00  0.00     0.016 C 
ATOM     27  C   UNL     1      27.751  27.186  24.290  1.00  0.00     0.063 C 
ATOM     28  C   UNL     1      27.167  28.094  26.577  1.00  0.00     0.033 C 
ATOM     29  C   UNL     1      27.989  27.054  25.800  1.00  0.00     0.118 C 
BRANCH  29  30
ATOM     30  O   UNL     1      27.691  25.750  26.232  1.00  0.00    -0.393 OA
ATOM     31  H   UNL     1      26.978  25.818  26.923  1.00  0.00     0.210 HD
ENDBRANCH  29  30
ENDBRANCH   1  11
TORSDOF 6
ENDMDL
