MODEL 1
REMARK VINA RESULT:    -5.804      0.000      0.000
REMARK INTER + INTRA:          -6.702
REMARK INTER:                  -6.652
REMARK INTRA:                  -0.050
REMARK UNBOUND:                -0.050
REMARK SMILES O=C([O-])c1cc(O)c(O)c(O)c1
REMARK SMILES IDX 4 1 5 2 12 3 6 4 10 5 8 6 2 7 1 8 3 9 7 10 11 12 9 14
REMARK H PARENT 7 11 11 13 9 15
REMARK Flexibility Score: inf
ROOT
ATOM      1  C   UNL     1     -21.595  24.775  -4.877  1.00  0.00     0.005 A 
ATOM      2  C   UNL     1     -20.720  23.763  -5.301  1.00  0.00     0.060 A 
ATOM      3  C   UNL     1     -22.150  24.700  -3.590  1.00  0.00     0.060 A 
ATOM      4  C   UNL     1     -20.398  22.690  -4.463  1.00  0.00     0.162 A 
ATOM      5  C   UNL     1     -21.839  23.634  -2.741  1.00  0.00     0.162 A 
ATOM      6  C   UNL     1     -20.962  22.619  -3.167  1.00  0.00     0.200 A 
ENDROOT
BRANCH   1   7
ATOM      7  C   UNL     1     -21.924  25.904  -5.776  1.00  0.00     0.072 C 
ATOM      8  O   UNL     1     -22.135  27.055  -5.309  1.00  0.00    -0.545 OA
ATOM      9  O   UNL     1     -22.006  25.710  -7.150  1.00  0.00    -0.545 OA
ENDBRANCH   1   7
BRANCH   4  10
ATOM     10  O   UNL     1     -19.520  21.722  -4.957  1.00  0.00    -0.504 OA
ATOM     11  H   UNL     1     -18.568  21.608  -4.644  1.00  0.00     0.293 HD
ENDBRANCH   4  10
BRANCH   5  12
ATOM     12  O   UNL     1     -22.416  23.600  -1.470  1.00  0.00    -0.504 OA
ATOM     13  H   UNL     1     -22.678  22.733  -1.017  1.00  0.00     0.293 HD
ENDBRANCH   5  12
BRANCH   6  14
ATOM     14  O   UNL     1     -20.679  21.573  -2.286  1.00  0.00    -0.502 OA
ATOM     15  H   UNL     1     -21.066  21.490  -1.357  1.00  0.00     0.293 HD
ENDBRANCH   6  14
TORSDOF 4
ENDMDL
MODEL 2
REMARK VINA RESULT:    -5.765      0.098      2.445
REMARK INTER + INTRA:          -6.657
REMARK INTER:                  -6.607
REMARK INTRA:                  -0.050
REMARK UNBOUND:                -0.050
REMARK SMILES O=C([O-])c1cc(O)c(O)c(O)c1
REMARK SMILES IDX 4 1 5 2 12 3 6 4 10 5 8 6 2 7 1 8 3 9 7 10 11 12 9 14
REMARK H PARENT 7 11 11 13 9 15
REMARK Flexibility Score: inf
ROOT
ATOM      1  C   UNL     1     -21.608  24.766  -4.869  1.00  0.00     0.005 A 
ATOM      2  C   UNL     1     -22.184  24.735  -3.589  1.00  0.00     0.060 A 
ATOM      3  C   UNL     1     -20.741  23.730  -5.249  1.00  0.00     0.060 A 
ATOM      4  C   UNL     1     -21.905  23.694  -2.697  1.00  0.00     0.162 A 
ATOM      5  C   UNL     1     -20.451  22.683  -4.370  1.00  0.00     0.162 A 
ATOM      6  C   UNL     1     -21.028  22.653  -3.087  1.00  0.00     0.200 A 
ENDROOT
BRANCH   1   7
ATOM      7  C   UNL     1     -21.915  25.874  -5.800  1.00  0.00     0.072 C 
ATOM      8  O   UNL     1     -22.123  27.038  -5.365  1.00  0.00    -0.545 OA
ATOM      9  O   UNL     1     -21.977  25.647  -7.170  1.00  0.00    -0.545 OA
ENDBRANCH   1   7
BRANCH   4  10
ATOM     10  O   UNL     1     -22.516  23.735  -1.442  1.00  0.00    -0.504 OA
ATOM     11  H   UNL     1     -22.647  24.578  -0.903  1.00  0.00     0.293 HD
ENDBRANCH   4  10
BRANCH   5  12
ATOM     12  O   UNL     1     -19.582  21.676  -4.792  1.00  0.00    -0.504 OA
ATOM     13  H   UNL     1     -19.356  21.529  -5.768  1.00  0.00     0.293 HD
ENDBRANCH   5  12
BRANCH   6  14
ATOM     14  O   UNL     1     -20.711  21.589  -2.241  1.00  0.00    -0.502 OA
ATOM     15  H   UNL     1     -19.845  21.507  -1.729  1.00  0.00     0.293 HD
ENDBRANCH   6  14
TORSDOF 4
ENDMDL
MODEL 3
REMARK VINA RESULT:    -5.556      1.121      4.842
REMARK INTER + INTRA:          -6.418
REMARK INTER:                  -6.365
REMARK INTRA:                  -0.053
REMARK UNBOUND:                -0.050
REMARK SMILES O=C([O-])c1cc(O)c(O)c(O)c1
REMARK SMILES IDX 4 1 5 2 12 3 6 4 10 5 8 6 2 7 1 8 3 9 7 10 11 12 9 14
REMARK H PARENT 7 11 11 13 9 15
REMARK Flexibility Score: inf
ROOT
ATOM      1  C   UNL     1     -21.139  23.570  -4.072  1.00  0.00     0.005 A 
ATOM      2  C   UNL     1     -22.035  24.475  -3.482  1.00  0.00     0.060 A 
ATOM      3  C   UNL     1     -20.644  23.845  -5.357  1.00  0.00     0.060 A 
ATOM      4  C   UNL     1     -22.437  25.635  -4.154  1.00  0.00     0.162 A 
ATOM      5  C   UNL     1     -21.035  24.999  -6.041  1.00  0.00     0.162 A 
ATOM      6  C   UNL     1     -21.934  25.905  -5.449  1.00  0.00     0.200 A 
ENDROOT
BRANCH   1   7
ATOM      7  C   UNL     1     -20.725  22.348  -3.348  1.00  0.00     0.072 C 
ATOM      8  O   UNL     1     -19.842  21.588  -3.828  1.00  0.00    -0.545 OA
ATOM      9  O   UNL     1     -21.303  22.022  -2.128  1.00  0.00    -0.545 OA
ENDBRANCH   1   7
BRANCH   4  10
ATOM     10  O   UNL     1     -23.332  26.485  -3.500  1.00  0.00    -0.504 OA
ATOM     11  H   UNL     1     -24.311  26.281  -3.364  1.00  0.00     0.293 HD
ENDBRANCH   4  10
BRANCH   5  12
ATOM     12  O   UNL     1     -20.516  25.229  -7.317  1.00  0.00    -0.504 OA
ATOM     13  H   UNL     1     -20.212  26.146  -7.620  1.00  0.00     0.293 HD
ENDBRANCH   5  12
BRANCH   6  14
ATOM     14  O   UNL     1     -22.298  27.045  -6.168  1.00  0.00    -0.502 OA
ATOM     15  H   UNL     1     -22.572  27.921  -5.746  1.00  0.00     0.293 HD
ENDBRANCH   6  14
TORSDOF 4
ENDMDL
MODEL 4
REMARK VINA RESULT:    -5.530      1.123      4.187
REMARK INTER + INTRA:          -6.389
REMARK INTER:                  -6.336
REMARK INTRA:                  -0.053
REMARK UNBOUND:                -0.050
REMARK SMILES O=C([O-])c1cc(O)c(O)c(O)c1
REMARK SMILES IDX 4 1 5 2 12 3 6 4 10 5 8 6 2 7 1 8 3 9 7 10 11 12 9 14
REMARK H PARENT 7 11 11 13 9 15
REMARK Flexibility Score: inf
ROOT
ATOM      1  C   UNL     1     -21.115  23.563  -4.080  1.00  0.00     0.005 A 
ATOM      2  C   UNL     1     -20.597  23.821  -5.359  1.00  0.00     0.060 A 
ATOM      3  C   UNL     1     -22.012  24.481  -3.512  1.00  0.00     0.060 A 
ATOM      4  C   UNL     1     -20.960  24.973  -6.066  1.00  0.00     0.162 A 
ATOM      5  C   UNL     1     -22.385  25.636  -4.205  1.00  0.00     0.162 A 
ATOM      6  C   UNL     1     -21.864  25.895  -5.487  1.00  0.00     0.200 A 
ENDROOT
BRANCH   1   7
ATOM      7  C   UNL     1     -20.721  22.340  -3.346  1.00  0.00     0.072 C 
ATOM      8  O   UNL     1     -19.849  21.562  -3.818  1.00  0.00    -0.545 OA
ATOM      9  O   UNL     1     -21.308  22.032  -2.125  1.00  0.00    -0.545 OA
ENDBRANCH   1   7
BRANCH   4  10
ATOM     10  O   UNL     1     -20.400  25.159  -7.332  1.00  0.00    -0.504 OA
ATOM     11  H   UNL     1     -19.716  24.543  -7.745  1.00  0.00     0.293 HD
ENDBRANCH   4  10
BRANCH   5  12
ATOM     12  O   UNL     1     -23.279  26.521  -3.600  1.00  0.00    -0.504 OA
ATOM     13  H   UNL     1     -23.042  27.488  -3.413  1.00  0.00     0.293 HD
ENDBRANCH   5  12
BRANCH   6  14
ATOM     14  O   UNL     1     -22.263  27.061  -6.144  1.00  0.00    -0.502 OA
ATOM     15  H   UNL     1     -22.929  27.723  -5.773  1.00  0.00     0.293 HD
ENDBRANCH   6  14
TORSDOF 4
ENDMDL
MODEL 5
REMARK VINA RESULT:    -4.757      1.312      1.870
REMARK INTER + INTRA:          -5.502
REMARK INTER:                  -5.454
REMARK INTRA:                  -0.048
REMARK UNBOUND:                -0.050
REMARK SMILES O=C([O-])c1cc(O)c(O)c(O)c1
REMARK SMILES IDX 4 1 5 2 12 3 6 4 10 5 8 6 2 7 1 8 3 9 7 10 11 12 9 14
REMARK H PARENT 7 11 11 13 9 15
REMARK Flexibility Score: inf
ROOT
ATOM      1  C   UNL     1     -21.494  24.856  -5.725  1.00  0.00     0.005 A 
ATOM      2  C   UNL     1     -20.753  23.781  -5.209  1.00  0.00     0.060 A 
ATOM      3  C   UNL     1     -22.458  25.469  -4.910  1.00  0.00     0.060 A 
ATOM      4  C   UNL     1     -20.964  23.319  -3.905  1.00  0.00     0.162 A 
ATOM      5  C   UNL     1     -22.682  25.019  -3.606  1.00  0.00     0.162 A 
ATOM      6  C   UNL     1     -21.939  23.941  -3.090  1.00  0.00     0.200 A 
ENDROOT
BRANCH   1   7
ATOM      7  C   UNL     1     -21.257  25.333  -7.105  1.00  0.00     0.072 C 
ATOM      8  O   UNL     1     -20.085  25.535  -7.522  1.00  0.00    -0.545 OA
ATOM      9  O   UNL     1     -22.326  25.566  -7.963  1.00  0.00    -0.545 OA
ENDBRANCH   1   7
BRANCH   4  10
ATOM     10  O   UNL     1     -20.188  22.244  -3.466  1.00  0.00    -0.504 OA
ATOM     11  H   UNL     1     -19.205  22.135  -3.668  1.00  0.00     0.293 HD
ENDBRANCH   4  10
BRANCH   5  12
ATOM     12  O   UNL     1     -23.652  25.660  -2.834  1.00  0.00    -0.504 OA
ATOM     13  H   UNL     1     -23.425  26.405  -2.187  1.00  0.00     0.293 HD
ENDBRANCH   5  12
BRANCH   6  14
ATOM     14  O   UNL     1     -22.195  23.524  -1.782  1.00  0.00    -0.502 OA
ATOM     15  H   UNL     1     -21.830  22.675  -1.375  1.00  0.00     0.293 HD
ENDBRANCH   6  14
TORSDOF 4
ENDMDL
MODEL 6
REMARK VINA RESULT:    -4.659      1.390      2.872
REMARK INTER + INTRA:          -5.390
REMARK INTER:                  -5.337
REMARK INTRA:                  -0.053
REMARK UNBOUND:                -0.050
REMARK SMILES O=C([O-])c1cc(O)c(O)c(O)c1
REMARK SMILES IDX 4 1 5 2 12 3 6 4 10 5 8 6 2 7 1 8 3 9 7 10 11 12 9 14
REMARK H PARENT 7 11 11 13 9 15
REMARK Flexibility Score: inf
ROOT
ATOM      1  C   UNL     1     -22.351  24.991  -4.038  1.00  0.00     0.005 A 
ATOM      2  C   UNL     1     -21.873  25.311  -5.318  1.00  0.00     0.060 A 
ATOM      3  C   UNL     1     -21.797  23.892  -3.361  1.00  0.00     0.060 A 
ATOM      4  C   UNL     1     -20.862  24.556  -5.921  1.00  0.00     0.162 A 
ATOM      5  C   UNL     1     -20.787  23.127  -3.950  1.00  0.00     0.162 A 
ATOM      6  C   UNL     1     -20.309  23.449  -5.234  1.00  0.00     0.200 A 
ENDROOT
BRANCH   1   7
ATOM      7  C   UNL     1     -23.421  25.800  -3.414  1.00  0.00     0.072 C 
ATOM      8  O   UNL     1     -23.922  25.458  -2.309  1.00  0.00    -0.545 OA
ATOM      9  O   UNL     1     -23.888  26.951  -4.038  1.00  0.00    -0.545 OA
ENDBRANCH   1   7
BRANCH   4  10
ATOM     10  O   UNL     1     -20.441  24.938  -7.197  1.00  0.00    -0.504 OA
ATOM     11  H   UNL     1     -20.617  25.845  -7.604  1.00  0.00     0.293 HD
ENDBRANCH   4  10
BRANCH   5  12
ATOM     12  O   UNL     1     -20.267  22.044  -3.240  1.00  0.00    -0.504 OA
ATOM     13  H   UNL     1     -19.317  22.032  -2.888  1.00  0.00     0.293 HD
ENDBRANCH   5  12
BRANCH   6  14
ATOM     14  O   UNL     1     -19.298  22.658  -5.785  1.00  0.00    -0.502 OA
ATOM     15  H   UNL     1     -19.446  21.968  -6.506  1.00  0.00     0.293 HD
ENDBRANCH   6  14
TORSDOF 4
ENDMDL
MODEL 7
REMARK VINA RESULT:    -4.632      1.363      2.921
REMARK INTER + INTRA:          -5.359
REMARK INTER:                  -5.311
REMARK INTRA:                  -0.048
REMARK UNBOUND:                -0.050
REMARK SMILES O=C([O-])c1cc(O)c(O)c(O)c1
REMARK SMILES IDX 4 1 5 2 12 3 6 4 10 5 8 6 2 7 1 8 3 9 7 10 11 12 9 14
REMARK H PARENT 7 11 11 13 9 15
REMARK Flexibility Score: inf
ROOT
ATOM      1  C   UNL     1     -21.508  24.929  -5.739  1.00  0.00     0.005 A 
ATOM      2  C   UNL     1     -22.425  25.661  -4.969  1.00  0.00     0.060 A 
ATOM      3  C   UNL     1     -20.865  23.823  -5.162  1.00  0.00     0.060 A 
ATOM      4  C   UNL     1     -22.702  25.303  -3.645  1.00  0.00     0.162 A 
ATOM      5  C   UNL     1     -21.130  23.452  -3.841  1.00  0.00     0.162 A 
ATOM      6  C   UNL     1     -22.050  24.187  -3.069  1.00  0.00     0.200 A 
ENDROOT
BRANCH   1   7
ATOM      7  C   UNL     1     -21.226  25.321  -7.138  1.00  0.00     0.072 C 
ATOM      8  O   UNL     1     -20.039  25.444  -7.543  1.00  0.00    -0.545 OA
ATOM      9  O   UNL     1     -22.268  25.559  -8.026  1.00  0.00    -0.545 OA
ENDBRANCH   1   7
BRANCH   4  10
ATOM     10  O   UNL     1     -23.626  26.081  -2.943  1.00  0.00    -0.504 OA
ATOM     11  H   UNL     1     -24.036  25.816  -2.060  1.00  0.00     0.293 HD
ENDBRANCH   4  10
BRANCH   5  12
ATOM     12  O   UNL     1     -20.467  22.345  -3.310  1.00  0.00    -0.504 OA
ATOM     13  H   UNL     1     -20.096  21.605  -3.892  1.00  0.00     0.293 HD
ENDBRANCH   5  12
BRANCH   6  14
ATOM     14  O   UNL     1     -22.285  23.782  -1.753  1.00  0.00    -0.502 OA
ATOM     15  H   UNL     1     -21.633  23.910  -0.993  1.00  0.00     0.293 HD
ENDBRANCH   6  14
TORSDOF 4
ENDMDL
MODEL 8
REMARK VINA RESULT:    -4.299     19.565     19.858
REMARK INTER + INTRA:          -4.977
REMARK INTER:                  -4.930
REMARK INTRA:                  -0.047
REMARK UNBOUND:                -0.050
REMARK SMILES O=C([O-])c1cc(O)c(O)c(O)c1
REMARK SMILES IDX 4 1 5 2 12 3 6 4 10 5 8 6 2 7 1 8 3 9 7 10 11 12 9 14
REMARK H PARENT 7 11 11 13 9 15
REMARK Flexibility Score: inf
ROOT
ATOM      1  C   UNL     1      -5.581  36.003   1.221  1.00  0.00     0.005 A 
ATOM      2  C   UNL     1      -4.851  34.924   1.743  1.00  0.00     0.060 A 
ATOM      3  C   UNL     1      -6.853  35.764   0.677  1.00  0.00     0.060 A 
ATOM      4  C   UNL     1      -5.372  33.625   1.726  1.00  0.00     0.162 A 
ATOM      5  C   UNL     1      -7.387  34.473   0.652  1.00  0.00     0.162 A 
ATOM      6  C   UNL     1      -6.654  33.391   1.175  1.00  0.00     0.200 A 
ENDROOT
BRANCH   1   7
ATOM      7  C   UNL     1      -5.016  37.370   1.247  1.00  0.00     0.072 C 
ATOM      8  O   UNL     1      -4.593  37.868   2.325  1.00  0.00    -0.545 OA
ATOM      9  O   UNL     1      -4.944  38.125   0.083  1.00  0.00    -0.545 OA
ENDBRANCH   1   7
BRANCH   4  10
ATOM     10  O   UNL     1      -4.584  32.604   2.263  1.00  0.00    -0.504 OA
ATOM     11  H   UNL     1      -3.575  32.589   2.229  1.00  0.00     0.293 HD
ENDBRANCH   4  10
BRANCH   5  12
ATOM     12  O   UNL     1      -8.655  34.283   0.100  1.00  0.00    -0.504 OA
ATOM     13  H   UNL     1      -9.089  33.370   0.041  1.00  0.00     0.293 HD
ENDBRANCH   5  12
BRANCH   6  14
ATOM     14  O   UNL     1      -7.226  32.117   1.129  1.00  0.00    -0.502 OA
ATOM     15  H   UNL     1      -7.234  31.470   1.904  1.00  0.00     0.293 HD
ENDBRANCH   6  14
TORSDOF 4
ENDMDL
MODEL 9
REMARK VINA RESULT:    -4.211     19.561     19.899
REMARK INTER + INTRA:          -4.877
REMARK INTER:                  -4.830
REMARK INTRA:                  -0.046
REMARK UNBOUND:                -0.050
REMARK SMILES O=C([O-])c1cc(O)c(O)c(O)c1
REMARK SMILES IDX 4 1 5 2 12 3 6 4 10 5 8 6 2 7 1 8 3 9 7 10 11 12 9 14
REMARK H PARENT 7 11 11 13 9 15
REMARK Flexibility Score: inf
ROOT
ATOM      1  C   UNL     1      -5.522  35.944   1.200  1.00  0.00     0.005 A 
ATOM      2  C   UNL     1      -6.803  35.746   0.664  1.00  0.00     0.060 A 
ATOM      3  C   UNL     1      -4.825  34.842   1.720  1.00  0.00     0.060 A 
ATOM      4  C   UNL     1      -7.388  34.475   0.642  1.00  0.00     0.162 A 
ATOM      5  C   UNL     1      -5.395  33.566   1.706  1.00  0.00     0.162 A 
ATOM      6  C   UNL     1      -6.680  33.368   1.168  1.00  0.00     0.200 A 
ENDROOT
BRANCH   1   7
ATOM      7  C   UNL     1      -4.918  37.295   1.215  1.00  0.00     0.072 C 
ATOM      8  O   UNL     1      -4.625  37.854   2.306  1.00  0.00    -0.545 OA
ATOM      9  O   UNL     1      -4.665  37.966   0.025  1.00  0.00    -0.545 OA
ENDBRANCH   1   7
BRANCH   4  10
ATOM     10  O   UNL     1      -8.667  34.359   0.092  1.00  0.00    -0.504 OA
ATOM     11  H   UNL     1      -9.343  35.108   0.068  1.00  0.00     0.293 HD
ENDBRANCH   4  10
BRANCH   5  12
ATOM     12  O   UNL     1      -4.664  32.500   2.235  1.00  0.00    -0.504 OA
ATOM     13  H   UNL     1      -3.657  32.530   2.332  1.00  0.00     0.293 HD
ENDBRANCH   5  12
BRANCH   6  14
ATOM     14  O   UNL     1      -7.212  32.077   1.174  1.00  0.00    -0.502 OA
ATOM     15  H   UNL     1      -8.152  31.851   1.463  1.00  0.00     0.293 HD
ENDBRANCH   6  14
TORSDOF 4
ENDMDL
