MODEL 1
REMARK VINA RESULT:    -5.775      0.000      0.000
REMARK INTER + INTRA:          -6.212
REMARK INTER:                  -6.113
REMARK INTRA:                  -0.099
REMARK UNBOUND:                -0.099
REMARK SMILES C=C(C)[C@@H]1CC=C(C)C(=O)C1
REMARK SMILES IDX 8 1 7 2 6 3 5 4 4 5 11 6 9 7 10 8 2 9 1 10 3 11
REMARK H PARENT
REMARK Flexibility Score: inf
ROOT
ATOM      1  C   UNL     1     136.609 135.335 118.537  1.00  0.00     0.048 C 
ATOM      2  C   UNL     1     135.813 135.385 117.263  1.00  0.00    -0.012 C 
ATOM      3  C   UNL     1     134.872 136.331 117.098  1.00  0.00    -0.019 C 
ATOM      4  C   UNL     1     134.059 136.437 115.834  1.00  0.00     0.036 C 
ATOM      5  C   UNL     1     133.825 135.049 115.208  1.00  0.00     0.025 C 
ATOM      6  C   UNL     1     135.167 134.332 114.979  1.00  0.00     0.089 C 
ATOM      7  C   UNL     1     135.982 134.319 116.243  1.00  0.00     0.158 C 
ATOM      8  O   UNL     1     136.840 133.412 116.411  1.00  0.00    -0.295 OA
ENDROOT
BRANCH   5   9
ATOM      9  C   UNL     1     133.020 135.149 113.919  1.00  0.00    -0.077 C 
ATOM     10  C   UNL     1     133.458 134.546 112.803  1.00  0.00     0.008 C 
ATOM     11  C   UNL     1     131.725 135.922 113.859  1.00  0.00     0.039 C 
ENDBRANCH   5   9
TORSDOF 1
ENDMDL
MODEL 2
REMARK VINA RESULT:    -5.768      8.934     10.105
REMARK INTER + INTRA:          -6.204
REMARK INTER:                  -6.105
REMARK INTRA:                  -0.099
REMARK UNBOUND:                -0.099
REMARK SMILES C=C(C)[C@@H]1CC=C(C)C(=O)C1
REMARK SMILES IDX 8 1 7 2 6 3 5 4 4 5 11 6 9 7 10 8 2 9 1 10 3 11
REMARK H PARENT
REMARK Flexibility Score: inf
ROOT
ATOM      1  C   UNL     1     139.758 141.271 118.397  1.00  0.00     0.048 C 
ATOM      2  C   UNL     1     140.570 141.186 117.134  1.00  0.00    -0.012 C 
ATOM      3  C   UNL     1     141.529 140.251 117.016  1.00  0.00    -0.019 C 
ATOM      4  C   UNL     1     142.358 140.110 115.767  1.00  0.00     0.036 C 
ATOM      5  C   UNL     1     142.576 141.477 115.090  1.00  0.00     0.025 C 
ATOM      6  C   UNL     1     141.225 142.162 114.819  1.00  0.00     0.089 C 
ATOM      7  C   UNL     1     140.395 142.209 116.072  1.00  0.00     0.158 C 
ATOM      8  O   UNL     1     139.520 143.107 116.196  1.00  0.00    -0.295 OA
ENDROOT
BRANCH   5   9
ATOM      9  C   UNL     1     143.398 141.341 113.815  1.00  0.00    -0.077 C 
ATOM     10  C   UNL     1     142.958 141.887 112.670  1.00  0.00     0.008 C 
ATOM     11  C   UNL     1     144.711 140.598 113.801  1.00  0.00     0.039 C 
ENDBRANCH   5   9
TORSDOF 1
ENDMDL
MODEL 3
REMARK VINA RESULT:    -5.382      1.622      2.559
REMARK INTER + INTRA:          -5.795
REMARK INTER:                  -5.697
REMARK INTRA:                  -0.098
REMARK UNBOUND:                -0.099
REMARK SMILES C=C(C)[C@@H]1CC=C(C)C(=O)C1
REMARK SMILES IDX 8 1 7 2 6 3 5 4 4 5 11 6 9 7 10 8 2 9 1 10 3 11
REMARK H PARENT
REMARK Flexibility Score: inf
ROOT
ATOM      1  C   UNL     1     136.676 135.514 118.507  1.00  0.00     0.048 C 
ATOM      2  C   UNL     1     136.046 135.149 117.192  1.00  0.00    -0.012 C 
ATOM      3  C   UNL     1     136.629 134.231 116.402  1.00  0.00    -0.019 C 
ATOM      4  C   UNL     1     136.031 133.815 115.085  1.00  0.00     0.036 C 
ATOM      5  C   UNL     1     135.284 134.988 114.421  1.00  0.00     0.025 C 
ATOM      6  C   UNL     1     134.231 135.565 115.383  1.00  0.00     0.089 C 
ATOM      7  C   UNL     1     134.851 135.890 116.714  1.00  0.00     0.158 C 
ATOM      8  O   UNL     1     134.323 136.776 117.437  1.00  0.00    -0.295 OA
ENDROOT
BRANCH   5   9
ATOM      9  C   UNL     1     134.659 134.571 113.096  1.00  0.00    -0.077 C 
ATOM     10  C   UNL     1     133.328 134.426 112.995  1.00  0.00     0.008 C 
ATOM     11  C   UNL     1     135.507 134.310 111.875  1.00  0.00     0.039 C 
ENDBRANCH   5   9
TORSDOF 1
ENDMDL
MODEL 4
REMARK VINA RESULT:    -5.364      9.442     10.393
REMARK INTER + INTRA:          -5.776
REMARK INTER:                  -5.679
REMARK INTRA:                  -0.098
REMARK UNBOUND:                -0.099
REMARK SMILES C=C(C)[C@@H]1CC=C(C)C(=O)C1
REMARK SMILES IDX 8 1 7 2 6 3 5 4 4 5 11 6 9 7 10 8 2 9 1 10 3 11
REMARK H PARENT
REMARK Flexibility Score: inf
ROOT
ATOM      1  C   UNL     1     139.421 144.042 115.384  1.00  0.00     0.048 C 
ATOM      2  C   UNL     1     140.537 143.117 114.986  1.00  0.00    -0.012 C 
ATOM      3  C   UNL     1     141.605 143.601 114.327  1.00  0.00    -0.019 C 
ATOM      4  C   UNL     1     142.758 142.722 113.921  1.00  0.00     0.036 C 
ATOM      5  C   UNL     1     142.280 141.294 113.597  1.00  0.00     0.025 C 
ATOM      6  C   UNL     1     141.492 140.711 114.783  1.00  0.00     0.089 C 
ATOM      7  C   UNL     1     140.403 141.656 115.210  1.00  0.00     0.158 C 
ATOM      8  O   UNL     1     139.386 141.196 115.796  1.00  0.00    -0.295 OA
ENDROOT
BRANCH   5   9
ATOM      9  C   UNL     1     143.443 140.393 113.203  1.00  0.00    -0.077 C 
ATOM     10  C   UNL     1     144.636 140.534 113.803  1.00  0.00     0.008 C 
ATOM     11  C   UNL     1     143.291 139.332 112.142  1.00  0.00     0.039 C 
ENDBRANCH   5   9
TORSDOF 1
ENDMDL
MODEL 5
REMARK VINA RESULT:    -5.355      8.520      9.345
REMARK INTER + INTRA:          -5.767
REMARK INTER:                  -5.668
REMARK INTRA:                  -0.099
REMARK UNBOUND:                -0.099
REMARK SMILES C=C(C)[C@@H]1CC=C(C)C(=O)C1
REMARK SMILES IDX 8 1 7 2 6 3 5 4 4 5 11 6 9 7 10 8 2 9 1 10 3 11
REMARK H PARENT
REMARK Flexibility Score: inf
ROOT
ATOM      1  C   UNL     1     139.535 141.028 118.445  1.00  0.00     0.048 C 
ATOM      2  C   UNL     1     140.219 141.373 117.151  1.00  0.00    -0.012 C 
ATOM      3  C   UNL     1     139.640 142.234 116.297  1.00  0.00    -0.019 C 
ATOM      4  C   UNL     1     140.289 142.627 114.996  1.00  0.00     0.036 C 
ATOM      5  C   UNL     1     141.121 141.466 114.419  1.00  0.00     0.025 C 
ATOM      6  C   UNL     1     142.145 140.974 115.457  1.00  0.00     0.089 C 
ATOM      7  C   UNL     1     141.468 140.670 116.765  1.00  0.00     0.158 C 
ATOM      8  O   UNL     1     141.995 139.836 117.550  1.00  0.00    -0.295 OA
ENDROOT
BRANCH   5   9
ATOM      9  C   UNL     1     141.797 141.862 113.113  1.00  0.00    -0.077 C 
ATOM     10  C   UNL     1     143.130 142.018 113.066  1.00  0.00     0.008 C 
ATOM     11  C   UNL     1     141.000 142.089 111.852  1.00  0.00     0.039 C 
ENDBRANCH   5   9
TORSDOF 1
ENDMDL
MODEL 6
REMARK VINA RESULT:    -5.281      7.845      8.621
REMARK INTER + INTRA:          -5.689
REMARK INTER:                  -5.592
REMARK INTRA:                  -0.096
REMARK UNBOUND:                -0.099
REMARK SMILES C=C(C)[C@@H]1CC=C(C)C(=O)C1
REMARK SMILES IDX 8 1 7 2 6 3 5 4 4 5 11 6 9 7 10 8 2 9 1 10 3 11
REMARK H PARENT
REMARK Flexibility Score: inf
ROOT
ATOM      1  C   UNL     1     141.592 140.366 118.888  1.00  0.00     0.048 C 
ATOM      2  C   UNL     1     141.247 140.376 117.425  1.00  0.00    -0.012 C 
ATOM      3  C   UNL     1     142.152 139.961 116.521  1.00  0.00    -0.019 C 
ATOM      4  C   UNL     1     141.852 139.933 115.046  1.00  0.00     0.036 C 
ATOM      5  C   UNL     1     140.890 141.070 114.654  1.00  0.00     0.025 C 
ATOM      6  C   UNL     1     139.612 141.009 115.510  1.00  0.00     0.089 C 
ATOM      7  C   UNL     1     139.957 140.956 116.972  1.00  0.00     0.158 C 
ATOM      8  O   UNL     1     139.122 141.378 117.816  1.00  0.00    -0.295 OA
ENDROOT
BRANCH   5   9
ATOM      9  C   UNL     1     140.565 141.037 113.166  1.00  0.00    -0.077 C 
ATOM     10  C   UNL     1     139.882 140.004 112.649  1.00  0.00     0.008 C 
ATOM     11  C   UNL     1     140.999 142.149 112.242  1.00  0.00     0.039 C 
ENDBRANCH   5   9
TORSDOF 1
ENDMDL
MODEL 7
REMARK VINA RESULT:    -5.270      1.824      2.323
REMARK INTER + INTRA:          -5.677
REMARK INTER:                  -5.590
REMARK INTRA:                  -0.087
REMARK UNBOUND:                -0.099
REMARK SMILES C=C(C)[C@@H]1CC=C(C)C(=O)C1
REMARK SMILES IDX 8 1 7 2 6 3 5 4 4 5 11 6 9 7 10 8 2 9 1 10 3 11
REMARK H PARENT
REMARK Flexibility Score: inf
ROOT
ATOM      1  C   UNL     1     134.918 136.094 118.808  1.00  0.00     0.048 C 
ATOM      2  C   UNL     1     135.245 136.066 117.341  1.00  0.00    -0.012 C 
ATOM      3  C   UNL     1     134.341 136.498 116.445  1.00  0.00    -0.019 C 
ATOM      4  C   UNL     1     134.624 136.509 114.966  1.00  0.00     0.036 C 
ATOM      5  C   UNL     1     135.551 135.345 114.571  1.00  0.00     0.025 C 
ATOM      6  C   UNL     1     136.840 135.378 115.411  1.00  0.00     0.089 C 
ATOM      7  C   UNL     1     136.514 135.450 116.878  1.00  0.00     0.158 C 
ATOM      8  O   UNL     1     137.348 135.012 117.715  1.00  0.00    -0.295 OA
ENDROOT
BRANCH   5   9
ATOM      9  C   UNL     1     135.859 135.360 113.079  1.00  0.00    -0.077 C 
ATOM     10  C   UNL     1     135.482 134.330 112.304  1.00  0.00     0.008 C 
ATOM     11  C   UNL     1     136.588 136.515 112.438  1.00  0.00     0.039 C 
ENDBRANCH   5   9
TORSDOF 1
ENDMDL
MODEL 8
REMARK VINA RESULT:    -5.243      1.596      2.649
REMARK INTER + INTRA:          -5.648
REMARK INTER:                  -5.551
REMARK INTRA:                  -0.097
REMARK UNBOUND:                -0.099
REMARK SMILES C=C(C)[C@@H]1CC=C(C)C(=O)C1
REMARK SMILES IDX 8 1 7 2 6 3 5 4 4 5 11 6 9 7 10 8 2 9 1 10 3 11
REMARK H PARENT
REMARK Flexibility Score: inf
ROOT
ATOM      1  C   UNL     1     137.193 132.398 115.721  1.00  0.00     0.048 C 
ATOM      2  C   UNL     1     136.091 133.308 115.254  1.00  0.00    -0.012 C 
ATOM      3  C   UNL     1     135.192 132.865 114.356  1.00  0.00    -0.019 C 
ATOM      4  C   UNL     1     134.059 133.728 113.870  1.00  0.00     0.036 C 
ATOM      5  C   UNL     1     134.470 135.212 113.828  1.00  0.00     0.025 C 
ATOM      6  C   UNL     1     134.995 135.661 115.203  1.00  0.00     0.089 C 
ATOM      7  C   UNL     1     136.068 134.727 115.690  1.00  0.00     0.158 C 
ATOM      8  O   UNL     1     136.930 135.153 116.505  1.00  0.00    -0.295 OA
ENDROOT
BRANCH   5   9
ATOM      9  C   UNL     1     133.322 136.095 113.354  1.00  0.00    -0.077 C 
ATOM     10  C   UNL     1     132.086 135.912 113.844  1.00  0.00     0.008 C 
ATOM     11  C   UNL     1     133.538 137.184 112.332  1.00  0.00     0.039 C 
ENDBRANCH   5   9
TORSDOF 1
ENDMDL
MODEL 9
REMARK VINA RESULT:    -5.170      1.955      4.642
REMARK INTER + INTRA:          -5.570
REMARK INTER:                  -5.483
REMARK INTRA:                  -0.087
REMARK UNBOUND:                -0.099
REMARK SMILES C=C(C)[C@@H]1CC=C(C)C(=O)C1
REMARK SMILES IDX 8 1 7 2 6 3 5 4 4 5 11 6 9 7 10 8 2 9 1 10 3 11
REMARK H PARENT
REMARK Flexibility Score: inf
ROOT
ATOM      1  C   UNL     1     133.133 135.014 112.741  1.00  0.00     0.048 C 
ATOM      2  C   UNL     1     133.906 135.120 114.025  1.00  0.00    -0.012 C 
ATOM      3  C   UNL     1     133.821 134.140 114.941  1.00  0.00    -0.019 C 
ATOM      4  C   UNL     1     134.588 134.187 116.236  1.00  0.00     0.036 C 
ATOM      5  C   UNL     1     134.759 135.638 116.726  1.00  0.00     0.025 C 
ATOM      6  C   UNL     1     135.410 136.500 115.630  1.00  0.00     0.089 C 
ATOM      7  C   UNL     1     134.663 136.360 114.333  1.00  0.00     0.158 C 
ATOM      8  O   UNL     1     134.715 137.296 113.490  1.00  0.00    -0.295 OA
ENDROOT
BRANCH   5   9
ATOM      9  C   UNL     1     135.551 135.697 118.025  1.00  0.00    -0.077 C 
ATOM     10  C   UNL     1     134.942 136.049 119.169  1.00  0.00     0.008 C 
ATOM     11  C   UNL     1     137.023 135.369 118.064  1.00  0.00     0.039 C 
ENDBRANCH   5   9
TORSDOF 1
ENDMDL
