MODEL 1
REMARK VINA RESULT:    -5.851      0.000      0.000
REMARK INTER + INTRA:         -10.215
REMARK INTER:                  -8.417
REMARK INTRA:                  -1.798
REMARK UNBOUND:                -1.798
REMARK SMILES O=c1c(O[C@@H]2O[C@@H](CO)[C@@H](O)[C@@H](O)[C@@H]2O)c(-c2ccc(O)cc2)oc2cc(O)cc(O)c12
REMARK SMILES IDX 4 1 3 2 16 3 24 4 2 5 25 6 1 7 32 8 26 9 30 10 27 11 29 12
REMARK SMILES IDX 17 13 18 14 19 15 20 16 23 17 22 18 21 19 31 21 28 23 5 25
REMARK SMILES IDX 14 26 6 27 12 28 7 29 10 30 15 31 13 33 8 35 9 36 11 38
REMARK H PARENT 21 20 31 22 28 24 15 32 13 34 9 37 11 39
REMARK Flexibility Score: inf
ROOT
ATOM      1  O   UNL     1     123.511 133.480 108.709  1.00  0.00    -0.454 OA
ENDROOT
BRANCH   1   2
ATOM      2  C   UNL     1     124.664 134.284 108.820  1.00  0.00     0.214 A 
ATOM      3  C   UNL     1     125.461 134.142 109.975  1.00  0.00     0.180 A 
ATOM      4  O   UNL     1     126.585 134.839 110.104  1.00  0.00    -0.452 OA
ATOM      5  C   UNL     1     125.085 135.201 107.827  1.00  0.00     0.239 A 
ATOM      6  C   UNL     1     127.013 135.707 109.200  1.00  0.00     0.146 A 
ATOM      7  O   UNL     1     124.409 135.360 106.777  1.00  0.00    -0.285 OA
ATOM      8  C   UNL     1     126.276 135.935 108.015  1.00  0.00     0.111 A 
ATOM      9  C   UNL     1     128.207 136.397 109.433  1.00  0.00     0.094 A 
ATOM     10  C   UNL     1     126.763 136.875 107.073  1.00  0.00     0.134 A 
ATOM     11  C   UNL     1     128.682 137.323 108.503  1.00  0.00     0.123 A 
ATOM     12  C   UNL     1     127.961 137.560 107.327  1.00  0.00     0.093 A 
BRANCH   3  13
ATOM     13  C   UNL     1     125.098 133.206 111.062  1.00  0.00     0.021 A 
ATOM     14  C   UNL     1     125.595 131.894 111.040  1.00  0.00     0.016 A 
ATOM     15  C   UNL     1     125.270 130.997 112.062  1.00  0.00     0.047 A 
ATOM     16  C   UNL     1     124.457 131.404 113.123  1.00  0.00     0.115 A 
ATOM     17  C   UNL     1     124.303 133.619 112.146  1.00  0.00     0.016 A 
ATOM     18  C   UNL     1     123.978 132.720 113.166  1.00  0.00     0.047 A 
BRANCH  16  19
ATOM     19  O   UNL     1     124.138 130.500 114.133  1.00  0.00    -0.508 OA
ATOM     20  H   UNL     1     123.725 130.804 115.007  1.00  0.00     0.293 HD
ENDBRANCH  16  19
ENDBRANCH   3  13
BRANCH  10  21
ATOM     21  O   UNL     1     126.070 137.134 105.891  1.00  0.00    -0.507 OA
ATOM     22  H   UNL     1     126.490 136.979 104.981  1.00  0.00     0.293 HD
ENDBRANCH  10  21
BRANCH  11  23
ATOM     23  O   UNL     1     129.871 138.001 108.756  1.00  0.00    -0.508 OA
ATOM     24  H   UNL     1     130.481 138.301 108.003  1.00  0.00     0.293 HD
ENDBRANCH  11  23
ENDBRANCH   1   2
BRANCH   1  25
ATOM     25  C   UNL     1     122.145 133.910 108.679  1.00  0.00     0.339 C 
ATOM     26  C   UNL     1     121.408 133.261 107.488  1.00  0.00     0.214 C 
ATOM     27  O   UNL     1     121.483 133.636 109.907  1.00  0.00    -0.332 OA
ATOM     28  C   UNL     1     121.234 131.752 107.721  1.00  0.00     0.180 C 
ATOM     29  C   UNL     1     121.437 132.243 110.175  1.00  0.00     0.179 C 
ATOM     30  C   UNL     1     120.605 131.501 109.105  1.00  0.00     0.177 C 
BRANCH  26  31
ATOM     31  O   UNL     1     122.127 133.469 106.300  1.00  0.00    -0.384 OA
ATOM     32  H   UNL     1     121.713 134.251 105.849  1.00  0.00     0.211 HD
ENDBRANCH  26  31
BRANCH  28  33
ATOM     33  O   UNL     1     120.426 131.212 106.707  1.00  0.00    -0.387 OA
ATOM     34  H   UNL     1     120.108 130.331 107.036  1.00  0.00     0.211 HD
ENDBRANCH  28  33
BRANCH  29  35
ATOM     35  C   UNL     1     120.883 132.020 111.590  1.00  0.00     0.191 C 
BRANCH  35  36
ATOM     36  O   UNL     1     119.882 132.957 111.883  1.00  0.00    -0.394 OA
ATOM     37  H   UNL     1     119.570 132.747 112.802  1.00  0.00     0.210 HD
ENDBRANCH  35  36
ENDBRANCH  29  35
BRANCH  30  38
ATOM     38  O   UNL     1     119.276 131.960 109.122  1.00  0.00    -0.387 OA
ATOM     39  H   UNL     1     118.785 131.400 109.779  1.00  0.00     0.211 HD
ENDBRANCH  30  38
ENDBRANCH   1  25
TORSDOF 11
ENDMDL
MODEL 2
REMARK VINA RESULT:    -5.802      1.730      2.507
REMARK INTER + INTRA:         -10.143
REMARK INTER:                  -8.289
REMARK INTRA:                  -1.854
REMARK UNBOUND:                -1.798
REMARK SMILES O=c1c(O[C@@H]2O[C@@H](CO)[C@@H](O)[C@@H](O)[C@@H]2O)c(-c2ccc(O)cc2)oc2cc(O)cc(O)c12
REMARK SMILES IDX 4 1 3 2 16 3 24 4 2 5 25 6 1 7 32 8 26 9 30 10 27 11 29 12
REMARK SMILES IDX 17 13 18 14 19 15 20 16 23 17 22 18 21 19 31 21 28 23 5 25
REMARK SMILES IDX 14 26 6 27 12 28 7 29 10 30 15 31 13 33 8 35 9 36 11 38
REMARK H PARENT 21 20 31 22 28 24 15 32 13 34 9 37 11 39
REMARK Flexibility Score: inf
ROOT
ATOM      1  O   UNL     1     125.595 133.896 109.024  1.00  0.00    -0.454 OA
ENDROOT
BRANCH   1   2
ATOM      2  C   UNL     1     126.549 134.663 109.724  1.00  0.00     0.214 A 
ATOM      3  C   UNL     1     126.718 134.412 111.102  1.00  0.00     0.180 A 
ATOM      4  O   UNL     1     127.639 135.072 111.796  1.00  0.00    -0.452 OA
ATOM      5  C   UNL     1     127.367 135.648 109.120  1.00  0.00     0.239 A 
ATOM      6  C   UNL     1     128.424 136.000 111.268  1.00  0.00     0.146 A 
ATOM      7  O   UNL     1     127.255 135.904 107.893  1.00  0.00    -0.285 OA
ATOM      8  C   UNL     1     128.320 136.338 109.900  1.00  0.00     0.111 A 
ATOM      9  C   UNL     1     129.358 136.643 112.086  1.00  0.00     0.094 A 
ATOM     10  C   UNL     1     129.173 137.340 109.373  1.00  0.00     0.134 A 
ATOM     11  C   UNL     1     130.195 137.629 111.563  1.00  0.00     0.123 A 
ATOM     12  C   UNL     1     130.102 137.976 110.210  1.00  0.00     0.093 A 
BRANCH   3  13
ATOM     13  C   UNL     1     125.908 133.400 111.815  1.00  0.00     0.021 A 
ATOM     14  C   UNL     1     126.369 132.077 111.898  1.00  0.00     0.016 A 
ATOM     15  C   UNL     1     125.621 131.108 112.574  1.00  0.00     0.047 A 
ATOM     16  C   UNL     1     124.412 131.453 113.186  1.00  0.00     0.115 A 
ATOM     17  C   UNL     1     124.705 133.747 112.455  1.00  0.00     0.016 A 
ATOM     18  C   UNL     1     123.957 132.776 113.129  1.00  0.00     0.047 A 
BRANCH  16  19
ATOM     19  O   UNL     1     123.675 130.477 113.853  1.00  0.00    -0.508 OA
ATOM     20  H   UNL     1     124.019 130.039 114.699  1.00  0.00     0.293 HD
ENDBRANCH  16  19
ENDBRANCH   3  13
BRANCH  10  21
ATOM     21  O   UNL     1     129.106 137.707 108.029  1.00  0.00    -0.507 OA
ATOM     22  H   UNL     1     129.940 137.814 107.462  1.00  0.00     0.293 HD
ENDBRANCH  10  21
BRANCH  11  23
ATOM     23  O   UNL     1     131.118 138.260 112.394  1.00  0.00    -0.508 OA
ATOM     24  H   UNL     1     130.858 138.597 113.315  1.00  0.00     0.293 HD
ENDBRANCH  11  23
ENDBRANCH   1   2
BRANCH   1  25
ATOM     25  C   UNL     1     124.341 134.336 108.491  1.00  0.00     0.339 C 
ATOM     26  C   UNL     1     124.206 133.899 107.016  1.00  0.00     0.214 C 
ATOM     27  O   UNL     1     123.248 133.867 109.270  1.00  0.00    -0.332 OA
ATOM     28  C   UNL     1     124.046 132.374 106.920  1.00  0.00     0.180 C 
ATOM     29  C   UNL     1     123.182 132.449 109.276  1.00  0.00     0.179 C 
ATOM     30  C   UNL     1     122.916 131.901 107.856  1.00  0.00     0.177 C 
BRANCH  26  31
ATOM     31  O   UNL     1     125.338 134.295 106.287  1.00  0.00    -0.384 OA
ATOM     32  H   UNL     1     125.178 134.029 105.344  1.00  0.00     0.211 HD
ENDBRANCH  26  31
BRANCH  28  33
ATOM     33  O   UNL     1     123.766 132.015 105.591  1.00  0.00    -0.387 OA
ATOM     34  H   UNL     1     122.778 131.959 105.513  1.00  0.00     0.211 HD
ENDBRANCH  28  33
BRANCH  29  35
ATOM     35  C   UNL     1     122.106 131.999 110.275  1.00  0.00     0.191 C 
BRANCH  35  36
ATOM     36  O   UNL     1     121.104 132.972 110.397  1.00  0.00    -0.394 OA
ATOM     37  H   UNL     1     121.481 133.682 110.979  1.00  0.00     0.210 HD
ENDBRANCH  35  36
ENDBRANCH  29  35
BRANCH  30  38
ATOM     38  O   UNL     1     121.674 132.361 107.385  1.00  0.00    -0.387 OA
ATOM     39  H   UNL     1     121.063 132.395 108.166  1.00  0.00     0.211 HD
ENDBRANCH  30  38
ENDBRANCH   1  25
TORSDOF 11
ENDMDL
MODEL 3
REMARK VINA RESULT:    -5.451      1.860      7.936
REMARK INTER + INTRA:          -9.639
REMARK INTER:                  -7.810
REMARK INTRA:                  -1.829
REMARK UNBOUND:                -1.798
REMARK SMILES O=c1c(O[C@@H]2O[C@@H](CO)[C@@H](O)[C@@H](O)[C@@H]2O)c(-c2ccc(O)cc2)oc2cc(O)cc(O)c12
REMARK SMILES IDX 4 1 3 2 16 3 24 4 2 5 25 6 1 7 32 8 26 9 30 10 27 11 29 12
REMARK SMILES IDX 17 13 18 14 19 15 20 16 23 17 22 18 21 19 31 21 28 23 5 25
REMARK SMILES IDX 14 26 6 27 12 28 7 29 10 30 15 31 13 33 8 35 9 36 11 38
REMARK H PARENT 21 20 31 22 28 24 15 32 13 34 9 37 11 39
REMARK Flexibility Score: inf
ROOT
ATOM      1  O   UNL     1     125.949 134.468 109.871  1.00  0.00    -0.454 OA
ENDROOT
BRANCH   1   2
ATOM      2  C   UNL     1     124.662 133.905 110.004  1.00  0.00     0.214 A 
ATOM      3  C   UNL     1     123.884 133.751 108.838  1.00  0.00     0.180 A 
ATOM      4  O   UNL     1     122.687 133.179 108.901  1.00  0.00    -0.452 OA
ATOM      5  C   UNL     1     124.119 133.459 111.232  1.00  0.00     0.239 A 
ATOM      6  C   UNL     1     122.143 132.749 110.030  1.00  0.00     0.146 A 
ATOM      7  O   UNL     1     124.777 133.572 112.300  1.00  0.00    -0.285 OA
ATOM      8  C   UNL     1     122.834 132.875 111.256  1.00  0.00     0.111 A 
ATOM      9  C   UNL     1     120.872 132.167 109.992  1.00  0.00     0.094 A 
ATOM     10  C   UNL     1     122.218 132.408 112.444  1.00  0.00     0.134 A 
ATOM     11  C   UNL     1     120.268 131.710 111.164  1.00  0.00     0.123 A 
ATOM     12  C   UNL     1     120.940 131.831 112.386  1.00  0.00     0.093 A 
BRANCH   3  13
ATOM     13  C   UNL     1     124.374 134.187 107.511  1.00  0.00     0.021 A 
ATOM     14  C   UNL     1     125.274 133.375 106.804  1.00  0.00     0.016 A 
ATOM     15  C   UNL     1     125.741 133.766 105.545  1.00  0.00     0.047 A 
ATOM     16  C   UNL     1     125.304 134.965 104.974  1.00  0.00     0.115 A 
ATOM     17  C   UNL     1     123.917 135.378 106.920  1.00  0.00     0.016 A 
ATOM     18  C   UNL     1     124.387 135.769 105.663  1.00  0.00     0.047 A 
BRANCH  16  19
ATOM     19  O   UNL     1     125.781 135.345 103.722  1.00  0.00    -0.508 OA
ATOM     20  H   UNL     1     125.357 136.105 103.201  1.00  0.00     0.293 HD
ENDBRANCH  16  19
ENDBRANCH   3  13
BRANCH  10  21
ATOM     21  O   UNL     1     122.861 132.512 113.677  1.00  0.00    -0.507 OA
ATOM     22  H   UNL     1     123.502 131.798 114.007  1.00  0.00     0.293 HD
ENDBRANCH  10  21
BRANCH  11  23
ATOM     23  O   UNL     1     119.001 131.136 111.106  1.00  0.00    -0.508 OA
ATOM     24  H   UNL     1     118.188 131.672 110.820  1.00  0.00     0.293 HD
ENDBRANCH  11  23
ENDBRANCH   1   2
BRANCH   1  25
ATOM     25  C   UNL     1     126.407 135.728 110.373  1.00  0.00     0.339 C 
ATOM     26  C   UNL     1     127.772 135.558 111.075  1.00  0.00     0.214 C 
ATOM     27  O   UNL     1     126.475 136.708 109.345  1.00  0.00    -0.332 OA
ATOM     28  C   UNL     1     128.868 135.236 110.048  1.00  0.00     0.180 C 
ATOM     29  C   UNL     1     127.402 136.340 108.335  1.00  0.00     0.179 C 
ATOM     30  C   UNL     1     128.837 136.266 108.902  1.00  0.00     0.177 C 
BRANCH  26  31
ATOM     31  O   UNL     1     127.705 134.525 112.023  1.00  0.00    -0.384 OA
ATOM     32  H   UNL     1     126.941 133.947 111.762  1.00  0.00     0.211 HD
ENDBRANCH  26  31
BRANCH  28  33
ATOM     33  O   UNL     1     130.121 135.243 110.682  1.00  0.00    -0.387 OA
ATOM     34  H   UNL     1     130.448 136.180 110.657  1.00  0.00     0.211 HD
ENDBRANCH  28  33
BRANCH  29  35
ATOM     35  C   UNL     1     127.297 137.334 107.169  1.00  0.00     0.191 C 
BRANCH  35  36
ATOM     36  O   UNL     1     127.008 138.623 107.640  1.00  0.00    -0.394 OA
ATOM     37  H   UNL     1     126.778 138.518 108.600  1.00  0.00     0.210 HD
ENDBRANCH  35  36
ENDBRANCH  29  35
BRANCH  30  38
ATOM     38  O   UNL     1     129.236 137.528 109.377  1.00  0.00    -0.387 OA
ATOM     39  H   UNL     1     128.489 138.156 109.192  1.00  0.00     0.211 HD
ENDBRANCH  30  38
ENDBRANCH   1  25
TORSDOF 11
ENDMDL
MODEL 4
REMARK VINA RESULT:    -5.448      3.493      5.342
REMARK INTER + INTRA:          -9.635
REMARK INTER:                  -8.128
REMARK INTRA:                  -1.507
REMARK UNBOUND:                -1.798
REMARK SMILES O=c1c(O[C@@H]2O[C@@H](CO)[C@@H](O)[C@@H](O)[C@@H]2O)c(-c2ccc(O)cc2)oc2cc(O)cc(O)c12
REMARK SMILES IDX 4 1 3 2 16 3 24 4 2 5 25 6 1 7 32 8 26 9 30 10 27 11 29 12
REMARK SMILES IDX 17 13 18 14 19 15 20 16 23 17 22 18 21 19 31 21 28 23 5 25
REMARK SMILES IDX 14 26 6 27 12 28 7 29 10 30 15 31 13 33 8 35 9 36 11 38
REMARK H PARENT 21 20 31 22 28 24 15 32 13 34 9 37 11 39
REMARK Flexibility Score: inf
ROOT
ATOM      1  O   UNL     1     127.327 132.373 111.245  1.00  0.00    -0.454 OA
ENDROOT
BRANCH   1   2
ATOM      2  C   UNL     1     128.552 132.635 110.598  1.00  0.00     0.214 A 
ATOM      3  C   UNL     1     129.471 131.573 110.464  1.00  0.00     0.180 A 
ATOM      4  O   UNL     1     130.617 131.755 109.817  1.00  0.00    -0.452 OA
ATOM      5  C   UNL     1     128.900 133.891 110.047  1.00  0.00     0.239 A 
ATOM      6  C   UNL     1     130.980 132.914 109.289  1.00  0.00     0.146 A 
ATOM      7  O   UNL     1     128.112 134.868 110.138  1.00  0.00    -0.285 OA
ATOM      8  C   UNL     1     130.137 134.044 109.384  1.00  0.00     0.111 A 
ATOM      9  C   UNL     1     132.212 133.004 108.633  1.00  0.00     0.094 A 
ATOM     10  C   UNL     1     130.563 135.269 108.811  1.00  0.00     0.134 A 
ATOM     11  C   UNL     1     132.627 134.212 108.071  1.00  0.00     0.123 A 
ATOM     12  C   UNL     1     131.804 135.340 108.161  1.00  0.00     0.093 A 
BRANCH   3  13
ATOM     13  C   UNL     1     129.189 130.225 111.007  1.00  0.00     0.021 A 
ATOM     14  C   UNL     1     128.734 129.214 110.148  1.00  0.00     0.016 A 
ATOM     15  C   UNL     1     128.469 127.932 110.641  1.00  0.00     0.047 A 
ATOM     16  C   UNL     1     128.669 127.644 111.994  1.00  0.00     0.115 A 
ATOM     17  C   UNL     1     129.414 129.923 112.362  1.00  0.00     0.016 A 
ATOM     18  C   UNL     1     129.147 128.641 112.853  1.00  0.00     0.047 A 
BRANCH  16  19
ATOM     19  O   UNL     1     128.398 126.364 112.473  1.00  0.00    -0.508 OA
ATOM     20  H   UNL     1     127.647 125.803 112.089  1.00  0.00     0.293 HD
ENDBRANCH  16  19
ENDBRANCH   3  13
BRANCH  10  21
ATOM     21  O   UNL     1     129.765 136.411 108.882  1.00  0.00    -0.507 OA
ATOM     22  H   UNL     1     130.163 137.343 108.840  1.00  0.00     0.293 HD
ENDBRANCH  10  21
BRANCH  11  23
ATOM     23  O   UNL     1     133.858 134.282 107.424  1.00  0.00    -0.508 OA
ATOM     24  H   UNL     1     134.021 133.811 106.542  1.00  0.00     0.293 HD
ENDBRANCH  11  23
ENDBRANCH   1   2
BRANCH   1  25
ATOM     25  C   UNL     1     126.062 132.083 110.638  1.00  0.00     0.339 C 
ATOM     26  C   UNL     1     125.229 131.163 111.556  1.00  0.00     0.214 C 
ATOM     27  O   UNL     1     125.352 133.272 110.317  1.00  0.00    -0.332 OA
ATOM     28  C   UNL     1     124.783 131.921 112.815  1.00  0.00     0.180 C 
ATOM     29  C   UNL     1     125.052 134.030 111.479  1.00  0.00     0.179 C 
ATOM     30  C   UNL     1     124.107 133.249 112.420  1.00  0.00     0.177 C 
BRANCH  26  31
ATOM     31  O   UNL     1     125.984 130.040 111.931  1.00  0.00    -0.384 OA
ATOM     32  H   UNL     1     126.864 130.123 111.481  1.00  0.00     0.211 HD
ENDBRANCH  26  31
BRANCH  28  33
ATOM     33  O   UNL     1     123.898 131.120 113.555  1.00  0.00    -0.387 OA
ATOM     34  H   UNL     1     124.445 130.412 113.985  1.00  0.00     0.211 HD
ENDBRANCH  28  33
BRANCH  29  35
ATOM     35  C   UNL     1     124.454 135.381 111.059  1.00  0.00     0.191 C 
BRANCH  35  36
ATOM     36  O   UNL     1     125.466 136.269 110.667  1.00  0.00    -0.394 OA
ATOM     37  H   UNL     1     125.003 137.060 110.284  1.00  0.00     0.210 HD
ENDBRANCH  35  36
ENDBRANCH  29  35
BRANCH  30  38
ATOM     38  O   UNL     1     122.883 132.995 111.775  1.00  0.00    -0.387 OA
ATOM     39  H   UNL     1     122.188 133.509 112.263  1.00  0.00     0.211 HD
ENDBRANCH  30  38
ENDBRANCH   1  25
TORSDOF 11
ENDMDL
MODEL 5
REMARK VINA RESULT:    -5.349     11.913     14.593
REMARK INTER + INTRA:          -9.492
REMARK INTER:                  -7.609
REMARK INTRA:                  -1.883
REMARK UNBOUND:                -1.798
REMARK SMILES O=c1c(O[C@@H]2O[C@@H](CO)[C@@H](O)[C@@H](O)[C@@H]2O)c(-c2ccc(O)cc2)oc2cc(O)cc(O)c12
REMARK SMILES IDX 4 1 3 2 16 3 24 4 2 5 25 6 1 7 32 8 26 9 30 10 27 11 29 12
REMARK SMILES IDX 17 13 18 14 19 15 20 16 23 17 22 18 21 19 31 21 28 23 5 25
REMARK SMILES IDX 14 26 6 27 12 28 7 29 10 30 15 31 13 33 8 35 9 36 11 38
REMARK H PARENT 21 20 31 22 28 24 15 32 13 34 9 37 11 39
REMARK Flexibility Score: inf
ROOT
ATOM      1  O   UNL     1     133.057 124.468 109.139  1.00  0.00    -0.454 OA
ENDROOT
BRANCH   1   2
ATOM      2  C   UNL     1     132.065 123.746 109.834  1.00  0.00     0.214 A 
ATOM      3  C   UNL     1     131.775 124.128 111.160  1.00  0.00     0.180 A 
ATOM      4  O   UNL     1     130.813 123.514 111.840  1.00  0.00    -0.452 OA
ATOM      5  C   UNL     1     131.323 122.681 109.269  1.00  0.00     0.239 A 
ATOM      6  C   UNL     1     130.096 122.514 111.349  1.00  0.00     0.146 A 
ATOM      7  O   UNL     1     131.543 122.305 108.088  1.00  0.00    -0.285 OA
ATOM      8  C   UNL     1     130.323 122.044 110.035  1.00  0.00     0.111 A 
ATOM      9  C   UNL     1     129.110 121.928 112.149  1.00  0.00     0.094 A 
ATOM     10  C   UNL     1     129.540 120.968 109.546  1.00  0.00     0.134 A 
ATOM     11  C   UNL     1     128.343 120.869 111.663  1.00  0.00     0.123 A 
ATOM     12  C   UNL     1     128.558 120.392 110.365  1.00  0.00     0.093 A 
BRANCH   3  13
ATOM     13  C   UNL     1     132.499 125.232 111.829  1.00  0.00     0.021 A 
ATOM     14  C   UNL     1     133.672 124.954 112.548  1.00  0.00     0.016 A 
ATOM     15  C   UNL     1     134.375 125.985 113.180  1.00  0.00     0.047 A 
ATOM     16  C   UNL     1     133.921 127.304 113.091  1.00  0.00     0.115 A 
ATOM     17  C   UNL     1     132.062 126.564 111.720  1.00  0.00     0.016 A 
ATOM     18  C   UNL     1     132.765 127.592 112.355  1.00  0.00     0.047 A 
BRANCH  16  19
ATOM     19  O   UNL     1     134.628 128.320 113.729  1.00  0.00    -0.508 OA
ATOM     20  H   UNL     1     134.541 128.482 114.725  1.00  0.00     0.293 HD
ENDBRANCH  16  19
ENDBRANCH   3  13
BRANCH  10  21
ATOM     21  O   UNL     1     129.729 120.470 108.257  1.00  0.00    -0.507 OA
ATOM     22  H   UNL     1     129.341 120.935 107.443  1.00  0.00     0.293 HD
ENDBRANCH  10  21
BRANCH  11  23
ATOM     23  O   UNL     1     127.368 120.298 112.477  1.00  0.00    -0.508 OA
ATOM     24  H   UNL     1     127.392 120.399 113.485  1.00  0.00     0.293 HD
ENDBRANCH  11  23
ENDBRANCH   1   2
BRANCH   1  25
ATOM     25  C   UNL     1     134.442 124.132 108.994  1.00  0.00     0.339 C 
ATOM     26  C   UNL     1     134.806 124.006 107.499  1.00  0.00     0.214 C 
ATOM     27  O   UNL     1     135.280 125.073 109.652  1.00  0.00    -0.332 OA
ATOM     28  C   UNL     1     134.766 125.383 106.819  1.00  0.00     0.180 C 
ATOM     29  C   UNL     1     135.144 126.371 109.096  1.00  0.00     0.179 C 
ATOM     30  C   UNL     1     135.608 126.394 107.622  1.00  0.00     0.177 C 
BRANCH  26  31
ATOM     31  O   UNL     1     133.909 123.141 106.852  1.00  0.00    -0.384 OA
ATOM     32  H   UNL     1     133.000 123.513 106.994  1.00  0.00     0.211 HD
ENDBRANCH  26  31
BRANCH  28  33
ATOM     33  O   UNL     1     135.253 125.271 105.506  1.00  0.00    -0.387 OA
ATOM     34  H   UNL     1     136.217 125.049 105.577  1.00  0.00     0.211 HD
ENDBRANCH  28  33
BRANCH  29  35
ATOM     35  C   UNL     1     135.924 127.374 109.958  1.00  0.00     0.191 C 
BRANCH  35  36
ATOM     36  O   UNL     1     136.442 128.410 109.168  1.00  0.00    -0.394 OA
ATOM     37  H   UNL     1     137.428 128.362 109.263  1.00  0.00     0.210 HD
ENDBRANCH  35  36
ENDBRANCH  29  35
BRANCH  30  38
ATOM     38  O   UNL     1     136.972 126.060 107.540  1.00  0.00    -0.387 OA
ATOM     39  H   UNL     1     137.443 126.599 108.226  1.00  0.00     0.211 HD
ENDBRANCH  30  38
ENDBRANCH   1  25
TORSDOF 11
ENDMDL
MODEL 6
REMARK VINA RESULT:    -5.319      4.592      8.535
REMARK INTER + INTRA:          -9.449
REMARK INTER:                  -7.498
REMARK INTRA:                  -1.951
REMARK UNBOUND:                -1.798
REMARK SMILES O=c1c(O[C@@H]2O[C@@H](CO)[C@@H](O)[C@@H](O)[C@@H]2O)c(-c2ccc(O)cc2)oc2cc(O)cc(O)c12
REMARK SMILES IDX 4 1 3 2 16 3 24 4 2 5 25 6 1 7 32 8 26 9 30 10 27 11 29 12
REMARK SMILES IDX 17 13 18 14 19 15 20 16 23 17 22 18 21 19 31 21 28 23 5 25
REMARK SMILES IDX 14 26 6 27 12 28 7 29 10 30 15 31 13 33 8 35 9 36 11 38
REMARK H PARENT 21 20 31 22 28 24 15 32 13 34 9 37 11 39
REMARK Flexibility Score: inf
ROOT
ATOM      1  O   UNL     1     130.519 135.187 107.874  1.00  0.00    -0.454 OA
ENDROOT
BRANCH   1   2
ATOM      2  C   UNL     1     131.324 135.376 106.732  1.00  0.00     0.214 A 
ATOM      3  C   UNL     1     130.780 136.099 105.650  1.00  0.00     0.180 A 
ATOM      4  O   UNL     1     131.515 136.349 104.572  1.00  0.00    -0.452 OA
ATOM      5  C   UNL     1     132.657 134.911 106.621  1.00  0.00     0.239 A 
ATOM      6  C   UNL     1     132.764 135.931 104.428  1.00  0.00     0.146 A 
ATOM      7  O   UNL     1     133.188 134.265 107.561  1.00  0.00    -0.285 OA
ATOM      8  C   UNL     1     133.395 135.184 105.448  1.00  0.00     0.111 A 
ATOM      9  C   UNL     1     133.452 136.241 103.251  1.00  0.00     0.094 A 
ATOM     10  C   UNL     1     134.731 134.749 105.256  1.00  0.00     0.134 A 
ATOM     11  C   UNL     1     134.766 135.810 103.066  1.00  0.00     0.123 A 
ATOM     12  C   UNL     1     135.402 135.067 104.066  1.00  0.00     0.093 A 
BRANCH   3  13
ATOM     13  C   UNL     1     129.396 136.624 105.681  1.00  0.00     0.021 A 
ATOM     14  C   UNL     1     129.131 137.835 106.339  1.00  0.00     0.016 A 
ATOM     15  C   UNL     1     127.831 138.351 106.372  1.00  0.00     0.047 A 
ATOM     16  C   UNL     1     126.787 137.671 105.739  1.00  0.00     0.115 A 
ATOM     17  C   UNL     1     128.348 135.958 105.023  1.00  0.00     0.016 A 
ATOM     18  C   UNL     1     127.049 136.474 105.059  1.00  0.00     0.047 A 
BRANCH  16  19
ATOM     19  O   UNL     1     125.497 138.194 105.783  1.00  0.00    -0.508 OA
ATOM     20  H   UNL     1     124.875 138.005 106.559  1.00  0.00     0.293 HD
ENDBRANCH  16  19
ENDBRANCH   3  13
BRANCH  10  21
ATOM     21  O   UNL     1     135.394 134.008 106.234  1.00  0.00    -0.507 OA
ATOM     22  H   UNL     1     134.892 133.409 106.881  1.00  0.00     0.293 HD
ENDBRANCH  10  21
BRANCH  11  23
ATOM     23  O   UNL     1     135.432 136.127 101.884  1.00  0.00    -0.508 OA
ATOM     24  H   UNL     1     136.436 136.272 101.864  1.00  0.00     0.293 HD
ENDBRANCH  11  23
ENDBRANCH   1   2
BRANCH   1  25
ATOM     25  C   UNL     1     129.817 134.000 108.261  1.00  0.00     0.339 C 
ATOM     26  C   UNL     1     130.183 133.614 109.711  1.00  0.00     0.214 C 
ATOM     27  O   UNL     1     128.412 134.149 108.107  1.00  0.00    -0.332 OA
ATOM     28  C   UNL     1     129.602 134.634 110.702  1.00  0.00     0.180 C 
ATOM     29  C   UNL     1     127.902 135.180 108.937  1.00  0.00     0.179 C 
ATOM     30  C   UNL     1     128.099 134.836 110.431  1.00  0.00     0.177 C 
BRANCH  26  31
ATOM     31  O   UNL     1     131.578 133.560 109.861  1.00  0.00    -0.384 OA
ATOM     32  H   UNL     1     131.802 134.124 110.647  1.00  0.00     0.211 HD
ENDBRANCH  26  31
BRANCH  28  33
ATOM     33  O   UNL     1     129.809 134.181 112.015  1.00  0.00    -0.387 OA
ATOM     34  H   UNL     1     130.288 133.314 111.946  1.00  0.00     0.211 HD
ENDBRANCH  28  33
BRANCH  29  35
ATOM     35  C   UNL     1     126.424 135.420 108.594  1.00  0.00     0.191 C 
BRANCH  35  36
ATOM     36  O   UNL     1     125.741 135.957 109.694  1.00  0.00    -0.394 OA
ATOM     37  H   UNL     1     126.251 135.675 110.498  1.00  0.00     0.210 HD
ENDBRANCH  35  36
ENDBRANCH  29  35
BRANCH  30  38
ATOM     38  O   UNL     1     127.388 133.667 110.755  1.00  0.00    -0.387 OA
ATOM     39  H   UNL     1     126.827 133.441 109.968  1.00  0.00     0.211 HD
ENDBRANCH  30  38
ENDBRANCH   1  25
TORSDOF 11
ENDMDL
MODEL 7
REMARK VINA RESULT:    -5.295      2.645      8.091
REMARK INTER + INTRA:          -9.415
REMARK INTER:                  -7.667
REMARK INTRA:                  -1.748
REMARK UNBOUND:                -1.798
REMARK SMILES O=c1c(O[C@@H]2O[C@@H](CO)[C@@H](O)[C@@H](O)[C@@H]2O)c(-c2ccc(O)cc2)oc2cc(O)cc(O)c12
REMARK SMILES IDX 4 1 3 2 16 3 24 4 2 5 25 6 1 7 32 8 26 9 30 10 27 11 29 12
REMARK SMILES IDX 17 13 18 14 19 15 20 16 23 17 22 18 21 19 31 21 28 23 5 25
REMARK SMILES IDX 14 26 6 27 12 28 7 29 10 30 15 31 13 33 8 35 9 36 11 38
REMARK H PARENT 21 20 31 22 28 24 15 32 13 34 9 37 11 39
REMARK Flexibility Score: inf
ROOT
ATOM      1  O   UNL     1     127.132 132.474 110.103  1.00  0.00    -0.454 OA
ENDROOT
BRANCH   1   2
ATOM      2  C   UNL     1     125.755 132.645 110.361  1.00  0.00     0.214 A 
ATOM      3  C   UNL     1     125.013 133.457 109.479  1.00  0.00     0.180 A 
ATOM      4  O   UNL     1     123.704 133.608 109.648  1.00  0.00    -0.452 OA
ATOM      5  C   UNL     1     125.071 132.025 111.433  1.00  0.00     0.239 A 
ATOM      6  C   UNL     1     123.026 133.046 110.638  1.00  0.00     0.146 A 
ATOM      7  O   UNL     1     125.690 131.288 112.245  1.00  0.00    -0.285 OA
ATOM      8  C   UNL     1     123.682 132.229 111.586  1.00  0.00     0.111 A 
ATOM      9  C   UNL     1     121.650 133.274 110.733  1.00  0.00     0.094 A 
ATOM     10  C   UNL     1     122.925 131.648 112.634  1.00  0.00     0.134 A 
ATOM     11  C   UNL     1     120.908 132.702 111.767  1.00  0.00     0.123 A 
ATOM     12  C   UNL     1     121.545 131.891 112.714  1.00  0.00     0.093 A 
BRANCH   3  13
ATOM     13  C   UNL     1     125.646 134.143 108.331  1.00  0.00     0.021 A 
ATOM     14  C   UNL     1     126.096 135.464 108.475  1.00  0.00     0.016 A 
ATOM     15  C   UNL     1     126.703 136.126 107.403  1.00  0.00     0.047 A 
ATOM     16  C   UNL     1     126.881 135.470 106.181  1.00  0.00     0.115 A 
ATOM     17  C   UNL     1     125.851 133.479 107.108  1.00  0.00     0.016 A 
ATOM     18  C   UNL     1     126.457 134.143 106.037  1.00  0.00     0.047 A 
BRANCH  16  19
ATOM     19  O   UNL     1     127.484 136.142 105.121  1.00  0.00    -0.508 OA
ATOM     20  H   UNL     1     128.360 136.638 105.237  1.00  0.00     0.293 HD
ENDBRANCH  16  19
ENDBRANCH   3  13
BRANCH  10  21
ATOM     21  O   UNL     1     123.529 130.836 113.593  1.00  0.00    -0.507 OA
ATOM     22  H   UNL     1     123.784 131.190 114.509  1.00  0.00     0.293 HD
ENDBRANCH  10  21
BRANCH  11  23
ATOM     23  O   UNL     1     119.539 132.942 111.846  1.00  0.00    -0.508 OA
ATOM     24  H   UNL     1     118.987 133.144 111.019  1.00  0.00     0.293 HD
ENDBRANCH  11  23
ENDBRANCH   1   2
BRANCH   1  25
ATOM     25  C   UNL     1     128.230 132.834 110.950  1.00  0.00     0.339 C 
ATOM     26  C   UNL     1     129.228 131.661 111.054  1.00  0.00     0.214 C 
ATOM     27  O   UNL     1     128.872 134.019 110.498  1.00  0.00    -0.332 OA
ATOM     28  C   UNL     1     129.948 131.447 109.713  1.00  0.00     0.180 C 
ATOM     29  C   UNL     1     129.428 133.850 109.203  1.00  0.00     0.179 C 
ATOM     30  C   UNL     1     130.542 132.780 109.215  1.00  0.00     0.177 C 
BRANCH  26  31
ATOM     31  O   UNL     1     128.556 130.482 111.414  1.00  0.00    -0.384 OA
ATOM     32  H   UNL     1     128.857 130.250 112.331  1.00  0.00     0.211 HD
ENDBRANCH  26  31
BRANCH  28  33
ATOM     33  O   UNL     1     130.961 130.487 109.873  1.00  0.00    -0.387 OA
ATOM     34  H   UNL     1     130.753 129.990 110.707  1.00  0.00     0.211 HD
ENDBRANCH  28  33
BRANCH  29  35
ATOM     35  C   UNL     1     129.941 135.205 108.694  1.00  0.00     0.191 C 
BRANCH  35  36
ATOM     36  O   UNL     1     130.571 135.916 109.725  1.00  0.00    -0.394 OA
ATOM     37  H   UNL     1     130.323 135.454 110.568  1.00  0.00     0.210 HD
ENDBRANCH  35  36
ENDBRANCH  29  35
BRANCH  30  38
ATOM     38  O   UNL     1     131.593 133.185 110.057  1.00  0.00    -0.387 OA
ATOM     39  H   UNL     1     131.523 132.646 110.888  1.00  0.00     0.211 HD
ENDBRANCH  30  38
ENDBRANCH   1  25
TORSDOF 11
ENDMDL
MODEL 8
REMARK VINA RESULT:    -5.290      4.274      7.928
REMARK INTER + INTRA:          -9.408
REMARK INTER:                  -7.531
REMARK INTRA:                  -1.878
REMARK UNBOUND:                -1.798
REMARK SMILES O=c1c(O[C@@H]2O[C@@H](CO)[C@@H](O)[C@@H](O)[C@@H]2O)c(-c2ccc(O)cc2)oc2cc(O)cc(O)c12
REMARK SMILES IDX 4 1 3 2 16 3 24 4 2 5 25 6 1 7 32 8 26 9 30 10 27 11 29 12
REMARK SMILES IDX 17 13 18 14 19 15 20 16 23 17 22 18 21 19 31 21 28 23 5 25
REMARK SMILES IDX 14 26 6 27 12 28 7 29 10 30 15 31 13 33 8 35 9 36 11 38
REMARK H PARENT 21 20 31 22 28 24 15 32 13 34 9 37 11 39
REMARK Flexibility Score: inf
ROOT
ATOM      1  O   UNL     1     128.522 132.026 110.386  1.00  0.00    -0.454 OA
ENDROOT
BRANCH   1   2
ATOM      2  C   UNL     1     128.704 130.664 110.705  1.00  0.00     0.214 A 
ATOM      3  C   UNL     1     127.611 129.960 111.250  1.00  0.00     0.180 A 
ATOM      4  O   UNL     1     127.715 128.663 111.519  1.00  0.00    -0.452 OA
ATOM      5  C   UNL     1     129.909 129.956 110.482  1.00  0.00     0.239 A 
ATOM      6  C   UNL     1     128.824 127.964 111.326  1.00  0.00     0.146 A 
ATOM      7  O   UNL     1     130.912 130.540 109.994  1.00  0.00    -0.285 OA
ATOM      8  C   UNL     1     129.981 128.582 110.801  1.00  0.00     0.111 A 
ATOM      9  C   UNL     1     128.834 126.604 111.648  1.00  0.00     0.094 A 
ATOM     10  C   UNL     1     131.151 127.804 110.612  1.00  0.00     0.134 A 
ATOM     11  C   UNL     1     129.987 125.842 111.462  1.00  0.00     0.123 A 
ATOM     12  C   UNL     1     131.142 126.441 110.946  1.00  0.00     0.093 A 
BRANCH   3  13
ATOM     13  C   UNL     1     126.312 130.619 111.515  1.00  0.00     0.021 A 
ATOM     14  C   UNL     1     125.979 130.989 112.827  1.00  0.00     0.016 A 
ATOM     15  C   UNL     1     124.760 131.620 113.096  1.00  0.00     0.047 A 
ATOM     16  C   UNL     1     123.869 131.901 112.056  1.00  0.00     0.115 A 
ATOM     17  C   UNL     1     125.424 130.928 110.470  1.00  0.00     0.016 A 
ATOM     18  C   UNL     1     124.205 131.557 110.741  1.00  0.00     0.047 A 
BRANCH  16  19
ATOM     19  O   UNL     1     122.657 132.526 112.338  1.00  0.00    -0.508 OA
ATOM     20  H   UNL     1     122.618 133.484 112.666  1.00  0.00     0.293 HD
ENDBRANCH  16  19
ENDBRANCH   3  13
BRANCH  10  21
ATOM     21  O   UNL     1     132.317 128.371 110.098  1.00  0.00    -0.507 OA
ATOM     22  H   UNL     1     133.143 128.504 110.671  1.00  0.00     0.293 HD
ENDBRANCH  10  21
BRANCH  11  23
ATOM     23  O   UNL     1     129.978 124.489 111.793  1.00  0.00    -0.508 OA
ATOM     24  H   UNL     1     130.837 123.959 111.885  1.00  0.00     0.293 HD
ENDBRANCH  11  23
ENDBRANCH   1   2
BRANCH   1  25
ATOM     25  C   UNL     1     128.800 133.161 111.214  1.00  0.00     0.339 C 
ATOM     26  C   UNL     1     129.810 134.096 110.514  1.00  0.00     0.214 C 
ATOM     27  O   UNL     1     127.611 133.857 111.564  1.00  0.00    -0.332 OA
ATOM     28  C   UNL     1     129.161 134.772 109.296  1.00  0.00     0.180 C 
ATOM     29  C   UNL     1     126.951 134.373 110.419  1.00  0.00     0.179 C 
ATOM     30  C   UNL     1     127.827 135.427 109.704  1.00  0.00     0.177 C 
BRANCH  26  31
ATOM     31  O   UNL     1     130.936 133.369 110.097  1.00  0.00    -0.384 OA
ATOM     32  H   UNL     1     131.051 132.625 110.744  1.00  0.00     0.211 HD
ENDBRANCH  26  31
BRANCH  28  33
ATOM     33  O   UNL     1     130.040 135.734 108.770  1.00  0.00    -0.387 OA
ATOM     34  H   UNL     1     130.223 135.469 107.831  1.00  0.00     0.211 HD
ENDBRANCH  28  33
BRANCH  29  35
ATOM     35  C   UNL     1     125.589 134.947 110.836  1.00  0.00     0.191 C 
BRANCH  35  36
ATOM     36  O   UNL     1     125.290 136.100 110.097  1.00  0.00    -0.394 OA
ATOM     37  H   UNL     1     125.145 135.797 109.163  1.00  0.00     0.210 HD
ENDBRANCH  35  36
ENDBRANCH  29  35
BRANCH  30  38
ATOM     38  O   UNL     1     128.065 136.518 110.559  1.00  0.00    -0.387 OA
ATOM     39  H   UNL     1     127.829 136.223 111.476  1.00  0.00     0.211 HD
ENDBRANCH  30  38
ENDBRANCH   1  25
TORSDOF 11
ENDMDL
MODEL 9
REMARK VINA RESULT:    -5.246     12.272     15.229
REMARK INTER + INTRA:          -9.344
REMARK INTER:                  -7.376
REMARK INTRA:                  -1.968
REMARK UNBOUND:                -1.798
REMARK SMILES O=c1c(O[C@@H]2O[C@@H](CO)[C@@H](O)[C@@H](O)[C@@H]2O)c(-c2ccc(O)cc2)oc2cc(O)cc(O)c12
REMARK SMILES IDX 4 1 3 2 16 3 24 4 2 5 25 6 1 7 32 8 26 9 30 10 27 11 29 12
REMARK SMILES IDX 17 13 18 14 19 15 20 16 23 17 22 18 21 19 31 21 28 23 5 25
REMARK SMILES IDX 14 26 6 27 12 28 7 29 10 30 15 31 13 33 8 35 9 36 11 38
REMARK H PARENT 21 20 31 22 28 24 15 32 13 34 9 37 11 39
REMARK Flexibility Score: inf
ROOT
ATOM      1  O   UNL     1     134.917 125.038 108.754  1.00  0.00    -0.454 OA
ENDROOT
BRANCH   1   2
ATOM      2  C   UNL     1     133.736 124.287 108.929  1.00  0.00     0.214 A 
ATOM      3  C   UNL     1     132.972 124.515 110.093  1.00  0.00     0.180 A 
ATOM      4  O   UNL     1     131.825 123.871 110.280  1.00  0.00    -0.452 OA
ATOM      5  C   UNL     1     133.257 123.341 107.992  1.00  0.00     0.239 A 
ATOM      6  C   UNL     1     131.343 122.978 109.428  1.00  0.00     0.146 A 
ATOM      7  O   UNL     1     133.901 123.105 106.937  1.00  0.00    -0.285 OA
ATOM      8  C   UNL     1     132.042 122.665 108.241  1.00  0.00     0.111 A 
ATOM      9  C   UNL     1     130.129 122.349 109.721  1.00  0.00     0.094 A 
ATOM     10  C   UNL     1     131.497 121.701 107.356  1.00  0.00     0.134 A 
ATOM     11  C   UNL     1     129.597 121.400 108.848  1.00  0.00     0.123 A 
ATOM     12  C   UNL     1     130.280 121.077 107.669  1.00  0.00     0.093 A 
BRANCH   3  13
ATOM     13  C   UNL     1     133.396 125.488 111.125  1.00  0.00     0.021 A 
ATOM     14  C   UNL     1     134.106 125.038 112.249  1.00  0.00     0.016 A 
ATOM     15  C   UNL     1     134.522 125.943 113.231  1.00  0.00     0.047 A 
ATOM     16  C   UNL     1     134.245 127.306 113.094  1.00  0.00     0.115 A 
ATOM     17  C   UNL     1     133.144 126.863 110.979  1.00  0.00     0.016 A 
ATOM     18  C   UNL     1     133.558 127.766 111.963  1.00  0.00     0.047 A 
BRANCH  16  19
ATOM     19  O   UNL     1     134.661 128.196 114.081  1.00  0.00    -0.508 OA
ATOM     20  H   UNL     1     134.149 128.303 114.949  1.00  0.00     0.293 HD
ENDBRANCH  16  19
ENDBRANCH   3  13
BRANCH  10  21
ATOM     21  O   UNL     1     132.152 121.358 106.173  1.00  0.00    -0.507 OA
ATOM     22  H   UNL     1     131.924 120.512 105.663  1.00  0.00     0.293 HD
ENDBRANCH  10  21
BRANCH  11  23
ATOM     23  O   UNL     1     128.387 120.782 109.158  1.00  0.00    -0.508 OA
ATOM     24  H   UNL     1     128.324 120.075 109.882  1.00  0.00     0.293 HD
ENDBRANCH  11  23
ENDBRANCH   1   2
BRANCH   1  25
ATOM     25  C   UNL     1     136.258 124.641 109.062  1.00  0.00     0.339 C 
ATOM     26  C   UNL     1     137.159 124.803 107.819  1.00  0.00     0.214 C 
ATOM     27  O   UNL     1     136.775 125.363 110.172  1.00  0.00    -0.332 OA
ATOM     28  C   UNL     1     137.362 126.291 107.492  1.00  0.00     0.180 C 
ATOM     29  C   UNL     1     136.842 126.755 109.904  1.00  0.00     0.179 C 
ATOM     30  C   UNL     1     137.827 127.049 108.750  1.00  0.00     0.177 C 
BRANCH  26  31
ATOM     31  O   UNL     1     136.583 124.157 106.714  1.00  0.00    -0.384 OA
ATOM     32  H   UNL     1     135.605 124.127 106.878  1.00  0.00     0.211 HD
ENDBRANCH  26  31
BRANCH  28  33
ATOM     33  O   UNL     1     138.308 126.419 106.461  1.00  0.00    -0.387 OA
ATOM     34  H   UNL     1     137.841 126.848 105.697  1.00  0.00     0.211 HD
ENDBRANCH  28  33
BRANCH  29  35
ATOM     35  C   UNL     1     137.228 127.499 111.191  1.00  0.00     0.191 C 
BRANCH  35  36
ATOM     36  O   UNL     1     138.054 126.700 111.995  1.00  0.00    -0.394 OA
ATOM     37  H   UNL     1     138.913 126.615 111.507  1.00  0.00     0.210 HD
ENDBRANCH  35  36
ENDBRANCH  29  35
BRANCH  30  38
ATOM     38  O   UNL     1     139.125 126.644 109.106  1.00  0.00    -0.387 OA
ATOM     39  H   UNL     1     139.491 127.342 109.709  1.00  0.00     0.211 HD
ENDBRANCH  30  38
ENDBRANCH   1  25
TORSDOF 11
ENDMDL
