MODEL 1
REMARK VINA RESULT:     1.523      0.000      0.000
REMARK INTER + INTRA:           3.166
REMARK INTER:                   3.839
REMARK INTRA:                  -0.673
REMARK UNBOUND:                -0.673
REMARK SMILES CCCCCCCCCCCCCCCCCCCCCCCCCCCC(=O)[O-]
REMARK SMILES IDX 15 1 16 2 17 3 18 4 19 5 20 6 21 7 22 8 23 9 24 10 25 11
REMARK SMILES IDX 26 12 27 13 28 14 29 15 30 16 14 17 13 18 12 19 11 20 10 21
REMARK SMILES IDX 9 22 8 23 7 24 6 25 5 26 4 27 3 28 2 29 1 30
REMARK H PARENT
REMARK Flexibility Score: inf
ROOT
ATOM      1  C   UNL     1       6.034 -37.095  25.204  1.00  0.00     0.000 C 
ENDROOT
BRANCH   1   2
ATOM      2  C   UNL     1       5.871 -35.675  24.619  1.00  0.00     0.000 C 
BRANCH   2   3
ATOM      3  C   UNL     1       5.129 -35.680  23.271  1.00  0.00     0.000 C 
BRANCH   3   4
ATOM      4  C   UNL     1       6.068 -35.403  22.086  1.00  0.00     0.000 C 
BRANCH   4   5
ATOM      5  C   UNL     1       5.747 -36.288  20.870  1.00  0.00     0.000 C 
BRANCH   5   6
ATOM      6  C   UNL     1       4.384 -35.946  20.247  1.00  0.00     0.000 C 
BRANCH   6   7
ATOM      7  C   UNL     1       4.465 -34.731  19.302  1.00  0.00     0.000 C 
BRANCH   7   8
ATOM      8  C   UNL     1       4.722 -35.129  17.841  1.00  0.00     0.000 C 
BRANCH   8   9
ATOM      9  C   UNL     1       3.898 -36.349  17.401  1.00  0.00     0.000 C 
BRANCH   9  10
ATOM     10  C   UNL     1       2.450 -35.948  17.082  1.00  0.00     0.000 C 
BRANCH  10  11
ATOM     11  C   UNL     1       2.000 -36.381  15.675  1.00  0.00     0.000 C 
BRANCH  11  12
ATOM     12  C   UNL     1       2.192 -37.877  15.356  1.00  0.00     0.006 C 
BRANCH  12  13
ATOM     13  C   UNL     1       2.803 -38.121  13.970  1.00  0.00     0.053 C 
BRANCH  13  14
ATOM     14  C   UNL     1       4.156 -38.752  14.090  1.00  0.00     0.041 C 
ATOM     15  O   UNL     1       5.194 -38.070  13.877  1.00  0.00    -0.550 OA
ATOM     16  O   UNL     1       4.272 -40.095  14.432  1.00  0.00    -0.550 OA
ENDBRANCH  13  14
ENDBRANCH  12  13
ENDBRANCH  11  12
ENDBRANCH  10  11
ENDBRANCH   9  10
ENDBRANCH   8   9
ENDBRANCH   7   8
ENDBRANCH   6   7
ENDBRANCH   5   6
ENDBRANCH   4   5
ENDBRANCH   3   4
ENDBRANCH   2   3
ENDBRANCH   1   2
BRANCH   1  17
ATOM     17  C   UNL     1       4.710 -37.878  25.323  1.00  0.00     0.000 C 
BRANCH  17  18
ATOM     18  C   UNL     1       4.813 -39.215  26.076  1.00  0.00     0.000 C 
BRANCH  18  19
ATOM     19  C   UNL     1       5.764 -40.213  25.395  1.00  0.00     0.000 C 
BRANCH  19  20
ATOM     20  C   UNL     1       4.976 -41.187  24.504  1.00  0.00     0.000 C 
BRANCH  20  21
ATOM     21  C   UNL     1       5.767 -42.464  24.180  1.00  0.00     0.000 C 
BRANCH  21  22
ATOM     22  C   UNL     1       6.078 -42.600  22.677  1.00  0.00    -0.000 C 
BRANCH  22  23
ATOM     23  C   UNL     1       5.397 -41.499  21.838  1.00  0.00    -0.000 C 
BRANCH  23  24
ATOM     24  C   UNL     1       6.125 -40.144  21.881  1.00  0.00    -0.000 C 
BRANCH  24  25
ATOM     25  C   UNL     1       5.202 -38.951  21.586  1.00  0.00    -0.000 C 
BRANCH  25  26
ATOM     26  C   UNL     1       4.557 -39.048  20.189  1.00  0.00    -0.000 C 
BRANCH  26  27
ATOM     27  C   UNL     1       3.021 -39.139  20.252  1.00  0.00    -0.000 C 
BRANCH  27  28
ATOM     28  C   UNL     1       2.351 -38.372  19.094  1.00  0.00    -0.000 C 
BRANCH  28  29
ATOM     29  C   UNL     1       0.853 -38.131  19.337  1.00  0.00    -0.003 C 
ATOM     30  C   UNL     1      -0.006 -38.566  18.147  1.00  0.00     0.004 C 
ENDBRANCH  28  29
ENDBRANCH  27  28
ENDBRANCH  26  27
ENDBRANCH  25  26
ENDBRANCH  24  25
ENDBRANCH  23  24
ENDBRANCH  22  23
ENDBRANCH  21  22
ENDBRANCH  20  21
ENDBRANCH  19  20
ENDBRANCH  18  19
ENDBRANCH  17  18
ENDBRANCH   1  17
TORSDOF 26
ENDMDL
MODEL 2
REMARK VINA RESULT:     2.033      4.630      8.652
REMARK INTER + INTRA:           4.451
REMARK INTER:                   4.814
REMARK INTRA:                  -0.363
REMARK UNBOUND:                -0.673
REMARK SMILES CCCCCCCCCCCCCCCCCCCCCCCCCCCC(=O)[O-]
REMARK SMILES IDX 15 1 16 2 17 3 18 4 19 5 20 6 21 7 22 8 23 9 24 10 25 11
REMARK SMILES IDX 26 12 27 13 28 14 29 15 30 16 14 17 13 18 12 19 11 20 10 21
REMARK SMILES IDX 9 22 8 23 7 24 6 25 5 26 4 27 3 28 2 29 1 30
REMARK H PARENT
REMARK Flexibility Score: inf
ROOT
ATOM      1  C   UNL     1       4.497 -38.042  22.544  1.00  0.00     0.000 C 
ENDROOT
BRANCH   1   2
ATOM      2  C   UNL     1       4.985 -39.158  21.595  1.00  0.00     0.000 C 
BRANCH   2   3
ATOM      3  C   UNL     1       4.780 -40.562  22.191  1.00  0.00     0.000 C 
BRANCH   3   4
ATOM      4  C   UNL     1       6.065 -41.405  22.153  1.00  0.00     0.000 C 
BRANCH   4   5
ATOM      5  C   UNL     1       6.050 -42.537  23.194  1.00  0.00     0.000 C 
BRANCH   5   6
ATOM      6  C   UNL     1       5.623 -42.041  24.585  1.00  0.00     0.000 C 
BRANCH   6   7
ATOM      7  C   UNL     1       5.698 -40.507  24.704  1.00  0.00     0.000 C 
BRANCH   7   8
ATOM      8  C   UNL     1       4.552 -39.917  25.539  1.00  0.00     0.000 C 
BRANCH   8   9
ATOM      9  C   UNL     1       4.834 -38.482  26.009  1.00  0.00     0.000 C 
BRANCH   9  10
ATOM     10  C   UNL     1       3.526 -37.726  26.284  1.00  0.00     0.000 C 
BRANCH  10  11
ATOM     11  C   UNL     1       2.660 -38.395  27.368  1.00  0.00     0.000 C 
BRANCH  11  12
ATOM     12  C   UNL     1       1.668 -37.457  28.086  1.00  0.00     0.006 C 
BRANCH  12  13
ATOM     13  C   UNL     1       2.145 -35.999  28.126  1.00  0.00     0.053 C 
BRANCH  13  14
ATOM     14  C   UNL     1       1.440 -35.241  29.208  1.00  0.00     0.041 C 
ATOM     15  O   UNL     1       0.358 -34.643  28.962  1.00  0.00    -0.550 OA
ATOM     16  O   UNL     1       1.981 -35.188  30.489  1.00  0.00    -0.550 OA
ENDBRANCH  13  14
ENDBRANCH  12  13
ENDBRANCH  11  12
ENDBRANCH  10  11
ENDBRANCH   9  10
ENDBRANCH   8   9
ENDBRANCH   7   8
ENDBRANCH   6   7
ENDBRANCH   5   6
ENDBRANCH   4   5
ENDBRANCH   3   4
ENDBRANCH   2   3
ENDBRANCH   1   2
BRANCH   1  17
ATOM     17  C   UNL     1       5.637 -37.229  23.191  1.00  0.00     0.000 C 
BRANCH  17  18
ATOM     18  C   UNL     1       5.420 -35.706  23.204  1.00  0.00     0.000 C 
BRANCH  18  19
ATOM     19  C   UNL     1       5.463 -35.084  21.799  1.00  0.00     0.000 C 
BRANCH  19  20
ATOM     20  C   UNL     1       6.125 -36.049  20.801  1.00  0.00     0.000 C 
BRANCH  20  21
ATOM     21  C   UNL     1       5.660 -35.816  19.355  1.00  0.00     0.000 C 
BRANCH  21  22
ATOM     22  C   UNL     1       4.139 -35.999  19.188  1.00  0.00    -0.000 C 
BRANCH  22  23
ATOM     23  C   UNL     1       3.788 -37.292  18.423  1.00  0.00    -0.000 C 
BRANCH  23  24
ATOM     24  C   UNL     1       2.790 -38.201  19.163  1.00  0.00    -0.000 C 
BRANCH  24  25
ATOM     25  C   UNL     1       1.337 -38.008  18.699  1.00  0.00    -0.000 C 
BRANCH  25  26
ATOM     26  C   UNL     1       1.175 -38.239  17.185  1.00  0.00    -0.000 C 
BRANCH  26  27
ATOM     27  C   UNL     1       1.269 -36.933  16.374  1.00  0.00    -0.000 C 
BRANCH  27  28
ATOM     28  C   UNL     1       2.607 -36.822  15.615  1.00  0.00    -0.000 C 
BRANCH  28  29
ATOM     29  C   UNL     1       3.170 -38.193  15.208  1.00  0.00    -0.003 C 
ATOM     30  C   UNL     1       4.000 -38.122  13.924  1.00  0.00     0.004 C 
ENDBRANCH  28  29
ENDBRANCH  27  28
ENDBRANCH  26  27
ENDBRANCH  25  26
ENDBRANCH  24  25
ENDBRANCH  23  24
ENDBRANCH  22  23
ENDBRANCH  21  22
ENDBRANCH  20  21
ENDBRANCH  19  20
ENDBRANCH  18  19
ENDBRANCH  17  18
ENDBRANCH   1  17
TORSDOF 26
ENDMDL
MODEL 3
REMARK VINA RESULT:     2.485      2.245      6.557
REMARK INTER + INTRA:           5.590
REMARK INTER:                   4.106
REMARK INTRA:                   1.483
REMARK UNBOUND:                -0.673
REMARK SMILES CCCCCCCCCCCCCCCCCCCCCCCCCCCC(=O)[O-]
REMARK SMILES IDX 15 1 16 2 17 3 18 4 19 5 20 6 21 7 22 8 23 9 24 10 25 11
REMARK SMILES IDX 26 12 27 13 28 14 29 15 30 16 14 17 13 18 12 19 11 20 10 21
REMARK SMILES IDX 9 22 8 23 7 24 6 25 5 26 4 27 3 28 2 29 1 30
REMARK H PARENT
REMARK Flexibility Score: inf
ROOT
ATOM      1  C   UNL     1       5.095 -36.666  22.911  1.00  0.00     0.000 C 
ENDROOT
BRANCH   1   2
ATOM      2  C   UNL     1       6.125 -35.723  23.571  1.00  0.00     0.000 C 
BRANCH   2   3
ATOM      3  C   UNL     1       5.718 -35.321  25.000  1.00  0.00     0.000 C 
BRANCH   3   4
ATOM      4  C   UNL     1       6.125 -36.375  26.041  1.00  0.00     0.000 C 
BRANCH   4   5
ATOM      5  C   UNL     1       6.040 -37.807  25.485  1.00  0.00     0.000 C 
BRANCH   5   6
ATOM      6  C   UNL     1       4.888 -38.606  26.114  1.00  0.00     0.000 C 
BRANCH   6   7
ATOM      7  C   UNL     1       4.253 -39.594  25.116  1.00  0.00     0.000 C 
BRANCH   7   8
ATOM      8  C   UNL     1       5.213 -40.002  23.988  1.00  0.00     0.000 C 
BRANCH   8   9
ATOM      9  C   UNL     1       4.997 -39.194  22.700  1.00  0.00     0.000 C 
BRANCH   9  10
ATOM     10  C   UNL     1       4.825 -40.124  21.490  1.00  0.00     0.000 C 
BRANCH  10  11
ATOM     11  C   UNL     1       4.271 -39.401  20.248  1.00  0.00     0.000 C 
BRANCH  11  12
ATOM     12  C   UNL     1       2.834 -38.863  20.388  1.00  0.00     0.006 C 
BRANCH  12  13
ATOM     13  C   UNL     1       1.987 -39.079  19.127  1.00  0.00     0.053 C 
BRANCH  13  14
ATOM     14  C   UNL     1       0.806 -38.158  19.117  1.00  0.00     0.041 C 
ATOM     15  O   UNL     1       0.633 -37.361  18.156  1.00  0.00    -0.550 OA
ATOM     16  O   UNL     1      -0.102 -38.176  20.170  1.00  0.00    -0.550 OA
ENDBRANCH  13  14
ENDBRANCH  12  13
ENDBRANCH  11  12
ENDBRANCH  10  11
ENDBRANCH   9  10
ENDBRANCH   8   9
ENDBRANCH   7   8
ENDBRANCH   6   7
ENDBRANCH   5   6
ENDBRANCH   4   5
ENDBRANCH   3   4
ENDBRANCH   2   3
ENDBRANCH   1   2
BRANCH   1  17
ATOM     17  C   UNL     1       4.281 -36.008  21.779  1.00  0.00     0.000 C 
BRANCH  17  18
ATOM     18  C   UNL     1       4.597 -36.529  20.367  1.00  0.00     0.000 C 
BRANCH  18  19
ATOM     19  C   UNL     1       5.059 -35.420  19.408  1.00  0.00     0.000 C 
BRANCH  19  20
ATOM     20  C   UNL     1       3.926 -35.032  18.445  1.00  0.00     0.000 C 
BRANCH  20  21
ATOM     21  C   UNL     1       4.051 -35.721  17.076  1.00  0.00     0.000 C 
BRANCH  21  22
ATOM     22  C   UNL     1       4.113 -37.256  17.191  1.00  0.00    -0.000 C 
BRANCH  22  23
ATOM     23  C   UNL     1       2.956 -37.944  16.439  1.00  0.00    -0.000 C 
BRANCH  23  24
ATOM     24  C   UNL     1       2.392 -37.116  15.271  1.00  0.00    -0.000 C 
BRANCH  24  25
ATOM     25  C   UNL     1       3.028 -37.469  13.916  1.00  0.00    -0.000 C 
BRANCH  25  26
ATOM     26  C   UNL     1       4.319 -38.294  14.079  1.00  0.00    -0.000 C 
BRANCH  26  27
ATOM     27  C   UNL     1       4.086 -39.802  13.875  1.00  0.00    -0.000 C 
BRANCH  27  28
ATOM     28  C   UNL     1       5.283 -40.642  14.366  1.00  0.00    -0.000 C 
BRANCH  28  29
ATOM     29  C   UNL     1       5.219 -42.099  13.881  1.00  0.00    -0.003 C 
ATOM     30  C   UNL     1       5.570 -43.095  14.989  1.00  0.00     0.004 C 
ENDBRANCH  28  29
ENDBRANCH  27  28
ENDBRANCH  26  27
ENDBRANCH  25  26
ENDBRANCH  24  25
ENDBRANCH  23  24
ENDBRANCH  22  23
ENDBRANCH  21  22
ENDBRANCH  20  21
ENDBRANCH  19  20
ENDBRANCH  18  19
ENDBRANCH  17  18
ENDBRANCH   1  17
TORSDOF 26
ENDMDL
MODEL 4
REMARK VINA RESULT:     3.028      2.649      4.939
REMARK INTER + INTRA:           6.959
REMARK INTER:                   8.514
REMARK INTRA:                  -1.556
REMARK UNBOUND:                -0.673
REMARK SMILES CCCCCCCCCCCCCCCCCCCCCCCCCCCC(=O)[O-]
REMARK SMILES IDX 15 1 16 2 17 3 18 4 19 5 20 6 21 7 22 8 23 9 24 10 25 11
REMARK SMILES IDX 26 12 27 13 28 14 29 15 30 16 14 17 13 18 12 19 11 20 10 21
REMARK SMILES IDX 9 22 8 23 7 24 6 25 5 26 4 27 3 28 2 29 1 30
REMARK H PARENT
REMARK Flexibility Score: inf
ROOT
ATOM      1  C   UNL     1       4.526 -37.829  22.943  1.00  0.00     0.000 C 
ENDROOT
BRANCH   1   2
ATOM      2  C   UNL     1       5.945 -37.377  23.351  1.00  0.00     0.000 C 
BRANCH   2   3
ATOM      3  C   UNL     1       5.921 -36.268  24.419  1.00  0.00     0.000 C 
BRANCH   3   4
ATOM      4  C   UNL     1       6.125 -34.870  23.813  1.00  0.00     0.000 C 
BRANCH   4   5
ATOM      5  C   UNL     1       5.798 -34.834  22.311  1.00  0.00     0.000 C 
BRANCH   5   6
ATOM      6  C   UNL     1       4.286 -34.901  22.044  1.00  0.00     0.000 C 
BRANCH   6   7
ATOM      7  C   UNL     1       3.960 -35.619  20.720  1.00  0.00     0.000 C 
BRANCH   7   8
ATOM      8  C   UNL     1       5.217 -36.090  19.973  1.00  0.00     0.000 C 
BRANCH   8   9
ATOM      9  C   UNL     1       5.408 -35.382  18.623  1.00  0.00     0.000 C 
BRANCH   9  10
ATOM     10  C   UNL     1       4.071 -35.241  17.882  1.00  0.00     0.000 C 
BRANCH  10  11
ATOM     11  C   UNL     1       3.807 -36.388  16.888  1.00  0.00     0.000 C 
BRANCH  11  12
ATOM     12  C   UNL     1       2.321 -36.726  16.657  1.00  0.00     0.006 C 
BRANCH  12  13
ATOM     13  C   UNL     1       1.967 -38.166  17.050  1.00  0.00     0.053 C 
BRANCH  13  14
ATOM     14  C   UNL     1       1.793 -38.284  18.533  1.00  0.00     0.041 C 
ATOM     15  O   UNL     1       2.794 -38.481  19.274  1.00  0.00    -0.550 OA
ATOM     16  O   UNL     1       0.527 -38.183  19.098  1.00  0.00    -0.550 OA
ENDBRANCH  13  14
ENDBRANCH  12  13
ENDBRANCH  11  12
ENDBRANCH  10  11
ENDBRANCH   9  10
ENDBRANCH   8   9
ENDBRANCH   7   8
ENDBRANCH   6   7
ENDBRANCH   5   6
ENDBRANCH   4   5
ENDBRANCH   3   4
ENDBRANCH   2   3
ENDBRANCH   1   2
BRANCH   1  17
ATOM     17  C   UNL     1       4.498 -39.141  22.131  1.00  0.00     0.000 C 
BRANCH  17  18
ATOM     18  C   UNL     1       5.841 -39.538  21.495  1.00  0.00     0.000 C 
BRANCH  18  19
ATOM     19  C   UNL     1       6.066 -41.058  21.472  1.00  0.00     0.000 C 
BRANCH  19  20
ATOM     20  C   UNL     1       5.198 -41.748  22.537  1.00  0.00     0.000 C 
BRANCH  20  21
ATOM     21  C   UNL     1       6.024 -42.286  23.716  1.00  0.00     0.000 C 
BRANCH  21  22
ATOM     22  C   UNL     1       5.519 -41.766  25.076  1.00  0.00    -0.000 C 
BRANCH  22  23
ATOM     23  C   UNL     1       5.474 -40.225  25.131  1.00  0.00    -0.000 C 
BRANCH  23  24
ATOM     24  C   UNL     1       4.653 -39.668  26.307  1.00  0.00    -0.000 C 
BRANCH  24  25
ATOM     25  C   UNL     1       3.709 -38.526  25.899  1.00  0.00    -0.000 C 
BRANCH  25  26
ATOM     26  C   UNL     1       2.671 -38.211  26.993  1.00  0.00    -0.000 C 
BRANCH  26  27
ATOM     27  C   UNL     1       2.687 -36.730  27.415  1.00  0.00    -0.000 C 
BRANCH  27  28
ATOM     28  C   UNL     1       1.706 -36.449  28.571  1.00  0.00    -0.000 C 
BRANCH  28  29
ATOM     29  C   UNL     1       1.719 -34.976  29.010  1.00  0.00    -0.003 C 
ATOM     30  C   UNL     1       0.369 -34.527  29.576  1.00  0.00     0.004 C 
ENDBRANCH  28  29
ENDBRANCH  27  28
ENDBRANCH  26  27
ENDBRANCH  25  26
ENDBRANCH  24  25
ENDBRANCH  23  24
ENDBRANCH  22  23
ENDBRANCH  21  22
ENDBRANCH  20  21
ENDBRANCH  19  20
ENDBRANCH  18  19
ENDBRANCH  17  18
ENDBRANCH   1  17
TORSDOF 26
ENDMDL
MODEL 5
REMARK VINA RESULT:     3.323      2.105      4.145
REMARK INTER + INTRA:           7.701
REMARK INTER:                   5.775
REMARK INTRA:                   1.926
REMARK UNBOUND:                -0.673
REMARK SMILES CCCCCCCCCCCCCCCCCCCCCCCCCCCC(=O)[O-]
REMARK SMILES IDX 15 1 16 2 17 3 18 4 19 5 20 6 21 7 22 8 23 9 24 10 25 11
REMARK SMILES IDX 26 12 27 13 28 14 29 15 30 16 14 17 13 18 12 19 11 20 10 21
REMARK SMILES IDX 9 22 8 23 7 24 6 25 5 26 4 27 3 28 2 29 1 30
REMARK H PARENT
REMARK Flexibility Score: inf
ROOT
ATOM      1  C   UNL     1       4.518 -36.817  22.488  1.00  0.00     0.000 C 
ENDROOT
BRANCH   1   2
ATOM      2  C   UNL     1       3.638 -36.253  21.351  1.00  0.00     0.000 C 
BRANCH   2   3
ATOM      3  C   UNL     1       4.378 -35.200  20.508  1.00  0.00     0.000 C 
BRANCH   3   4
ATOM      4  C   UNL     1       5.499 -35.817  19.656  1.00  0.00     0.000 C 
BRANCH   4   5
ATOM      5  C   UNL     1       5.544 -35.227  18.237  1.00  0.00     0.000 C 
BRANCH   5   6
ATOM      6  C   UNL     1       4.153 -35.180  17.584  1.00  0.00     0.000 C 
BRANCH   6   7
ATOM      7  C   UNL     1       3.684 -36.570  17.112  1.00  0.00     0.000 C 
BRANCH   7   8
ATOM      8  C   UNL     1       4.042 -36.854  15.646  1.00  0.00     0.000 C 
BRANCH   8   9
ATOM      9  C   UNL     1       2.879 -37.476  14.858  1.00  0.00     0.000 C 
BRANCH   9  10
ATOM     10  C   UNL     1       1.601 -36.638  15.012  1.00  0.00     0.000 C 
BRANCH  10  11
ATOM     11  C   UNL     1       0.889 -36.866  16.359  1.00  0.00     0.000 C 
BRANCH  11  12
ATOM     12  C   UNL     1       1.159 -38.231  17.021  1.00  0.00     0.006 C 
BRANCH  12  13
ATOM     13  C   UNL     1       0.093 -38.617  18.055  1.00  0.00     0.053 C 
BRANCH  13  14
ATOM     14  C   UNL     1       0.485 -38.149  19.422  1.00  0.00     0.041 C 
ATOM     15  O   UNL     1       1.672 -37.795  19.655  1.00  0.00    -0.550 OA
ATOM     16  O   UNL     1      -0.459 -38.109  20.443  1.00  0.00    -0.550 OA
ENDBRANCH  13  14
ENDBRANCH  12  13
ENDBRANCH  11  12
ENDBRANCH  10  11
ENDBRANCH   9  10
ENDBRANCH   8   9
ENDBRANCH   7   8
ENDBRANCH   6   7
ENDBRANCH   5   6
ENDBRANCH   4   5
ENDBRANCH   3   4
ENDBRANCH   2   3
ENDBRANCH   1   2
BRANCH   1  17
ATOM     17  C   UNL     1       5.953 -36.252  22.507  1.00  0.00     0.000 C 
BRANCH  17  18
ATOM     18  C   UNL     1       6.124 -34.943  23.295  1.00  0.00     0.000 C 
BRANCH  18  19
ATOM     19  C   UNL     1       5.980 -35.135  24.813  1.00  0.00     0.000 C 
BRANCH  19  20
ATOM     20  C   UNL     1       5.117 -36.369  25.122  1.00  0.00     0.000 C 
BRANCH  20  21
ATOM     21  C   UNL     1       5.941 -37.548  25.662  1.00  0.00     0.000 C 
BRANCH  21  22
ATOM     22  C   UNL     1       5.063 -38.636  26.310  1.00  0.00    -0.000 C 
BRANCH  22  23
ATOM     23  C   UNL     1       4.491 -39.620  25.269  1.00  0.00    -0.000 C 
BRANCH  23  24
ATOM     24  C   UNL     1       5.521 -40.091  24.226  1.00  0.00    -0.000 C 
BRANCH  24  25
ATOM     25  C   UNL     1       5.082 -41.355  23.470  1.00  0.00    -0.000 C 
BRANCH  25  26
ATOM     26  C   UNL     1       5.811 -41.509  22.122  1.00  0.00    -0.000 C 
BRANCH  26  27
ATOM     27  C   UNL     1       6.116 -40.154  21.457  1.00  0.00    -0.000 C 
BRANCH  27  28
ATOM     28  C   UNL     1       4.858 -39.529  20.819  1.00  0.00    -0.000 C 
BRANCH  28  29
ATOM     29  C   UNL     1       5.176 -38.738  19.541  1.00  0.00    -0.003 C 
ATOM     30  C   UNL     1       4.050 -38.827  18.508  1.00  0.00     0.004 C 
ENDBRANCH  28  29
ENDBRANCH  27  28
ENDBRANCH  26  27
ENDBRANCH  25  26
ENDBRANCH  24  25
ENDBRANCH  23  24
ENDBRANCH  22  23
ENDBRANCH  21  22
ENDBRANCH  20  21
ENDBRANCH  19  20
ENDBRANCH  18  19
ENDBRANCH  17  18
ENDBRANCH   1  17
TORSDOF 26
ENDMDL
MODEL 6
REMARK VINA RESULT:     3.417      2.143      4.557
REMARK INTER + INTRA:           7.938
REMARK INTER:                   8.796
REMARK INTRA:                  -0.858
REMARK UNBOUND:                -0.673
REMARK SMILES CCCCCCCCCCCCCCCCCCCCCCCCCCCC(=O)[O-]
REMARK SMILES IDX 15 1 16 2 17 3 18 4 19 5 20 6 21 7 22 8 23 9 24 10 25 11
REMARK SMILES IDX 26 12 27 13 28 14 29 15 30 16 14 17 13 18 12 19 11 20 10 21
REMARK SMILES IDX 9 22 8 23 7 24 6 25 5 26 4 27 3 28 2 29 1 30
REMARK H PARENT
REMARK Flexibility Score: inf
ROOT
ATOM      1  C   UNL     1       4.587 -37.854  22.874  1.00  0.00     0.000 C 
ENDROOT
BRANCH   1   2
ATOM      2  C   UNL     1       6.034 -37.375  23.124  1.00  0.00     0.000 C 
BRANCH   2   3
ATOM      3  C   UNL     1       6.095 -36.177  24.088  1.00  0.00     0.000 C 
BRANCH   3   4
ATOM      4  C   UNL     1       6.074 -34.830  23.348  1.00  0.00     0.000 C 
BRANCH   4   5
ATOM      5  C   UNL     1       5.534 -34.963  21.914  1.00  0.00     0.000 C 
BRANCH   5   6
ATOM      6  C   UNL     1       4.006 -35.127  21.882  1.00  0.00     0.000 C 
BRANCH   6   7
ATOM      7  C   UNL     1       3.535 -35.954  20.671  1.00  0.00     0.000 C 
BRANCH   7   8
ATOM      8  C   UNL     1       4.701 -36.489  19.825  1.00  0.00     0.000 C 
BRANCH   8   9
ATOM      9  C   UNL     1       4.530 -36.203  18.326  1.00  0.00     0.000 C 
BRANCH   9  10
ATOM     10  C   UNL     1       3.281 -36.903  17.771  1.00  0.00     0.000 C 
BRANCH  10  11
ATOM     11  C   UNL     1       2.850 -36.367  16.393  1.00  0.00     0.000 C 
BRANCH  11  12
ATOM     12  C   UNL     1       1.897 -37.284  15.601  1.00  0.00     0.006 C 
BRANCH  12  13
ATOM     13  C   UNL     1       2.395 -37.584  14.181  1.00  0.00     0.053 C 
BRANCH  13  14
ATOM     14  C   UNL     1       3.747 -38.227  14.217  1.00  0.00     0.041 C 
ATOM     15  O   UNL     1       4.773 -37.565  13.905  1.00  0.00    -0.550 OA
ATOM     16  O   UNL     1       3.875 -39.561  14.589  1.00  0.00    -0.550 OA
ENDBRANCH  13  14
ENDBRANCH  12  13
ENDBRANCH  11  12
ENDBRANCH  10  11
ENDBRANCH   9  10
ENDBRANCH   8   9
ENDBRANCH   7   8
ENDBRANCH   6   7
ENDBRANCH   5   6
ENDBRANCH   4   5
ENDBRANCH   3   4
ENDBRANCH   2   3
ENDBRANCH   1   2
BRANCH   1  17
ATOM     17  C   UNL     1       4.495 -39.215  22.154  1.00  0.00     0.000 C 
BRANCH  17  18
ATOM     18  C   UNL     1       5.806 -39.698  21.512  1.00  0.00     0.000 C 
BRANCH  18  19
ATOM     19  C   UNL     1       6.039 -41.207  21.687  1.00  0.00     0.000 C 
BRANCH  19  20
ATOM     20  C   UNL     1       5.087 -41.780  22.750  1.00  0.00     0.000 C 
BRANCH  20  21
ATOM     21  C   UNL     1       5.814 -42.168  24.047  1.00  0.00     0.000 C 
BRANCH  21  22
ATOM     22  C   UNL     1       5.300 -41.384  25.270  1.00  0.00    -0.000 C 
BRANCH  22  23
ATOM     23  C   UNL     1       5.708 -39.897  25.224  1.00  0.00    -0.000 C 
BRANCH  23  24
ATOM     24  C   UNL     1       5.025 -39.031  26.297  1.00  0.00    -0.000 C 
BRANCH  24  25
ATOM     25  C   UNL     1       3.601 -38.600  25.911  1.00  0.00    -0.000 C 
BRANCH  25  26
ATOM     26  C   UNL     1       2.718 -38.338  27.146  1.00  0.00    -0.000 C 
BRANCH  26  27
ATOM     27  C   UNL     1       2.351 -36.852  27.306  1.00  0.00    -0.000 C 
BRANCH  27  28
ATOM     28  C   UNL     1       1.523 -36.597  28.583  1.00  0.00    -0.000 C 
BRANCH  28  29
ATOM     29  C   UNL     1       1.289 -35.100  28.844  1.00  0.00    -0.003 C 
ATOM     30  C   UNL     1       1.991 -34.616  30.115  1.00  0.00     0.004 C 
ENDBRANCH  28  29
ENDBRANCH  27  28
ENDBRANCH  26  27
ENDBRANCH  25  26
ENDBRANCH  24  25
ENDBRANCH  23  24
ENDBRANCH  22  23
ENDBRANCH  21  22
ENDBRANCH  20  21
ENDBRANCH  19  20
ENDBRANCH  18  19
ENDBRANCH  17  18
ENDBRANCH   1  17
TORSDOF 26
ENDMDL
MODEL 7
REMARK VINA RESULT:     3.545      4.768      8.743
REMARK INTER + INTRA:           8.261
REMARK INTER:                  10.255
REMARK INTRA:                  -1.994
REMARK UNBOUND:                -0.673
REMARK SMILES CCCCCCCCCCCCCCCCCCCCCCCCCCCC(=O)[O-]
REMARK SMILES IDX 15 1 16 2 17 3 18 4 19 5 20 6 21 7 22 8 23 9 24 10 25 11
REMARK SMILES IDX 26 12 27 13 28 14 29 15 30 16 14 17 13 18 12 19 11 20 10 21
REMARK SMILES IDX 9 22 8 23 7 24 6 25 5 26 4 27 3 28 2 29 1 30
REMARK H PARENT
REMARK Flexibility Score: inf
ROOT
ATOM      1  C   UNL     1       5.268 -39.803  21.031  1.00  0.00     0.000 C 
ENDROOT
BRANCH   1   2
ATOM      2  C   UNL     1       5.453 -39.155  22.420  1.00  0.00     0.000 C 
BRANCH   2   3
ATOM      3  C   UNL     1       5.793 -37.657  22.325  1.00  0.00     0.000 C 
BRANCH   3   4
ATOM      4  C   UNL     1       4.541 -36.769  22.396  1.00  0.00     0.000 C 
BRANCH   4   5
ATOM      5  C   UNL     1       4.705 -35.610  23.393  1.00  0.00     0.000 C 
BRANCH   5   6
ATOM      6  C   UNL     1       6.062 -35.651  24.113  1.00  0.00     0.000 C 
BRANCH   6   7
ATOM      7  C   UNL     1       5.921 -36.034  25.599  1.00  0.00     0.000 C 
BRANCH   7   8
ATOM      8  C   UNL     1       6.077 -37.543  25.843  1.00  0.00     0.000 C 
BRANCH   8   9
ATOM      9  C   UNL     1       4.799 -38.333  25.522  1.00  0.00     0.000 C 
BRANCH   9  10
ATOM     10  C   UNL     1       3.865 -38.384  26.739  1.00  0.00     0.000 C 
BRANCH  10  11
ATOM     11  C   UNL     1       2.758 -37.314  26.695  1.00  0.00     0.000 C 
BRANCH  11  12
ATOM     12  C   UNL     1       2.168 -36.924  28.065  1.00  0.00     0.006 C 
BRANCH  12  13
ATOM     13  C   UNL     1       1.962 -35.412  28.220  1.00  0.00     0.053 C 
BRANCH  13  14
ATOM     14  C   UNL     1       1.342 -35.094  29.546  1.00  0.00     0.041 C 
ATOM     15  O   UNL     1       0.110 -34.836  29.624  1.00  0.00    -0.550 OA
ATOM     16  O   UNL     1       2.123 -35.076  30.696  1.00  0.00    -0.550 OA
ENDBRANCH  13  14
ENDBRANCH  12  13
ENDBRANCH  11  12
ENDBRANCH  10  11
ENDBRANCH   9  10
ENDBRANCH   8   9
ENDBRANCH   7   8
ENDBRANCH   6   7
ENDBRANCH   5   6
ENDBRANCH   4   5
ENDBRANCH   3   4
ENDBRANCH   2   3
ENDBRANCH   1   2
BRANCH   1  17
ATOM     17  C   UNL     1       5.978 -39.048  19.889  1.00  0.00     0.000 C 
BRANCH  17  18
ATOM     18  C   UNL     1       5.037 -38.411  18.852  1.00  0.00     0.000 C 
BRANCH  18  19
ATOM     19  C   UNL     1       4.564 -37.006  19.256  1.00  0.00     0.000 C 
BRANCH  19  20
ATOM     20  C   UNL     1       3.054 -37.007  19.545  1.00  0.00     0.000 C 
BRANCH  20  21
ATOM     21  C   UNL     1       2.443 -38.416  19.497  1.00  0.00     0.000 C 
BRANCH  21  22
ATOM     22  C   UNL     1       0.906 -38.398  19.600  1.00  0.00    -0.000 C 
BRANCH  22  23
ATOM     23  C   UNL     1       0.228 -38.449  18.215  1.00  0.00    -0.000 C 
BRANCH  23  24
ATOM     24  C   UNL     1       1.217 -38.400  17.037  1.00  0.00    -0.000 C 
BRANCH  24  25
ATOM     25  C   UNL     1       1.277 -37.024  16.354  1.00  0.00    -0.000 C 
BRANCH  25  26
ATOM     26  C   UNL     1       2.718 -36.620  15.988  1.00  0.00    -0.000 C 
BRANCH  26  27
ATOM     27  C   UNL     1       3.008 -36.762  14.483  1.00  0.00    -0.000 C 
BRANCH  27  28
ATOM     28  C   UNL     1       4.162 -37.749  14.209  1.00  0.00    -0.000 C 
BRANCH  28  29
ATOM     29  C   UNL     1       3.930 -39.122  14.860  1.00  0.00    -0.003 C 
ATOM     30  C   UNL     1       4.290 -40.277  13.922  1.00  0.00     0.004 C 
ENDBRANCH  28  29
ENDBRANCH  27  28
ENDBRANCH  26  27
ENDBRANCH  25  26
ENDBRANCH  24  25
ENDBRANCH  23  24
ENDBRANCH  22  23
ENDBRANCH  21  22
ENDBRANCH  20  21
ENDBRANCH  19  20
ENDBRANCH  18  19
ENDBRANCH  17  18
ENDBRANCH   1  17
TORSDOF 26
ENDMDL
