MODEL 1
REMARK VINA RESULT:    -5.334      0.000      0.000
REMARK INTER + INTRA:          -8.259
REMARK INTER:                  -8.140
REMARK INTRA:                  -0.118
REMARK UNBOUND:                -0.118
REMARK SMILES CC1=CCC[C@H](C)C(=O)C[C@H](C(C)C)C(=O)C1
REMARK SMILES IDX 8 1 9 2 6 3 7 4 5 5 4 6 3 7 2 8 1 9 10 11 11 12 15 13 16 14
REMARK SMILES IDX 17 15 12 17 13 18 14 19
REMARK H PARENT
REMARK Flexibility Score: 70.00
ROOT
ATOM      1  C   UNL     1      -7.906  34.630  23.660  1.00  0.00     0.136 C 
ATOM      2  O   UNL     1      -7.074  34.979  22.835  1.00  0.00    -0.299 OA
ENDROOT
BRANCH   1   3
ATOM      3  C   UNL     1      -7.970  35.333  25.013  1.00  0.00     0.053 C 
ATOM      4  C   UNL     1      -9.377  35.864  25.330  1.00  0.00     0.016 C 
BRANCH   3   5
ATOM      5  C   UNL     1      -7.481  34.397  26.153  1.00  0.00     0.015 C 
BRANCH   5   6
ATOM      6  C   UNL     1      -8.535  33.452  26.768  1.00  0.00     0.028 C 
BRANCH   6   7
ATOM      7  C   UNL     1      -8.162  32.000  26.994  1.00  0.00    -0.028 C 
ATOM      8  C   UNL     1      -8.600  30.919  26.302  1.00  0.00    -0.070 CG0
ATOM      9  C   UNL     1      -8.268  29.557  26.864  1.00  0.00     0.039 C 
ATOM     10  G   UNL     1      -9.331  30.985  24.969  1.00  0.00     0.000 G0
ENDBRANCH   6   7
ENDBRANCH   5   6
ENDBRANCH   3   5
ENDBRANCH   1   3
BRANCH   1  11
ATOM     11  C   UNL     1      -8.827  33.472  23.306  1.00  0.00     0.087 C 
BRANCH  11  12
ATOM     12  C   UNL     1      -8.077  32.174  22.914  1.00  0.00     0.066 C 
BRANCH  12  13
ATOM     13  C   UNL     1      -8.374  30.966  23.798  1.00  0.00     0.140 C 
ATOM     14  O   UNL     1      -7.867  29.901  23.473  1.00  0.00    -0.299 OA
BRANCH  13  15
ATOM     15  C   UNL     1      -9.347  30.973  24.970  1.00  0.00     0.106 CG0
ATOM     16  G   UNL     1      -8.605  30.931  26.298  1.00  0.00     0.000 G0
ENDBRANCH  13  15
ENDBRANCH  12  13
BRANCH  12  17
ATOM     17  C   UNL     1      -8.237  31.790  21.408  1.00  0.00    -0.006 C 
ATOM     18  C   UNL     1      -9.699  31.638  20.961  1.00  0.00     0.008 C 
ATOM     19  C   UNL     1      -7.502  32.771  20.480  1.00  0.00     0.008 C 
ENDBRANCH  12  17
ENDBRANCH  11  12
ENDBRANCH   1  11
TORSDOF 1
ENDMDL
MODEL 2
REMARK VINA RESULT:    -5.290      1.492      3.931
REMARK INTER + INTRA:          -8.192
REMARK INTER:                  -7.812
REMARK INTRA:                  -0.380
REMARK UNBOUND:                -0.118
REMARK SMILES CC1=CCC[C@H](C)C(=O)C[C@H](C(C)C)C(=O)C1
REMARK SMILES IDX 8 1 9 2 6 3 7 4 5 5 4 6 3 7 2 8 1 9 10 11 11 12 15 13 16 14
REMARK SMILES IDX 17 15 12 17 13 18 14 19
REMARK H PARENT
REMARK Flexibility Score: 70.00
ROOT
ATOM      1  C   UNL     1      -7.364  29.897  23.162  1.00  0.00     0.136 C 
ATOM      2  O   UNL     1      -6.391  29.192  23.387  1.00  0.00    -0.299 OA
ENDROOT
BRANCH   1   3
ATOM      3  C   UNL     1      -8.768  29.326  23.340  1.00  0.00     0.053 C 
ATOM      4  C   UNL     1      -8.916  27.931  22.712  1.00  0.00     0.016 C 
BRANCH   3   5
ATOM      5  C   UNL     1      -9.168  29.285  24.841  1.00  0.00     0.015 C 
BRANCH   5   6
ATOM      6  C   UNL     1      -9.933  30.510  25.385  1.00  0.00     0.028 C 
BRANCH   6   7
ATOM      7  C   UNL     1      -9.204  31.472  26.301  1.00  0.00    -0.028 C 
ATOM      8  C   UNL     1      -8.812  32.740  26.023  1.00  0.00    -0.070 CG0
ATOM      9  C   UNL     1      -7.896  33.415  27.017  1.00  0.00     0.039 C 
ATOM     10  G   UNL     1      -9.289  33.549  24.826  1.00  0.00     0.000 G0
ENDBRANCH   6   7
ENDBRANCH   5   6
ENDBRANCH   3   5
ENDBRANCH   1   3
BRANCH   1  11
ATOM     11  C   UNL     1      -7.124  31.318  22.674  1.00  0.00     0.087 C 
BRANCH  11  12
ATOM     12  C   UNL     1      -8.396  32.202  22.673  1.00  0.00     0.066 C 
BRANCH  12  13
ATOM     13  C   UNL     1      -8.353  33.394  23.625  1.00  0.00     0.140 C 
ATOM     14  O   UNL     1      -7.448  34.202  23.464  1.00  0.00    -0.299 OA
BRANCH  13  15
ATOM     15  C   UNL     1      -9.276  33.575  24.822  1.00  0.00     0.106 CG0
ATOM     16  G   UNL     1      -8.806  32.742  26.007  1.00  0.00     0.000 G0
ENDBRANCH  13  15
ENDBRANCH  12  13
BRANCH  12  17
ATOM     17  C   UNL     1      -8.833  32.669  21.248  1.00  0.00    -0.006 C 
ATOM     18  C   UNL     1      -7.667  33.154  20.372  1.00  0.00     0.008 C 
ATOM     19  C   UNL     1      -9.634  31.586  20.504  1.00  0.00     0.008 C 
ENDBRANCH  12  17
ENDBRANCH  11  12
ENDBRANCH   1  11
TORSDOF 1
ENDMDL
MODEL 3
REMARK VINA RESULT:    -5.182      1.646      2.514
REMARK INTER + INTRA:          -8.027
REMARK INTER:                  -7.598
REMARK INTRA:                  -0.429
REMARK UNBOUND:                -0.118
REMARK SMILES CC1=CCC[C@H](C)C(=O)C[C@H](C(C)C)C(=O)C1
REMARK SMILES IDX 8 1 9 2 6 3 7 4 5 5 4 6 3 7 2 8 1 9 10 11 11 12 15 13 16 14
REMARK SMILES IDX 17 15 12 17 13 18 14 19
REMARK H PARENT
REMARK Flexibility Score: 70.00
ROOT
ATOM      1  C   UNL     1      -8.906  33.279  22.724  1.00  0.00     0.136 C 
ATOM      2  O   UNL     1      -9.057  33.513  21.533  1.00  0.00    -0.299 OA
ENDROOT
BRANCH   1   3
ATOM      3  C   UNL     1      -8.072  34.227  23.580  1.00  0.00     0.053 C 
ATOM      4  C   UNL     1      -7.024  34.991  22.755  1.00  0.00     0.016 C 
BRANCH   3   5
ATOM      5  C   UNL     1      -8.978  35.225  24.353  1.00  0.00     0.015 C 
BRANCH   5   6
ATOM      6  C   UNL     1      -8.942  35.138  25.894  1.00  0.00     0.028 C 
BRANCH   6   7
ATOM      7  C   UNL     1      -7.961  34.183  26.543  1.00  0.00    -0.028 C 
ATOM      8  C   UNL     1      -8.198  32.913  26.958  1.00  0.00    -0.070 CG0
ATOM      9  C   UNL     1      -7.127  32.245  27.786  1.00  0.00     0.039 C 
ATOM     10  G   UNL     1      -9.427  32.098  26.584  1.00  0.00     0.000 G0
ENDBRANCH   6   7
ENDBRANCH   5   6
ENDBRANCH   3   5
ENDBRANCH   1   3
BRANCH   1  11
ATOM     11  C   UNL     1      -9.538  32.018  23.294  1.00  0.00     0.087 C 
BRANCH  11  12
ATOM     12  C   UNL     1      -8.579  31.184  24.180  1.00  0.00     0.066 C 
BRANCH  12  13
ATOM     13  C   UNL     1      -9.050  30.971  25.616  1.00  0.00     0.140 C 
ATOM     14  O   UNL     1      -9.229  29.815  25.977  1.00  0.00    -0.299 OA
BRANCH  13  15
ATOM     15  C   UNL     1      -9.426  32.092  26.575  1.00  0.00     0.106 CG0
ATOM     16  G   UNL     1      -8.205  32.914  26.963  1.00  0.00     0.000 G0
ENDBRANCH  13  15
ENDBRANCH  12  13
BRANCH  12  17
ATOM     17  C   UNL     1      -8.166  29.819  23.542  1.00  0.00    -0.006 C 
ATOM     18  C   UNL     1      -8.840  29.540  22.190  1.00  0.00     0.008 C 
ATOM     19  C   UNL     1      -6.640  29.681  23.408  1.00  0.00     0.008 C 
ENDBRANCH  12  17
ENDBRANCH  11  12
ENDBRANCH   1  11
TORSDOF 1
ENDMDL
MODEL 4
REMARK VINA RESULT:    -5.107      1.577      3.993
REMARK INTER + INTRA:          -7.912
REMARK INTER:                  -7.819
REMARK INTRA:                  -0.093
REMARK UNBOUND:                -0.118
REMARK SMILES CC1=CCC[C@H](C)C(=O)C[C@H](C(C)C)C(=O)C1
REMARK SMILES IDX 8 1 9 2 6 3 7 4 5 5 4 6 3 7 2 8 1 9 10 11 11 12 15 13 16 14
REMARK SMILES IDX 17 15 12 17 13 18 14 19
REMARK H PARENT
REMARK Flexibility Score: 70.00
ROOT
ATOM      1  C   UNL     1      -7.686  30.492  24.068  1.00  0.00     0.136 C 
ATOM      2  O   UNL     1      -6.827  29.867  24.675  1.00  0.00    -0.299 OA
ENDROOT
BRANCH   1   3
ATOM      3  C   UNL     1      -9.160  30.196  24.329  1.00  0.00     0.053 C 
ATOM      4  C   UNL     1      -9.411  28.715  24.657  1.00  0.00     0.016 C 
BRANCH   3   5
ATOM      5  C   UNL     1      -9.719  31.099  25.464  1.00  0.00     0.015 C 
BRANCH   5   6
ATOM      6  C   UNL     1      -8.695  31.981  26.210  1.00  0.00     0.028 C 
BRANCH   6   7
ATOM      7  C   UNL     1      -8.960  33.469  26.314  1.00  0.00    -0.028 C 
ATOM      8  C   UNL     1      -8.276  34.473  25.711  1.00  0.00    -0.070 CG0
ATOM      9  C   UNL     1      -8.584  35.884  26.153  1.00  0.00     0.039 C 
ATOM     10  G   UNL     1      -7.283  34.280  24.574  1.00  0.00     0.000 G0
ENDBRANCH   6   7
ENDBRANCH   5   6
ENDBRANCH   3   5
ENDBRANCH   1   3
BRANCH   1  11
ATOM     11  C   UNL     1      -7.237  31.523  23.044  1.00  0.00     0.087 C 
BRANCH  11  12
ATOM     12  C   UNL     1      -8.299  32.608  22.741  1.00  0.00     0.066 C 
BRANCH  12  13
ATOM     13  C   UNL     1      -7.958  34.005  23.251  1.00  0.00     0.140 C 
ATOM     14  O   UNL     1      -8.175  34.942  22.494  1.00  0.00    -0.299 OA
BRANCH  13  15
ATOM     15  C   UNL     1      -7.258  34.294  24.572  1.00  0.00     0.106 CG0
ATOM     16  G   UNL     1      -8.265  34.455  25.702  1.00  0.00     0.000 G0
ENDBRANCH  13  15
ENDBRANCH  12  13
BRANCH  12  17
ATOM     17  C   UNL     1      -8.717  32.672  21.237  1.00  0.00    -0.006 C 
ATOM     18  C   UNL     1      -7.527  32.668  20.265  1.00  0.00     0.008 C 
ATOM     19  C   UNL     1      -9.706  31.555  20.863  1.00  0.00     0.008 C 
ENDBRANCH  12  17
ENDBRANCH  11  12
ENDBRANCH   1  11
TORSDOF 1
ENDMDL
MODEL 5
REMARK VINA RESULT:    -5.003      1.794      4.144
REMARK INTER + INTRA:          -7.753
REMARK INTER:                  -7.312
REMARK INTRA:                  -0.441
REMARK UNBOUND:                -0.118
REMARK SMILES CC1=CCC[C@H](C)C(=O)C[C@H](C(C)C)C(=O)C1
REMARK SMILES IDX 8 1 9 2 6 3 7 4 5 5 4 6 3 7 2 8 1 9 10 11 11 12 15 13 16 14
REMARK SMILES IDX 17 15 12 17 13 18 14 19
REMARK H PARENT
REMARK Flexibility Score: 70.00
ROOT
ATOM      1  C   UNL     1      -7.913  33.664  25.362  1.00  0.00     0.136 C 
ATOM      2  O   UNL     1      -7.841  34.155  26.480  1.00  0.00    -0.299 OA
ENDROOT
BRANCH   1   3
ATOM      3  C   UNL     1      -8.451  34.499  24.204  1.00  0.00     0.053 C 
ATOM      4  C   UNL     1      -9.111  35.803  24.680  1.00  0.00     0.016 C 
BRANCH   3   5
ATOM      5  C   UNL     1      -7.332  34.810  23.172  1.00  0.00     0.015 C 
BRANCH   5   6
ATOM      6  C   UNL     1      -7.478  34.160  21.779  1.00  0.00     0.028 C 
BRANCH   6   7
ATOM      7  C   UNL     1      -8.719  33.341  21.488  1.00  0.00    -0.028 C 
ATOM      8  C   UNL     1      -8.860  31.995  21.579  1.00  0.00    -0.070 CG0
ATOM      9  C   UNL     1     -10.123  31.391  21.013  1.00  0.00     0.039 C 
ATOM     10  G   UNL     1      -7.873  31.069  22.276  1.00  0.00     0.000 G0
ENDBRANCH   6   7
ENDBRANCH   5   6
ENDBRANCH   3   5
ENDBRANCH   1   3
BRANCH   1  11
ATOM     11  C   UNL     1      -7.488  32.214  25.185  1.00  0.00     0.087 C 
BRANCH  11  12
ATOM     12  C   UNL     1      -8.657  31.257  24.846  1.00  0.00     0.066 C 
BRANCH  12  13
ATOM     13  C   UNL     1      -8.498  30.481  23.541  1.00  0.00     0.140 C 
ATOM     14  O   UNL     1      -8.790  29.292  23.562  1.00  0.00    -0.299 OA
BRANCH  13  15
ATOM     15  C   UNL     1      -7.889  31.052  22.268  1.00  0.00     0.106 CG0
ATOM     16  G   UNL     1      -8.862  31.990  21.569  1.00  0.00     0.000 G0
ENDBRANCH  13  15
ENDBRANCH  12  13
BRANCH  12  17
ATOM     17  C   UNL     1      -9.026  30.282  26.009  1.00  0.00    -0.006 C 
ATOM     18  C   UNL     1      -7.815  29.824  26.838  1.00  0.00     0.008 C 
ATOM     19  C   UNL     1     -10.105  30.867  26.936  1.00  0.00     0.008 C 
ENDBRANCH  12  17
ENDBRANCH  11  12
ENDBRANCH   1  11
TORSDOF 1
ENDMDL
MODEL 6
REMARK VINA RESULT:    -4.986      1.866      3.452
REMARK INTER + INTRA:          -7.728
REMARK INTER:                  -7.390
REMARK INTRA:                  -0.337
REMARK UNBOUND:                -0.118
REMARK SMILES CC1=CCC[C@H](C)C(=O)C[C@H](C(C)C)C(=O)C1
REMARK SMILES IDX 8 1 9 2 6 3 7 4 5 5 4 6 3 7 2 8 1 9 10 11 11 12 15 13 16 14
REMARK SMILES IDX 17 15 12 17 13 18 14 19
REMARK H PARENT
REMARK Flexibility Score: 70.00
ROOT
ATOM      1  C   UNL     1      -9.118  32.329  21.810  1.00  0.00     0.136 C 
ATOM      2  O   UNL     1      -9.945  32.386  20.911  1.00  0.00    -0.299 OA
ENDROOT
BRANCH   1   3
ATOM      3  C   UNL     1      -7.819  33.121  21.692  1.00  0.00     0.053 C 
ATOM      4  C   UNL     1      -7.333  33.235  20.238  1.00  0.00     0.016 C 
BRANCH   3   5
ATOM      5  C   UNL     1      -7.968  34.534  22.320  1.00  0.00     0.015 C 
BRANCH   5   6
ATOM      6  C   UNL     1      -8.891  34.647  23.552  1.00  0.00     0.028 C 
BRANCH   6   7
ATOM      7  C   UNL     1      -8.260  34.702  24.929  1.00  0.00    -0.028 C 
ATOM      8  C   UNL     1      -8.466  33.852  25.965  1.00  0.00    -0.070 CG0
ATOM      9  C   UNL     1      -7.901  34.249  27.308  1.00  0.00     0.039 C 
ATOM     10  G   UNL     1      -9.155  32.499  25.849  1.00  0.00     0.000 G0
ENDBRANCH   6   7
ENDBRANCH   5   6
ENDBRANCH   3   5
ENDBRANCH   1   3
BRANCH   1  11
ATOM     11  C   UNL     1      -9.412  31.430  23.001  1.00  0.00     0.087 C 
BRANCH  11  12
ATOM     12  C   UNL     1      -8.156  31.048  23.823  1.00  0.00     0.066 C 
BRANCH  12  13
ATOM     13  C   UNL     1      -8.204  31.444  25.296  1.00  0.00     0.140 C 
ATOM     14  O   UNL     1      -7.503  30.802  26.067  1.00  0.00    -0.299 OA
BRANCH  13  15
ATOM     15  C   UNL     1      -9.147  32.489  25.877  1.00  0.00     0.106 CG0
ATOM     16  G   UNL     1      -8.469  33.848  25.969  1.00  0.00     0.000 G0
ENDBRANCH  13  15
ENDBRANCH  12  13
BRANCH  12  17
ATOM     17  C   UNL     1      -7.750  29.546  23.683  1.00  0.00    -0.006 C 
ATOM     18  C   UNL     1      -8.734  28.716  22.845  1.00  0.00     0.008 C 
ATOM     19  C   UNL     1      -6.323  29.381  23.135  1.00  0.00     0.008 C 
ENDBRANCH  12  17
ENDBRANCH  11  12
ENDBRANCH   1  11
TORSDOF 1
ENDMDL
MODEL 7
REMARK VINA RESULT:    -4.985      1.780      4.561
REMARK INTER + INTRA:          -7.726
REMARK INTER:                  -7.574
REMARK INTRA:                  -0.152
REMARK UNBOUND:                -0.118
REMARK SMILES CC1=CCC[C@H](C)C(=O)C[C@H](C(C)C)C(=O)C1
REMARK SMILES IDX 8 1 9 2 6 3 7 4 5 5 4 6 3 7 2 8 1 9 10 11 11 12 15 13 16 14
REMARK SMILES IDX 17 15 12 17 13 18 14 19
REMARK H PARENT
REMARK Flexibility Score: 70.00
ROOT
ATOM      1  C   UNL     1      -8.004  30.984  22.669  1.00  0.00     0.136 C 
ATOM      2  O   UNL     1      -6.824  30.772  22.911  1.00  0.00    -0.299 OA
ENDROOT
BRANCH   1   3
ATOM      3  C   UNL     1      -8.396  31.676  21.367  1.00  0.00     0.053 C 
ATOM      4  C   UNL     1      -9.900  31.982  21.296  1.00  0.00     0.016 C 
BRANCH   3   5
ATOM      5  C   UNL     1      -7.573  32.977  21.157  1.00  0.00     0.015 C 
BRANCH   5   6
ATOM      6  C   UNL     1      -8.100  34.247  21.861  1.00  0.00     0.028 C 
BRANCH   6   7
ATOM      7  C   UNL     1      -7.566  34.586  23.237  1.00  0.00    -0.028 C 
ATOM      8  C   UNL     1      -8.180  34.394  24.431  1.00  0.00    -0.070 CG0
ATOM      9  C   UNL     1      -7.545  35.027  25.646  1.00  0.00     0.039 C 
ATOM     10  G   UNL     1      -9.413  33.526  24.638  1.00  0.00     0.000 G0
ENDBRANCH   6   7
ENDBRANCH   5   6
ENDBRANCH   3   5
ENDBRANCH   1   3
BRANCH   1  11
ATOM     11  C   UNL     1      -9.036  30.573  23.709  1.00  0.00     0.087 C 
BRANCH  11  12
ATOM     12  C   UNL     1      -8.653  30.963  25.158  1.00  0.00     0.066 C 
BRANCH  12  13
ATOM     13  C   UNL     1      -9.110  32.352  25.595  1.00  0.00     0.140 C 
ATOM     14  O   UNL     1      -9.338  32.513  26.786  1.00  0.00    -0.299 OA
BRANCH  13  15
ATOM     15  C   UNL     1      -9.416  33.498  24.640  1.00  0.00     0.106 CG0
ATOM     16  G   UNL     1      -8.198  34.391  24.448  1.00  0.00     0.000 G0
ENDBRANCH  13  15
ENDBRANCH  12  13
BRANCH  12  17
ATOM     17  C   UNL     1      -9.072  29.900  26.223  1.00  0.00    -0.006 C 
ATOM     18  C   UNL     1      -9.566  28.578  25.615  1.00  0.00     0.008 C 
ATOM     19  C   UNL     1      -7.949  29.624  27.238  1.00  0.00     0.008 C 
ENDBRANCH  12  17
ENDBRANCH  11  12
ENDBRANCH   1  11
TORSDOF 1
ENDMDL
MODEL 8
REMARK VINA RESULT:    -4.871      2.132      4.218
REMARK INTER + INTRA:          -7.552
REMARK INTER:                  -7.190
REMARK INTRA:                  -0.362
REMARK UNBOUND:                -0.118
REMARK SMILES CC1=CCC[C@H](C)C(=O)C[C@H](C(C)C)C(=O)C1
REMARK SMILES IDX 8 1 9 2 6 3 7 4 5 5 4 6 3 7 2 8 1 9 10 11 11 12 15 13 16 14
REMARK SMILES IDX 17 15 12 17 13 18 14 19
REMARK H PARENT
REMARK Flexibility Score: 70.00
ROOT
ATOM      1  C   UNL     1      -7.981  30.806  26.335  1.00  0.00     0.136 C 
ATOM      2  O   UNL     1      -7.126  30.736  27.207  1.00  0.00    -0.299 OA
ENDROOT
BRANCH   1   3
ATOM      3  C   UNL     1      -9.283  31.551  26.612  1.00  0.00     0.053 C 
ATOM      4  C   UNL     1      -9.860  31.225  27.999  1.00  0.00     0.016 C 
BRANCH   3   5
ATOM      5  C   UNL     1      -9.092  33.086  26.458  1.00  0.00     0.015 C 
BRANCH   5   6
ATOM      6  C   UNL     1      -7.907  33.549  25.584  1.00  0.00     0.028 C 
BRANCH   6   7
ATOM      7  C   UNL     1      -8.200  34.148  24.224  1.00  0.00    -0.028 C 
ATOM      8  C   UNL     1      -7.896  33.626  23.010  1.00  0.00    -0.070 CG0
ATOM      9  C   UNL     1      -8.082  34.520  21.806  1.00  0.00     0.039 C 
ATOM     10  G   UNL     1      -7.457  32.188  22.772  1.00  0.00     0.000 G0
ENDBRANCH   6   7
ENDBRANCH   5   6
ENDBRANCH   3   5
ENDBRANCH   1   3
BRANCH   1  11
ATOM     11  C   UNL     1      -7.715  30.107  25.010  1.00  0.00     0.087 C 
BRANCH  11  12
ATOM     12  C   UNL     1      -8.877  30.231  23.993  1.00  0.00     0.066 C 
BRANCH  12  13
ATOM     13  C   UNL     1      -8.628  31.203  22.844  1.00  0.00     0.140 C 
ATOM     14  O   UNL     1      -9.367  31.117  21.873  1.00  0.00    -0.299 OA
BRANCH  13  15
ATOM     15  C   UNL     1      -7.457  32.175  22.775  1.00  0.00     0.106 CG0
ATOM     16  G   UNL     1      -7.921  33.607  22.999  1.00  0.00     0.000 G0
ENDBRANCH  13  15
ENDBRANCH  12  13
BRANCH  12  17
ATOM     17  C   UNL     1      -9.370  28.856  23.437  1.00  0.00    -0.006 C 
ATOM     18  C   UNL     1      -8.264  28.031  22.761  1.00  0.00     0.008 C 
ATOM     19  C   UNL     1     -10.070  28.013  24.516  1.00  0.00     0.008 C 
ENDBRANCH  12  17
ENDBRANCH  11  12
ENDBRANCH   1  11
TORSDOF 1
ENDMDL
MODEL 9
REMARK VINA RESULT:    -4.850      1.752      4.065
REMARK INTER + INTRA:          -7.520
REMARK INTER:                  -7.268
REMARK INTRA:                  -0.252
REMARK UNBOUND:                -0.118
REMARK SMILES CC1=CCC[C@H](C)C(=O)C[C@H](C(C)C)C(=O)C1
REMARK SMILES IDX 8 1 9 2 6 3 7 4 5 5 4 6 3 7 2 8 1 9 10 11 11 12 15 13 16 14
REMARK SMILES IDX 17 15 12 17 13 18 14 19
REMARK H PARENT
REMARK Flexibility Score: 70.00
ROOT
ATOM      1  C   UNL     1      -8.756  32.524  22.698  1.00  0.00     0.136 C 
ATOM      2  O   UNL     1      -9.351  33.454  22.171  1.00  0.00    -0.299 OA
ENDROOT
BRANCH   1   3
ATOM      3  C   UNL     1      -9.039  31.094  22.246  1.00  0.00     0.053 C 
ATOM      4  C   UNL     1      -9.717  31.040  20.868  1.00  0.00     0.016 C 
BRANCH   3   5
ATOM      5  C   UNL     1      -7.739  30.243  22.238  1.00  0.00     0.015 C 
BRANCH   5   6
ATOM      6  C   UNL     1      -7.483  29.364  23.481  1.00  0.00     0.028 C 
BRANCH   6   7
ATOM      7  C   UNL     1      -8.583  29.230  24.513  1.00  0.00    -0.028 C 
ATOM      8  C   UNL     1      -8.641  29.808  25.739  1.00  0.00    -0.070 CG0
ATOM      9  C   UNL     1      -9.727  29.337  26.676  1.00  0.00     0.039 C 
ATOM     10  G   UNL     1      -7.740  30.945  26.201  1.00  0.00     0.000 G0
ENDBRANCH   6   7
ENDBRANCH   5   6
ENDBRANCH   3   5
ENDBRANCH   1   3
BRANCH   1  11
ATOM     11  C   UNL     1      -7.776  32.840  23.817  1.00  0.00     0.087 C 
BRANCH  11  12
ATOM     12  C   UNL     1      -8.454  33.310  25.128  1.00  0.00     0.066 C 
BRANCH  12  13
ATOM     13  C   UNL     1      -8.471  32.278  26.252  1.00  0.00     0.140 C 
ATOM     14  O   UNL     1      -9.033  32.596  27.291  1.00  0.00    -0.299 OA
BRANCH  13  15
ATOM     15  C   UNL     1      -7.737  30.944  26.208  1.00  0.00     0.106 CG0
ATOM     16  G   UNL     1      -8.657  29.828  25.736  1.00  0.00     0.000 G0
ENDBRANCH  13  15
ENDBRANCH  12  13
BRANCH  12  17
ATOM     17  C   UNL     1      -7.908  34.674  25.660  1.00  0.00    -0.006 C 
ATOM     18  C   UNL     1      -6.684  35.192  24.889  1.00  0.00     0.008 C 
ATOM     19  C   UNL     1      -8.999  35.757  25.704  1.00  0.00     0.008 C 
ENDBRANCH  12  17
ENDBRANCH  11  12
ENDBRANCH   1  11
TORSDOF 1
ENDMDL
