MODEL 1
REMARK VINA RESULT:    34.386      0.000      0.000
REMARK INTER + INTRA:          42.804
REMARK INTER:                  42.427
REMARK INTRA:                   0.377
REMARK UNBOUND:                 0.377
REMARK SMILES O=c1c(O)c(-c2cc(O)c(O)c(O)c2)oc2cc(O)cc(O)c12
REMARK SMILES IDX 5 1 3 2 2 3 1 4 23 5 21 6 20 7 18 8 17 9 16 10 15 11 6 12
REMARK SMILES IDX 7 13 8 14 14 15 10 16 12 17 9 18 11 20 13 22 4 24 22 26
REMARK SMILES IDX 19 28
REMARK H PARENT 9 19 11 21 13 23 4 25 22 27 19 29
REMARK Flexibility Score: inf
ROOT
ATOM      1  C   UNL     1      11.654  12.869  28.902  1.00  0.00     0.180 A 
ATOM      2  C   UNL     1      13.019  13.201  28.885  1.00  0.00     0.208 A 
ATOM      3  C   UNL     1      13.509  14.018  27.853  1.00  0.00     0.238 A 
ATOM      4  O   UNL     1      14.742  14.267  27.812  1.00  0.00    -0.285 OA
ATOM      5  C   UNL     1      12.624  14.507  26.861  1.00  0.00     0.111 A 
ATOM      6  C   UNL     1      13.003  15.374  25.794  1.00  0.00     0.134 A 
ATOM      7  C   UNL     1      12.071  15.690  24.796  1.00  0.00     0.093 A 
ATOM      8  C   UNL     1      10.757  15.221  24.864  1.00  0.00     0.123 A 
ATOM      9  C   UNL     1      10.362  14.422  25.934  1.00  0.00     0.094 A 
ATOM     10  C   UNL     1      11.278  14.061  26.925  1.00  0.00     0.146 A 
ATOM     11  O   UNL     1      10.862  13.289  27.922  1.00  0.00    -0.452 OA
ENDROOT
BRANCH   1  12
ATOM     12  C   UNL     1      11.060  12.033  29.970  1.00  0.00     0.029 A 
ATOM     13  C   UNL     1       9.758  11.540  29.816  1.00  0.00     0.062 A 
ATOM     14  C   UNL     1       9.165  10.764  30.817  1.00  0.00     0.162 A 
ATOM     15  C   UNL     1      11.752  11.770  31.162  1.00  0.00     0.062 A 
ATOM     16  C   UNL     1       9.867  10.480  32.003  1.00  0.00     0.200 A 
ATOM     17  C   UNL     1      11.173  10.998  32.176  1.00  0.00     0.162 A 
BRANCH  14  18
ATOM     18  O   UNL     1       7.872  10.282  30.612  1.00  0.00    -0.504 OA
ATOM     19  H   UNL     1       7.528   9.446  31.069  1.00  0.00     0.293 HD
ENDBRANCH  14  18
BRANCH  16  20
ATOM     20  O   UNL     1       9.242   9.694  32.974  1.00  0.00    -0.502 OA
ATOM     21  H   UNL     1       9.467   9.721  33.957  1.00  0.00     0.293 HD
ENDBRANCH  16  20
BRANCH  17  22
ATOM     22  O   UNL     1      11.925  10.779  33.333  1.00  0.00    -0.504 OA
ATOM     23  H   UNL     1      12.466   9.945  33.507  1.00  0.00     0.293 HD
ENDBRANCH  17  22
ENDBRANCH   1  12
BRANCH   2  24
ATOM     24  O   UNL     1      13.879  12.690  29.860  1.00  0.00    -0.502 OA
ATOM     25  H   UNL     1      13.633  12.662  30.843  1.00  0.00     0.293 HD
ENDBRANCH   2  24
BRANCH   6  26
ATOM     26  O   UNL     1      14.262  15.972  25.683  1.00  0.00    -0.507 OA
ATOM     27  H   UNL     1      14.454  16.944  25.866  1.00  0.00     0.293 HD
ENDBRANCH   6  26
BRANCH   8  28
ATOM     28  O   UNL     1       9.834  15.553  23.875  1.00  0.00    -0.508 OA
ATOM     29  H   UNL     1       8.866  15.753  24.098  1.00  0.00     0.293 HD
ENDBRANCH   8  28
TORSDOF 7
ENDMDL
MODEL 2
REMARK VINA RESULT:    35.247      0.061      1.767
REMARK INTER + INTRA:          43.866
REMARK INTER:                  43.395
REMARK INTRA:                   0.472
REMARK UNBOUND:                 0.377
REMARK SMILES O=c1c(O)c(-c2cc(O)c(O)c(O)c2)oc2cc(O)cc(O)c12
REMARK SMILES IDX 5 1 3 2 2 3 1 4 23 5 21 6 20 7 18 8 17 9 16 10 15 11 6 12
REMARK SMILES IDX 7 13 8 14 14 15 10 16 12 17 9 18 11 20 13 22 4 24 22 26
REMARK SMILES IDX 19 28
REMARK H PARENT 9 19 11 21 13 23 4 25 22 27 19 29
REMARK Flexibility Score: inf
ROOT
ATOM      1  C   UNL     1      11.627  12.904  28.916  1.00  0.00     0.180 A 
ATOM      2  C   UNL     1      13.002  13.199  28.896  1.00  0.00     0.208 A 
ATOM      3  C   UNL     1      13.512  13.997  27.859  1.00  0.00     0.238 A 
ATOM      4  O   UNL     1      14.752  14.212  27.817  1.00  0.00    -0.285 OA
ATOM      5  C   UNL     1      12.640  14.504  26.866  1.00  0.00     0.111 A 
ATOM      6  C   UNL     1      13.042  15.354  25.793  1.00  0.00     0.134 A 
ATOM      7  C   UNL     1      12.118  15.689  24.794  1.00  0.00     0.093 A 
ATOM      8  C   UNL     1      10.791  15.257  24.865  1.00  0.00     0.123 A 
ATOM      9  C   UNL     1      10.376  14.475  25.940  1.00  0.00     0.094 A 
ATOM     10  C   UNL     1      11.282  14.095  26.933  1.00  0.00     0.146 A 
ATOM     11  O   UNL     1      10.847  13.340  27.934  1.00  0.00    -0.452 OA
ENDROOT
BRANCH   1  12
ATOM     12  C   UNL     1      11.012  12.091  29.990  1.00  0.00     0.029 A 
ATOM     13  C   UNL     1      11.748  11.802  31.146  1.00  0.00     0.062 A 
ATOM     14  C   UNL     1      11.199  11.019  32.166  1.00  0.00     0.162 A 
ATOM     15  C   UNL     1       9.723  11.552  29.850  1.00  0.00     0.062 A 
ATOM     16  C   UNL     1       9.898  10.499  32.037  1.00  0.00     0.200 A 
ATOM     17  C   UNL     1       9.158  10.764  30.859  1.00  0.00     0.162 A 
BRANCH  14  18
ATOM     18  O   UNL     1      11.965  10.772  33.306  1.00  0.00    -0.504 OA
ATOM     19  H   UNL     1      12.555   9.954  33.393  1.00  0.00     0.293 HD
ENDBRANCH  14  18
BRANCH  16  20
ATOM     20  O   UNL     1       9.383   9.729  33.083  1.00  0.00    -0.502 OA
ATOM     21  H   UNL     1       9.506   9.946  34.061  1.00  0.00     0.293 HD
ENDBRANCH  16  20
BRANCH  17  22
ATOM     22  O   UNL     1       7.871  10.264  30.647  1.00  0.00    -0.504 OA
ATOM     23  H   UNL     1       7.378  10.325  29.769  1.00  0.00     0.293 HD
ENDBRANCH  17  22
ENDBRANCH   1  12
BRANCH   2  24
ATOM     24  O   UNL     1      13.848  12.671  29.874  1.00  0.00    -0.502 OA
ATOM     25  H   UNL     1      14.576  11.999  29.659  1.00  0.00     0.293 HD
ENDBRANCH   2  24
BRANCH   6  26
ATOM     26  O   UNL     1      14.316  15.917  25.678  1.00  0.00    -0.507 OA
ATOM     27  H   UNL     1      14.528  16.892  25.822  1.00  0.00     0.293 HD
ENDBRANCH   6  26
BRANCH   8  28
ATOM     28  O   UNL     1       9.877  15.607  23.875  1.00  0.00    -0.508 OA
ATOM     29  H   UNL     1       9.957  16.476  23.362  1.00  0.00     0.293 HD
ENDBRANCH   8  28
TORSDOF 7
ENDMDL
MODEL 3
REMARK VINA RESULT:    35.868      1.126      2.186
REMARK INTER + INTRA:          44.632
REMARK INTER:                  44.337
REMARK INTRA:                   0.296
REMARK UNBOUND:                 0.377
REMARK SMILES O=c1c(O)c(-c2cc(O)c(O)c(O)c2)oc2cc(O)cc(O)c12
REMARK SMILES IDX 5 1 3 2 2 3 1 4 23 5 21 6 20 7 18 8 17 9 16 10 15 11 6 12
REMARK SMILES IDX 7 13 8 14 14 15 10 16 12 17 9 18 11 20 13 22 4 24 22 26
REMARK SMILES IDX 19 28
REMARK H PARENT 9 19 11 21 13 23 4 25 22 27 19 29
REMARK Flexibility Score: inf
ROOT
ATOM      1  C   UNL     1      11.019  12.268  29.776  1.00  0.00     0.180 A 
ATOM      2  C   UNL     1      12.375  12.551  30.013  1.00  0.00     0.208 A 
ATOM      3  C   UNL     1      13.091  13.303  29.067  1.00  0.00     0.238 A 
ATOM      4  O   UNL     1      14.318  13.506  29.260  1.00  0.00    -0.285 OA
ATOM      5  C   UNL     1      12.437  13.777  27.904  1.00  0.00     0.111 A 
ATOM      6  C   UNL     1      13.054  14.581  26.900  1.00  0.00     0.134 A 
ATOM      7  C   UNL     1      12.348  14.883  25.727  1.00  0.00     0.093 A 
ATOM      8  C   UNL     1      11.026  14.464  25.554  1.00  0.00     0.123 A 
ATOM      9  C   UNL     1      10.397  13.729  26.555  1.00  0.00     0.094 A 
ATOM     10  C   UNL     1      11.086  13.381  27.720  1.00  0.00     0.146 A 
ATOM     11  O   UNL     1      10.452  12.671  28.644  1.00  0.00    -0.452 OA
ENDROOT
BRANCH   1  12
ATOM     12  C   UNL     1      10.193  11.503  30.738  1.00  0.00     0.029 A 
ATOM     13  C   UNL     1      10.511  11.540  32.101  1.00  0.00     0.062 A 
ATOM     14  C   UNL     1       9.760  10.811  33.029  1.00  0.00     0.162 A 
ATOM     15  C   UNL     1       9.131  10.693  30.305  1.00  0.00     0.062 A 
ATOM     16  C   UNL     1       8.680  10.017  32.600  1.00  0.00     0.200 A 
ATOM     17  C   UNL     1       8.371   9.955  31.219  1.00  0.00     0.162 A 
BRANCH  14  18
ATOM     18  O   UNL     1      10.104  10.891  34.379  1.00  0.00    -0.504 OA
ATOM     19  H   UNL     1       9.456  10.645  35.117  1.00  0.00     0.293 HD
ENDBRANCH  14  18
BRANCH  16  20
ATOM     20  O   UNL     1       7.950   9.312  33.559  1.00  0.00    -0.502 OA
ATOM     21  H   UNL     1       6.996   9.008  33.437  1.00  0.00     0.293 HD
ENDBRANCH  16  20
BRANCH  17  22
ATOM     22  O   UNL     1       7.330   9.173  30.714  1.00  0.00    -0.504 OA
ATOM     23  H   UNL     1       6.467   8.993  31.205  1.00  0.00     0.293 HD
ENDBRANCH  17  22
ENDBRANCH   1  12
BRANCH   2  24
ATOM     24  O   UNL     1      13.007  12.055  31.157  1.00  0.00    -0.502 OA
ATOM     25  H   UNL     1      13.913  12.387  31.466  1.00  0.00     0.293 HD
ENDBRANCH   2  24
BRANCH   6  26
ATOM     26  O   UNL     1      14.335  15.128  27.014  1.00  0.00    -0.507 OA
ATOM     27  H   UNL     1      14.758  15.422  27.881  1.00  0.00     0.293 HD
ENDBRANCH   6  26
BRANCH   8  28
ATOM     28  O   UNL     1      10.328  14.782  24.392  1.00  0.00    -0.508 OA
ATOM     29  H   UNL     1      10.333  14.170  23.585  1.00  0.00     0.293 HD
ENDBRANCH   8  28
TORSDOF 7
ENDMDL
