MODEL 1
REMARK VINA RESULT:    -1.929      0.000      0.000
REMARK INTER + INTRA:          -3.391
REMARK INTER:                  -2.663
REMARK INTRA:                  -0.728
REMARK UNBOUND:                -0.728
REMARK SMILES O=C([O-])[C@@H]1O[C@@H](Oc2cc3oc(-c4ccccc4)cc(=O)c3c(O)c2O)[C@H](O)[C@@H](O)[C@H]1O
REMARK SMILES IDX 7 1 6 2 4 3 31 4 5 5 29 6 27 7 2 8 1 9 3 10 32 11 30 13
REMARK SMILES IDX 28 15 8 17 25 18 9 19 23 20 10 21 22 22 11 23 20 24 12 25
REMARK SMILES IDX 19 26 21 27 26 28 24 30 13 32 14 33 18 34 15 35 17 36 16 37
REMARK H PARENT 32 12 30 14 28 16 26 29 24 31
REMARK Flexibility Score: inf
ROOT
ATOM      1  O   UNL     1      10.121  17.451 166.001  1.00  0.00    -0.458 OA
ENDROOT
BRANCH   1   2
ATOM      2  C   UNL     1       8.818  17.528 166.609  1.00  0.00     0.339 C 
ATOM      3  C   UNL     1       7.312  15.880 167.483  1.00  0.00     0.199 C 
ATOM      4  C   UNL     1       6.253  17.004 167.510  1.00  0.00     0.180 C 
ATOM      5  O   UNL     1       8.631  16.399 167.481  1.00  0.00    -0.328 OA
ATOM      6  C   UNL     1       6.297  17.772 166.164  1.00  0.00     0.181 C 
ATOM      7  C   UNL     1       7.726  17.739 165.528  1.00  0.00     0.214 C 
BRANCH   3   8
ATOM      8  C   UNL     1       7.144  14.988 168.686  1.00  0.00     0.073 C 
ATOM      9  O   UNL     1       6.840  15.465 169.807  1.00  0.00    -0.547 OA
ATOM     10  O   UNL     1       6.810  15.549 169.919  1.00  0.00    -0.547 OA
ENDBRANCH   3   8
BRANCH   4  11
ATOM     11  O   UNL     1       4.964  16.488 167.772  1.00  0.00    -0.387 OA
ATOM     12  H   UNL     1       4.812  16.576 168.755  1.00  0.00     0.211 HD
ENDBRANCH   4  11
BRANCH   6  13
ATOM     13  O   UNL     1       5.352  17.256 165.261  1.00  0.00    -0.387 OA
ATOM     14  H   UNL     1       4.556  17.840 165.288  1.00  0.00     0.211 HD
ENDBRANCH   6  13
BRANCH   7  15
ATOM     15  O   UNL     1       7.961  18.922 164.806  1.00  0.00    -0.384 OA
ATOM     16  H   UNL     1       8.919  18.913 164.521  1.00  0.00     0.211 HD
ENDBRANCH   7  15
ENDBRANCH   1   2
BRANCH   1  17
ATOM     17  C   UNL     1      10.374  16.895 164.743  1.00  0.00     0.172 A 
ATOM     18  C   UNL     1      10.598  17.756 163.666  1.00  0.00     0.201 A 
ATOM     19  C   UNL     1      10.404  15.503 164.540  1.00  0.00     0.098 A 
ATOM     20  C   UNL     1      10.929  17.255 162.396  1.00  0.00     0.176 A 
ATOM     21  C   UNL     1      10.636  14.986 163.257  1.00  0.00     0.146 A 
ATOM     22  C   UNL     1      10.971  15.854 162.184  1.00  0.00     0.111 A 
ATOM     23  O   UNL     1      10.463  13.679 163.056  1.00  0.00    -0.456 OA
ATOM     24  C   UNL     1      11.166  15.268 160.916  1.00  0.00     0.197 A 
ATOM     25  C   UNL     1      10.519  13.112 161.845  1.00  0.00     0.138 A 
ATOM     26  C   UNL     1      10.941  13.892 160.760  1.00  0.00     0.100 A 
ATOM     27  O   UNL     1      11.425  15.978 159.891  1.00  0.00    -0.289 OA
BRANCH  18  28
ATOM     28  O   UNL     1      10.486  19.125 163.866  1.00  0.00    -0.502 OA
ATOM     29  H   UNL     1       9.622  19.594 164.096  1.00  0.00     0.293 HD
ENDBRANCH  18  28
BRANCH  20  30
ATOM     30  O   UNL     1      11.126  18.149 161.343  1.00  0.00    -0.504 OA
ATOM     31  H   UNL     1      10.355  18.470 160.780  1.00  0.00     0.293 HD
ENDBRANCH  20  30
BRANCH  25  32
ATOM     32  C   UNL     1       9.864  11.797 161.626  1.00  0.00     0.017 A 
ATOM     33  C   UNL     1       9.399  11.006 162.687  1.00  0.00     0.012 A 
ATOM     34  C   UNL     1      10.142  11.179 160.379  1.00  0.00     0.012 A 
ATOM     35  C   UNL     1       9.440   9.589 162.550  1.00  0.00     0.001 A 
ATOM     36  C   UNL     1      10.197   9.799 160.265  1.00  0.00     0.001 A 
ATOM     37  C   UNL     1       9.857   8.987 161.356  1.00  0.00     0.000 A 
ENDBRANCH  25  32
ENDBRANCH   1  17
TORSDOF 9
ENDMDL
MODEL 2
REMARK VINA RESULT:    -1.563      3.379      4.755
REMARK INTER + INTRA:          -2.886
REMARK INTER:                  -2.941
REMARK INTRA:                   0.055
REMARK UNBOUND:                -0.728
REMARK SMILES O=C([O-])[C@@H]1O[C@@H](Oc2cc3oc(-c4ccccc4)cc(=O)c3c(O)c2O)[C@H](O)[C@@H](O)[C@H]1O
REMARK SMILES IDX 7 1 6 2 4 3 31 4 5 5 29 6 27 7 2 8 1 9 3 10 32 11 30 13
REMARK SMILES IDX 28 15 8 17 25 18 9 19 23 20 10 21 22 22 11 23 20 24 12 25
REMARK SMILES IDX 19 26 21 27 26 28 24 30 13 32 14 33 18 34 15 35 17 36 16 37
REMARK H PARENT 32 12 30 14 28 16 26 29 24 31
REMARK Flexibility Score: inf
ROOT
ATOM      1  O   UNL     1      10.179  16.786 165.960  1.00  0.00    -0.458 OA
ENDROOT
BRANCH   1   2
ATOM      2  C   UNL     1       8.771  16.602 166.197  1.00  0.00     0.339 C 
ATOM      3  C   UNL     1       6.971  18.118 166.661  1.00  0.00     0.199 C 
ATOM      4  C   UNL     1       6.143  16.867 167.027  1.00  0.00     0.180 C 
ATOM      5  O   UNL     1       8.063  17.797 165.817  1.00  0.00    -0.328 OA
ATOM      6  C   UNL     1       6.995  15.944 167.936  1.00  0.00     0.181 C 
ATOM      7  C   UNL     1       8.523  16.098 167.642  1.00  0.00     0.214 C 
BRANCH   3   8
ATOM      8  C   UNL     1       6.096  19.125 165.961  1.00  0.00     0.073 C 
ATOM      9  O   UNL     1       5.099  18.761 165.291  1.00  0.00    -0.547 OA
ATOM     10  O   UNL     1       4.998  18.688 165.220  1.00  0.00    -0.547 OA
ENDBRANCH   3   8
BRANCH   4  11
ATOM     11  O   UNL     1       4.923  17.222 167.645  1.00  0.00    -0.387 OA
ATOM     12  H   UNL     1       4.248  17.324 166.916  1.00  0.00     0.211 HD
ENDBRANCH   4  11
BRANCH   6  13
ATOM     13  O   UNL     1       6.733  16.197 169.293  1.00  0.00    -0.387 OA
ATOM     14  H   UNL     1       5.779  16.437 169.379  1.00  0.00     0.211 HD
ENDBRANCH   6  13
BRANCH   7  15
ATOM     15  O   UNL     1       9.183  14.877 167.864  1.00  0.00    -0.384 OA
ATOM     16  H   UNL     1       8.664  14.167 167.389  1.00  0.00     0.211 HD
ENDBRANCH   7  15
ENDBRANCH   1   2
BRANCH   1  17
ATOM     17  C   UNL     1      10.853  16.340 164.819  1.00  0.00     0.172 A 
ATOM     18  C   UNL     1      10.101  15.860 163.744  1.00  0.00     0.201 A 
ATOM     19  C   UNL     1      12.258  16.359 164.733  1.00  0.00     0.098 A 
ATOM     20  C   UNL     1      10.720  15.467 162.547  1.00  0.00     0.176 A 
ATOM     21  C   UNL     1      12.896  15.878 163.581  1.00  0.00     0.146 A 
ATOM     22  C   UNL     1      12.134  15.492 162.446  1.00  0.00     0.111 A 
ATOM     23  O   UNL     1      14.221  15.725 163.604  1.00  0.00    -0.456 OA
ATOM     24  C   UNL     1      12.840  14.994 161.332  1.00  0.00     0.197 A 
ATOM     25  C   UNL     1      14.906  15.141 162.613  1.00  0.00     0.138 A 
ATOM     26  C   UNL     1      14.231  14.828 161.426  1.00  0.00     0.100 A 
ATOM     27  O   UNL     1      12.232  14.584 160.292  1.00  0.00    -0.289 OA
BRANCH  18  28
ATOM     28  O   UNL     1       8.722  15.773 163.876  1.00  0.00    -0.502 OA
ATOM     29  H   UNL     1       8.112  15.362 163.184  1.00  0.00     0.293 HD
ENDBRANCH  18  28
BRANCH  20  30
ATOM     30  O   UNL     1       9.933  14.976 161.504  1.00  0.00    -0.504 OA
ATOM     31  H   UNL     1      10.032  14.028 161.177  1.00  0.00     0.293 HD
ENDBRANCH  20  30
BRANCH  25  32
ATOM     32  C   UNL     1      16.253  14.580 162.893  1.00  0.00     0.017 A 
ATOM     33  C   UNL     1      17.432  15.260 162.558  1.00  0.00     0.012 A 
ATOM     34  C   UNL     1      16.298  13.173 163.075  1.00  0.00     0.012 A 
ATOM     35  C   UNL     1      18.578  14.498 162.189  1.00  0.00     0.001 A 
ATOM     36  C   UNL     1      17.413  12.443 162.695  1.00  0.00     0.001 A 
ATOM     37  C   UNL     1      18.563  13.098 162.235  1.00  0.00     0.000 A 
ENDBRANCH  25  32
ENDBRANCH   1  17
TORSDOF 9
ENDMDL
MODEL 3
REMARK VINA RESULT:    -0.782      2.199      3.832
REMARK INTER + INTRA:          -1.807
REMARK INTER:                  -3.290
REMARK INTRA:                   1.483
REMARK UNBOUND:                -0.728
REMARK SMILES O=C([O-])[C@@H]1O[C@@H](Oc2cc3oc(-c4ccccc4)cc(=O)c3c(O)c2O)[C@H](O)[C@@H](O)[C@H]1O
REMARK SMILES IDX 7 1 6 2 4 3 31 4 5 5 29 6 27 7 2 8 1 9 3 10 32 11 30 13
REMARK SMILES IDX 28 15 8 17 25 18 9 19 23 20 10 21 22 22 11 23 20 24 12 25
REMARK SMILES IDX 19 26 21 27 26 28 24 30 13 32 14 33 18 34 15 35 17 36 16 37
REMARK H PARENT 32 12 30 14 28 16 26 29 24 31
REMARK Flexibility Score: inf
ROOT
ATOM      1  O   UNL     1       9.704  17.859 165.745  1.00  0.00    -0.458 OA
ENDROOT
BRANCH   1   2
ATOM      2  C   UNL     1       8.471  17.796 166.486  1.00  0.00     0.339 C 
ATOM      3  C   UNL     1       7.233  15.991 167.467  1.00  0.00     0.199 C 
ATOM      4  C   UNL     1       6.079  17.003 167.633  1.00  0.00     0.180 C 
ATOM      5  O   UNL     1       8.488  16.640 167.344  1.00  0.00    -0.328 OA
ATOM      6  C   UNL     1       5.905  17.793 166.310  1.00  0.00     0.181 C 
ATOM      7  C   UNL     1       7.255  17.913 165.529  1.00  0.00     0.214 C 
BRANCH   3   8
ATOM      8  C   UNL     1       7.281  15.068 168.658  1.00  0.00     0.073 C 
ATOM      9  O   UNL     1       6.785  15.408 169.759  1.00  0.00    -0.547 OA
ATOM     10  O   UNL     1       6.725  15.477 169.870  1.00  0.00    -0.547 OA
ENDBRANCH   3   8
BRANCH   4  11
ATOM     11  O   UNL     1       4.881  16.356 168.012  1.00  0.00    -0.387 OA
ATOM     12  H   UNL     1       4.234  16.483 167.261  1.00  0.00     0.211 HD
ENDBRANCH   4  11
BRANCH   6  13
ATOM     13  O   UNL     1       4.926  17.199 165.496  1.00  0.00    -0.387 OA
ATOM     14  H   UNL     1       5.344  16.442 165.019  1.00  0.00     0.211 HD
ENDBRANCH   6  13
BRANCH   7  15
ATOM     15  O   UNL     1       7.296  19.125 164.819  1.00  0.00    -0.384 OA
ATOM     16  H   UNL     1       6.407  19.569 164.934  1.00  0.00     0.211 HD
ENDBRANCH   7  15
ENDBRANCH   1   2
BRANCH   1  17
ATOM     17  C   UNL     1      10.304  16.765 165.115  1.00  0.00     0.172 A 
ATOM     18  C   UNL     1      10.533  15.607 165.863  1.00  0.00     0.201 A 
ATOM     19  C   UNL     1      10.680  16.805 163.760  1.00  0.00     0.098 A 
ATOM     20  C   UNL     1      11.065  14.454 165.264  1.00  0.00     0.176 A 
ATOM     21  C   UNL     1      11.303  15.695 163.172  1.00  0.00     0.146 A 
ATOM     22  C   UNL     1      11.439  14.481 163.897  1.00  0.00     0.111 A 
ATOM     23  O   UNL     1      11.824  15.828 161.952  1.00  0.00    -0.456 OA
ATOM     24  C   UNL     1      12.097  13.413 163.253  1.00  0.00     0.197 A 
ATOM     25  C   UNL     1      12.561  14.878 161.364  1.00  0.00     0.138 A 
ATOM     26  C   UNL     1      12.651  13.623 161.980  1.00  0.00     0.100 A 
ATOM     27  O   UNL     1      12.302  12.306 163.846  1.00  0.00    -0.289 OA
BRANCH  18  28
ATOM     28  O   UNL     1      10.230  15.612 167.217  1.00  0.00    -0.502 OA
ATOM     29  H   UNL     1      10.210  16.443 167.790  1.00  0.00     0.293 HD
ENDBRANCH  18  28
BRANCH  20  30
ATOM     30  O   UNL     1      11.297  13.325 166.052  1.00  0.00    -0.504 OA
ATOM     31  H   UNL     1      12.204  13.144 166.451  1.00  0.00     0.293 HD
ENDBRANCH  20  30
BRANCH  25  32
ATOM     32  C   UNL     1      13.485  15.252 160.262  1.00  0.00     0.017 A 
ATOM     33  C   UNL     1      13.024  15.747 159.034  1.00  0.00     0.012 A 
ATOM     34  C   UNL     1      14.776  14.666 160.326  1.00  0.00     0.012 A 
ATOM     35  C   UNL     1      13.763  15.442 157.854  1.00  0.00     0.001 A 
ATOM     36  C   UNL     1      15.475  14.358 159.170  1.00  0.00     0.001 A 
ATOM     37  C   UNL     1      14.970  14.733 157.918  1.00  0.00     0.000 A 
ENDBRANCH  25  32
ENDBRANCH   1  17
TORSDOF 9
ENDMDL
MODEL 4
REMARK VINA RESULT:    -0.762      2.785      7.855
REMARK INTER + INTRA:          -1.779
REMARK INTER:                  -1.795
REMARK INTRA:                   0.016
REMARK UNBOUND:                -0.728
REMARK SMILES O=C([O-])[C@@H]1O[C@@H](Oc2cc3oc(-c4ccccc4)cc(=O)c3c(O)c2O)[C@H](O)[C@@H](O)[C@H]1O
REMARK SMILES IDX 7 1 6 2 4 3 31 4 5 5 29 6 27 7 2 8 1 9 3 10 32 11 30 13
REMARK SMILES IDX 28 15 8 17 25 18 9 19 23 20 10 21 22 22 11 23 20 24 12 25
REMARK SMILES IDX 19 26 21 27 26 28 24 30 13 32 14 33 18 34 15 35 17 36 16 37
REMARK H PARENT 32 12 30 14 28 16 26 29 24 31
REMARK Flexibility Score: inf
ROOT
ATOM      1  O   UNL     1      12.308  14.354 163.066  1.00  0.00    -0.458 OA
ENDROOT
BRANCH   1   2
ATOM      2  C   UNL     1      12.319  15.202 161.902  1.00  0.00     0.339 C 
ATOM      3  C   UNL     1      11.640  17.469 161.514  1.00  0.00     0.199 C 
ATOM      4  C   UNL     1      11.787  17.152 160.010  1.00  0.00     0.180 C 
ATOM      5  O   UNL     1      12.397  16.579 162.316  1.00  0.00    -0.328 OA
ATOM      6  C   UNL     1      11.107  15.790 159.712  1.00  0.00     0.181 C 
ATOM      7  C   UNL     1      11.143  14.844 160.957  1.00  0.00     0.214 C 
BRANCH   3   8
ATOM      8  C   UNL     1      12.100  18.878 161.788  1.00  0.00     0.073 C 
ATOM      9  O   UNL     1      12.908  19.125 162.716  1.00  0.00    -0.547 OA
ATOM     10  O   UNL     1      12.996  19.120 162.830  1.00  0.00    -0.547 OA
ENDBRANCH   3   8
BRANCH   4  11
ATOM     11  O   UNL     1      11.248  18.187 159.213  1.00  0.00    -0.387 OA
ATOM     12  H   UNL     1      11.245  19.013 159.774  1.00  0.00     0.211 HD
ENDBRANCH   4  11
BRANCH   6  13
ATOM     13  O   UNL     1       9.783  15.975 159.281  1.00  0.00    -0.387 OA
ATOM     14  H   UNL     1       9.279  16.399 160.017  1.00  0.00     0.211 HD
ENDBRANCH   6  13
BRANCH   7  15
ATOM     15  O   UNL     1      11.228  13.504 160.542  1.00  0.00    -0.384 OA
ATOM     16  H   UNL     1      11.470  12.957 161.344  1.00  0.00     0.211 HD
ENDBRANCH   7  15
ENDBRANCH   1   2
BRANCH   1  17
ATOM     17  C   UNL     1      11.560  14.607 164.220  1.00  0.00     0.172 A 
ATOM     18  C   UNL     1      11.441  13.592 165.173  1.00  0.00     0.201 A 
ATOM     19  C   UNL     1      10.929  15.846 164.438  1.00  0.00     0.098 A 
ATOM     20  C   UNL     1      10.764  13.813 166.384  1.00  0.00     0.176 A 
ATOM     21  C   UNL     1      10.167  16.049 165.597  1.00  0.00     0.146 A 
ATOM     22  C   UNL     1      10.133  15.062 166.617  1.00  0.00     0.111 A 
ATOM     23  O   UNL     1       9.423  17.153 165.685  1.00  0.00    -0.456 OA
ATOM     24  C   UNL     1       9.326  15.322 167.744  1.00  0.00     0.197 A 
ATOM     25  C   UNL     1       8.554  17.372 166.680  1.00  0.00     0.138 A 
ATOM     26  C   UNL     1       8.543  16.487 167.766  1.00  0.00     0.100 A 
ATOM     27  O   UNL     1       9.203  14.471 168.682  1.00  0.00    -0.289 OA
BRANCH  18  28
ATOM     28  O   UNL     1      12.001  12.351 164.906  1.00  0.00    -0.502 OA
ATOM     29  H   UNL     1      11.534  11.472 165.072  1.00  0.00     0.293 HD
ENDBRANCH  18  28
BRANCH  20  30
ATOM     30  O   UNL     1      10.651  12.767 167.300  1.00  0.00    -0.504 OA
ATOM     31  H   UNL     1      11.174  11.913 167.184  1.00  0.00     0.293 HD
ENDBRANCH  20  30
BRANCH  25  32
ATOM     32  C   UNL     1       7.448  18.343 166.478  1.00  0.00     0.017 A 
ATOM     33  C   UNL     1       6.380  18.459 167.379  1.00  0.00     0.012 A 
ATOM     34  C   UNL     1       7.276  18.800 165.145  1.00  0.00     0.012 A 
ATOM     35  C   UNL     1       5.096  18.815 166.873  1.00  0.00     0.001 A 
ATOM     36  C   UNL     1       6.019  19.125 164.662  1.00  0.00     0.001 A 
ATOM     37  C   UNL     1       4.910  19.125 165.520  1.00  0.00     0.000 A 
ENDBRANCH  25  32
ENDBRANCH   1  17
TORSDOF 9
ENDMDL
MODEL 5
REMARK VINA RESULT:     0.001      3.537      4.488
REMARK INTER + INTRA:          -0.726
REMARK INTER:                  -1.310
REMARK INTRA:                   0.583
REMARK UNBOUND:                -0.728
REMARK SMILES O=C([O-])[C@@H]1O[C@@H](Oc2cc3oc(-c4ccccc4)cc(=O)c3c(O)c2O)[C@H](O)[C@@H](O)[C@H]1O
REMARK SMILES IDX 7 1 6 2 4 3 31 4 5 5 29 6 27 7 2 8 1 9 3 10 32 11 30 13
REMARK SMILES IDX 28 15 8 17 25 18 9 19 23 20 10 21 22 22 11 23 20 24 12 25
REMARK SMILES IDX 19 26 21 27 26 28 24 30 13 32 14 33 18 34 15 35 17 36 16 37
REMARK H PARENT 32 12 30 14 28 16 26 29 24 31
REMARK Flexibility Score: inf
ROOT
ATOM      1  O   UNL     1       9.924  15.092 165.547  1.00  0.00    -0.458 OA
ENDROOT
BRANCH   1   2
ATOM      2  C   UNL     1       9.456  16.276 166.217  1.00  0.00     0.339 C 
ATOM      3  C   UNL     1       7.477  16.779 167.475  1.00  0.00     0.199 C 
ATOM      4  C   UNL     1       7.904  18.259 167.370  1.00  0.00     0.180 C 
ATOM      5  O   UNL     1       8.573  15.900 167.291  1.00  0.00    -0.328 OA
ATOM      6  C   UNL     1       8.319  18.562 165.907  1.00  0.00     0.181 C 
ATOM      7  C   UNL     1       8.883  17.290 165.192  1.00  0.00     0.214 C 
BRANCH   3   8
ATOM      8  C   UNL     1       6.868  16.516 168.829  1.00  0.00     0.073 C 
ATOM      9  O   UNL     1       7.090  15.443 169.440  1.00  0.00    -0.547 OA
ATOM     10  O   UNL     1       7.131  15.311 169.481  1.00  0.00    -0.547 OA
ENDBRANCH   3   8
BRANCH   4  11
ATOM     11  O   UNL     1       6.875  19.123 167.807  1.00  0.00    -0.387 OA
ATOM     12  H   UNL     1       6.758  19.816 167.097  1.00  0.00     0.211 HD
ENDBRANCH   4  11
BRANCH   6  13
ATOM     13  O   UNL     1       7.240  19.089 165.179  1.00  0.00    -0.387 OA
ATOM     14  H   UNL     1       6.650  18.339 164.922  1.00  0.00     0.211 HD
ENDBRANCH   6  13
BRANCH   7  15
ATOM     15  O   UNL     1       9.863  17.658 164.254  1.00  0.00    -0.384 OA
ATOM     16  H   UNL     1      10.610  16.998 164.329  1.00  0.00     0.211 HD
ENDBRANCH   7  15
ENDBRANCH   1   2
BRANCH   1  17
ATOM     17  C   UNL     1      10.772  15.096 164.434  1.00  0.00     0.172 A 
ATOM     18  C   UNL     1      10.206  14.953 163.165  1.00  0.00     0.201 A 
ATOM     19  C   UNL     1      12.166  15.235 164.565  1.00  0.00     0.098 A 
ATOM     20  C   UNL     1      11.000  15.022 162.008  1.00  0.00     0.176 A 
ATOM     21  C   UNL     1      12.982  15.209 163.426  1.00  0.00     0.146 A 
ATOM     22  C   UNL     1      12.404  15.173 162.129  1.00  0.00     0.111 A 
ATOM     23  O   UNL     1      14.304  15.145 163.591  1.00  0.00    -0.456 OA
ATOM     24  C   UNL     1      13.286  15.122 161.029  1.00  0.00     0.197 A 
ATOM     25  C   UNL     1      15.160  14.971 162.576  1.00  0.00     0.138 A 
ATOM     26  C   UNL     1      14.666  15.026 161.266  1.00  0.00     0.100 A 
ATOM     27  O   UNL     1      12.851  15.042 159.835  1.00  0.00    -0.289 OA
BRANCH  18  28
ATOM     28  O   UNL     1       8.839  14.735 163.059  1.00  0.00    -0.502 OA
ATOM     29  H   UNL     1       8.195  15.382 162.629  1.00  0.00     0.293 HD
ENDBRANCH  18  28
BRANCH  20  30
ATOM     30  O   UNL     1      10.398  14.855 160.760  1.00  0.00    -0.504 OA
ATOM     31  H   UNL     1      10.607  15.474 159.993  1.00  0.00     0.293 HD
ENDBRANCH  20  30
BRANCH  25  32
ATOM     32  C   UNL     1      16.519  14.439 162.854  1.00  0.00     0.017 A 
ATOM     33  C   UNL     1      17.682  15.167 162.565  1.00  0.00     0.012 A 
ATOM     34  C   UNL     1      16.604  13.027 162.981  1.00  0.00     0.012 A 
ATOM     35  C   UNL     1      18.856  14.454 162.184  1.00  0.00     0.001 A 
ATOM     36  C   UNL     1      17.746  12.346 162.589  1.00  0.00     0.001 A 
ATOM     37  C   UNL     1      18.883  13.053 162.174  1.00  0.00     0.000 A 
ENDBRANCH  25  32
ENDBRANCH   1  17
TORSDOF 9
ENDMDL
MODEL 6
REMARK VINA RESULT:     0.232      3.185      9.053
REMARK INTER + INTRA:          -0.408
REMARK INTER:                  -2.277
REMARK INTRA:                   1.869
REMARK UNBOUND:                -0.728
REMARK SMILES O=C([O-])[C@@H]1O[C@@H](Oc2cc3oc(-c4ccccc4)cc(=O)c3c(O)c2O)[C@H](O)[C@@H](O)[C@H]1O
REMARK SMILES IDX 7 1 6 2 4 3 31 4 5 5 29 6 27 7 2 8 1 9 3 10 32 11 30 13
REMARK SMILES IDX 28 15 8 17 25 18 9 19 23 20 10 21 22 22 11 23 20 24 12 25
REMARK SMILES IDX 19 26 21 27 26 28 24 30 13 32 14 33 18 34 15 35 17 36 16 37
REMARK H PARENT 32 12 30 14 28 16 26 29 24 31
REMARK Flexibility Score: inf
ROOT
ATOM      1  O   UNL     1      12.316  15.149 162.157  1.00  0.00    -0.458 OA
ENDROOT
BRANCH   1   2
ATOM      2  C   UNL     1      13.741  15.265 161.988  1.00  0.00     0.339 C 
ATOM      3  C   UNL     1      15.297  14.290 160.445  1.00  0.00     0.199 C 
ATOM      4  C   UNL     1      16.406  14.821 161.379  1.00  0.00     0.180 C 
ATOM      5  O   UNL     1      14.082  14.999 160.614  1.00  0.00    -0.328 OA
ATOM      6  C   UNL     1      16.035  14.482 162.847  1.00  0.00     0.181 C 
ATOM      7  C   UNL     1      14.486  14.412 163.048  1.00  0.00     0.214 C 
BRANCH   3   8
ATOM      8  C   UNL     1      15.734  14.416 159.008  1.00  0.00     0.073 C 
ATOM      9  O   UNL     1      14.917  14.725 158.108  1.00  0.00    -0.547 OA
ATOM     10  O   UNL     1      14.800  14.757 158.030  1.00  0.00    -0.547 OA
ENDBRANCH   3   8
BRANCH   4  11
ATOM     11  O   UNL     1      17.669  14.294 161.028  1.00  0.00    -0.387 OA
ATOM     12  H   UNL     1      18.355  14.936 161.369  1.00  0.00     0.211 HD
ENDBRANCH   4  11
BRANCH   6  13
ATOM     13  O   UNL     1      16.632  13.275 163.248  1.00  0.00    -0.387 OA
ATOM     14  H   UNL     1      16.270  13.037 164.136  1.00  0.00     0.211 HD
ENDBRANCH   6  13
BRANCH   7  15
ATOM     15  O   UNL     1      14.148  14.828 164.347  1.00  0.00    -0.384 OA
ATOM     16  H   UNL     1      14.575  14.187 164.986  1.00  0.00     0.211 HD
ENDBRANCH   7  15
ENDBRANCH   1   2
BRANCH   1  17
ATOM     17  C   UNL     1      11.658  15.223 163.389  1.00  0.00     0.172 A 
ATOM     18  C   UNL     1      11.659  14.096 164.214  1.00  0.00     0.201 A 
ATOM     19  C   UNL     1      11.000  16.394 163.808  1.00  0.00     0.098 A 
ATOM     20  C   UNL     1      11.076  14.135 165.491  1.00  0.00     0.176 A 
ATOM     21  C   UNL     1      10.330  16.418 165.040  1.00  0.00     0.146 A 
ATOM     22  C   UNL     1      10.420  15.314 165.928  1.00  0.00     0.111 A 
ATOM     23  O   UNL     1       9.554  17.466 165.322  1.00  0.00    -0.456 OA
ATOM     24  C   UNL     1       9.700  15.396 167.137  1.00  0.00     0.197 A 
ATOM     25  C   UNL     1       8.763  17.520 166.401  1.00  0.00     0.138 A 
ATOM     26  C   UNL     1       8.877  16.510 167.365  1.00  0.00     0.100 A 
ATOM     27  O   UNL     1       9.689  14.432 167.969  1.00  0.00    -0.289 OA
BRANCH  18  28
ATOM     28  O   UNL     1      12.242  12.925 163.750  1.00  0.00    -0.502 OA
ATOM     29  H   UNL     1      12.071  12.530 162.837  1.00  0.00     0.293 HD
ENDBRANCH  18  28
BRANCH  20  30
ATOM     30  O   UNL     1      11.082  12.981 166.276  1.00  0.00    -0.504 OA
ATOM     31  H   UNL     1      11.755  12.248 166.121  1.00  0.00     0.293 HD
ENDBRANCH  20  30
BRANCH  25  32
ATOM     32  C   UNL     1       7.607  18.452 166.409  1.00  0.00     0.017 A 
ATOM     33  C   UNL     1       6.764  18.591 167.521  1.00  0.00     0.012 A 
ATOM     34  C   UNL     1       7.126  18.835 165.129  1.00  0.00     0.012 A 
ATOM     35  C   UNL     1       5.388  18.890 167.301  1.00  0.00     0.001 A 
ATOM     36  C   UNL     1       5.782  19.104 164.927  1.00  0.00     0.001 A 
ATOM     37  C   UNL     1       4.894  19.124 166.012  1.00  0.00     0.000 A 
ENDBRANCH  25  32
ENDBRANCH   1  17
TORSDOF 9
ENDMDL
MODEL 7
REMARK VINA RESULT:     0.595      3.060      8.497
REMARK INTER + INTRA:           0.093
REMARK INTER:                  -1.601
REMARK INTRA:                   1.694
REMARK UNBOUND:                -0.728
REMARK SMILES O=C([O-])[C@@H]1O[C@@H](Oc2cc3oc(-c4ccccc4)cc(=O)c3c(O)c2O)[C@H](O)[C@@H](O)[C@H]1O
REMARK SMILES IDX 7 1 6 2 4 3 31 4 5 5 29 6 27 7 2 8 1 9 3 10 32 11 30 13
REMARK SMILES IDX 28 15 8 17 25 18 9 19 23 20 10 21 22 22 11 23 20 24 12 25
REMARK SMILES IDX 19 26 21 27 26 28 24 30 13 32 14 33 18 34 15 35 17 36 16 37
REMARK H PARENT 32 12 30 14 28 16 26 29 24 31
REMARK Flexibility Score: inf
ROOT
ATOM      1  O   UNL     1      12.546  15.173 162.593  1.00  0.00    -0.458 OA
ENDROOT
BRANCH   1   2
ATOM      2  C   UNL     1      12.066  15.663 161.328  1.00  0.00     0.339 C 
ATOM      3  C   UNL     1      13.130  16.090 159.221  1.00  0.00     0.199 C 
ATOM      4  C   UNL     1      11.832  16.829 158.827  1.00  0.00     0.180 C 
ATOM      5  O   UNL     1      12.910  15.165 160.273  1.00  0.00    -0.328 OA
ATOM      6  C   UNL     1      11.407  17.759 159.993  1.00  0.00     0.181 C 
ATOM      7  C   UNL     1      11.877  17.201 161.376  1.00  0.00     0.214 C 
BRANCH   3   8
ATOM      8  C   UNL     1      13.678  15.347 158.030  1.00  0.00     0.073 C 
ATOM      9  O   UNL     1      14.875  14.972 157.997  1.00  0.00    -0.547 OA
ATOM     10  O   UNL     1      15.015  14.948 158.022  1.00  0.00    -0.547 OA
ENDBRANCH   3   8
BRANCH   4  11
ATOM     11  O   UNL     1      11.997  17.548 157.622  1.00  0.00    -0.387 OA
ATOM     12  H   UNL     1      12.885  18.003 157.676  1.00  0.00     0.211 HD
ENDBRANCH   4  11
BRANCH   6  13
ATOM     13  O   UNL     1      11.902  19.060 159.801  1.00  0.00    -0.387 OA
ATOM     14  H   UNL     1      11.156  19.693 159.938  1.00  0.00     0.211 HD
ENDBRANCH   6  13
BRANCH   7  15
ATOM     15  O   UNL     1      10.958  17.559 162.378  1.00  0.00    -0.384 OA
ATOM     16  H   UNL     1      10.295  16.814 162.455  1.00  0.00     0.211 HD
ENDBRANCH   7  15
ENDBRANCH   1   2
BRANCH   1  17
ATOM     17  C   UNL     1      11.806  15.193 163.780  1.00  0.00     0.172 A 
ATOM     18  C   UNL     1      11.771  14.036 164.564  1.00  0.00     0.201 A 
ATOM     19  C   UNL     1      11.101  16.337 164.195  1.00  0.00     0.098 A 
ATOM     20  C   UNL     1      11.105  14.021 165.800  1.00  0.00     0.176 A 
ATOM     21  C   UNL     1      10.350  16.307 165.378  1.00  0.00     0.146 A 
ATOM     22  C   UNL     1      10.399  15.173 166.232  1.00  0.00     0.111 A 
ATOM     23  O   UNL     1       9.538  17.332 165.644  1.00  0.00    -0.456 OA
ATOM     24  C   UNL     1       9.599  15.202 167.392  1.00  0.00     0.197 A 
ATOM     25  C   UNL     1       8.677  17.336 166.668  1.00  0.00     0.138 A 
ATOM     26  C   UNL     1       8.744  16.294 167.603  1.00  0.00     0.100 A 
ATOM     27  O   UNL     1       9.550  14.209 168.187  1.00  0.00    -0.289 OA
BRANCH  18  28
ATOM     28  O   UNL     1      12.405  12.892 164.101  1.00  0.00    -0.502 OA
ATOM     29  H   UNL     1      13.269  12.532 164.477  1.00  0.00     0.293 HD
ENDBRANCH  18  28
BRANCH  20  30
ATOM     30  O   UNL     1      11.078  12.840 166.543  1.00  0.00    -0.504 OA
ATOM     31  H   UNL     1      11.894  12.254 166.620  1.00  0.00     0.293 HD
ENDBRANCH  20  30
BRANCH  25  32
ATOM     32  C   UNL     1       7.506  18.250 166.631  1.00  0.00     0.017 A 
ATOM     33  C   UNL     1       6.489  18.204 167.596  1.00  0.00     0.012 A 
ATOM     34  C   UNL     1       7.229  18.830 165.365  1.00  0.00     0.012 A 
ATOM     35  C   UNL     1       5.159  18.529 167.200  1.00  0.00     0.001 A 
ATOM     36  C   UNL     1       5.928  19.123 164.988  1.00  0.00     0.001 A 
ATOM     37  C   UNL     1       4.875  18.964 165.899  1.00  0.00     0.000 A 
ENDBRANCH  25  32
ENDBRANCH   1  17
TORSDOF 9
ENDMDL
MODEL 8
REMARK VINA RESULT:     0.802      1.031      2.450
REMARK INTER + INTRA:           0.379
REMARK INTER:                   0.991
REMARK INTRA:                  -0.613
REMARK UNBOUND:                -0.728
REMARK SMILES O=C([O-])[C@@H]1O[C@@H](Oc2cc3oc(-c4ccccc4)cc(=O)c3c(O)c2O)[C@H](O)[C@@H](O)[C@H]1O
REMARK SMILES IDX 7 1 6 2 4 3 31 4 5 5 29 6 27 7 2 8 1 9 3 10 32 11 30 13
REMARK SMILES IDX 28 15 8 17 25 18 9 19 23 20 10 21 22 22 11 23 20 24 12 25
REMARK SMILES IDX 19 26 21 27 26 28 24 30 13 32 14 33 18 34 15 35 17 36 16 37
REMARK H PARENT 32 12 30 14 28 16 26 29 24 31
REMARK Flexibility Score: inf
ROOT
ATOM      1  O   UNL     1       9.775  17.260 165.817  1.00  0.00    -0.458 OA
ENDROOT
BRANCH   1   2
ATOM      2  C   UNL     1       8.497  16.879 166.359  1.00  0.00     0.339 C 
ATOM      3  C   UNL     1       6.776  18.087 167.513  1.00  0.00     0.199 C 
ATOM      4  C   UNL     1       6.169  16.707 167.848  1.00  0.00     0.180 C 
ATOM      5  O   UNL     1       7.628  18.027 166.381  1.00  0.00    -0.328 OA
ATOM      6  C   UNL     1       7.298  15.765 168.342  1.00  0.00     0.181 C 
ATOM      7  C   UNL     1       8.679  16.139 167.710  1.00  0.00     0.214 C 
BRANCH   3   8
ATOM      8  C   UNL     1       5.675  19.078 167.238  1.00  0.00     0.073 C 
ATOM      9  O   UNL     1       4.937  18.962 166.230  1.00  0.00    -0.547 OA
ATOM     10  O   UNL     1       4.875  18.924 166.106  1.00  0.00    -0.547 OA
ENDBRANCH   3   8
BRANCH   4  11
ATOM     11  O   UNL     1       5.133  16.821 168.802  1.00  0.00    -0.387 OA
ATOM     12  H   UNL     1       5.552  16.698 169.701  1.00  0.00     0.211 HD
ENDBRANCH   4  11
BRANCH   6  13
ATOM     13  O   UNL     1       7.385  15.781 169.744  1.00  0.00    -0.387 OA
ATOM     14  H   UNL     1       6.552  16.178 170.097  1.00  0.00     0.211 HD
ENDBRANCH   6  13
BRANCH   7  15
ATOM     15  O   UNL     1       9.463  14.985 167.545  1.00  0.00    -0.384 OA
ATOM     16  H   UNL     1       9.343  14.423 168.363  1.00  0.00     0.211 HD
ENDBRANCH   7  15
ENDBRANCH   1   2
BRANCH   1  17
ATOM     17  C   UNL     1      10.307  16.762 164.623  1.00  0.00     0.172 A 
ATOM     18  C   UNL     1      10.554  17.657 163.579  1.00  0.00     0.201 A 
ATOM     19  C   UNL     1      10.590  15.394 164.451  1.00  0.00     0.098 A 
ATOM     20  C   UNL     1      11.154  17.225 162.384  1.00  0.00     0.176 A 
ATOM     21  C   UNL     1      11.098  14.932 163.229  1.00  0.00     0.146 A 
ATOM     22  C   UNL     1      11.453  15.850 162.205  1.00  0.00     0.111 A 
ATOM     23  O   UNL     1      11.171  13.616 163.026  1.00  0.00    -0.456 OA
ATOM     24  C   UNL     1      11.934  15.314 160.993  1.00  0.00     0.197 A 
ATOM     25  C   UNL     1      11.505  13.075 161.848  1.00  0.00     0.138 A 
ATOM     26  C   UNL     1      11.960  13.920 160.828  1.00  0.00     0.100 A 
ATOM     27  O   UNL     1      12.231  16.064 160.009  1.00  0.00    -0.289 OA
BRANCH  18  28
ATOM     28  O   UNL     1      10.194  18.988 163.735  1.00  0.00    -0.502 OA
ATOM     29  H   UNL     1       9.431  19.429 163.244  1.00  0.00     0.293 HD
ENDBRANCH  18  28
BRANCH  20  30
ATOM     30  O   UNL     1      11.367  18.147 161.359  1.00  0.00    -0.504 OA
ATOM     31  H   UNL     1      11.821  19.029 161.536  1.00  0.00     0.293 HD
ENDBRANCH  20  30
BRANCH  25  32
ATOM     32  C   UNL     1      11.111  11.673 161.554  1.00  0.00     0.017 A 
ATOM     33  C   UNL     1      10.531  11.298 160.334  1.00  0.00     0.012 A 
ATOM     34  C   UNL     1      10.918  10.845 162.692  1.00  0.00     0.012 A 
ATOM     35  C   UNL     1       9.585  10.232 160.328  1.00  0.00     0.001 A 
ATOM     36  C   UNL     1       9.981   9.824 162.676  1.00  0.00     0.001 A 
ATOM     37  C   UNL     1       9.294   9.513 161.495  1.00  0.00     0.000 A 
ENDBRANCH  25  32
ENDBRANCH   1  17
TORSDOF 9
ENDMDL
MODEL 9
REMARK VINA RESULT:     0.884      3.490      8.572
REMARK INTER + INTRA:           0.492
REMARK INTER:                  -0.747
REMARK INTRA:                   1.240
REMARK UNBOUND:                -0.728
REMARK SMILES O=C([O-])[C@@H]1O[C@@H](Oc2cc3oc(-c4ccccc4)cc(=O)c3c(O)c2O)[C@H](O)[C@@H](O)[C@H]1O
REMARK SMILES IDX 7 1 6 2 4 3 31 4 5 5 29 6 27 7 2 8 1 9 3 10 32 11 30 13
REMARK SMILES IDX 28 15 8 17 25 18 9 19 23 20 10 21 22 22 11 23 20 24 12 25
REMARK SMILES IDX 19 26 21 27 26 28 24 30 13 32 14 33 18 34 15 35 17 36 16 37
REMARK H PARENT 32 12 30 14 28 16 26 29 24 31
REMARK Flexibility Score: inf
ROOT
ATOM      1  O   UNL     1      13.568  14.391 164.123  1.00  0.00    -0.458 OA
ENDROOT
BRANCH   1   2
ATOM      2  C   UNL     1      14.678  14.592 163.229  1.00  0.00     0.339 C 
ATOM      3  C   UNL     1      15.007  14.159 160.893  1.00  0.00     0.199 C 
ATOM      4  C   UNL     1      16.506  14.424 161.156  1.00  0.00     0.180 C 
ATOM      5  O   UNL     1      14.186  14.751 161.886  1.00  0.00    -0.328 OA
ATOM      6  C   UNL     1      16.938  13.658 162.433  1.00  0.00     0.181 C 
ATOM      7  C   UNL     1      15.748  13.487 163.433  1.00  0.00     0.214 C 
BRANCH   3   8
ATOM      8  C   UNL     1      14.617  14.713 159.548  1.00  0.00     0.073 C 
ATOM      9  O   UNL     1      13.486  15.226 159.363  1.00  0.00    -0.547 OA
ATOM     10  O   UNL     1      13.351  15.272 159.373  1.00  0.00    -0.547 OA
ENDBRANCH   3   8
BRANCH   4  11
ATOM     11  O   UNL     1      17.294  14.060 160.041  1.00  0.00    -0.387 OA
ATOM     12  H   UNL     1      16.674  13.986 159.260  1.00  0.00     0.211 HD
ENDBRANCH   4  11
BRANCH   6  13
ATOM     13  O   UNL     1      17.481  12.404 162.106  1.00  0.00    -0.387 OA
ATOM     14  H   UNL     1      16.732  11.782 161.938  1.00  0.00     0.211 HD
ENDBRANCH   6  13
BRANCH   7  15
ATOM     15  O   UNL     1      16.224  13.493 164.755  1.00  0.00    -0.384 OA
ATOM     16  H   UNL     1      16.227  14.443 165.068  1.00  0.00     0.211 HD
ENDBRANCH   7  15
ENDBRANCH   1   2
BRANCH   1  17
ATOM     17  C   UNL     1      12.502  15.283 164.272  1.00  0.00     0.172 A 
ATOM     18  C   UNL     1      12.551  16.501 163.589  1.00  0.00     0.201 A 
ATOM     19  C   UNL     1      11.394  14.986 165.087  1.00  0.00     0.098 A 
ATOM     20  C   UNL     1      11.477  17.404 163.643  1.00  0.00     0.176 A 
ATOM     21  C   UNL     1      10.358  15.919 165.229  1.00  0.00     0.146 A 
ATOM     22  C   UNL     1      10.352  17.109 164.455  1.00  0.00     0.111 A 
ATOM     23  O   UNL     1       9.424  15.698 166.156  1.00  0.00    -0.456 OA
ATOM     24  C   UNL     1       9.292  18.015 164.668  1.00  0.00     0.197 A 
ATOM     25  C   UNL     1       8.478  16.592 166.468  1.00  0.00     0.138 A 
ATOM     26  C   UNL     1       8.356  17.741 165.677  1.00  0.00     0.100 A 
ATOM     27  O   UNL     1       9.235  19.125 164.048  1.00  0.00    -0.289 OA
BRANCH  18  28
ATOM     28  O   UNL     1      13.686  16.813 162.854  1.00  0.00    -0.502 OA
ATOM     29  H   UNL     1      14.373  16.135 162.558  1.00  0.00     0.293 HD
ENDBRANCH  18  28
BRANCH  20  30
ATOM     30  O   UNL     1      11.575  18.618 162.962  1.00  0.00    -0.504 OA
ATOM     31  H   UNL     1      12.380  18.836 162.397  1.00  0.00     0.293 HD
ENDBRANCH  20  30
BRANCH  25  32
ATOM     32  C   UNL     1       7.796  16.499 167.785  1.00  0.00     0.017 A 
ATOM     33  C   UNL     1       8.225  15.621 168.790  1.00  0.00     0.012 A 
ATOM     34  C   UNL     1       6.459  16.976 167.812  1.00  0.00     0.012 A 
ATOM     35  C   UNL     1       7.251  15.058 169.666  1.00  0.00     0.001 A 
ATOM     36  C   UNL     1       5.519  16.406 168.655  1.00  0.00     0.001 A 
ATOM     37  C   UNL     1       5.903  15.431 169.586  1.00  0.00     0.000 A 
ENDBRANCH  25  32
ENDBRANCH   1  17
TORSDOF 9
ENDMDL
