MODEL 1
REMARK VINA RESULT:    -3.189      0.000      0.000
REMARK INTER + INTRA:          -5.101
REMARK INTER:                  -4.680
REMARK INTRA:                  -0.421
REMARK UNBOUND:                -0.421
REMARK SMILES O=C([O-])CCCCCCCC(=O)[O-]
REMARK SMILES IDX 7 1 6 2 5 3 4 4 2 5 1 6 3 7 8 8 9 9 10 10 11 11 12 12 13 13
REMARK H PARENT
REMARK Flexibility Score: inf
ROOT
ATOM      1  C   UNL     1      11.470  42.993 151.872  1.00  0.00     0.000 C 
ENDROOT
BRANCH   1   2
ATOM      2  C   UNL     1      12.384  43.468 153.019  1.00  0.00     0.000 C 
BRANCH   2   3
ATOM      3  C   UNL     1      11.969  42.989 154.424  1.00  0.00     0.006 C 
BRANCH   3   4
ATOM      4  C   UNL     1      10.542  42.426 154.508  1.00  0.00     0.053 C 
BRANCH   4   5
ATOM      5  C   UNL     1       9.986  42.511 155.896  1.00  0.00     0.041 C 
ATOM      6  O   UNL     1       8.877  43.072 156.101  1.00  0.00    -0.550 OA
ATOM      7  O   UNL     1      10.707  42.001 156.968  1.00  0.00    -0.550 OA
ENDBRANCH   4   5
ENDBRANCH   3   4
ENDBRANCH   2   3
ENDBRANCH   1   2
BRANCH   1   8
ATOM      8  C   UNL     1      12.045  41.858 151.002  1.00  0.00     0.000 C 
BRANCH   8   9
ATOM      9  C   UNL     1      12.006  40.462 151.648  1.00  0.00     0.006 C 
BRANCH   9  10
ATOM     10  C   UNL     1      11.956  39.328 150.616  1.00  0.00     0.053 C 
BRANCH  10  11
ATOM     11  C   UNL     1      10.589  38.723 150.571  1.00  0.00     0.041 C 
ATOM     12  O   UNL     1       9.601  39.356 151.028  1.00  0.00    -0.550 OA
ATOM     13  O   UNL     1      10.413  37.440 150.068  1.00  0.00    -0.550 OA
ENDBRANCH  10  11
ENDBRANCH   9  10
ENDBRANCH   8   9
ENDBRANCH   1   8
TORSDOF 8
ENDMDL
MODEL 2
REMARK VINA RESULT:    -3.130      1.123      5.376
REMARK INTER + INTRA:          -5.014
REMARK INTER:                  -4.399
REMARK INTRA:                  -0.616
REMARK UNBOUND:                -0.421
REMARK SMILES O=C([O-])CCCCCCCC(=O)[O-]
REMARK SMILES IDX 7 1 6 2 5 3 4 4 2 5 1 6 3 7 8 8 9 9 10 10 11 11 12 12 13 13
REMARK H PARENT
REMARK Flexibility Score: inf
ROOT
ATOM      1  C   UNL     1      11.322  42.803 151.155  1.00  0.00     0.000 C 
ENDROOT
BRANCH   1   2
ATOM      2  C   UNL     1      12.018  41.557 150.573  1.00  0.00     0.000 C 
BRANCH   2   3
ATOM      3  C   UNL     1      11.972  40.305 151.473  1.00  0.00     0.006 C 
BRANCH   3   4
ATOM      4  C   UNL     1      10.613  39.589 151.496  1.00  0.00     0.053 C 
BRANCH   4   5
ATOM      5  C   UNL     1      10.488  38.588 150.389  1.00  0.00     0.041 C 
ATOM      6  O   UNL     1      11.521  38.113 149.846  1.00  0.00    -0.550 OA
ATOM      7  O   UNL     1       9.234  38.203 149.935  1.00  0.00    -0.550 OA
ENDBRANCH   4   5
ENDBRANCH   3   4
ENDBRANCH   2   3
ENDBRANCH   1   2
BRANCH   1   8
ATOM      8  C   UNL     1      12.187  43.652 152.108  1.00  0.00     0.000 C 
BRANCH   8   9
ATOM      9  C   UNL     1      11.574  43.893 153.499  1.00  0.00     0.006 C 
BRANCH   9  10
ATOM     10  C   UNL     1      11.666  42.663 154.412  1.00  0.00     0.053 C 
BRANCH  10  11
ATOM     11  C   UNL     1      10.318  42.314 154.956  1.00  0.00     0.041 C 
ATOM     12  O   UNL     1       9.986  42.682 156.113  1.00  0.00    -0.550 OA
ATOM     13  O   UNL     1       9.444  41.539 154.202  1.00  0.00    -0.550 OA
ENDBRANCH  10  11
ENDBRANCH   9  10
ENDBRANCH   8   9
ENDBRANCH   1   8
TORSDOF 8
ENDMDL
MODEL 3
REMARK VINA RESULT:    -3.109      2.152      5.823
REMARK INTER + INTRA:          -4.983
REMARK INTER:                  -4.352
REMARK INTRA:                  -0.631
REMARK UNBOUND:                -0.421
REMARK SMILES O=C([O-])CCCCCCCC(=O)[O-]
REMARK SMILES IDX 7 1 6 2 5 3 4 4 2 5 1 6 3 7 8 8 9 9 10 10 11 11 12 12 13 13
REMARK H PARENT
REMARK Flexibility Score: inf
ROOT
ATOM      1  C   UNL     1       9.199  41.130 152.468  1.00  0.00     0.000 C 
ENDROOT
BRANCH   1   2
ATOM      2  C   UNL     1      10.307  40.058 152.467  1.00  0.00     0.000 C 
BRANCH   2   3
ATOM      3  C   UNL     1      11.550  40.407 151.624  1.00  0.00     0.006 C 
BRANCH   3   4
ATOM      4  C   UNL     1      12.076  39.249 150.760  1.00  0.00     0.053 C 
BRANCH   4   5
ATOM      5  C   UNL     1      11.013  38.692 149.863  1.00  0.00     0.041 C 
ATOM      6  O   UNL     1      10.523  39.403 148.945  1.00  0.00    -0.550 OA
ATOM      7  O   UNL     1      10.540  37.402 150.060  1.00  0.00    -0.550 OA
ENDBRANCH   4   5
ENDBRANCH   3   4
ENDBRANCH   2   3
ENDBRANCH   1   2
BRANCH   1   8
ATOM      8  C   UNL     1       8.852  41.713 153.852  1.00  0.00     0.000 C 
BRANCH   8   9
ATOM      9  C   UNL     1      10.066  42.060 154.733  1.00  0.00     0.006 C 
BRANCH   9  10
ATOM     10  C   UNL     1      10.603  43.474 154.479  1.00  0.00     0.053 C 
BRANCH  10  11
ATOM     11  C   UNL     1      11.899  43.415 153.736  1.00  0.00     0.041 C 
ATOM     12  O   UNL     1      12.947  43.033 154.319  1.00  0.00    -0.550 OA
ATOM     13  O   UNL     1      11.960  43.829 152.410  1.00  0.00    -0.550 OA
ENDBRANCH  10  11
ENDBRANCH   9  10
ENDBRANCH   8   9
ENDBRANCH   1   8
TORSDOF 8
ENDMDL
MODEL 4
REMARK VINA RESULT:    -3.053     13.862     14.660
REMARK INTER + INTRA:          -4.902
REMARK INTER:                  -4.128
REMARK INTRA:                  -0.774
REMARK UNBOUND:                -0.421
REMARK SMILES O=C([O-])CCCCCCCC(=O)[O-]
REMARK SMILES IDX 7 1 6 2 5 3 4 4 2 5 1 6 3 7 8 8 9 9 10 10 11 11 12 12 13 13
REMARK H PARENT
REMARK Flexibility Score: inf
ROOT
ATOM      1  C   UNL     1      12.693  39.088 139.519  1.00  0.00     0.000 C 
ENDROOT
BRANCH   1   2
ATOM      2  C   UNL     1      11.303  39.629 139.129  1.00  0.00     0.000 C 
BRANCH   2   3
ATOM      3  C   UNL     1      10.339  38.582 138.536  1.00  0.00     0.006 C 
BRANCH   3   4
ATOM      4  C   UNL     1       9.178  38.190 139.464  1.00  0.00     0.053 C 
BRANCH   4   5
ATOM      5  C   UNL     1       8.017  37.629 138.702  1.00  0.00     0.041 C 
ATOM      6  O   UNL     1       7.327  38.376 137.959  1.00  0.00    -0.550 OA
ATOM      7  O   UNL     1       7.677  36.290 138.837  1.00  0.00    -0.550 OA
ENDBRANCH   4   5
ENDBRANCH   3   4
ENDBRANCH   2   3
ENDBRANCH   1   2
BRANCH   1   8
ATOM      8  C   UNL     1      12.952  37.614 139.147  1.00  0.00     0.000 C 
BRANCH   8   9
ATOM      9  C   UNL     1      12.934  36.633 140.333  1.00  0.00     0.006 C 
BRANCH   9  10
ATOM     10  C   UNL     1      12.637  35.190 139.908  1.00  0.00     0.053 C 
BRANCH  10  11
ATOM     11  C   UNL     1      11.190  35.035 139.562  1.00  0.00     0.041 C 
ATOM     12  O   UNL     1      10.827  34.989 138.357  1.00  0.00    -0.550 OA
ATOM     13  O   UNL     1      10.236  34.989 140.572  1.00  0.00    -0.550 OA
ENDBRANCH  10  11
ENDBRANCH   9  10
ENDBRANCH   8   9
ENDBRANCH   1   8
TORSDOF 8
ENDMDL
MODEL 5
REMARK VINA RESULT:    -3.050      1.330      1.724
REMARK INTER + INTRA:          -4.898
REMARK INTER:                  -4.163
REMARK INTRA:                  -0.735
REMARK UNBOUND:                -0.421
REMARK SMILES O=C([O-])CCCCCCCC(=O)[O-]
REMARK SMILES IDX 7 1 6 2 5 3 4 4 2 5 1 6 3 7 8 8 9 9 10 10 11 11 12 12 13 13
REMARK H PARENT
REMARK Flexibility Score: inf
ROOT
ATOM      1  C   UNL     1      12.626  43.021 150.026  1.00  0.00     0.000 C 
ENDROOT
BRANCH   1   2
ATOM      2  C   UNL     1      12.774  43.590 151.451  1.00  0.00     0.000 C 
BRANCH   2   3
ATOM      3  C   UNL     1      11.535  43.420 152.352  1.00  0.00     0.006 C 
BRANCH   3   4
ATOM      4  C   UNL     1      11.858  43.100 153.821  1.00  0.00     0.053 C 
BRANCH   4   5
ATOM      5  C   UNL     1      10.636  43.146 154.685  1.00  0.00     0.041 C 
ATOM      6  O   UNL     1       9.887  44.160 154.670  1.00  0.00    -0.550 OA
ATOM      7  O   UNL     1      10.340  42.087 155.533  1.00  0.00    -0.550 OA
ENDBRANCH   4   5
ENDBRANCH   3   4
ENDBRANCH   2   3
ENDBRANCH   1   2
BRANCH   1   8
ATOM      8  C   UNL     1      11.566  41.912 149.870  1.00  0.00     0.000 C 
BRANCH   8   9
ATOM      9  C   UNL     1      12.123  40.477 149.872  1.00  0.00     0.006 C 
BRANCH   9  10
ATOM     10  C   UNL     1      12.016  39.798 151.244  1.00  0.00     0.053 C 
BRANCH  10  11
ATOM     11  C   UNL     1      10.584  39.684 151.659  1.00  0.00     0.041 C 
ATOM     12  O   UNL     1      10.214  40.115 152.783  1.00  0.00    -0.550 OA
ATOM     13  O   UNL     1       9.667  39.057 150.825  1.00  0.00    -0.550 OA
ENDBRANCH  10  11
ENDBRANCH   9  10
ENDBRANCH   8   9
ENDBRANCH   1   8
TORSDOF 8
ENDMDL
MODEL 6
REMARK VINA RESULT:    -3.041      1.462      5.592
REMARK INTER + INTRA:          -4.884
REMARK INTER:                  -4.406
REMARK INTRA:                  -0.477
REMARK UNBOUND:                -0.421
REMARK SMILES O=C([O-])CCCCCCCC(=O)[O-]
REMARK SMILES IDX 7 1 6 2 5 3 4 4 2 5 1 6 3 7 8 8 9 9 10 10 11 11 12 12 13 13
REMARK H PARENT
REMARK Flexibility Score: inf
ROOT
ATOM      1  C   UNL     1      12.245  43.278 153.696  1.00  0.00     0.000 C 
ENDROOT
BRANCH   1   2
ATOM      2  C   UNL     1      12.308  43.306 152.157  1.00  0.00     0.000 C 
BRANCH   2   3
ATOM      3  C   UNL     1      11.462  42.228 151.451  1.00  0.00     0.006 C 
BRANCH   3   4
ATOM      4  C   UNL     1      11.926  40.785 151.709  1.00  0.00     0.053 C 
BRANCH   4   5
ATOM      5  C   UNL     1      10.776  39.827 151.755  1.00  0.00     0.041 C 
ATOM      6  O   UNL     1      10.727  38.858 150.951  1.00  0.00    -0.550 OA
ATOM      7  O   UNL     1       9.743  40.020 152.663  1.00  0.00    -0.550 OA
ENDBRANCH   4   5
ENDBRANCH   3   4
ENDBRANCH   2   3
ENDBRANCH   1   2
BRANCH   1   8
ATOM      8  C   UNL     1      10.830  43.395 154.297  1.00  0.00     0.000 C 
BRANCH   8   9
ATOM      9  C   UNL     1      10.386  42.192 155.148  1.00  0.00     0.006 C 
BRANCH   9  10
ATOM     10  C   UNL     1       9.776  42.606 156.494  1.00  0.00     0.053 C 
BRANCH  10  11
ATOM     11  C   UNL     1       8.606  43.513 156.280  1.00  0.00     0.041 C 
ATOM     12  O   UNL     1       7.583  43.096 155.677  1.00  0.00    -0.550 OA
ATOM     13  O   UNL     1       8.666  44.835 156.703  1.00  0.00    -0.550 OA
ENDBRANCH  10  11
ENDBRANCH   9  10
ENDBRANCH   8   9
ENDBRANCH   1   8
TORSDOF 8
ENDMDL
MODEL 7
REMARK VINA RESULT:    -3.018     13.821     14.903
REMARK INTER + INTRA:          -4.851
REMARK INTER:                  -3.993
REMARK INTRA:                  -0.858
REMARK UNBOUND:                -0.421
REMARK SMILES O=C([O-])CCCCCCCC(=O)[O-]
REMARK SMILES IDX 7 1 6 2 5 3 4 4 2 5 1 6 3 7 8 8 9 9 10 10 11 11 12 12 13 13
REMARK H PARENT
REMARK Flexibility Score: inf
ROOT
ATOM      1  C   UNL     1      11.317  39.178 139.780  1.00  0.00     0.000 C 
ENDROOT
BRANCH   1   2
ATOM      2  C   UNL     1      12.649  38.405 139.837  1.00  0.00     0.000 C 
BRANCH   2   3
ATOM      3  C   UNL     1      12.806  37.297 138.776  1.00  0.00     0.006 C 
BRANCH   3   4
ATOM      4  C   UNL     1      12.647  35.869 139.320  1.00  0.00     0.053 C 
BRANCH   4   5
ATOM      5  C   UNL     1      11.230  35.392 139.237  1.00  0.00     0.041 C 
ATOM      6  O   UNL     1      10.675  34.875 140.243  1.00  0.00    -0.550 OA
ATOM      7  O   UNL     1      10.532  35.485 138.040  1.00  0.00    -0.550 OA
ENDBRANCH   4   5
ENDBRANCH   3   4
ENDBRANCH   2   3
ENDBRANCH   1   2
BRANCH   1   8
ATOM      8  C   UNL     1      10.548  39.062 138.448  1.00  0.00     0.000 C 
BRANCH   8   9
ATOM      9  C   UNL     1       9.022  38.912 138.591  1.00  0.00     0.006 C 
BRANCH   9  10
ATOM     10  C   UNL     1       8.621  37.965 139.729  1.00  0.00     0.053 C 
BRANCH  10  11
ATOM     11  C   UNL     1       7.654  36.936 139.235  1.00  0.00     0.041 C 
ATOM     12  O   UNL     1       7.408  35.914 139.928  1.00  0.00    -0.550 OA
ATOM     13  O   UNL     1       7.061  37.082 137.987  1.00  0.00    -0.550 OA
ENDBRANCH  10  11
ENDBRANCH   9  10
ENDBRANCH   8   9
ENDBRANCH   1   8
TORSDOF 8
ENDMDL
MODEL 8
REMARK VINA RESULT:    -2.979     14.560     15.568
REMARK INTER + INTRA:          -4.793
REMARK INTER:                  -4.232
REMARK INTRA:                  -0.561
REMARK UNBOUND:                -0.421
REMARK SMILES O=C([O-])CCCCCCCC(=O)[O-]
REMARK SMILES IDX 7 1 6 2 5 3 4 4 2 5 1 6 3 7 8 8 9 9 10 10 11 11 12 12 13 13
REMARK H PARENT
REMARK Flexibility Score: inf
ROOT
ATOM      1  C   UNL     1       8.447  36.304 140.187  1.00  0.00     0.000 C 
ENDROOT
BRANCH   1   2
ATOM      2  C   UNL     1       7.285  35.925 139.249  1.00  0.00     0.000 C 
BRANCH   2   3
ATOM      3  C   UNL     1       7.130  36.824 138.006  1.00  0.00     0.006 C 
BRANCH   3   4
ATOM      4  C   UNL     1       7.454  38.307 138.251  1.00  0.00     0.053 C 
BRANCH   4   5
ATOM      5  C   UNL     1       6.369  39.208 137.748  1.00  0.00     0.041 C 
ATOM      6  O   UNL     1       5.499  38.767 136.949  1.00  0.00    -0.550 OA
ATOM      7  O   UNL     1       6.335  40.541 138.134  1.00  0.00    -0.550 OA
ENDBRANCH   4   5
ENDBRANCH   3   4
ENDBRANCH   2   3
ENDBRANCH   1   2
BRANCH   1   8
ATOM      8  C   UNL     1       9.527  35.218 140.366  1.00  0.00     0.000 C 
BRANCH   8   9
ATOM      9  C   UNL     1      10.499  35.069 139.181  1.00  0.00     0.006 C 
BRANCH   9  10
ATOM     10  C   UNL     1      10.999  36.417 138.646  1.00  0.00     0.053 C 
BRANCH  10  11
ATOM     11  C   UNL     1      12.447  36.602 138.970  1.00  0.00     0.041 C 
ATOM     12  O   UNL     1      13.125  35.640 139.416  1.00  0.00    -0.550 OA
ATOM     13  O   UNL     1      13.037  37.852 138.825  1.00  0.00    -0.550 OA
ENDBRANCH  10  11
ENDBRANCH   9  10
ENDBRANCH   8   9
ENDBRANCH   1   8
TORSDOF 8
ENDMDL
MODEL 9
REMARK VINA RESULT:    -2.958     13.971     15.210
REMARK INTER + INTRA:          -4.762
REMARK INTER:                  -4.229
REMARK INTRA:                  -0.533
REMARK UNBOUND:                -0.421
REMARK SMILES O=C([O-])CCCCCCCC(=O)[O-]
REMARK SMILES IDX 7 1 6 2 5 3 4 4 2 5 1 6 3 7 8 8 9 9 10 10 11 11 12 12 13 13
REMARK H PARENT
REMARK Flexibility Score: inf
ROOT
ATOM      1  C   UNL     1       9.396  35.752 140.639  1.00  0.00     0.000 C 
ENDROOT
BRANCH   1   2
ATOM      2  C   UNL     1      10.698  35.069 140.175  1.00  0.00     0.000 C 
BRANCH   2   3
ATOM      3  C   UNL     1      11.137  35.411 138.738  1.00  0.00     0.006 C 
BRANCH   3   4
ATOM      4  C   UNL     1      12.288  36.426 138.650  1.00  0.00     0.053 C 
BRANCH   4   5
ATOM      5  C   UNL     1      11.855  37.800 139.061  1.00  0.00     0.041 C 
ATOM      6  O   UNL     1      12.466  38.408 139.980  1.00  0.00    -0.550 OA
ATOM      7  O   UNL     1      10.757  38.396 138.455  1.00  0.00    -0.550 OA
ENDBRANCH   4   5
ENDBRANCH   3   4
ENDBRANCH   2   3
ENDBRANCH   1   2
BRANCH   1   8
ATOM      8  C   UNL     1       8.121  34.896 140.499  1.00  0.00     0.000 C 
BRANCH   8   9
ATOM      9  C   UNL     1       7.137  35.371 139.414  1.00  0.00     0.006 C 
BRANCH   9  10
ATOM     10  C   UNL     1       7.719  36.479 138.526  1.00  0.00     0.053 C 
BRANCH  10  11
ATOM     11  C   UNL     1       6.783  37.644 138.465  1.00  0.00     0.041 C 
ATOM     12  O   UNL     1       6.571  38.230 137.372  1.00  0.00    -0.550 OA
ATOM     13  O   UNL     1       6.182  38.113 139.627  1.00  0.00    -0.550 OA
ENDBRANCH  10  11
ENDBRANCH   9  10
ENDBRANCH   8   9
ENDBRANCH   1   8
TORSDOF 8
ENDMDL
