MODEL 1
REMARK VINA RESULT:    -3.980      0.000      0.000
REMARK INTER + INTRA:          -9.610
REMARK INTER:                  -7.238
REMARK INTRA:                  -2.372
REMARK UNBOUND:                -2.372
REMARK SMILES CCCCCCCCCCCCCCCC(=O)[O-]
REMARK SMILES IDX 9 1 10 2 11 3 12 4 13 5 14 6 15 7 16 8 17 9 18 10 8 11 7 12
REMARK SMILES IDX 6 13 5 14 4 15 3 16 2 17 1 18
REMARK H PARENT
REMARK Flexibility Score: inf
ROOT
ATOM      1  C   UNL     1     -18.498  18.536 -17.555  1.00  0.00     0.000 C 
ENDROOT
BRANCH   1   2
ATOM      2  C   UNL     1     -17.442  18.327 -16.454  1.00  0.00     0.000 C 
BRANCH   2   3
ATOM      3  C   UNL     1     -16.087  19.014 -16.713  1.00  0.00     0.000 C 
BRANCH   3   4
ATOM      4  C   UNL     1     -16.061  19.984 -17.911  1.00  0.00     0.000 C 
BRANCH   4   5
ATOM      5  C   UNL     1     -16.070  21.477 -17.540  1.00  0.00     0.000 C 
BRANCH   5   6
ATOM      6  C   UNL     1     -14.745  22.183 -17.877  1.00  0.00     0.006 C 
BRANCH   6   7
ATOM      7  C   UNL     1     -13.768  22.174 -16.694  1.00  0.00     0.053 C 
BRANCH   7   8
ATOM      8  C   UNL     1     -12.815  21.020 -16.768  1.00  0.00     0.041 C 
ATOM      9  O   UNL     1     -12.397  20.473 -15.714  1.00  0.00    -0.550 OA
ATOM     10  O   UNL     1     -12.409  20.533 -18.004  1.00  0.00    -0.550 OA
ENDBRANCH   7   8
ENDBRANCH   6   7
ENDBRANCH   5   6
ENDBRANCH   4   5
ENDBRANCH   3   4
ENDBRANCH   2   3
ENDBRANCH   1   2
BRANCH   1  11
ATOM     11  C   UNL     1     -19.169  17.226 -17.993  1.00  0.00     0.000 C 
BRANCH  11  12
ATOM     12  C   UNL     1     -18.991  16.995 -19.499  1.00  0.00    -0.000 C 
BRANCH  12  13
ATOM     13  C   UNL     1     -18.592  18.293 -20.213  1.00  0.00    -0.000 C 
BRANCH  13  14
ATOM     14  C   UNL     1     -17.236  18.138 -20.917  1.00  0.00    -0.000 C 
BRANCH  14  15
ATOM     15  C   UNL     1     -16.515  16.838 -20.530  1.00  0.00    -0.000 C 
BRANCH  15  16
ATOM     16  C   UNL     1     -15.114  17.091 -19.943  1.00  0.00    -0.000 C 
BRANCH  16  17
ATOM     17  C   UNL     1     -14.731  16.061 -18.870  1.00  0.00    -0.003 C 
ATOM     18  C   UNL     1     -15.945  15.349 -18.275  1.00  0.00     0.004 C 
ENDBRANCH  16  17
ENDBRANCH  15  16
ENDBRANCH  14  15
ENDBRANCH  13  14
ENDBRANCH  12  13
ENDBRANCH  11  12
ENDBRANCH   1  11
TORSDOF 14
ENDMDL
MODEL 2
REMARK VINA RESULT:    -3.975      5.176      7.251
REMARK INTER + INTRA:          -9.601
REMARK INTER:                  -7.312
REMARK INTRA:                  -2.288
REMARK UNBOUND:                -2.372
REMARK SMILES CCCCCCCCCCCCCCCC(=O)[O-]
REMARK SMILES IDX 9 1 10 2 11 3 12 4 13 5 14 6 15 7 16 8 17 9 18 10 8 11 7 12
REMARK SMILES IDX 6 13 5 14 4 15 3 16 2 17 1 18
REMARK H PARENT
REMARK Flexibility Score: inf
ROOT
ATOM      1  C   UNL     1     -17.895  17.297 -13.492  1.00  0.00     0.000 C 
ENDROOT
BRANCH   1   2
ATOM      2  C   UNL     1     -18.734  16.926 -14.728  1.00  0.00     0.000 C 
BRANCH   2   3
ATOM      3  C   UNL     1     -18.091  17.284 -16.082  1.00  0.00     0.000 C 
BRANCH   3   4
ATOM      4  C   UNL     1     -18.256  16.224 -17.189  1.00  0.00     0.000 C 
BRANCH   4   5
ATOM      5  C   UNL     1     -18.970  14.932 -16.752  1.00  0.00     0.000 C 
BRANCH   5   6
ATOM      6  C   UNL     1     -18.372  13.672 -17.401  1.00  0.00     0.006 C 
BRANCH   6   7
ATOM      7  C   UNL     1     -19.167  12.407 -17.049  1.00  0.00     0.053 C 
BRANCH   7   8
ATOM      8  C   UNL     1     -18.284  11.335 -16.486  1.00  0.00     0.041 C 
ATOM      9  O   UNL     1     -17.755  11.478 -15.352  1.00  0.00    -0.550 OA
ATOM     10  O   UNL     1     -18.066  10.166 -17.205  1.00  0.00    -0.550 OA
ENDBRANCH   7   8
ENDBRANCH   6   7
ENDBRANCH   5   6
ENDBRANCH   4   5
ENDBRANCH   3   4
ENDBRANCH   2   3
ENDBRANCH   1   2
BRANCH   1  11
ATOM     11  C   UNL     1     -16.593  16.489 -13.392  1.00  0.00     0.000 C 
BRANCH  11  12
ATOM     12  C   UNL     1     -16.872  14.984 -13.492  1.00  0.00    -0.000 C 
BRANCH  12  13
ATOM     13  C   UNL     1     -16.018  14.336 -14.589  1.00  0.00    -0.000 C 
BRANCH  13  14
ATOM     14  C   UNL     1     -15.011  15.339 -15.167  1.00  0.00    -0.000 C 
BRANCH  14  15
ATOM     15  C   UNL     1     -14.596  14.997 -16.606  1.00  0.00    -0.000 C 
BRANCH  15  16
ATOM     16  C   UNL     1     -14.875  13.527 -16.969  1.00  0.00    -0.000 C 
BRANCH  16  17
ATOM     17  C   UNL     1     -13.624  12.644 -16.852  1.00  0.00    -0.003 C 
ATOM     18  C   UNL     1     -13.939  11.238 -16.341  1.00  0.00     0.004 C 
ENDBRANCH  16  17
ENDBRANCH  15  16
ENDBRANCH  14  15
ENDBRANCH  13  14
ENDBRANCH  12  13
ENDBRANCH  11  12
ENDBRANCH   1  11
TORSDOF 14
ENDMDL
MODEL 3
REMARK VINA RESULT:    -3.965      2.929      5.541
REMARK INTER + INTRA:          -9.583
REMARK INTER:                  -7.162
REMARK INTRA:                  -2.421
REMARK UNBOUND:                -2.372
REMARK SMILES CCCCCCCCCCCCCCCC(=O)[O-]
REMARK SMILES IDX 9 1 10 2 11 3 12 4 13 5 14 6 15 7 16 8 17 9 18 10 8 11 7 12
REMARK SMILES IDX 6 13 5 14 4 15 3 16 2 17 1 18
REMARK H PARENT
REMARK Flexibility Score: inf
ROOT
ATOM      1  C   UNL     1     -16.777  17.530 -16.936  1.00  0.00     0.000 C 
ENDROOT
BRANCH   1   2
ATOM      2  C   UNL     1     -15.671  16.568 -17.409  1.00  0.00     0.000 C 
BRANCH   2   3
ATOM      3  C   UNL     1     -14.453  17.250 -18.062  1.00  0.00     0.000 C 
BRANCH   3   4
ATOM      4  C   UNL     1     -14.555  17.456 -19.587  1.00  0.00     0.000 C 
BRANCH   4   5
ATOM      5  C   UNL     1     -15.438  16.434 -20.325  1.00  0.00     0.000 C 
BRANCH   5   6
ATOM      6  C   UNL     1     -16.471  17.099 -21.251  1.00  0.00     0.006 C 
BRANCH   6   7
ATOM      7  C   UNL     1     -17.120  18.330 -20.603  1.00  0.00     0.053 C 
BRANCH   7   8
ATOM      8  C   UNL     1     -18.536  18.060 -20.193  1.00  0.00     0.041 C 
ATOM      9  O   UNL     1     -18.882  16.904 -19.831  1.00  0.00    -0.550 OA
ATOM     10  O   UNL     1     -19.467  19.091 -20.186  1.00  0.00    -0.550 OA
ENDBRANCH   7   8
ENDBRANCH   6   7
ENDBRANCH   5   6
ENDBRANCH   4   5
ENDBRANCH   3   4
ENDBRANCH   2   3
ENDBRANCH   1   2
BRANCH   1  11
ATOM     11  C   UNL     1     -16.230  18.895 -16.495  1.00  0.00     0.000 C 
BRANCH  11  12
ATOM     12  C   UNL     1     -16.843  20.027 -17.329  1.00  0.00    -0.000 C 
BRANCH  12  13
ATOM     13  C   UNL     1     -15.759  20.981 -17.846  1.00  0.00    -0.000 C 
BRANCH  13  14
ATOM     14  C   UNL     1     -14.555  21.014 -16.894  1.00  0.00    -0.000 C 
BRANCH  14  15
ATOM     15  C   UNL     1     -13.217  20.832 -17.627  1.00  0.00    -0.000 C 
BRANCH  15  16
ATOM     16  C   UNL     1     -12.196  20.026 -16.804  1.00  0.00    -0.000 C 
BRANCH  16  17
ATOM     17  C   UNL     1     -12.797  19.467 -15.505  1.00  0.00    -0.003 C 
ATOM     18  C   UNL     1     -11.975  19.831 -14.270  1.00  0.00     0.004 C 
ENDBRANCH  16  17
ENDBRANCH  15  16
ENDBRANCH  14  15
ENDBRANCH  13  14
ENDBRANCH  12  13
ENDBRANCH  11  12
ENDBRANCH   1  11
TORSDOF 14
ENDMDL
MODEL 4
REMARK VINA RESULT:    -3.941      1.244      1.830
REMARK INTER + INTRA:          -9.539
REMARK INTER:                  -6.995
REMARK INTRA:                  -2.544
REMARK UNBOUND:                -2.372
REMARK SMILES CCCCCCCCCCCCCCCC(=O)[O-]
REMARK SMILES IDX 9 1 10 2 11 3 12 4 13 5 14 6 15 7 16 8 17 9 18 10 8 11 7 12
REMARK SMILES IDX 6 13 5 14 4 15 3 16 2 17 1 18
REMARK H PARENT
REMARK Flexibility Score: inf
ROOT
ATOM      1  C   UNL     1     -19.488  16.746 -16.960  1.00  0.00     0.000 C 
ENDROOT
BRANCH   1   2
ATOM      2  C   UNL     1     -18.925  17.683 -15.875  1.00  0.00     0.000 C 
BRANCH   2   3
ATOM      3  C   UNL     1     -17.422  17.513 -15.585  1.00  0.00     0.000 C 
BRANCH   3   4
ATOM      4  C   UNL     1     -16.500  18.546 -16.264  1.00  0.00     0.000 C 
BRANCH   4   5
ATOM      5  C   UNL     1     -17.217  19.554 -17.182  1.00  0.00     0.000 C 
BRANCH   5   6
ATOM      6  C   UNL     1     -16.256  20.587 -17.795  1.00  0.00     0.006 C 
BRANCH   6   7
ATOM      7  C   UNL     1     -14.907  20.629 -17.064  1.00  0.00     0.053 C 
BRANCH   7   8
ATOM      8  C   UNL     1     -14.234  21.958 -17.216  1.00  0.00     0.041 C 
ATOM      9  O   UNL     1     -14.476  22.682 -18.218  1.00  0.00    -0.550 OA
ATOM     10  O   UNL     1     -13.357  22.410 -16.237  1.00  0.00    -0.550 OA
ENDBRANCH   7   8
ENDBRANCH   6   7
ENDBRANCH   5   6
ENDBRANCH   4   5
ENDBRANCH   3   4
ENDBRANCH   2   3
ENDBRANCH   1   2
BRANCH   1  11
ATOM     11  C   UNL     1     -20.123  17.506 -18.133  1.00  0.00     0.000 C 
BRANCH  11  12
ATOM     12  C   UNL     1     -19.419  17.165 -19.453  1.00  0.00    -0.000 C 
BRANCH  12  13
ATOM     13  C   UNL     1     -19.059  18.437 -20.231  1.00  0.00    -0.000 C 
BRANCH  13  14
ATOM     14  C   UNL     1     -17.560  18.473 -20.562  1.00  0.00    -0.000 C 
BRANCH  14  15
ATOM     15  C   UNL     1     -16.860  17.135 -20.279  1.00  0.00    -0.000 C 
BRANCH  15  16
ATOM     16  C   UNL     1     -15.441  17.318 -19.711  1.00  0.00    -0.000 C 
BRANCH  16  17
ATOM     17  C   UNL     1     -15.082  16.249 -18.668  1.00  0.00    -0.003 C 
ATOM     18  C   UNL     1     -16.265  15.350 -18.313  1.00  0.00     0.004 C 
ENDBRANCH  16  17
ENDBRANCH  15  16
ENDBRANCH  14  15
ENDBRANCH  13  14
ENDBRANCH  12  13
ENDBRANCH  11  12
ENDBRANCH   1  11
TORSDOF 14
ENDMDL
MODEL 5
REMARK VINA RESULT:    -3.931     15.746     18.132
REMARK INTER + INTRA:          -9.521
REMARK INTER:                  -7.159
REMARK INTRA:                  -2.362
REMARK UNBOUND:                -2.372
REMARK SMILES CCCCCCCCCCCCCCCC(=O)[O-]
REMARK SMILES IDX 9 1 10 2 11 3 12 4 13 5 14 6 15 7 16 8 17 9 18 10 8 11 7 12
REMARK SMILES IDX 6 13 5 14 4 15 3 16 2 17 1 18
REMARK H PARENT
REMARK Flexibility Score: inf
ROOT
ATOM      1  C   UNL     1      -2.323  10.523 -12.520  1.00  0.00     0.000 C 
ENDROOT
BRANCH   1   2
ATOM      2  C   UNL     1      -3.634  10.710 -11.734  1.00  0.00     0.000 C 
BRANCH   2   3
ATOM      3  C   UNL     1      -3.815   9.756 -10.537  1.00  0.00     0.000 C 
BRANCH   3   4
ATOM      4  C   UNL     1      -3.520  10.373  -9.155  1.00  0.00     0.000 C 
BRANCH   4   5
ATOM      5  C   UNL     1      -2.084  10.894  -8.968  1.00  0.00     0.000 C 
BRANCH   5   6
ATOM      6  C   UNL     1      -1.177   9.889  -8.236  1.00  0.00     0.006 C 
BRANCH   6   7
ATOM      7  C   UNL     1      -0.576   8.850  -9.192  1.00  0.00     0.053 C 
BRANCH   7   8
ATOM      8  C   UNL     1      -0.899   7.450  -8.765  1.00  0.00     0.041 C 
ATOM      9  O   UNL     1      -2.098   7.074  -8.678  1.00  0.00    -0.550 OA
ATOM     10  O   UNL     1       0.125   6.554  -8.488  1.00  0.00    -0.550 OA
ENDBRANCH   7   8
ENDBRANCH   6   7
ENDBRANCH   5   6
ENDBRANCH   4   5
ENDBRANCH   3   4
ENDBRANCH   2   3
ENDBRANCH   1   2
BRANCH   1  11
ATOM     11  C   UNL     1      -1.740  11.849 -13.030  1.00  0.00     0.000 C 
BRANCH  11  12
ATOM     12  C   UNL     1      -0.830  12.489 -11.975  1.00  0.00    -0.000 C 
BRANCH  12  13
ATOM     13  C   UNL     1      -1.392  13.837 -11.506  1.00  0.00    -0.000 C 
BRANCH  13  14
ATOM     14  C   UNL     1      -2.591  14.262 -12.367  1.00  0.00    -0.000 C 
BRANCH  14  15
ATOM     15  C   UNL     1      -3.880  14.422 -11.546  1.00  0.00    -0.000 C 
BRANCH  15  16
ATOM     16  C   UNL     1      -3.708  13.980 -10.081  1.00  0.00    -0.000 C 
BRANCH  16  17
ATOM     17  C   UNL     1      -5.007  14.107  -9.271  1.00  0.00    -0.003 C 
ATOM     18  C   UNL     1      -6.041  13.046  -9.644  1.00  0.00     0.004 C 
ENDBRANCH  16  17
ENDBRANCH  15  16
ENDBRANCH  14  15
ENDBRANCH  13  14
ENDBRANCH  12  13
ENDBRANCH  11  12
ENDBRANCH   1  11
TORSDOF 14
ENDMDL
MODEL 6
REMARK VINA RESULT:    -3.913      2.803      5.212
REMARK INTER + INTRA:          -9.487
REMARK INTER:                  -7.321
REMARK INTRA:                  -2.166
REMARK UNBOUND:                -2.372
REMARK SMILES CCCCCCCCCCCCCCCC(=O)[O-]
REMARK SMILES IDX 9 1 10 2 11 3 12 4 13 5 14 6 15 7 16 8 17 9 18 10 8 11 7 12
REMARK SMILES IDX 6 13 5 14 4 15 3 16 2 17 1 18
REMARK H PARENT
REMARK Flexibility Score: inf
ROOT
ATOM      1  C   UNL     1     -17.438  18.981 -20.388  1.00  0.00     0.000 C 
ENDROOT
BRANCH   1   2
ATOM      2  C   UNL     1     -18.812  19.132 -19.710  1.00  0.00     0.000 C 
BRANCH   2   3
ATOM      3  C   UNL     1     -19.640  17.835 -19.622  1.00  0.00     0.000 C 
BRANCH   3   4
ATOM      4  C   UNL     1     -19.623  17.137 -18.247  1.00  0.00     0.000 C 
BRANCH   4   5
ATOM      5  C   UNL     1     -19.788  18.075 -17.038  1.00  0.00     0.000 C 
BRANCH   5   6
ATOM      6  C   UNL     1     -18.771  17.789 -15.920  1.00  0.00     0.006 C 
BRANCH   6   7
ATOM      7  C   UNL     1     -19.449  17.599 -14.556  1.00  0.00     0.053 C 
BRANCH   7   8
ATOM      8  C   UNL     1     -18.450  17.343 -13.470  1.00  0.00     0.041 C 
ATOM      9  O   UNL     1     -18.486  18.013 -12.403  1.00  0.00    -0.550 OA
ATOM     10  O   UNL     1     -17.494  16.347 -13.624  1.00  0.00    -0.550 OA
ENDBRANCH   7   8
ENDBRANCH   6   7
ENDBRANCH   5   6
ENDBRANCH   4   5
ENDBRANCH   3   4
ENDBRANCH   2   3
ENDBRANCH   1   2
BRANCH   1  11
ATOM     11  C   UNL     1     -17.331  17.707 -21.239  1.00  0.00     0.000 C 
BRANCH  11  12
ATOM     12  C   UNL     1     -16.293  16.742 -20.653  1.00  0.00    -0.000 C 
BRANCH  12  13
ATOM     13  C   UNL     1     -15.486  17.412 -19.534  1.00  0.00    -0.000 C 
BRANCH  13  14
ATOM     14  C   UNL     1     -15.809  16.783 -18.171  1.00  0.00    -0.000 C 
BRANCH  14  15
ATOM     15  C   UNL     1     -15.234  17.590 -16.997  1.00  0.00    -0.000 C 
BRANCH  15  16
ATOM     16  C   UNL     1     -14.950  19.057 -17.370  1.00  0.00    -0.000 C 
BRANCH  16  17
ATOM     17  C   UNL     1     -16.125  19.988 -17.039  1.00  0.00    -0.003 C 
ATOM     18  C   UNL     1     -15.997  21.360 -17.699  1.00  0.00     0.004 C 
ENDBRANCH  16  17
ENDBRANCH  15  16
ENDBRANCH  14  15
ENDBRANCH  13  14
ENDBRANCH  12  13
ENDBRANCH  11  12
ENDBRANCH   1  11
TORSDOF 14
ENDMDL
MODEL 7
REMARK VINA RESULT:    -3.902      3.146      6.052
REMARK INTER + INTRA:          -9.467
REMARK INTER:                  -7.300
REMARK INTRA:                  -2.167
REMARK UNBOUND:                -2.372
REMARK SMILES CCCCCCCCCCCCCCCC(=O)[O-]
REMARK SMILES IDX 9 1 10 2 11 3 12 4 13 5 14 6 15 7 16 8 17 9 18 10 8 11 7 12
REMARK SMILES IDX 6 13 5 14 4 15 3 16 2 17 1 18
REMARK H PARENT
REMARK Flexibility Score: inf
ROOT
ATOM      1  C   UNL     1     -14.485  21.320 -17.377  1.00  0.00     0.000 C 
ENDROOT
BRANCH   1   2
ATOM      2  C   UNL     1     -15.286  20.089 -16.913  1.00  0.00     0.000 C 
BRANCH   2   3
ATOM      3  C   UNL     1     -15.893  19.242 -18.048  1.00  0.00     0.000 C 
BRANCH   3   4
ATOM      4  C   UNL     1     -15.805  17.716 -17.848  1.00  0.00     0.000 C 
BRANCH   4   5
ATOM      5  C   UNL     1     -14.394  17.119 -18.002  1.00  0.00     0.000 C 
BRANCH   5   6
ATOM      6  C   UNL     1     -13.616  17.727 -19.182  1.00  0.00     0.006 C 
BRANCH   6   7
ATOM      7  C   UNL     1     -12.603  16.739 -19.777  1.00  0.00     0.053 C 
BRANCH   7   8
ATOM      8  C   UNL     1     -12.937  16.387 -21.194  1.00  0.00     0.041 C 
ATOM      9  O   UNL     1     -12.064  16.490 -22.097  1.00  0.00    -0.550 OA
ATOM     10  O   UNL     1     -14.205  15.920 -21.514  1.00  0.00    -0.550 OA
ENDBRANCH   7   8
ENDBRANCH   6   7
ENDBRANCH   5   6
ENDBRANCH   4   5
ENDBRANCH   3   4
ENDBRANCH   2   3
ENDBRANCH   1   2
BRANCH   1  11
ATOM     11  C   UNL     1     -13.129  21.449 -16.669  1.00  0.00     0.000 C 
BRANCH  11  12
ATOM     12  C   UNL     1     -12.621  20.079 -16.202  1.00  0.00    -0.000 C 
BRANCH  12  13
ATOM     13  C   UNL     1     -12.075  20.152 -14.771  1.00  0.00    -0.000 C 
BRANCH  13  14
ATOM     14  C   UNL     1     -11.919  18.747 -14.170  1.00  0.00    -0.000 C 
BRANCH  14  15
ATOM     15  C   UNL     1     -12.569  17.658 -15.037  1.00  0.00    -0.000 C 
BRANCH  15  16
ATOM     16  C   UNL     1     -13.742  16.958 -14.326  1.00  0.00    -0.000 C 
BRANCH  16  17
ATOM     17  C   UNL     1     -14.710  17.952 -13.668  1.00  0.00    -0.003 C 
ATOM     18  C   UNL     1     -16.161  17.732 -14.093  1.00  0.00     0.004 C 
ENDBRANCH  16  17
ENDBRANCH  15  16
ENDBRANCH  14  15
ENDBRANCH  13  14
ENDBRANCH  12  13
ENDBRANCH  11  12
ENDBRANCH   1  11
TORSDOF 14
ENDMDL
MODEL 8
REMARK VINA RESULT:    -3.897     14.933     17.230
REMARK INTER + INTRA:          -9.458
REMARK INTER:                  -7.699
REMARK INTRA:                  -1.758
REMARK UNBOUND:                -2.372
REMARK SMILES CCCCCCCCCCCCCCCC(=O)[O-]
REMARK SMILES IDX 9 1 10 2 11 3 12 4 13 5 14 6 15 7 16 8 17 9 18 10 8 11 7 12
REMARK SMILES IDX 6 13 5 14 4 15 3 16 2 17 1 18
REMARK H PARENT
REMARK Flexibility Score: inf
ROOT
ATOM      1  C   UNL     1      -0.307  10.896  -9.083  1.00  0.00     0.000 C 
ENDROOT
BRANCH   1   2
ATOM      2  C   UNL     1      -1.058  11.517 -10.276  1.00  0.00     0.000 C 
BRANCH   2   3
ATOM      3  C   UNL     1      -1.437  13.000 -10.104  1.00  0.00     0.000 C 
BRANCH   3   4
ATOM      4  C   UNL     1      -2.937  13.272  -9.870  1.00  0.00     0.000 C 
BRANCH   4   5
ATOM      5  C   UNL     1      -3.404  13.135  -8.410  1.00  0.00     0.000 C 
BRANCH   5   6
ATOM      6  C   UNL     1      -4.757  13.819  -8.151  1.00  0.00     0.006 C 
BRANCH   6   7
ATOM      7  C   UNL     1      -4.943  14.195  -6.675  1.00  0.00     0.053 C 
BRANCH   7   8
ATOM      8  C   UNL     1      -5.925  15.314  -6.506  1.00  0.00     0.041 C 
ATOM      9  O   UNL     1      -6.731  15.596  -7.431  1.00  0.00    -0.550 OA
ATOM     10  O   UNL     1      -5.966  16.028  -5.315  1.00  0.00    -0.550 OA
ENDBRANCH   7   8
ENDBRANCH   6   7
ENDBRANCH   5   6
ENDBRANCH   4   5
ENDBRANCH   3   4
ENDBRANCH   2   3
ENDBRANCH   1   2
BRANCH   1  11
ATOM     11  C   UNL     1      -1.080   9.741  -8.430  1.00  0.00     0.000 C 
BRANCH  11  12
ATOM     12  C   UNL     1      -1.661   8.799  -9.492  1.00  0.00    -0.000 C 
BRANCH  12  13
ATOM     13  C   UNL     1      -3.103   8.403  -9.150  1.00  0.00    -0.000 C 
BRANCH  13  14
ATOM     14  C   UNL     1      -4.044   9.612  -9.255  1.00  0.00    -0.000 C 
BRANCH  14  15
ATOM     15  C   UNL     1      -4.635   9.779 -10.663  1.00  0.00    -0.000 C 
BRANCH  15  16
ATOM     16  C   UNL     1      -5.531  11.025 -10.784  1.00  0.00    -0.000 C 
BRANCH  16  17
ATOM     17  C   UNL     1      -7.024  10.671 -10.871  1.00  0.00    -0.003 C 
ATOM     18  C   UNL     1      -7.769  10.929  -9.563  1.00  0.00     0.004 C 
ENDBRANCH  16  17
ENDBRANCH  15  16
ENDBRANCH  14  15
ENDBRANCH  13  14
ENDBRANCH  12  13
ENDBRANCH  11  12
ENDBRANCH   1  11
TORSDOF 14
ENDMDL
MODEL 9
REMARK VINA RESULT:    -3.855     14.843     16.947
REMARK INTER + INTRA:          -9.382
REMARK INTER:                  -6.743
REMARK INTRA:                  -2.639
REMARK UNBOUND:                -2.372
REMARK SMILES CCCCCCCCCCCCCCCC(=O)[O-]
REMARK SMILES IDX 9 1 10 2 11 3 12 4 13 5 14 6 15 7 16 8 17 9 18 10 8 11 7 12
REMARK SMILES IDX 6 13 5 14 4 15 3 16 2 17 1 18
REMARK H PARENT
REMARK Flexibility Score: inf
ROOT
ATOM      1  C   UNL     1      -3.180  10.194  -8.380  1.00  0.00     0.000 C 
ENDROOT
BRANCH   1   2
ATOM      2  C   UNL     1      -3.782   9.322  -9.497  1.00  0.00     0.000 C 
BRANCH   2   3
ATOM      3  C   UNL     1      -5.021   9.920 -10.193  1.00  0.00     0.000 C 
BRANCH   3   4
ATOM      4  C   UNL     1      -4.763  10.524 -11.588  1.00  0.00     0.000 C 
BRANCH   4   5
ATOM      5  C   UNL     1      -4.689  12.061 -11.628  1.00  0.00     0.000 C 
BRANCH   5   6
ATOM      6  C   UNL     1      -5.320  12.720 -10.390  1.00  0.00     0.006 C 
BRANCH   6   7
ATOM      7  C   UNL     1      -4.329  13.630  -9.651  1.00  0.00     0.053 C 
BRANCH   7   8
ATOM      8  C   UNL     1      -4.768  13.905  -8.245  1.00  0.00     0.041 C 
ATOM      9  O   UNL     1      -5.991  13.879  -7.946  1.00  0.00    -0.550 OA
ATOM     10  O   UNL     1      -3.824  14.163  -7.260  1.00  0.00    -0.550 OA
ENDBRANCH   7   8
ENDBRANCH   6   7
ENDBRANCH   5   6
ENDBRANCH   4   5
ENDBRANCH   3   4
ENDBRANCH   2   3
ENDBRANCH   1   2
BRANCH   1  11
ATOM     11  C   UNL     1      -1.827  10.808  -8.768  1.00  0.00     0.000 C 
BRANCH  11  12
ATOM     12  C   UNL     1      -1.327  10.237 -10.101  1.00  0.00    -0.000 C 
BRANCH  12  13
ATOM     13  C   UNL     1      -1.050  11.356 -11.111  1.00  0.00    -0.000 C 
BRANCH  13  14
ATOM     14  C   UNL     1      -0.950  12.719 -10.410  1.00  0.00    -0.000 C 
BRANCH  14  15
ATOM     15  C   UNL     1      -0.935  13.893 -11.400  1.00  0.00    -0.000 C 
BRANCH  15  16
ATOM     16  C   UNL     1      -1.574  13.534 -12.754  1.00  0.00    -0.000 C 
BRANCH  16  17
ATOM     17  C   UNL     1      -2.562  14.605 -13.242  1.00  0.00    -0.003 C 
ATOM     18  C   UNL     1      -2.391  15.940 -12.519  1.00  0.00     0.004 C 
ENDBRANCH  16  17
ENDBRANCH  15  16
ENDBRANCH  14  15
ENDBRANCH  13  14
ENDBRANCH  12  13
ENDBRANCH  11  12
ENDBRANCH   1  11
TORSDOF 14
ENDMDL
