MODEL 1
REMARK VINA RESULT:    -6.625      0.000      0.000
REMARK INTER + INTRA:          -7.961
REMARK INTER:                  -7.787
REMARK INTRA:                  -0.174
REMARK UNBOUND:                -0.174
REMARK SMILES O=c1c(O)c(-c2ccc(O)c(O)c2)oc2cc(O)ccc12
REMARK SMILES IDX 5 1 3 2 2 3 1 4 21 5 15 6 14 7 16 8 17 9 19 10 20 11 6 12
REMARK SMILES IDX 7 13 8 14 9 15 13 16 11 17 10 18 12 20 4 22 18 24
REMARK H PARENT 10 19 12 21 4 23 18 25
REMARK Flexibility Score: inf
ROOT
ATOM      1  C   UNL     1     182.614 180.245 174.601  1.00  0.00     0.180 A 
ATOM      2  C   UNL     1     182.059 181.528 174.413  1.00  0.00     0.208 A 
ATOM      3  C   UNL     1     181.234 182.062 175.414  1.00  0.00     0.235 A 
ATOM      4  O   UNL     1     180.735 183.212 175.273  1.00  0.00    -0.285 OA
ATOM      5  C   UNL     1     180.964 181.304 176.564  1.00  0.00     0.069 A 
ATOM      6  C   UNL     1     181.537 180.018 176.667  1.00  0.00     0.142 A 
ATOM      7  O   UNL     1     182.321 179.552 175.700  1.00  0.00    -0.452 OA
ATOM      8  C   UNL     1     181.284 179.227 177.793  1.00  0.00     0.094 A 
ATOM      9  C   UNL     1     180.463 179.707 178.823  1.00  0.00     0.119 A 
ATOM     10  C   UNL     1     179.895 180.981 178.723  1.00  0.00     0.047 A 
ATOM     11  C   UNL     1     180.141 181.779 177.601  1.00  0.00     0.020 A 
ENDROOT
BRANCH   1  12
ATOM     12  C   UNL     1     183.509 179.619 173.601  1.00  0.00     0.025 A 
ATOM     13  C   UNL     1     184.756 180.184 173.281  1.00  0.00     0.016 A 
ATOM     14  C   UNL     1     185.595 179.564 172.351  1.00  0.00     0.051 A 
ATOM     15  C   UNL     1     185.205 178.365 171.739  1.00  0.00     0.157 A 
ATOM     16  C   UNL     1     183.133 178.408 172.999  1.00  0.00     0.062 A 
ATOM     17  C   UNL     1     183.974 177.784 172.066  1.00  0.00     0.158 A 
BRANCH  15  18
ATOM     18  O   UNL     1     186.038 177.743 170.810  1.00  0.00    -0.504 OA
ATOM     19  H   UNL     1     185.926 176.765 170.569  1.00  0.00     0.293 HD
ENDBRANCH  15  18
BRANCH  17  20
ATOM     20  O   UNL     1     183.592 176.588 171.461  1.00  0.00    -0.504 OA
ATOM     21  H   UNL     1     184.134 175.740 171.574  1.00  0.00     0.293 HD
ENDBRANCH  17  20
ENDBRANCH   1  12
BRANCH   2  22
ATOM     22  O   UNL     1     182.306 182.239 173.236  1.00  0.00    -0.502 OA
ATOM     23  H   UNL     1     181.624 182.867 172.829  1.00  0.00     0.293 HD
ENDBRANCH   2  22
BRANCH   9  24
ATOM     24  O   UNL     1     180.207 178.927 179.948  1.00  0.00    -0.508 OA
ATOM     25  H   UNL     1     180.493 179.222 180.873  1.00  0.00     0.293 HD
ENDBRANCH   9  24
TORSDOF 5
ENDMDL
MODEL 2
REMARK VINA RESULT:    -6.611      4.293      6.550
REMARK INTER + INTRA:          -7.944
REMARK INTER:                  -7.766
REMARK INTRA:                  -0.177
REMARK UNBOUND:                -0.174
REMARK SMILES O=c1c(O)c(-c2ccc(O)c(O)c2)oc2cc(O)ccc12
REMARK SMILES IDX 5 1 3 2 2 3 1 4 21 5 15 6 14 7 16 8 17 9 19 10 20 11 6 12
REMARK SMILES IDX 7 13 8 14 9 15 13 16 11 17 10 18 12 20 4 22 18 24
REMARK H PARENT 10 19 12 21 4 23 18 25
REMARK Flexibility Score: inf
ROOT
ATOM      1  C   UNL     1     178.062 180.497 174.515  1.00  0.00     0.180 A 
ATOM      2  C   UNL     1     178.615 179.214 174.319  1.00  0.00     0.208 A 
ATOM      3  C   UNL     1     179.431 178.669 175.322  1.00  0.00     0.235 A 
ATOM      4  O   UNL     1     179.928 177.519 175.174  1.00  0.00    -0.285 OA
ATOM      5  C   UNL     1     179.693 179.415 176.482  1.00  0.00     0.069 A 
ATOM      6  C   UNL     1     179.121 180.701 176.593  1.00  0.00     0.142 A 
ATOM      7  O   UNL     1     178.347 181.178 175.624  1.00  0.00    -0.452 OA
ATOM      8  C   UNL     1     179.367 181.481 177.728  1.00  0.00     0.094 A 
ATOM      9  C   UNL     1     180.177 180.989 178.761  1.00  0.00     0.119 A 
ATOM     10  C   UNL     1     180.743 179.715 178.653  1.00  0.00     0.047 A 
ATOM     11  C   UNL     1     180.505 178.928 177.521  1.00  0.00     0.020 A 
ENDROOT
BRANCH   1  12
ATOM     12  C   UNL     1     177.177 181.134 173.514  1.00  0.00     0.025 A 
ATOM     13  C   UNL     1     175.929 180.579 173.182  1.00  0.00     0.016 A 
ATOM     14  C   UNL     1     175.100 181.209 172.251  1.00  0.00     0.051 A 
ATOM     15  C   UNL     1     175.499 182.410 171.649  1.00  0.00     0.157 A 
ATOM     16  C   UNL     1     177.563 182.347 172.922  1.00  0.00     0.062 A 
ATOM     17  C   UNL     1     176.732 182.982 171.988  1.00  0.00     0.158 A 
BRANCH  15  18
ATOM     18  O   UNL     1     174.677 183.042 170.719  1.00  0.00    -0.504 OA
ATOM     19  H   UNL     1     173.705 182.777 170.604  1.00  0.00     0.293 HD
ENDBRANCH  15  18
BRANCH  17  20
ATOM     20  O   UNL     1     177.125 184.180 171.393  1.00  0.00    -0.504 OA
ATOM     21  H   UNL     1     176.691 185.061 171.640  1.00  0.00     0.293 HD
ENDBRANCH  17  20
ENDBRANCH   1  12
BRANCH   2  22
ATOM     22  O   UNL     1     178.378 178.515 173.134  1.00  0.00    -0.502 OA
ATOM     23  H   UNL     1     179.128 178.182 172.541  1.00  0.00     0.293 HD
ENDBRANCH   2  22
BRANCH   9  24
ATOM     24  O   UNL     1     180.426 181.758 179.895  1.00  0.00    -0.508 OA
ATOM     25  H   UNL     1     180.308 182.764 179.888  1.00  0.00     0.293 HD
ENDBRANCH   9  24
TORSDOF 5
ENDMDL
MODEL 3
REMARK VINA RESULT:    -6.540      2.456      4.686
REMARK INTER + INTRA:          -7.861
REMARK INTER:                  -7.538
REMARK INTRA:                  -0.323
REMARK UNBOUND:                -0.174
REMARK SMILES O=c1c(O)c(-c2ccc(O)c(O)c2)oc2cc(O)ccc12
REMARK SMILES IDX 5 1 3 2 2 3 1 4 21 5 15 6 14 7 16 8 17 9 19 10 20 11 6 12
REMARK SMILES IDX 7 13 8 14 9 15 13 16 11 17 10 18 12 20 4 22 18 24
REMARK H PARENT 10 19 12 21 4 23 18 25
REMARK Flexibility Score: inf
ROOT
ATOM      1  C   UNL     1     182.128 181.831 174.865  1.00  0.00     0.180 A 
ATOM      2  C   UNL     1     182.884 180.642 174.788  1.00  0.00     0.208 A 
ATOM      3  C   UNL     1     182.731 179.677 175.795  1.00  0.00     0.235 A 
ATOM      4  O   UNL     1     183.388 178.602 175.742  1.00  0.00    -0.285 OA
ATOM      5  C   UNL     1     181.849 179.922 176.859  1.00  0.00     0.069 A 
ATOM      6  C   UNL     1     181.146 181.146 176.876  1.00  0.00     0.142 A 
ATOM      7  O   UNL     1     181.313 182.031 175.899  1.00  0.00    -0.452 OA
ATOM      8  C   UNL     1     180.266 181.433 177.925  1.00  0.00     0.094 A 
ATOM      9  C   UNL     1     180.076 180.508 178.961  1.00  0.00     0.119 A 
ATOM     10  C   UNL     1     180.771 179.294 178.944  1.00  0.00     0.047 A 
ATOM     11  C   UNL     1     181.654 178.998 177.901  1.00  0.00     0.020 A 
ENDROOT
BRANCH   1  12
ATOM     12  C   UNL     1     182.219 182.889 173.833  1.00  0.00     0.025 A 
ATOM     13  C   UNL     1     181.407 182.864 172.686  1.00  0.00     0.016 A 
ATOM     14  C   UNL     1     181.493 183.886 171.737  1.00  0.00     0.051 A 
ATOM     15  C   UNL     1     182.381 184.954 171.928  1.00  0.00     0.157 A 
ATOM     16  C   UNL     1     183.092 183.971 174.029  1.00  0.00     0.062 A 
ATOM     17  C   UNL     1     183.179 184.998 173.077  1.00  0.00     0.158 A 
BRANCH  15  18
ATOM     18  O   UNL     1     182.471 185.974 170.983  1.00  0.00    -0.504 OA
ATOM     19  H   UNL     1     182.040 185.892 170.070  1.00  0.00     0.293 HD
ENDBRANCH  15  18
BRANCH  17  20
ATOM     20  O   UNL     1     184.056 186.065 173.269  1.00  0.00    -0.504 OA
ATOM     21  H   UNL     1     185.044 185.916 173.432  1.00  0.00     0.293 HD
ENDBRANCH  17  20
ENDBRANCH   1  12
BRANCH   2  22
ATOM     22  O   UNL     1     183.790 180.447 173.743  1.00  0.00    -0.502 OA
ATOM     23  H   UNL     1     183.676 180.885 172.837  1.00  0.00     0.293 HD
ENDBRANCH   2  22
BRANCH   9  24
ATOM     24  O   UNL     1     179.201 180.785 180.008  1.00  0.00    -0.508 OA
ATOM     25  H   UNL     1     179.343 180.397 180.933  1.00  0.00     0.293 HD
ENDBRANCH   9  24
TORSDOF 5
ENDMDL
MODEL 4
REMARK VINA RESULT:    -6.529      4.202      4.795
REMARK INTER + INTRA:          -7.847
REMARK INTER:                  -7.523
REMARK INTRA:                  -0.324
REMARK UNBOUND:                -0.174
REMARK SMILES O=c1c(O)c(-c2ccc(O)c(O)c2)oc2cc(O)ccc12
REMARK SMILES IDX 5 1 3 2 2 3 1 4 21 5 15 6 14 7 16 8 17 9 19 10 20 11 6 12
REMARK SMILES IDX 7 13 8 14 9 15 13 16 11 17 10 18 12 20 4 22 18 24
REMARK H PARENT 10 19 12 21 4 23 18 25
REMARK Flexibility Score: inf
ROOT
ATOM      1  C   UNL     1     178.629 178.927 174.896  1.00  0.00     0.180 A 
ATOM      2  C   UNL     1     177.882 180.120 174.804  1.00  0.00     0.208 A 
ATOM      3  C   UNL     1     178.028 181.089 175.808  1.00  0.00     0.235 A 
ATOM      4  O   UNL     1     177.379 182.169 175.742  1.00  0.00    -0.285 OA
ATOM      5  C   UNL     1     178.894 180.843 176.886  1.00  0.00     0.069 A 
ATOM      6  C   UNL     1     179.588 179.614 176.918  1.00  0.00     0.142 A 
ATOM      7  O   UNL     1     179.428 178.726 175.942  1.00  0.00    -0.452 OA
ATOM      8  C   UNL     1     180.452 179.326 177.980  1.00  0.00     0.094 A 
ATOM      9  C   UNL     1     180.634 180.254 179.014  1.00  0.00     0.119 A 
ATOM     10  C   UNL     1     179.948 181.473 178.982  1.00  0.00     0.047 A 
ATOM     11  C   UNL     1     179.082 181.770 177.926  1.00  0.00     0.020 A 
ENDROOT
BRANCH   1  12
ATOM     12  C   UNL     1     178.545 177.864 173.868  1.00  0.00     0.025 A 
ATOM     13  C   UNL     1     179.393 177.862 172.748  1.00  0.00     0.016 A 
ATOM     14  C   UNL     1     179.311 176.837 171.802  1.00  0.00     0.051 A 
ATOM     15  C   UNL     1     178.392 175.793 171.970  1.00  0.00     0.157 A 
ATOM     16  C   UNL     1     177.639 176.806 174.042  1.00  0.00     0.062 A 
ATOM     17  C   UNL     1     177.557 175.775 173.094  1.00  0.00     0.158 A 
BRANCH  15  18
ATOM     18  O   UNL     1     178.306 174.768 171.029  1.00  0.00    -0.504 OA
ATOM     19  H   UNL     1     179.125 174.248 170.736  1.00  0.00     0.293 HD
ENDBRANCH  15  18
BRANCH  17  20
ATOM     20  O   UNL     1     176.648 174.732 173.264  1.00  0.00    -0.504 OA
ATOM     21  H   UNL     1     176.353 174.155 172.486  1.00  0.00     0.293 HD
ENDBRANCH  17  20
ENDBRANCH   1  12
BRANCH   2  22
ATOM     22  O   UNL     1     176.991 180.317 173.746  1.00  0.00    -0.502 OA
ATOM     23  H   UNL     1     177.303 180.552 172.812  1.00  0.00     0.293 HD
ENDBRANCH   2  22
BRANCH   9  24
ATOM     24  O   UNL     1     181.493 179.976 180.074  1.00  0.00    -0.508 OA
ATOM     25  H   UNL     1     182.084 179.153 180.075  1.00  0.00     0.293 HD
ENDBRANCH   9  24
TORSDOF 5
ENDMDL
MODEL 5
REMARK VINA RESULT:    -6.472      2.103      6.821
REMARK INTER + INTRA:          -7.781
REMARK INTER:                  -7.487
REMARK INTRA:                  -0.294
REMARK UNBOUND:                -0.174
REMARK SMILES O=c1c(O)c(-c2ccc(O)c(O)c2)oc2cc(O)ccc12
REMARK SMILES IDX 5 1 3 2 2 3 1 4 21 5 15 6 14 7 16 8 17 9 19 10 20 11 6 12
REMARK SMILES IDX 7 13 8 14 9 15 13 16 11 17 10 18 12 20 4 22 18 24
REMARK H PARENT 10 19 12 21 4 23 18 25
REMARK Flexibility Score: inf
ROOT
ATOM      1  C   UNL     1     181.592 178.866 175.245  1.00  0.00     0.180 A 
ATOM      2  C   UNL     1     182.831 179.263 174.700  1.00  0.00     0.208 A 
ATOM      3  C   UNL     1     183.351 178.546 173.612  1.00  0.00     0.235 A 
ATOM      4  O   UNL     1     184.453 178.888 173.101  1.00  0.00    -0.285 OA
ATOM      5  C   UNL     1     182.641 177.446 173.105  1.00  0.00     0.069 A 
ATOM      6  C   UNL     1     181.419 177.098 173.721  1.00  0.00     0.142 A 
ATOM      7  O   UNL     1     180.956 177.808 174.745  1.00  0.00    -0.452 OA
ATOM      8  C   UNL     1     180.687 176.002 173.254  1.00  0.00     0.094 A 
ATOM      9  C   UNL     1     181.159 175.246 172.172  1.00  0.00     0.119 A 
ATOM     10  C   UNL     1     182.369 175.590 171.560  1.00  0.00     0.047 A 
ATOM     11  C   UNL     1     183.110 176.684 172.021  1.00  0.00     0.020 A 
ENDROOT
BRANCH   1  12
ATOM     12  C   UNL     1     180.966 179.582 176.381  1.00  0.00     0.025 A 
ATOM     13  C   UNL     1     179.935 180.515 176.179  1.00  0.00     0.016 A 
ATOM     14  C   UNL     1     179.344 181.162 177.268  1.00  0.00     0.051 A 
ATOM     15  C   UNL     1     179.765 180.874 178.573  1.00  0.00     0.157 A 
ATOM     16  C   UNL     1     181.370 179.283 177.692  1.00  0.00     0.062 A 
ATOM     17  C   UNL     1     180.778 179.930 178.786  1.00  0.00     0.158 A 
BRANCH  15  18
ATOM     18  O   UNL     1     179.180 181.517 179.662  1.00  0.00    -0.504 OA
ATOM     19  H   UNL     1     179.502 181.354 180.610  1.00  0.00     0.293 HD
ENDBRANCH  15  18
BRANCH  17  20
ATOM     20  O   UNL     1     181.190 179.640 180.085  1.00  0.00    -0.504 OA
ATOM     21  H   UNL     1     182.168 179.651 180.346  1.00  0.00     0.293 HD
ENDBRANCH  17  20
ENDBRANCH   1  12
BRANCH   2  22
ATOM     22  O   UNL     1     183.539 180.331 175.256  1.00  0.00    -0.502 OA
ATOM     23  H   UNL     1     184.547 180.403 175.195  1.00  0.00     0.293 HD
ENDBRANCH   2  22
BRANCH   9  24
ATOM     24  O   UNL     1     180.436 174.154 171.699  1.00  0.00    -0.508 OA
ATOM     25  H   UNL     1     180.285 173.332 172.270  1.00  0.00     0.293 HD
ENDBRANCH   9  24
TORSDOF 5
ENDMDL
MODEL 6
REMARK VINA RESULT:    -6.464      4.108      6.597
REMARK INTER + INTRA:          -7.771
REMARK INTER:                  -7.479
REMARK INTRA:                  -0.292
REMARK UNBOUND:                -0.174
REMARK SMILES O=c1c(O)c(-c2ccc(O)c(O)c2)oc2cc(O)ccc12
REMARK SMILES IDX 5 1 3 2 2 3 1 4 21 5 15 6 14 7 16 8 17 9 19 10 20 11 6 12
REMARK SMILES IDX 7 13 8 14 9 15 13 16 11 17 10 18 12 20 4 22 18 24
REMARK H PARENT 10 19 12 21 4 23 18 25
REMARK Flexibility Score: inf
ROOT
ATOM      1  C   UNL     1     178.259 181.219 174.819  1.00  0.00     0.180 A 
ATOM      2  C   UNL     1     177.994 181.520 176.171  1.00  0.00     0.208 A 
ATOM      3  C   UNL     1     178.932 181.144 177.144  1.00  0.00     0.235 A 
ATOM      4  O   UNL     1     178.722 181.412 178.359  1.00  0.00    -0.285 OA
ATOM      5  C   UNL     1     180.096 180.463 176.755  1.00  0.00     0.069 A 
ATOM      6  C   UNL     1     180.277 180.177 175.384  1.00  0.00     0.142 A 
ATOM      7  O   UNL     1     179.369 180.559 174.493  1.00  0.00    -0.452 OA
ATOM      8  C   UNL     1     181.419 179.491 174.957  1.00  0.00     0.094 A 
ATOM      9  C   UNL     1     182.388 179.086 175.885  1.00  0.00     0.119 A 
ATOM     10  C   UNL     1     182.211 179.370 177.244  1.00  0.00     0.047 A 
ATOM     11  C   UNL     1     181.073 180.054 177.681  1.00  0.00     0.020 A 
ENDROOT
BRANCH   1  12
ATOM     12  C   UNL     1     177.329 181.599 173.731  1.00  0.00     0.025 A 
ATOM     13  C   UNL     1     176.184 180.834 173.446  1.00  0.00     0.016 A 
ATOM     14  C   UNL     1     175.308 181.224 172.430  1.00  0.00     0.051 A 
ATOM     15  C   UNL     1     175.556 182.390 171.694  1.00  0.00     0.157 A 
ATOM     16  C   UNL     1     177.561 182.777 173.003  1.00  0.00     0.062 A 
ATOM     17  C   UNL     1     176.682 183.170 171.983  1.00  0.00     0.158 A 
BRANCH  15  18
ATOM     18  O   UNL     1     174.686 182.783 170.678  1.00  0.00    -0.504 OA
ATOM     19  H   UNL     1     174.973 183.434 169.956  1.00  0.00     0.293 HD
ENDBRANCH  15  18
BRANCH  17  20
ATOM     20  O   UNL     1     176.923 184.334 171.255  1.00  0.00    -0.504 OA
ATOM     21  H   UNL     1     177.801 184.834 171.328  1.00  0.00     0.293 HD
ENDBRANCH  17  20
ENDBRANCH   1  12
BRANCH   2  22
ATOM     22  O   UNL     1     176.804 182.155 176.534  1.00  0.00    -0.502 OA
ATOM     23  H   UNL     1     176.786 182.970 177.135  1.00  0.00     0.293 HD
ENDBRANCH   2  22
BRANCH   9  24
ATOM     24  O   UNL     1     183.528 178.404 175.469  1.00  0.00    -0.508 OA
ATOM     25  H   UNL     1     183.466 177.522 174.974  1.00  0.00     0.293 HD
ENDBRANCH   9  24
TORSDOF 5
ENDMDL
MODEL 7
REMARK VINA RESULT:    -6.462      4.218      7.039
REMARK INTER + INTRA:          -7.769
REMARK INTER:                  -7.465
REMARK INTRA:                  -0.304
REMARK UNBOUND:                -0.174
REMARK SMILES O=c1c(O)c(-c2ccc(O)c(O)c2)oc2cc(O)ccc12
REMARK SMILES IDX 5 1 3 2 2 3 1 4 21 5 15 6 14 7 16 8 17 9 19 10 20 11 6 12
REMARK SMILES IDX 7 13 8 14 9 15 13 16 11 17 10 18 12 20 4 22 18 24
REMARK H PARENT 10 19 12 21 4 23 18 25
REMARK Flexibility Score: inf
ROOT
ATOM      1  C   UNL     1     179.137 181.817 175.311  1.00  0.00     0.180 A 
ATOM      2  C   UNL     1     177.908 181.400 174.757  1.00  0.00     0.208 A 
ATOM      3  C   UNL     1     177.394 182.096 173.652  1.00  0.00     0.235 A 
ATOM      4  O   UNL     1     176.302 181.735 173.133  1.00  0.00    -0.285 OA
ATOM      5  C   UNL     1     178.099 183.195 173.138  1.00  0.00     0.069 A 
ATOM      6  C   UNL     1     179.310 183.564 173.763  1.00  0.00     0.142 A 
ATOM      7  O   UNL     1     179.767 182.874 174.803  1.00  0.00    -0.452 OA
ATOM      8  C   UNL     1     180.037 184.661 173.288  1.00  0.00     0.094 A 
ATOM      9  C   UNL     1     179.570 185.395 172.190  1.00  0.00     0.119 A 
ATOM     10  C   UNL     1     178.371 185.030 171.568  1.00  0.00     0.047 A 
ATOM     11  C   UNL     1     177.636 183.937 172.037  1.00  0.00     0.020 A 
ENDROOT
BRANCH   1  12
ATOM     12  C   UNL     1     179.755 181.124 176.465  1.00  0.00     0.025 A 
ATOM     13  C   UNL     1     180.769 180.167 176.286  1.00  0.00     0.016 A 
ATOM     14  C   UNL     1     181.354 179.543 177.391  1.00  0.00     0.051 A 
ATOM     15  C   UNL     1     180.945 179.877 178.689  1.00  0.00     0.157 A 
ATOM     16  C   UNL     1     179.363 181.469 177.768  1.00  0.00     0.062 A 
ATOM     17  C   UNL     1     179.950 180.844 178.878  1.00  0.00     0.158 A 
BRANCH  15  18
ATOM     18  O   UNL     1     181.524 179.256 179.794  1.00  0.00    -0.504 OA
ATOM     19  H   UNL     1     182.528 179.140 179.870  1.00  0.00     0.293 HD
ENDBRANCH  15  18
BRANCH  17  20
ATOM     20  O   UNL     1     179.550 181.180 180.170  1.00  0.00    -0.504 OA
ATOM     21  H   UNL     1     179.044 180.526 180.756  1.00  0.00     0.293 HD
ENDBRANCH  17  20
ENDBRANCH   1  12
BRANCH   2  22
ATOM     22  O   UNL     1     177.204 180.334 175.320  1.00  0.00    -0.502 OA
ATOM     23  H   UNL     1     176.275 180.074 175.011  1.00  0.00     0.293 HD
ENDBRANCH   2  22
BRANCH   9  24
ATOM     24  O   UNL     1     180.289 186.487 171.709  1.00  0.00    -0.508 OA
ATOM     25  H   UNL     1     180.612 186.527 170.750  1.00  0.00     0.293 HD
ENDBRANCH   9  24
TORSDOF 5
ENDMDL
MODEL 8
REMARK VINA RESULT:    -6.430      1.605      2.783
REMARK INTER + INTRA:          -7.731
REMARK INTER:                  -7.428
REMARK INTRA:                  -0.303
REMARK UNBOUND:                -0.174
REMARK SMILES O=c1c(O)c(-c2ccc(O)c(O)c2)oc2cc(O)ccc12
REMARK SMILES IDX 5 1 3 2 2 3 1 4 21 5 15 6 14 7 16 8 17 9 19 10 20 11 6 12
REMARK SMILES IDX 7 13 8 14 9 15 13 16 11 17 10 18 12 20 4 22 18 24
REMARK H PARENT 10 19 12 21 4 23 18 25
REMARK Flexibility Score: inf
ROOT
ATOM      1  C   UNL     1     182.320 179.384 174.722  1.00  0.00     0.180 A 
ATOM      2  C   UNL     1     182.630 179.148 176.077  1.00  0.00     0.208 A 
ATOM      3  C   UNL     1     181.728 179.579 177.062  1.00  0.00     0.235 A 
ATOM      4  O   UNL     1     181.978 179.370 178.281  1.00  0.00    -0.285 OA
ATOM      5  C   UNL     1     180.554 180.248 176.679  1.00  0.00     0.069 A 
ATOM      6  C   UNL     1     180.328 180.466 175.303  1.00  0.00     0.142 A 
ATOM      7  O   UNL     1     181.203 180.035 174.401  1.00  0.00    -0.452 OA
ATOM      8  C   UNL     1     179.176 181.139 174.882  1.00  0.00     0.094 A 
ATOM      9  C   UNL     1     178.241 181.595 175.821  1.00  0.00     0.119 A 
ATOM     10  C   UNL     1     178.463 181.378 177.185  1.00  0.00     0.047 A 
ATOM     11  C   UNL     1     179.613 180.708 177.617  1.00  0.00     0.020 A 
ENDROOT
BRANCH   1  12
ATOM     12  C   UNL     1     183.210 178.945 173.623  1.00  0.00     0.025 A 
ATOM     13  C   UNL     1     184.322 179.710 173.231  1.00  0.00     0.016 A 
ATOM     14  C   UNL     1     185.162 179.265 172.207  1.00  0.00     0.051 A 
ATOM     15  C   UNL     1     184.910 178.042 171.570  1.00  0.00     0.157 A 
ATOM     16  C   UNL     1     182.975 177.711 172.994  1.00  0.00     0.062 A 
ATOM     17  C   UNL     1     183.817 177.263 171.967  1.00  0.00     0.158 A 
BRANCH  15  18
ATOM     18  O   UNL     1     185.744 177.594 170.547  1.00  0.00    -0.504 OA
ATOM     19  H   UNL     1     185.442 176.884 169.890  1.00  0.00     0.293 HD
ENDBRANCH  15  18
BRANCH  17  20
ATOM     20  O   UNL     1     183.573 176.043 171.337  1.00  0.00    -0.504 OA
ATOM     21  H   UNL     1     182.759 175.903 170.750  1.00  0.00     0.293 HD
ENDBRANCH  17  20
ENDBRANCH   1  12
BRANCH   2  22
ATOM     22  O   UNL     1     183.828 178.524 176.431  1.00  0.00    -0.502 OA
ATOM     23  H   UNL     1     184.393 178.837 177.211  1.00  0.00     0.293 HD
ENDBRANCH   2  22
BRANCH   9  24
ATOM     24  O   UNL     1     177.091 182.264 175.410  1.00  0.00    -0.508 OA
ATOM     25  H   UNL     1     176.192 181.799 175.375  1.00  0.00     0.293 HD
ENDBRANCH   9  24
TORSDOF 5
ENDMDL
MODEL 9
REMARK VINA RESULT:    -6.321      4.376      7.055
REMARK INTER + INTRA:          -7.603
REMARK INTER:                  -7.355
REMARK INTRA:                  -0.248
REMARK UNBOUND:                -0.174
REMARK SMILES O=c1c(O)c(-c2ccc(O)c(O)c2)oc2cc(O)ccc12
REMARK SMILES IDX 5 1 3 2 2 3 1 4 21 5 15 6 14 7 16 8 17 9 19 10 20 11 6 12
REMARK SMILES IDX 7 13 8 14 9 15 13 16 11 17 10 18 12 20 4 22 18 24
REMARK H PARENT 10 19 12 21 4 23 18 25
REMARK Flexibility Score: inf
ROOT
ATOM      1  C   UNL     1     178.714 181.541 175.016  1.00  0.00     0.180 A 
ATOM      2  C   UNL     1     179.395 182.638 174.449  1.00  0.00     0.208 A 
ATOM      3  C   UNL     1     178.849 183.260 173.316  1.00  0.00     0.235 A 
ATOM      4  O   UNL     1     179.435 184.251 172.797  1.00  0.00    -0.285 OA
ATOM      5  C   UNL     1     177.657 182.768 172.763  1.00  0.00     0.069 A 
ATOM      6  C   UNL     1     177.048 181.650 173.375  1.00  0.00     0.142 A 
ATOM      7  O   UNL     1     177.592 181.095 174.453  1.00  0.00    -0.452 OA
ATOM      8  C   UNL     1     175.865 181.122 172.848  1.00  0.00     0.094 A 
ATOM      9  C   UNL     1     175.276 181.700 171.715  1.00  0.00     0.119 A 
ATOM     10  C   UNL     1     175.877 182.808 171.108  1.00  0.00     0.047 A 
ATOM     11  C   UNL     1     177.061 183.342 171.626  1.00  0.00     0.020 A 
ENDROOT
BRANCH   1  12
ATOM     12  C   UNL     1     179.214 180.843 176.223  1.00  0.00     0.025 A 
ATOM     13  C   UNL     1     179.854 179.594 176.133  1.00  0.00     0.016 A 
ATOM     14  C   UNL     1     180.337 178.964 177.282  1.00  0.00     0.051 A 
ATOM     15  C   UNL     1     180.202 179.578 178.534  1.00  0.00     0.157 A 
ATOM     16  C   UNL     1     179.098 181.462 177.477  1.00  0.00     0.062 A 
ATOM     17  C   UNL     1     179.584 180.831 178.631  1.00  0.00     0.158 A 
BRANCH  15  18
ATOM     18  O   UNL     1     180.682 178.953 179.684  1.00  0.00    -0.504 OA
ATOM     19  H   UNL     1     180.205 179.042 180.574  1.00  0.00     0.293 HD
ENDBRANCH  15  18
BRANCH  17  20
ATOM     20  O   UNL     1     179.456 181.444 179.877  1.00  0.00    -0.504 OA
ATOM     21  H   UNL     1     179.801 181.004 180.722  1.00  0.00     0.293 HD
ENDBRANCH  17  20
ENDBRANCH   1  12
BRANCH   2  22
ATOM     22  O   UNL     1     180.605 183.076 174.991  1.00  0.00    -0.502 OA
ATOM     23  H   UNL     1     180.855 182.916 175.959  1.00  0.00     0.293 HD
ENDBRANCH   2  22
BRANCH   9  24
ATOM     24  O   UNL     1     174.098 181.182 171.185  1.00  0.00    -0.508 OA
ATOM     25  H   UNL     1     173.190 181.508 171.494  1.00  0.00     0.293 HD
ENDBRANCH   9  24
TORSDOF 5
ENDMDL
