MODEL 1
REMARK VINA RESULT:    -4.803      0.000      0.000
REMARK INTER + INTRA:          -5.892
REMARK INTER:                  -5.786
REMARK INTRA:                  -0.106
REMARK UNBOUND:                -0.106
REMARK SMILES O=c1c(O)c(-c2ccc(O)c(O)c2)oc2cc(O)cc(O)c12
REMARK SMILES IDX 5 1 3 2 2 3 1 4 22 5 20 6 19 7 17 8 16 9 15 10 14 11 6 12
REMARK SMILES IDX 7 13 8 14 9 15 13 16 11 17 10 18 12 20 4 22 21 24 18 26
REMARK H PARENT 10 19 12 21 4 23 21 25 18 27
REMARK Flexibility Score: inf
ROOT
ATOM      1  C   UNL     1      23.983  45.398  86.386  1.00  0.00     0.180 A 
ATOM      2  C   UNL     1      24.889  45.713  87.414  1.00  0.00     0.208 A 
ATOM      3  C   UNL     1      24.780  46.954  88.060  1.00  0.00     0.238 A 
ATOM      4  O   UNL     1      25.560  47.208  89.016  1.00  0.00    -0.285 OA
ATOM      5  C   UNL     1      23.778  47.871  87.662  1.00  0.00     0.111 A 
ATOM      6  C   UNL     1      23.602  49.173  88.220  1.00  0.00     0.134 A 
ATOM      7  C   UNL     1      22.497  49.943  87.839  1.00  0.00     0.093 A 
ATOM      8  C   UNL     1      21.598  49.486  86.873  1.00  0.00     0.123 A 
ATOM      9  C   UNL     1      21.795  48.242  86.278  1.00  0.00     0.094 A 
ATOM     10  C   UNL     1      22.868  47.435  86.663  1.00  0.00     0.146 A 
ATOM     11  O   UNL     1      23.014  46.251  86.079  1.00  0.00    -0.452 OA
ENDROOT
BRANCH   1  12
ATOM     12  C   UNL     1      24.050  44.119  85.641  1.00  0.00     0.025 A 
ATOM     13  C   UNL     1      25.216  43.729  84.960  1.00  0.00     0.016 A 
ATOM     14  C   UNL     1      25.248  42.530  84.244  1.00  0.00     0.051 A 
ATOM     15  C   UNL     1      24.112  41.710  84.186  1.00  0.00     0.157 A 
ATOM     16  C   UNL     1      22.907  43.305  85.561  1.00  0.00     0.062 A 
ATOM     17  C   UNL     1      22.936  42.103  84.846  1.00  0.00     0.158 A 
BRANCH  15  18
ATOM     18  O   UNL     1      24.149  40.514  83.471  1.00  0.00    -0.504 OA
ATOM     19  H   UNL     1      24.095  40.498  82.460  1.00  0.00     0.293 HD
ENDBRANCH  15  18
BRANCH  17  20
ATOM     20  O   UNL     1      21.787  41.314  84.801  1.00  0.00    -0.504 OA
ATOM     21  H   UNL     1      20.984  41.565  84.236  1.00  0.00     0.293 HD
ENDBRANCH  17  20
ENDBRANCH   1  12
BRANCH   2  22
ATOM     22  O   UNL     1      25.856  44.784  87.807  1.00  0.00    -0.502 OA
ATOM     23  H   UNL     1      25.880  44.384  88.737  1.00  0.00     0.293 HD
ENDBRANCH   2  22
BRANCH   6  24
ATOM     24  O   UNL     1      24.492  49.761  89.124  1.00  0.00    -0.507 OA
ATOM     25  H   UNL     1      24.977  50.632  88.968  1.00  0.00     0.293 HD
ENDBRANCH   6  24
BRANCH   8  26
ATOM     26  O   UNL     1      20.510  50.267  86.489  1.00  0.00    -0.508 OA
ATOM     27  H   UNL     1      20.552  50.875  85.679  1.00  0.00     0.293 HD
ENDBRANCH   8  26
TORSDOF 6
ENDMDL
MODEL 2
REMARK VINA RESULT:    -4.719      1.890      6.918
REMARK INTER + INTRA:          -5.791
REMARK INTER:                  -5.474
REMARK INTRA:                  -0.317
REMARK UNBOUND:                -0.106
REMARK SMILES O=c1c(O)c(-c2ccc(O)c(O)c2)oc2cc(O)cc(O)c12
REMARK SMILES IDX 5 1 3 2 2 3 1 4 22 5 20 6 19 7 17 8 16 9 15 10 14 11 6 12
REMARK SMILES IDX 7 13 8 14 9 15 13 16 11 17 10 18 12 20 4 22 21 24 18 26
REMARK H PARENT 10 19 12 21 4 23 21 25 18 27
REMARK Flexibility Score: inf
ROOT
ATOM      1  C   UNL     1      23.485  46.780  86.830  1.00  0.00     0.180 A 
ATOM      2  C   UNL     1      22.871  45.541  87.086  1.00  0.00     0.208 A 
ATOM      3  C   UNL     1      23.414  44.382  86.511  1.00  0.00     0.238 A 
ATOM      4  O   UNL     1      22.893  43.269  86.787  1.00  0.00    -0.285 OA
ATOM      5  C   UNL     1      24.553  44.476  85.675  1.00  0.00     0.111 A 
ATOM      6  C   UNL     1      25.162  43.372  85.007  1.00  0.00     0.134 A 
ATOM      7  C   UNL     1      26.362  43.562  84.311  1.00  0.00     0.093 A 
ATOM      8  C   UNL     1      26.939  44.830  84.203  1.00  0.00     0.123 A 
ATOM      9  C   UNL     1      26.320  45.925  84.801  1.00  0.00     0.094 A 
ATOM     10  C   UNL     1      25.142  45.760  85.533  1.00  0.00     0.146 A 
ATOM     11  O   UNL     1      24.589  46.828  86.096  1.00  0.00    -0.452 OA
ENDROOT
BRANCH   1  12
ATOM     12  C   UNL     1      22.956  48.050  87.382  1.00  0.00     0.025 A 
ATOM     13  C   UNL     1      23.429  48.572  88.599  1.00  0.00     0.016 A 
ATOM     14  C   UNL     1      22.898  49.758  89.112  1.00  0.00     0.051 A 
ATOM     15  C   UNL     1      21.879  50.432  88.425  1.00  0.00     0.157 A 
ATOM     16  C   UNL     1      21.920  48.717  86.709  1.00  0.00     0.062 A 
ATOM     17  C   UNL     1      21.387  49.906  87.219  1.00  0.00     0.158 A 
BRANCH  15  18
ATOM     18  O   UNL     1      21.353  51.616  88.939  1.00  0.00    -0.504 OA
ATOM     19  H   UNL     1      21.241  52.442  88.363  1.00  0.00     0.293 HD
ENDBRANCH  15  18
BRANCH  17  20
ATOM     20  O   UNL     1      20.368  50.548  86.515  1.00  0.00    -0.504 OA
ATOM     21  H   UNL     1      20.562  51.191  85.756  1.00  0.00     0.293 HD
ENDBRANCH  17  20
ENDBRANCH   1  12
BRANCH   2  22
ATOM     22  O   UNL     1      21.761  45.468  87.932  1.00  0.00    -0.502 OA
ATOM     23  H   UNL     1      21.287  46.293  88.279  1.00  0.00     0.293 HD
ENDBRANCH   2  22
BRANCH   6  24
ATOM     24  O   UNL     1      24.620  42.083  84.974  1.00  0.00    -0.507 OA
ATOM     25  H   UNL     1      24.725  41.397  85.706  1.00  0.00     0.293 HD
ENDBRANCH   6  24
BRANCH   8  26
ATOM     26  O   UNL     1      28.125  45.013  83.495  1.00  0.00    -0.508 OA
ATOM     27  H   UNL     1      28.176  45.638  82.699  1.00  0.00     0.293 HD
ENDBRANCH   8  26
TORSDOF 6
ENDMDL
MODEL 3
REMARK VINA RESULT:    -4.639      1.238      1.493
REMARK INTER + INTRA:          -5.694
REMARK INTER:                  -5.567
REMARK INTRA:                  -0.127
REMARK UNBOUND:                -0.106
REMARK SMILES O=c1c(O)c(-c2ccc(O)c(O)c2)oc2cc(O)cc(O)c12
REMARK SMILES IDX 5 1 3 2 2 3 1 4 22 5 20 6 19 7 17 8 16 9 15 10 14 11 6 12
REMARK SMILES IDX 7 13 8 14 9 15 13 16 11 17 10 18 12 20 4 22 21 24 18 26
REMARK H PARENT 10 19 12 21 4 23 21 25 18 27
REMARK Flexibility Score: inf
ROOT
ATOM      1  C   UNL     1      24.497  44.678  86.181  1.00  0.00     0.180 A 
ATOM      2  C   UNL     1      25.664  44.685  86.965  1.00  0.00     0.208 A 
ATOM      3  C   UNL     1      26.004  45.851  87.668  1.00  0.00     0.238 A 
ATOM      4  O   UNL     1      27.021  45.834  88.410  1.00  0.00    -0.285 OA
ATOM      5  C   UNL     1      25.183  47.000  87.567  1.00  0.00     0.111 A 
ATOM      6  C   UNL     1      25.453  48.248  88.203  1.00  0.00     0.134 A 
ATOM      7  C   UNL     1      24.505  49.276  88.139  1.00  0.00     0.093 A 
ATOM      8  C   UNL     1      23.325  49.123  87.407  1.00  0.00     0.123 A 
ATOM      9  C   UNL     1      23.080  47.929  86.732  1.00  0.00     0.094 A 
ATOM     10  C   UNL     1      23.990  46.873  86.807  1.00  0.00     0.146 A 
ATOM     11  O   UNL     1      23.713  45.749  86.158  1.00  0.00    -0.452 OA
ENDROOT
BRANCH   1  12
ATOM     12  C   UNL     1      24.086  43.493  85.391  1.00  0.00     0.025 A 
ATOM     13  C   UNL     1      24.924  42.945  84.405  1.00  0.00     0.016 A 
ATOM     14  C   UNL     1      24.505  41.842  83.655  1.00  0.00     0.051 A 
ATOM     15  C   UNL     1      23.239  41.281  83.870  1.00  0.00     0.157 A 
ATOM     16  C   UNL     1      22.809  42.941  85.587  1.00  0.00     0.062 A 
ATOM     17  C   UNL     1      22.387  41.837  84.839  1.00  0.00     0.158 A 
BRANCH  15  18
ATOM     18  O   UNL     1      22.825  40.181  83.121  1.00  0.00    -0.504 OA
ATOM     19  H   UNL     1      23.348  39.314  83.118  1.00  0.00     0.293 HD
ENDBRANCH  15  18
BRANCH  17  20
ATOM     20  O   UNL     1      21.118  41.307  85.072  1.00  0.00    -0.504 OA
ATOM     21  H   UNL     1      20.836  40.405  84.706  1.00  0.00     0.293 HD
ENDBRANCH  17  20
ENDBRANCH   1  12
BRANCH   2  22
ATOM     22  O   UNL     1      26.449  43.533  87.068  1.00  0.00    -0.502 OA
ATOM     23  H   UNL     1      27.421  43.511  86.787  1.00  0.00     0.293 HD
ENDBRANCH   2  22
BRANCH   6  24
ATOM     24  O   UNL     1      26.641  48.537  88.883  1.00  0.00    -0.507 OA
ATOM     25  H   UNL     1      26.933  49.461  89.162  1.00  0.00     0.293 HD
ENDBRANCH   6  24
BRANCH   8  26
ATOM     26  O   UNL     1      22.394  50.157  87.336  1.00  0.00    -0.508 OA
ATOM     27  H   UNL     1      21.492  50.091  87.795  1.00  0.00     0.293 HD
ENDBRANCH   8  26
TORSDOF 6
ENDMDL
MODEL 4
REMARK VINA RESULT:    -4.591      2.473      3.447
REMARK INTER + INTRA:          -5.637
REMARK INTER:                  -5.605
REMARK INTRA:                  -0.032
REMARK UNBOUND:                -0.106
REMARK SMILES O=c1c(O)c(-c2ccc(O)c(O)c2)oc2cc(O)cc(O)c12
REMARK SMILES IDX 5 1 3 2 2 3 1 4 22 5 20 6 19 7 17 8 16 9 15 10 14 11 6 12
REMARK SMILES IDX 7 13 8 14 9 15 13 16 11 17 10 18 12 20 4 22 21 24 18 26
REMARK H PARENT 10 19 12 21 4 23 21 25 18 27
REMARK Flexibility Score: inf
ROOT
ATOM      1  C   UNL     1      24.390  45.041  86.202  1.00  0.00     0.180 A 
ATOM      2  C   UNL     1      25.638  44.767  85.614  1.00  0.00     0.208 A 
ATOM      3  C   UNL     1      26.518  45.830  85.360  1.00  0.00     0.238 A 
ATOM      4  O   UNL     1      27.655  45.573  84.884  1.00  0.00    -0.285 OA
ATOM      5  C   UNL     1      26.135  47.155  85.682  1.00  0.00     0.111 A 
ATOM      6  C   UNL     1      26.931  48.312  85.431  1.00  0.00     0.134 A 
ATOM      7  C   UNL     1      26.509  49.558  85.909  1.00  0.00     0.093 A 
ATOM      8  C   UNL     1      25.287  49.699  86.571  1.00  0.00     0.123 A 
ATOM      9  C   UNL     1      24.475  48.585  86.768  1.00  0.00     0.094 A 
ATOM     10  C   UNL     1      24.886  47.322  86.335  1.00  0.00     0.146 A 
ATOM     11  O   UNL     1      24.087  46.285  86.552  1.00  0.00    -0.452 OA
ENDROOT
BRANCH   1  12
ATOM     12  C   UNL     1      23.399  43.975  86.478  1.00  0.00     0.025 A 
ATOM     13  C   UNL     1      22.889  43.767  87.772  1.00  0.00     0.016 A 
ATOM     14  C   UNL     1      21.973  42.740  88.013  1.00  0.00     0.051 A 
ATOM     15  C   UNL     1      21.563  41.898  86.970  1.00  0.00     0.157 A 
ATOM     16  C   UNL     1      23.001  43.115  85.441  1.00  0.00     0.062 A 
ATOM     17  C   UNL     1      22.083  42.086  85.679  1.00  0.00     0.158 A 
BRANCH  15  18
ATOM     18  O   UNL     1      20.648  40.876  87.215  1.00  0.00    -0.504 OA
ATOM     19  H   UNL     1      20.435  40.175  86.515  1.00  0.00     0.293 HD
ENDBRANCH  15  18
BRANCH  17  20
ATOM     20  O   UNL     1      21.702  41.261  84.621  1.00  0.00    -0.504 OA
ATOM     21  H   UNL     1      21.218  40.383  84.771  1.00  0.00     0.293 HD
ENDBRANCH  17  20
ENDBRANCH   1  12
BRANCH   2  22
ATOM     22  O   UNL     1      26.004  43.450  85.325  1.00  0.00    -0.502 OA
ATOM     23  H   UNL     1      25.447  42.849  84.731  1.00  0.00     0.293 HD
ENDBRANCH   2  22
BRANCH   6  24
ATOM     24  O   UNL     1      28.123  48.297  84.698  1.00  0.00    -0.507 OA
ATOM     25  H   UNL     1      28.821  47.571  84.753  1.00  0.00     0.293 HD
ENDBRANCH   6  24
BRANCH   8  26
ATOM     26  O   UNL     1      24.866  50.946  87.030  1.00  0.00    -0.508 OA
ATOM     27  H   UNL     1      24.174  51.490  86.528  1.00  0.00     0.293 HD
ENDBRANCH   8  26
TORSDOF 6
ENDMDL
MODEL 5
REMARK VINA RESULT:    -4.556      1.579      6.594
REMARK INTER + INTRA:          -5.594
REMARK INTER:                  -5.322
REMARK INTRA:                  -0.272
REMARK UNBOUND:                -0.106
REMARK SMILES O=c1c(O)c(-c2ccc(O)c(O)c2)oc2cc(O)cc(O)c12
REMARK SMILES IDX 5 1 3 2 2 3 1 4 22 5 20 6 19 7 17 8 16 9 15 10 14 11 6 12
REMARK SMILES IDX 7 13 8 14 9 15 13 16 11 17 10 18 12 20 4 22 21 24 18 26
REMARK H PARENT 10 19 12 21 4 23 21 25 18 27
REMARK Flexibility Score: inf
ROOT
ATOM      1  C   UNL     1      23.325  46.286  86.870  1.00  0.00     0.180 A 
ATOM      2  C   UNL     1      24.696  46.590  86.933  1.00  0.00     0.208 A 
ATOM      3  C   UNL     1      25.621  45.673  86.409  1.00  0.00     0.238 A 
ATOM      4  O   UNL     1      26.843  45.975  86.420  1.00  0.00    -0.285 OA
ATOM      5  C   UNL     1      25.166  44.457  85.844  1.00  0.00     0.111 A 
ATOM      6  C   UNL     1      26.016  43.438  85.321  1.00  0.00     0.134 A 
ATOM      7  C   UNL     1      25.452  42.335  84.668  1.00  0.00     0.093 A 
ATOM      8  C   UNL     1      24.067  42.183  84.578  1.00  0.00     0.123 A 
ATOM      9  C   UNL     1      23.227  43.143  85.138  1.00  0.00     0.094 A 
ATOM     10  C   UNL     1      23.760  44.272  85.764  1.00  0.00     0.146 A 
ATOM     11  O   UNL     1      22.925  45.168  86.276  1.00  0.00    -0.452 OA
ENDROOT
BRANCH   1  12
ATOM     12  C   UNL     1      22.291  47.192  87.423  1.00  0.00     0.025 A 
ATOM     13  C   UNL     1      21.639  46.904  88.635  1.00  0.00     0.016 A 
ATOM     14  C   UNL     1      20.649  47.760  89.125  1.00  0.00     0.051 A 
ATOM     15  C   UNL     1      20.287  48.908  88.406  1.00  0.00     0.157 A 
ATOM     16  C   UNL     1      21.909  48.331  86.696  1.00  0.00     0.062 A 
ATOM     17  C   UNL     1      20.920  49.191  87.184  1.00  0.00     0.158 A 
BRANCH  15  18
ATOM     18  O   UNL     1      19.301  49.760  88.899  1.00  0.00    -0.504 OA
ATOM     19  H   UNL     1      19.467  50.753  89.015  1.00  0.00     0.293 HD
ENDBRANCH  15  18
BRANCH  17  20
ATOM     20  O   UNL     1      20.578  50.320  86.440  1.00  0.00    -0.504 OA
ATOM     21  H   UNL     1      20.041  51.083  86.837  1.00  0.00     0.293 HD
ENDBRANCH  17  20
ENDBRANCH   1  12
BRANCH   2  22
ATOM     22  O   UNL     1      25.122  47.805  87.475  1.00  0.00    -0.502 OA
ATOM     23  H   UNL     1      24.983  48.044  88.449  1.00  0.00     0.293 HD
ENDBRANCH   2  22
BRANCH   6  24
ATOM     24  O   UNL     1      27.410  43.447  85.439  1.00  0.00    -0.507 OA
ATOM     25  H   UNL     1      28.041  42.943  84.835  1.00  0.00     0.293 HD
ENDBRANCH   6  24
BRANCH   8  26
ATOM     26  O   UNL     1      23.513  41.075  83.940  1.00  0.00    -0.508 OA
ATOM     27  H   UNL     1      23.785  40.813  82.999  1.00  0.00     0.293 HD
ENDBRANCH   8  26
TORSDOF 6
ENDMDL
MODEL 6
REMARK VINA RESULT:    -4.517      1.401      2.136
REMARK INTER + INTRA:          -5.548
REMARK INTER:                  -5.394
REMARK INTRA:                  -0.154
REMARK UNBOUND:                -0.106
REMARK SMILES O=c1c(O)c(-c2ccc(O)c(O)c2)oc2cc(O)cc(O)c12
REMARK SMILES IDX 5 1 3 2 2 3 1 4 22 5 20 6 19 7 17 8 16 9 15 10 14 11 6 12
REMARK SMILES IDX 7 13 8 14 9 15 13 16 11 17 10 18 12 20 4 22 21 24 18 26
REMARK H PARENT 10 19 12 21 4 23 21 25 18 27
REMARK Flexibility Score: inf
ROOT
ATOM      1  C   UNL     1      23.895  46.777  86.818  1.00  0.00     0.180 A 
ATOM      2  C   UNL     1      24.827  47.325  87.717  1.00  0.00     0.208 A 
ATOM      3  C   UNL     1      24.577  48.591  88.268  1.00  0.00     0.238 A 
ATOM      4  O   UNL     1      25.387  49.053  89.114  1.00  0.00    -0.285 OA
ATOM      5  C   UNL     1      23.407  49.301  87.903  1.00  0.00     0.111 A 
ATOM      6  C   UNL     1      23.073  50.607  88.369  1.00  0.00     0.134 A 
ATOM      7  C   UNL     1      21.827  51.158  88.045  1.00  0.00     0.093 A 
ATOM      8  C   UNL     1      20.932  50.477  87.217  1.00  0.00     0.123 A 
ATOM      9  C   UNL     1      21.274  49.227  86.708  1.00  0.00     0.094 A 
ATOM     10  C   UNL     1      22.494  48.635  87.044  1.00  0.00     0.146 A 
ATOM     11  O   UNL     1      22.777  47.437  86.546  1.00  0.00    -0.452 OA
ENDROOT
BRANCH   1  12
ATOM     12  C   UNL     1      24.102  45.457  86.177  1.00  0.00     0.025 A 
ATOM     13  C   UNL     1      23.260  44.367  86.458  1.00  0.00     0.016 A 
ATOM     14  C   UNL     1      23.488  43.126  85.860  1.00  0.00     0.051 A 
ATOM     15  C   UNL     1      24.568  42.950  84.984  1.00  0.00     0.157 A 
ATOM     16  C   UNL     1      25.196  45.271  85.315  1.00  0.00     0.062 A 
ATOM     17  C   UNL     1      25.427  44.029  84.714  1.00  0.00     0.158 A 
BRANCH  15  18
ATOM     18  O   UNL     1      24.792  41.710  84.388  1.00  0.00    -0.504 OA
ATOM     19  H   UNL     1      24.051  41.027  84.290  1.00  0.00     0.293 HD
ENDBRANCH  15  18
BRANCH  17  20
ATOM     20  O   UNL     1      26.515  43.886  83.853  1.00  0.00    -0.504 OA
ATOM     21  H   UNL     1      27.195  44.625  83.718  1.00  0.00     0.293 HD
ENDBRANCH  17  20
ENDBRANCH   1  12
BRANCH   2  22
ATOM     22  O   UNL     1      25.964  46.598  88.081  1.00  0.00    -0.502 OA
ATOM     23  H   UNL     1      26.262  46.502  89.044  1.00  0.00     0.293 HD
ENDBRANCH   2  22
BRANCH   6  24
ATOM     24  O   UNL     1      23.933  51.410  89.125  1.00  0.00    -0.507 OA
ATOM     25  H   UNL     1      24.240  52.333  88.857  1.00  0.00     0.293 HD
ENDBRANCH   6  24
BRANCH   8  26
ATOM     26  O   UNL     1      19.701  51.041  86.886  1.00  0.00    -0.508 OA
ATOM     27  H   UNL     1      19.151  51.552  87.567  1.00  0.00     0.293 HD
ENDBRANCH   8  26
TORSDOF 6
ENDMDL
MODEL 7
REMARK VINA RESULT:    -4.418      1.913      3.772
REMARK INTER + INTRA:          -5.428
REMARK INTER:                  -5.460
REMARK INTRA:                   0.032
REMARK UNBOUND:                -0.106
REMARK SMILES O=c1c(O)c(-c2ccc(O)c(O)c2)oc2cc(O)cc(O)c12
REMARK SMILES IDX 5 1 3 2 2 3 1 4 22 5 20 6 19 7 17 8 16 9 15 10 14 11 6 12
REMARK SMILES IDX 7 13 8 14 9 15 13 16 11 17 10 18 12 20 4 22 21 24 18 26
REMARK H PARENT 10 19 12 21 4 23 21 25 18 27
REMARK Flexibility Score: inf
ROOT
ATOM      1  C   UNL     1      23.369  47.512  86.700  1.00  0.00     0.180 A 
ATOM      2  C   UNL     1      22.012  47.870  86.777  1.00  0.00     0.208 A 
ATOM      3  C   UNL     1      21.672  49.150  87.242  1.00  0.00     0.238 A 
ATOM      4  O   UNL     1      20.458  49.484  87.257  1.00  0.00    -0.285 OA
ATOM      5  C   UNL     1      22.690  50.050  87.640  1.00  0.00     0.111 A 
ATOM      6  C   UNL     1      22.458  51.356  88.164  1.00  0.00     0.134 A 
ATOM      7  C   UNL     1      23.543  52.208  88.402  1.00  0.00     0.093 A 
ATOM      8  C   UNL     1      24.856  51.777  88.196  1.00  0.00     0.123 A 
ATOM      9  C   UNL     1      25.095  50.482  87.741  1.00  0.00     0.094 A 
ATOM     10  C   UNL     1      24.032  49.622  87.460  1.00  0.00     0.146 A 
ATOM     11  O   UNL     1      24.303  48.400  87.018  1.00  0.00    -0.452 OA
ENDROOT
BRANCH   1  12
ATOM     12  C   UNL     1      23.806  46.172  86.243  1.00  0.00     0.025 A 
ATOM     13  C   UNL     1      23.193  45.000  86.721  1.00  0.00     0.016 A 
ATOM     14  C   UNL     1      23.637  43.746  86.294  1.00  0.00     0.051 A 
ATOM     15  C   UNL     1      24.708  43.643  85.396  1.00  0.00     0.157 A 
ATOM     16  C   UNL     1      24.893  46.063  85.360  1.00  0.00     0.062 A 
ATOM     17  C   UNL     1      25.340  44.809  84.930  1.00  0.00     0.158 A 
BRANCH  15  18
ATOM     18  O   UNL     1      25.148  42.390  84.972  1.00  0.00    -0.504 OA
ATOM     19  H   UNL     1      24.566  41.566  85.060  1.00  0.00     0.293 HD
ENDBRANCH  15  18
BRANCH  17  20
ATOM     20  O   UNL     1      26.412  44.740  84.042  1.00  0.00    -0.504 OA
ATOM     21  H   UNL     1      27.197  44.117  84.193  1.00  0.00     0.293 HD
ENDBRANCH  17  20
ENDBRANCH   1  12
BRANCH   2  22
ATOM     22  O   UNL     1      21.024  46.975  86.358  1.00  0.00    -0.502 OA
ATOM     23  H   UNL     1      20.263  47.251  85.750  1.00  0.00     0.293 HD
ENDBRANCH   2  22
BRANCH   6  24
ATOM     24  O   UNL     1      21.192  51.852  88.492  1.00  0.00    -0.507 OA
ATOM     25  H   UNL     1      20.928  52.196  89.403  1.00  0.00     0.293 HD
ENDBRANCH   6  24
BRANCH   8  26
ATOM     26  O   UNL     1      25.931  52.626  88.451  1.00  0.00    -0.508 OA
ATOM     27  H   UNL     1      26.284  52.768  89.390  1.00  0.00     0.293 HD
ENDBRANCH   8  26
TORSDOF 6
ENDMDL
MODEL 8
REMARK VINA RESULT:    -4.010      2.057      6.986
REMARK INTER + INTRA:          -4.937
REMARK INTER:                  -4.802
REMARK INTRA:                  -0.135
REMARK UNBOUND:                -0.106
REMARK SMILES O=c1c(O)c(-c2ccc(O)c(O)c2)oc2cc(O)cc(O)c12
REMARK SMILES IDX 5 1 3 2 2 3 1 4 22 5 20 6 19 7 17 8 16 9 15 10 14 11 6 12
REMARK SMILES IDX 7 13 8 14 9 15 13 16 11 17 10 18 12 20 4 22 21 24 18 26
REMARK H PARENT 10 19 12 21 4 23 21 25 18 27
REMARK Flexibility Score: inf
ROOT
ATOM      1  C   UNL     1      23.831  48.567  86.820  1.00  0.00     0.180 A 
ATOM      2  C   UNL     1      25.112  48.920  86.360  1.00  0.00     0.208 A 
ATOM      3  C   UNL     1      25.942  47.922  85.826  1.00  0.00     0.238 A 
ATOM      4  O   UNL     1      27.066  48.254  85.366  1.00  0.00    -0.285 OA
ATOM      5  C   UNL     1      25.489  46.582  85.773  1.00  0.00     0.111 A 
ATOM      6  C   UNL     1      26.262  45.484  85.290  1.00  0.00     0.134 A 
ATOM      7  C   UNL     1      25.666  44.223  85.163  1.00  0.00     0.093 A 
ATOM      8  C   UNL     1      24.346  44.007  85.563  1.00  0.00     0.123 A 
ATOM      9  C   UNL     1      23.602  45.059  86.092  1.00  0.00     0.094 A 
ATOM     10  C   UNL     1      24.157  46.336  86.197  1.00  0.00     0.146 A 
ATOM     11  O   UNL     1      23.411  47.314  86.698  1.00  0.00    -0.452 OA
ENDROOT
BRANCH   1  12
ATOM     12  C   UNL     1      22.908  49.559  87.418  1.00  0.00     0.025 A 
ATOM     13  C   UNL     1      23.264  50.292  88.564  1.00  0.00     0.016 A 
ATOM     14  C   UNL     1      22.367  51.205  89.125  1.00  0.00     0.051 A 
ATOM     15  C   UNL     1      21.097  51.388  88.560  1.00  0.00     0.157 A 
ATOM     16  C   UNL     1      21.626  49.729  86.869  1.00  0.00     0.062 A 
ATOM     17  C   UNL     1      20.726  50.643  87.428  1.00  0.00     0.158 A 
BRANCH  15  18
ATOM     18  O   UNL     1      20.206  52.300  89.122  1.00  0.00    -0.504 OA
ATOM     19  H   UNL     1      20.502  53.226  89.404  1.00  0.00     0.293 HD
ENDBRANCH  15  18
BRANCH  17  20
ATOM     20  O   UNL     1      19.468  50.796  86.846  1.00  0.00    -0.504 OA
ATOM     21  H   UNL     1      19.244  51.583  86.247  1.00  0.00     0.293 HD
ENDBRANCH  17  20
ENDBRANCH   1  12
BRANCH   2  22
ATOM     22  O   UNL     1      25.530  50.253  86.401  1.00  0.00    -0.502 OA
ATOM     23  H   UNL     1      24.913  51.008  86.673  1.00  0.00     0.293 HD
ENDBRANCH   2  22
BRANCH   6  24
ATOM     24  O   UNL     1      27.616  45.571  84.950  1.00  0.00    -0.507 OA
ATOM     25  H   UNL     1      28.362  45.750  85.605  1.00  0.00     0.293 HD
ENDBRANCH   6  24
BRANCH   8  26
ATOM     26  O   UNL     1      23.766  42.745  85.448  1.00  0.00    -0.508 OA
ATOM     27  H   UNL     1      23.488  42.369  84.549  1.00  0.00     0.293 HD
ENDBRANCH   8  26
TORSDOF 6
ENDMDL
MODEL 9
REMARK VINA RESULT:    -3.961      2.607      3.731
REMARK INTER + INTRA:          -4.878
REMARK INTER:                  -4.557
REMARK INTRA:                  -0.321
REMARK UNBOUND:                -0.106
REMARK SMILES O=c1c(O)c(-c2ccc(O)c(O)c2)oc2cc(O)cc(O)c12
REMARK SMILES IDX 5 1 3 2 2 3 1 4 22 5 20 6 19 7 17 8 16 9 15 10 14 11 6 12
REMARK SMILES IDX 7 13 8 14 9 15 13 16 11 17 10 18 12 20 4 22 21 24 18 26
REMARK H PARENT 10 19 12 21 4 23 21 25 18 27
REMARK Flexibility Score: inf
ROOT
ATOM      1  C   UNL     1      24.151  47.067  86.941  1.00  0.00     0.180 A 
ATOM      2  C   UNL     1      22.773  46.799  86.875  1.00  0.00     0.208 A 
ATOM      3  C   UNL     1      21.865  47.833  87.153  1.00  0.00     0.238 A 
ATOM      4  O   UNL     1      20.633  47.601  87.039  1.00  0.00    -0.285 OA
ATOM      5  C   UNL     1      22.345  49.117  87.508  1.00  0.00     0.111 A 
ATOM      6  C   UNL     1      21.516  50.226  87.849  1.00  0.00     0.134 A 
ATOM      7  C   UNL     1      22.096  51.483  88.058  1.00  0.00     0.093 A 
ATOM      8  C   UNL     1      23.480  51.656  88.001  1.00  0.00     0.123 A 
ATOM      9  C   UNL     1      24.303  50.566  87.728  1.00  0.00     0.094 A 
ATOM     10  C   UNL     1      23.752  49.307  87.480  1.00  0.00     0.146 A 
ATOM     11  O   UNL     1      24.570  48.296  87.213  1.00  0.00    -0.452 OA
ENDROOT
BRANCH   1  12
ATOM     12  C   UNL     1      25.170  46.022  86.685  1.00  0.00     0.025 A 
ATOM     13  C   UNL     1      25.746  45.289  87.737  1.00  0.00     0.016 A 
ATOM     14  C   UNL     1      26.723  44.325  87.475  1.00  0.00     0.051 A 
ATOM     15  C   UNL     1      27.148  44.089  86.160  1.00  0.00     0.157 A 
ATOM     16  C   UNL     1      25.615  45.797  85.372  1.00  0.00     0.062 A 
ATOM     17  C   UNL     1      26.592  44.832  85.105  1.00  0.00     0.158 A 
BRANCH  15  18
ATOM     18  O   UNL     1      28.122  43.126  85.902  1.00  0.00    -0.504 OA
ATOM     19  H   UNL     1      28.608  43.086  85.014  1.00  0.00     0.293 HD
ENDBRANCH  15  18
BRANCH  17  20
ATOM     20  O   UNL     1      26.999  44.627  83.787  1.00  0.00    -0.504 OA
ATOM     21  H   UNL     1      26.839  43.749  83.305  1.00  0.00     0.293 HD
ENDBRANCH  17  20
ENDBRANCH   1  12
BRANCH   2  22
ATOM     22  O   UNL     1      22.320  45.531  86.500  1.00  0.00    -0.502 OA
ATOM     23  H   UNL     1      21.608  45.033  87.020  1.00  0.00     0.293 HD
ENDBRANCH   2  22
BRANCH   6  24
ATOM     24  O   UNL     1      20.130  50.142  88.022  1.00  0.00    -0.507 OA
ATOM     25  H   UNL     1      19.551  50.882  88.386  1.00  0.00     0.293 HD
ENDBRANCH   6  24
BRANCH   8  26
ATOM     26  O   UNL     1      24.050  52.908  88.225  1.00  0.00    -0.508 OA
ATOM     27  H   UNL     1      23.840  53.445  89.059  1.00  0.00     0.293 HD
ENDBRANCH   8  26
TORSDOF 6
ENDMDL
