MODEL 1
REMARK VINA RESULT:     4.446      0.000      0.000
REMARK INTER + INTRA:           5.634
REMARK INTER:                   5.356
REMARK INTRA:                   0.278
REMARK UNBOUND:                 0.278
REMARK SMILES O=c1c(O)c(-c2ccc(O)c(O)c2)oc2cc(O)cc(O)c12
REMARK SMILES IDX 5 1 3 2 2 3 1 4 22 5 20 6 19 7 17 8 16 9 15 10 14 11 6 12
REMARK SMILES IDX 7 13 8 14 9 15 13 16 11 17 10 18 12 20 4 22 21 24 18 26
REMARK H PARENT 10 19 12 21 4 23 21 25 18 27
REMARK Flexibility Score: inf
ROOT
ATOM      1  C   UNL     1      58.657  27.008  16.879  1.00  0.00     0.180 A 
ATOM      2  C   UNL     1      59.164  27.962  17.783  1.00  0.00     0.208 A 
ATOM      3  C   UNL     1      60.530  28.280  17.740  1.00  0.00     0.238 A 
ATOM      4  O   UNL     1      60.997  29.125  18.552  1.00  0.00    -0.285 OA
ATOM      5  C   UNL     1      61.361  27.658  16.785  1.00  0.00     0.111 A 
ATOM      6  C   UNL     1      62.746  27.926  16.673  1.00  0.00     0.134 A 
ATOM      7  C   UNL     1      63.503  27.272  15.689  1.00  0.00     0.093 A 
ATOM      8  C   UNL     1      62.904  26.359  14.818  1.00  0.00     0.123 A 
ATOM      9  C   UNL     1      61.535  26.091  14.925  1.00  0.00     0.094 A 
ATOM     10  C   UNL     1      60.763  26.731  15.899  1.00  0.00     0.146 A 
ATOM     11  O   UNL     1      59.468  26.454  15.983  1.00  0.00    -0.452 OA
ENDROOT
BRANCH   1  12
ATOM     12  C   UNL     1      57.233  26.607  16.875  1.00  0.00     0.025 A 
ATOM     13  C   UNL     1      56.221  27.495  17.277  1.00  0.00     0.016 A 
ATOM     14  C   UNL     1      54.885  27.086  17.289  1.00  0.00     0.051 A 
ATOM     15  C   UNL     1      54.542  25.780  16.913  1.00  0.00     0.157 A 
ATOM     16  C   UNL     1      56.886  25.292  16.521  1.00  0.00     0.062 A 
ATOM     17  C   UNL     1      55.549  24.878  16.530  1.00  0.00     0.158 A 
BRANCH  15  18
ATOM     18  O   UNL     1      53.208  25.375  16.923  1.00  0.00    -0.504 OA
ATOM     19  H   UNL     1      52.808  24.886  17.717  1.00  0.00     0.293 HD
ENDBRANCH  15  18
BRANCH  17  20
ATOM     20  O   UNL     1      55.242  23.570  16.159  1.00  0.00    -0.504 OA
ATOM     21  H   UNL     1      54.680  22.963  16.742  1.00  0.00     0.293 HD
ENDBRANCH  17  20
ENDBRANCH   1  12
BRANCH   2  22
ATOM     22  O   UNL     1      58.310  28.600  18.687  1.00  0.00    -0.502 OA
ATOM     23  H   UNL     1      57.953  29.536  18.529  1.00  0.00     0.293 HD
ENDBRANCH   2  22
BRANCH   6  24
ATOM     24  O   UNL     1      63.375  28.833  17.527  1.00  0.00    -0.507 OA
ATOM     25  H   UNL     1      63.895  28.525  18.341  1.00  0.00     0.293 HD
ENDBRANCH   6  24
BRANCH   8  26
ATOM     26  O   UNL     1      63.678  25.725  13.849  1.00  0.00    -0.508 OA
ATOM     27  H   UNL     1      63.326  24.932  13.326  1.00  0.00     0.293 HD
ENDBRANCH   8  26
TORSDOF 6
ENDMDL
MODEL 2
REMARK VINA RESULT:     6.108      1.799      6.441
REMARK INTER + INTRA:           7.635
REMARK INTER:                   7.174
REMARK INTRA:                   0.461
REMARK UNBOUND:                 0.278
REMARK SMILES O=c1c(O)c(-c2ccc(O)c(O)c2)oc2cc(O)cc(O)c12
REMARK SMILES IDX 5 1 3 2 2 3 1 4 22 5 20 6 19 7 17 8 16 9 15 10 14 11 6 12
REMARK SMILES IDX 7 13 8 14 9 15 13 16 11 17 10 18 12 20 4 22 21 24 18 26
REMARK H PARENT 10 19 12 21 4 23 21 25 18 27
REMARK Flexibility Score: inf
ROOT
ATOM      1  C   UNL     1      61.326  26.588  15.339  1.00  0.00     0.180 A 
ATOM      2  C   UNL     1      61.852  27.423  16.344  1.00  0.00     0.208 A 
ATOM      3  C   UNL     1      60.976  28.002  17.274  1.00  0.00     0.238 A 
ATOM      4  O   UNL     1      61.435  28.761  18.171  1.00  0.00    -0.285 OA
ATOM      5  C   UNL     1      59.595  27.723  17.199  1.00  0.00     0.111 A 
ATOM      6  C   UNL     1      58.646  28.262  18.100  1.00  0.00     0.134 A 
ATOM      7  C   UNL     1      57.290  27.928  17.964  1.00  0.00     0.093 A 
ATOM      8  C   UNL     1      56.866  27.067  16.949  1.00  0.00     0.123 A 
ATOM      9  C   UNL     1      57.800  26.531  16.056  1.00  0.00     0.094 A 
ATOM     10  C   UNL     1      59.156  26.853  16.173  1.00  0.00     0.146 A 
ATOM     11  O   UNL     1      60.021  26.335  15.309  1.00  0.00    -0.452 OA
ENDROOT
BRANCH   1  12
ATOM     12  C   UNL     1      62.183  25.956  14.312  1.00  0.00     0.025 A 
ATOM     13  C   UNL     1      63.578  26.126  14.318  1.00  0.00     0.016 A 
ATOM     14  C   UNL     1      64.366  25.540  13.323  1.00  0.00     0.051 A 
ATOM     15  C   UNL     1      63.770  24.789  12.301  1.00  0.00     0.157 A 
ATOM     16  C   UNL     1      61.589  25.221  13.273  1.00  0.00     0.062 A 
ATOM     17  C   UNL     1      62.374  24.631  12.275  1.00  0.00     0.158 A 
BRANCH  15  18
ATOM     18  O   UNL     1      64.558  24.203  11.311  1.00  0.00    -0.504 OA
ATOM     19  H   UNL     1      64.924  23.263  11.411  1.00  0.00     0.293 HD
ENDBRANCH  15  18
BRANCH  17  20
ATOM     20  O   UNL     1      61.750  23.897  11.268  1.00  0.00    -0.504 OA
ATOM     21  H   UNL     1      60.763  23.994  11.064  1.00  0.00     0.293 HD
ENDBRANCH  17  20
ENDBRANCH   1  12
BRANCH   2  22
ATOM     22  O   UNL     1      63.230  27.645  16.426  1.00  0.00    -0.502 OA
ATOM     23  H   UNL     1      63.865  26.968  16.832  1.00  0.00     0.293 HD
ENDBRANCH   2  22
BRANCH   6  24
ATOM     24  O   UNL     1      59.037  29.125  19.125  1.00  0.00    -0.507 OA
ATOM     25  H   UNL     1      59.121  30.124  18.978  1.00  0.00     0.293 HD
ENDBRANCH   6  24
BRANCH   8  26
ATOM     26  O   UNL     1      55.515  26.751  16.837  1.00  0.00    -0.508 OA
ATOM     27  H   UNL     1      55.202  25.937  16.321  1.00  0.00     0.293 HD
ENDBRANCH   8  26
TORSDOF 6
ENDMDL
