MODEL 1
REMARK VINA RESULT:    -5.263      0.000      0.000
REMARK INTER + INTRA:          -5.788
REMARK INTER:                  -5.571
REMARK INTRA:                  -0.217
REMARK UNBOUND:                -0.217
REMARK SMILES CC1=CC[C@]23[C@H]([C@@H](C(C)C)CC[C@H]2C)[C@@H]13
REMARK SMILES IDX 14 1 13 2 12 3 11 4 7 5 6 6 5 7 15 8 2 9 3 10 4 11 1 12 8 13
REMARK SMILES IDX 9 14 10 15
REMARK H PARENT
REMARK Flexibility Score: inf
ROOT
ATOM      1  C   UNL     1     137.697 135.906 137.138  1.00  0.00     0.008 C 
ATOM      2  C   UNL     1     139.184 135.654 136.841  1.00  0.00    -0.007 C 
ATOM      3  C   UNL     1     139.910 136.941 136.405  1.00  0.00     0.004 C 
ATOM      4  C   UNL     1     139.812 137.193 134.901  1.00  0.00     0.004 C 
ATOM      5  C   UNL     1     140.530 136.067 134.122  1.00  0.00    -0.004 C 
ATOM      6  C   UNL     1     140.063 134.641 134.501  1.00  0.00     0.007 C 
ATOM      7  C   UNL     1     139.411 134.450 135.882  1.00  0.00    -0.013 C 
ATOM      8  C   UNL     1     138.558 134.402 134.607  1.00  0.00     0.025 C 
ATOM      9  C   UNL     1     138.119 132.981 134.514  1.00  0.00    -0.073 C 
ATOM     10  C   UNL     1     138.560 132.240 135.521  1.00  0.00    -0.027 C 
ATOM     11  C   UNL     1     139.401 133.026 136.465  1.00  0.00     0.035 C 
ATOM     12  C   UNL     1     137.273 132.446 133.402  1.00  0.00     0.039 C 
ENDROOT
BRANCH   5  13
ATOM     13  C   UNL     1     140.548 136.269 132.576  1.00  0.00    -0.014 C 
ATOM     14  C   UNL     1     140.505 137.741 132.134  1.00  0.00     0.007 C 
ATOM     15  C   UNL     1     141.741 135.558 131.917  1.00  0.00     0.007 C 
ENDBRANCH   5  13
TORSDOF 1
ENDMDL
MODEL 2
REMARK VINA RESULT:    -5.208      4.119      6.098
REMARK INTER + INTRA:          -5.730
REMARK INTER:                  -5.458
REMARK INTRA:                  -0.272
REMARK UNBOUND:                -0.217
REMARK SMILES CC1=CC[C@]23[C@H]([C@@H](C(C)C)CC[C@H]2C)[C@@H]13
REMARK SMILES IDX 14 1 13 2 12 3 11 4 7 5 6 6 5 7 15 8 2 9 3 10 4 11 1 12 8 13
REMARK SMILES IDX 9 14 10 15
REMARK H PARENT
REMARK Flexibility Score: inf
ROOT
ATOM      1  C   UNL     1     134.873 140.878 136.403  1.00  0.00     0.008 C 
ATOM      2  C   UNL     1     135.245 139.433 136.031  1.00  0.00    -0.007 C 
ATOM      3  C   UNL     1     136.185 138.795 137.071  1.00  0.00     0.004 C 
ATOM      4  C   UNL     1     137.659 139.083 136.789  1.00  0.00     0.004 C 
ATOM      5  C   UNL     1     138.083 138.443 135.447  1.00  0.00    -0.004 C 
ATOM      6  C   UNL     1     137.179 138.828 134.252  1.00  0.00     0.007 C 
ATOM      7  C   UNL     1     135.748 139.300 134.565  1.00  0.00    -0.013 C 
ATOM      8  C   UNL     1     136.812 140.303 134.097  1.00  0.00     0.025 C 
ATOM      9  C   UNL     1     136.353 140.719 132.742  1.00  0.00    -0.073 C 
ATOM     10  C   UNL     1     135.214 140.141 132.386  1.00  0.00    -0.027 C 
ATOM     11  C   UNL     1     134.712 139.207 133.431  1.00  0.00     0.035 C 
ATOM     12  C   UNL     1     137.098 141.684 131.875  1.00  0.00     0.039 C 
ENDROOT
BRANCH   5  13
ATOM     13  C   UNL     1     139.593 138.620 135.101  1.00  0.00    -0.014 C 
ATOM     14  C   UNL     1     140.549 137.957 136.106  1.00  0.00     0.007 C 
ATOM     15  C   UNL     1     139.916 138.142 133.676  1.00  0.00     0.007 C 
ENDBRANCH   5  13
TORSDOF 1
ENDMDL
MODEL 3
REMARK VINA RESULT:    -5.208      6.050      7.040
REMARK INTER + INTRA:          -5.730
REMARK INTER:                  -5.466
REMARK INTRA:                  -0.264
REMARK UNBOUND:                -0.217
REMARK SMILES CC1=CC[C@]23[C@H]([C@@H](C(C)C)CC[C@H]2C)[C@@H]13
REMARK SMILES IDX 14 1 13 2 12 3 11 4 7 5 6 6 5 7 15 8 2 9 3 10 4 11 1 12 8 13
REMARK SMILES IDX 9 14 10 15
REMARK H PARENT
REMARK Flexibility Score: inf
ROOT
ATOM      1  C   UNL     1     131.792 134.870 136.391  1.00  0.00     0.008 C 
ATOM      2  C   UNL     1     133.238 135.272 136.055  1.00  0.00    -0.007 C 
ATOM      3  C   UNL     1     133.836 136.210 137.121  1.00  0.00     0.004 C 
ATOM      4  C   UNL     1     133.528 137.682 136.852  1.00  0.00     0.004 C 
ATOM      5  C   UNL     1     134.189 138.135 135.531  1.00  0.00    -0.004 C 
ATOM      6  C   UNL     1     133.846 137.240 134.315  1.00  0.00     0.007 C 
ATOM      7  C   UNL     1     133.393 135.797 134.599  1.00  0.00    -0.013 C 
ATOM      8  C   UNL     1     132.382 136.850 134.124  1.00  0.00     0.025 C 
ATOM      9  C   UNL     1     132.004 136.401 132.754  1.00  0.00    -0.073 C 
ATOM     10  C   UNL     1     132.610 135.278 132.395  1.00  0.00    -0.027 C 
ATOM     11  C   UNL     1     133.530 134.778 133.455  1.00  0.00     0.035 C 
ATOM     12  C   UNL     1     131.045 137.140 131.875  1.00  0.00     0.039 C 
ENDROOT
BRANCH   5  13
ATOM     13  C   UNL     1     133.993 139.646 135.200  1.00  0.00    -0.014 C 
ATOM     14  C   UNL     1     134.542 140.600 136.273  1.00  0.00     0.007 C 
ATOM     15  C   UNL     1     134.573 140.013 133.825  1.00  0.00     0.007 C 
ENDBRANCH   5  13
TORSDOF 1
ENDMDL
MODEL 4
REMARK VINA RESULT:    -5.193      0.906      4.291
REMARK INTER + INTRA:          -5.714
REMARK INTER:                  -5.435
REMARK INTRA:                  -0.279
REMARK UNBOUND:                -0.217
REMARK SMILES CC1=CC[C@]23[C@H]([C@@H](C(C)C)CC[C@H]2C)[C@@H]13
REMARK SMILES IDX 14 1 13 2 12 3 11 4 7 5 6 6 5 7 15 8 2 9 3 10 4 11 1 12 8 13
REMARK SMILES IDX 9 14 10 15
REMARK H PARENT
REMARK Flexibility Score: inf
ROOT
ATOM      1  C   UNL     1     140.875 137.874 136.401  1.00  0.00     0.008 C 
ATOM      2  C   UNL     1     139.429 137.473 136.065  1.00  0.00    -0.007 C 
ATOM      3  C   UNL     1     138.832 136.530 137.127  1.00  0.00     0.004 C 
ATOM      4  C   UNL     1     139.141 135.059 136.851  1.00  0.00     0.004 C 
ATOM      5  C   UNL     1     138.479 134.612 135.528  1.00  0.00    -0.004 C 
ATOM      6  C   UNL     1     138.821 135.512 134.317  1.00  0.00     0.007 C 
ATOM      7  C   UNL     1     139.273 136.954 134.607  1.00  0.00    -0.013 C 
ATOM      8  C   UNL     1     140.285 135.904 134.126  1.00  0.00     0.025 C 
ATOM      9  C   UNL     1     140.662 136.359 132.758  1.00  0.00    -0.073 C 
ATOM     10  C   UNL     1     140.055 137.484 132.404  1.00  0.00    -0.027 C 
ATOM     11  C   UNL     1     139.135 137.978 133.467  1.00  0.00     0.035 C 
ATOM     12  C   UNL     1     141.621 135.624 131.875  1.00  0.00     0.039 C 
ENDROOT
BRANCH   5  13
ATOM     13  C   UNL     1     138.676 133.103 135.190  1.00  0.00    -0.014 C 
ATOM     14  C   UNL     1     137.992 132.144 136.179  1.00  0.00     0.007 C 
ATOM     15  C   UNL     1     138.241 132.773 133.754  1.00  0.00     0.007 C 
ENDBRANCH   5  13
TORSDOF 1
ENDMDL
MODEL 5
REMARK VINA RESULT:    -5.150      3.201      6.205
REMARK INTER + INTRA:          -5.668
REMARK INTER:                  -5.407
REMARK INTRA:                  -0.261
REMARK UNBOUND:                -0.217
REMARK SMILES CC1=CC[C@]23[C@H]([C@@H](C(C)C)CC[C@H]2C)[C@@H]13
REMARK SMILES IDX 14 1 13 2 12 3 11 4 7 5 6 6 5 7 15 8 2 9 3 10 4 11 1 12 8 13
REMARK SMILES IDX 9 14 10 15
REMARK H PARENT
REMARK Flexibility Score: inf
ROOT
ATOM      1  C   UNL     1     137.208 132.849 133.505  1.00  0.00     0.008 C 
ATOM      2  C   UNL     1     136.359 132.135 134.570  1.00  0.00    -0.007 C 
ATOM      3  C   UNL     1     134.865 132.111 134.194  1.00  0.00     0.004 C 
ATOM      4  C   UNL     1     134.119 133.361 134.659  1.00  0.00     0.004 C 
ATOM      5  C   UNL     1     134.123 133.444 136.202  1.00  0.00    -0.004 C 
ATOM      6  C   UNL     1     135.531 133.341 136.836  1.00  0.00     0.007 C 
ATOM      7  C   UNL     1     136.635 132.659 136.009  1.00  0.00    -0.013 C 
ATOM      8  C   UNL     1     136.644 134.180 136.210  1.00  0.00     0.025 C 
ATOM      9  C   UNL     1     137.833 134.429 137.073  1.00  0.00    -0.073 C 
ATOM     10  C   UNL     1     138.495 133.318 137.368  1.00  0.00    -0.027 C 
ATOM     11  C   UNL     1     137.853 132.112 136.775  1.00  0.00     0.035 C 
ATOM     12  C   UNL     1     138.236 135.786 137.557  1.00  0.00     0.039 C 
ENDROOT
BRANCH   5  13
ATOM     13  C   UNL     1     133.324 134.651 136.782  1.00  0.00    -0.014 C 
ATOM     14  C   UNL     1     131.849 134.694 136.347  1.00  0.00     0.007 C 
ATOM     15  C   UNL     1     133.422 134.723 138.314  1.00  0.00     0.007 C 
ENDBRANCH   5  13
TORSDOF 1
ENDMDL
MODEL 6
REMARK VINA RESULT:    -5.147      1.434      5.017
REMARK INTER + INTRA:          -5.665
REMARK INTER:                  -5.403
REMARK INTRA:                  -0.261
REMARK UNBOUND:                -0.217
REMARK SMILES CC1=CC[C@]23[C@H]([C@@H](C(C)C)CC[C@H]2C)[C@@H]13
REMARK SMILES IDX 14 1 13 2 12 3 11 4 7 5 6 6 5 7 15 8 2 9 3 10 4 11 1 12 8 13
REMARK SMILES IDX 9 14 10 15
REMARK H PARENT
REMARK Flexibility Score: inf
ROOT
ATOM      1  C   UNL     1     139.807 137.228 133.487  1.00  0.00     0.008 C 
ATOM      2  C   UNL     1     140.520 136.376 134.549  1.00  0.00    -0.007 C 
ATOM      3  C   UNL     1     140.529 134.881 134.176  1.00  0.00     0.004 C 
ATOM      4  C   UNL     1     139.275 134.147 134.652  1.00  0.00     0.004 C 
ATOM      5  C   UNL     1     139.204 134.155 136.196  1.00  0.00    -0.004 C 
ATOM      6  C   UNL     1     139.323 135.564 136.825  1.00  0.00     0.007 C 
ATOM      7  C   UNL     1     140.010 136.660 135.991  1.00  0.00    -0.013 C 
ATOM      8  C   UNL     1     138.489 136.682 136.202  1.00  0.00     0.025 C 
ATOM      9  C   UNL     1     138.257 137.875 137.064  1.00  0.00    -0.073 C 
ATOM     10  C   UNL     1     139.376 138.528 137.350  1.00  0.00    -0.027 C 
ATOM     11  C   UNL     1     140.572 137.874 136.749  1.00  0.00     0.035 C 
ATOM     12  C   UNL     1     136.907 138.292 137.557  1.00  0.00     0.039 C 
ENDROOT
BRANCH   5  13
ATOM     13  C   UNL     1     137.994 133.368 136.786  1.00  0.00    -0.014 C 
ATOM     14  C   UNL     1     137.941 131.890 136.364  1.00  0.00     0.007 C 
ATOM     15  C   UNL     1     137.927 133.479 138.317  1.00  0.00     0.007 C 
ENDBRANCH   5  13
TORSDOF 1
ENDMDL
MODEL 7
REMARK VINA RESULT:    -5.126      5.417      7.138
REMARK INTER + INTRA:          -5.643
REMARK INTER:                  -5.386
REMARK INTRA:                  -0.257
REMARK UNBOUND:                -0.217
REMARK SMILES CC1=CC[C@]23[C@H]([C@@H](C(C)C)CC[C@H]2C)[C@@H]13
REMARK SMILES IDX 14 1 13 2 12 3 11 4 7 5 6 6 5 7 15 8 2 9 3 10 4 11 1 12 8 13
REMARK SMILES IDX 9 14 10 15
REMARK H PARENT
REMARK Flexibility Score: inf
ROOT
ATOM      1  C   UNL     1     132.913 135.512 133.494  1.00  0.00     0.008 C 
ATOM      2  C   UNL     1     132.172 136.373 134.530  1.00  0.00    -0.007 C 
ATOM      3  C   UNL     1     132.183 137.866 134.152  1.00  0.00     0.004 C 
ATOM      4  C   UNL     1     133.425 138.595 134.664  1.00  0.00     0.004 C 
ATOM      5  C   UNL     1     133.449 138.593 136.210  1.00  0.00    -0.004 C 
ATOM      6  C   UNL     1     133.302 137.187 136.840  1.00  0.00     0.007 C 
ATOM      7  C   UNL     1     132.635 136.092 135.989  1.00  0.00    -0.013 C 
ATOM      8  C   UNL     1     134.148 136.061 136.248  1.00  0.00     0.025 C 
ATOM      9  C   UNL     1     134.346 134.870 137.121  1.00  0.00    -0.073 C 
ATOM     10  C   UNL     1     133.216 134.224 137.374  1.00  0.00    -0.027 C 
ATOM     11  C   UNL     1     132.043 134.883 136.734  1.00  0.00     0.035 C 
ATOM     12  C   UNL     1     135.678 134.448 137.658  1.00  0.00     0.039 C 
ENDROOT
BRANCH   5  13
ATOM     13  C   UNL     1     134.644 139.375 136.834  1.00  0.00    -0.014 C 
ATOM     14  C   UNL     1     134.751 140.836 136.365  1.00  0.00     0.007 C 
ATOM     15  C   UNL     1     134.629 139.317 138.370  1.00  0.00     0.007 C 
ENDBRANCH   5  13
TORSDOF 1
ENDMDL
MODEL 8
REMARK VINA RESULT:    -5.115      4.165      6.046
REMARK INTER + INTRA:          -5.632
REMARK INTER:                  -5.374
REMARK INTRA:                  -0.257
REMARK UNBOUND:                -0.217
REMARK SMILES CC1=CC[C@]23[C@H]([C@@H](C(C)C)CC[C@H]2C)[C@@H]13
REMARK SMILES IDX 14 1 13 2 12 3 11 4 7 5 6 6 5 7 15 8 2 9 3 10 4 11 1 12 8 13
REMARK SMILES IDX 9 14 10 15
REMARK H PARENT
REMARK Flexibility Score: inf
ROOT
ATOM      1  C   UNL     1     135.519 139.794 133.496  1.00  0.00     0.008 C 
ATOM      2  C   UNL     1     136.359 140.489 134.580  1.00  0.00    -0.007 C 
ATOM      3  C   UNL     1     137.859 140.500 134.225  1.00  0.00     0.004 C 
ATOM      4  C   UNL     1     138.584 139.239 134.691  1.00  0.00     0.004 C 
ATOM      5  C   UNL     1     138.558 139.143 136.233  1.00  0.00    -0.004 C 
ATOM      6  C   UNL     1     137.141 139.256 136.847  1.00  0.00     0.007 C 
ATOM      7  C   UNL     1     136.057 139.957 136.010  1.00  0.00    -0.013 C 
ATOM      8  C   UNL     1     136.029 138.434 136.198  1.00  0.00     0.025 C 
ATOM      9  C   UNL     1     134.825 138.191 137.042  1.00  0.00    -0.073 C 
ATOM     10  C   UNL     1     134.170 139.306 137.336  1.00  0.00    -0.027 C 
ATOM     11  C   UNL     1     134.834 140.510 136.762  1.00  0.00     0.035 C 
ATOM     12  C   UNL     1     134.400 136.835 137.509  1.00  0.00     0.039 C 
ENDROOT
BRANCH   5  13
ATOM     13  C   UNL     1     139.335 137.923 136.814  1.00  0.00    -0.014 C 
ATOM     14  C   UNL     1     140.806 137.848 136.372  1.00  0.00     0.007 C 
ATOM     15  C   UNL     1     139.244 137.861 138.347  1.00  0.00     0.007 C 
ENDBRANCH   5  13
TORSDOF 1
ENDMDL
MODEL 9
REMARK VINA RESULT:    -2.592      3.868      5.666
REMARK INTER + INTRA:          -2.961
REMARK INTER:                  -2.744
REMARK INTRA:                  -0.217
REMARK UNBOUND:                -0.217
REMARK SMILES CC1=CC[C@]23[C@H]([C@@H](C(C)C)CC[C@H]2C)[C@@H]13
REMARK SMILES IDX 14 1 13 2 12 3 11 4 7 5 6 6 5 7 15 8 2 9 3 10 4 11 1 12 8 13
REMARK SMILES IDX 9 14 10 15
REMARK H PARENT
REMARK Flexibility Score: inf
ROOT
ATOM      1  C   UNL     1     136.453 137.822 137.191  1.00  0.00     0.008 C 
ATOM      2  C   UNL     1     136.718 139.300 136.862  1.00  0.00    -0.007 C 
ATOM      3  C   UNL     1     135.451 140.012 136.351  1.00  0.00     0.004 C 
ATOM      4  C   UNL     1     135.263 139.871 134.841  1.00  0.00     0.004 C 
ATOM      5  C   UNL     1     136.421 140.567 134.090  1.00  0.00    -0.004 C 
ATOM      6  C   UNL     1     137.829 140.112 134.543  1.00  0.00     0.007 C 
ATOM      7  C   UNL     1     137.961 139.500 135.949  1.00  0.00    -0.013 C 
ATOM      8  C   UNL     1     138.063 138.610 134.702  1.00  0.00     0.025 C 
ATOM      9  C   UNL     1     139.487 138.170 134.682  1.00  0.00    -0.073 C 
ATOM     10  C   UNL     1     140.185 138.640 135.706  1.00  0.00    -0.027 C 
ATOM     11  C   UNL     1     139.359 139.508 136.592  1.00  0.00     0.035 C 
ATOM     12  C   UNL     1     140.067 137.292 133.618  1.00  0.00     0.039 C 
ENDROOT
BRANCH   5  13
ATOM     13  C   UNL     1     136.285 140.540 132.537  1.00  0.00    -0.014 C 
ATOM     14  C   UNL     1     134.833 140.479 132.035  1.00  0.00     0.007 C 
ATOM     15  C   UNL     1     137.020 141.716 131.875  1.00  0.00     0.007 C 
ENDBRANCH   5  13
TORSDOF 1
ENDMDL
