MODEL 1
REMARK VINA RESULT:    -7.175      0.000      0.000
REMARK INTER + INTRA:          -8.232
REMARK INTER:                  -7.804
REMARK INTRA:                  -0.429
REMARK UNBOUND:                -0.429
REMARK SMILES C=C(C)[C@H]1CC[C@@]2(C)CC[C@@]3(C)[C@H](CC[C@@H]4[C@@]5(C)CC[C@H](O)C(C)(C)[C@@H]5CC[C@@]43C)[C@@H]12
REMARK SMILES IDX 4 1 5 2 6 3 7 4 31 5 13 6 14 7 15 8 16 9 17 10 19 11 20 12
REMARK SMILES IDX 21 13 23 14 26 15 27 16 28 17 29 18 11 19 10 20 9 21 12 22
REMARK SMILES IDX 30 23 24 24 25 25 18 26 8 27 2 28 3 29 1 30 22 31
REMARK H PARENT 22 32
REMARK Flexibility Score: inf
ROOT
ATOM      1  C   UNL     1      14.969  29.101  -8.134  1.00  0.00     0.018 C 
ATOM      2  C   UNL     1      14.057  28.146  -8.925  1.00  0.00     0.009 C 
ATOM      3  C   UNL     1      14.495  26.750  -8.543  1.00  0.00     0.008 C 
ATOM      4  C   UNL     1      15.403  26.889  -7.302  1.00  0.00    -0.029 C 
ATOM      5  C   UNL     1      16.134  28.239  -7.543  1.00  0.00     0.006 C 
ATOM      6  C   UNL     1      17.446  28.124  -8.432  1.00  0.00    -0.000 C 
ATOM      7  C   UNL     1      18.300  29.367  -8.248  1.00  0.00     0.005 C 
ATOM      8  C   UNL     1      19.448  29.354  -9.242  1.00  0.00     0.005 C 
ATOM      9  C   UNL     1      20.545  28.385  -8.749  1.00  0.00     0.002 C 
ATOM     10  C   UNL     1      21.787  28.214  -9.733  1.00  0.00    -0.026 C 
ATOM     11  C   UNL     1      22.443  29.597 -10.078  1.00  0.00     0.010 C 
ATOM     12  C   UNL     1      23.525  30.020  -9.103  1.00  0.00     0.033 C 
ATOM     13  C   UNL     1      24.729  29.037  -9.149  1.00  0.00     0.120 C 
ATOM     14  C   UNL     1      24.326  27.506  -9.360  1.00  0.00    -0.006 C 
ATOM     15  C   UNL     1      22.830  27.344  -8.920  1.00  0.00     0.003 C 
ATOM     16  C   UNL     1      22.337  25.898  -8.660  1.00  0.00     0.005 C 
ATOM     17  C   UNL     1      20.795  25.774  -8.602  1.00  0.00     0.008 C 
ATOM     18  C   UNL     1      19.988  27.038  -8.073  1.00  0.00    -0.024 C 
ATOM     19  C   UNL     1      18.353  26.801  -8.268  1.00  0.00    -0.024 C 
ATOM     20  C   UNL     1      17.802  26.004  -7.039  1.00  0.00     0.008 C 
ATOM     21  C   UNL     1      16.329  25.650  -7.141  1.00  0.00     0.007 C 
ATOM     22  C   UNL     1      18.105  25.938  -9.552  1.00  0.00     0.012 C 
ATOM     23  C   UNL     1      20.365  27.108  -6.540  1.00  0.00     0.012 C 
ATOM     24  C   UNL     1      24.563  27.004 -10.809  1.00  0.00     0.014 C 
ATOM     25  C   UNL     1      25.245  26.634  -8.451  1.00  0.00     0.014 C 
ATOM     26  C   UNL     1      21.376  27.551 -11.085  1.00  0.00     0.012 C 
ATOM     27  C   UNL     1      14.481  26.987  -6.024  1.00  0.00     0.011 C 
ENDROOT
BRANCH   1  28
ATOM     28  C   UNL     1      15.301  30.397  -8.853  1.00  0.00    -0.077 C 
ATOM     29  C   UNL     1      15.758  31.645  -8.118  1.00  0.00     0.039 C 
ATOM     30  C   UNL     1      15.228  30.430 -10.206  1.00  0.00     0.008 C 
ENDBRANCH   1  28
BRANCH  13  31
ATOM     31  O   UNL     1      25.690  29.487 -10.079  1.00  0.00    -0.393 OA
ATOM     32  H   UNL     1      26.245  30.159  -9.585  1.00  0.00     0.210 HD
ENDBRANCH  13  31
TORSDOF 2
ENDMDL
MODEL 2
REMARK VINA RESULT:    -7.002      3.948      9.005
REMARK INTER + INTRA:          -8.045
REMARK INTER:                  -7.614
REMARK INTRA:                  -0.431
REMARK UNBOUND:                -0.429
REMARK SMILES C=C(C)[C@H]1CC[C@@]2(C)CC[C@@]3(C)[C@H](CC[C@@H]4[C@@]5(C)CC[C@H](O)C(C)(C)[C@@H]5CC[C@@]43C)[C@@H]12
REMARK SMILES IDX 4 1 5 2 6 3 7 4 31 5 13 6 14 7 15 8 16 9 17 10 19 11 20 12
REMARK SMILES IDX 21 13 23 14 26 15 27 16 28 17 29 18 11 19 10 20 9 21 12 22
REMARK SMILES IDX 30 23 24 24 25 25 18 26 8 27 2 28 3 29 1 30 22 31
REMARK H PARENT 22 32
REMARK Flexibility Score: inf
ROOT
ATOM      1  C   UNL     1      19.778  25.247  -8.092  1.00  0.00     0.018 C 
ATOM      2  C   UNL     1      20.651  26.382  -8.656  1.00  0.00     0.009 C 
ATOM      3  C   UNL     1      20.091  27.660  -8.071  1.00  0.00     0.008 C 
ATOM      4  C   UNL     1      19.140  27.249  -6.926  1.00  0.00    -0.029 C 
ATOM      5  C   UNL     1      18.525  25.915  -7.433  1.00  0.00     0.006 C 
ATOM      6  C   UNL     1      17.250  26.093  -8.364  1.00  0.00    -0.000 C 
ATOM      7  C   UNL     1      16.486  24.782  -8.443  1.00  0.00     0.005 C 
ATOM      8  C   UNL     1      15.387  24.890  -9.486  1.00  0.00     0.005 C 
ATOM      9  C   UNL     1      14.199  25.683  -8.901  1.00  0.00     0.002 C 
ATOM     10  C   UNL     1      12.993  25.938  -9.913  1.00  0.00    -0.026 C 
ATOM     11  C   UNL     1      12.461  24.594 -10.524  1.00  0.00     0.010 C 
ATOM     12  C   UNL     1      11.370  23.938  -9.699  1.00  0.00     0.033 C 
ATOM     13  C   UNL     1      10.099  24.832  -9.650  1.00  0.00     0.120 C 
ATOM     14  C   UNL     1      10.394  26.400  -9.576  1.00  0.00    -0.006 C 
ATOM     15  C   UNL     1      11.852  26.584  -9.028  1.00  0.00     0.003 C 
ATOM     16  C   UNL     1      12.221  27.993  -8.501  1.00  0.00     0.005 C 
ATOM     17  C   UNL     1      13.744  28.208  -8.333  1.00  0.00     0.008 C 
ATOM     18  C   UNL     1      14.620  26.928  -7.977  1.00  0.00    -0.024 C 
ATOM     19  C   UNL     1      16.240  27.304  -8.034  1.00  0.00    -0.024 C 
ATOM     20  C   UNL     1      16.671  27.913  -6.659  1.00  0.00     0.008 C 
ATOM     21  C   UNL     1      18.116  28.377  -6.613  1.00  0.00     0.007 C 
ATOM     22  C   UNL     1      16.480  28.390  -9.138  1.00  0.00     0.012 C 
ATOM     23  C   UNL     1      14.179  26.571  -6.502  1.00  0.00     0.012 C 
ATOM     24  C   UNL     1      10.187  27.126 -10.931  1.00  0.00     0.014 C 
ATOM     25  C   UNL     1       9.370  27.039  -8.588  1.00  0.00     0.014 C 
ATOM     26  C   UNL     1      13.415  26.849 -11.108  1.00  0.00     0.012 C 
ATOM     27  C   UNL     1      20.006  26.994  -5.631  1.00  0.00     0.011 C 
ENDROOT
BRANCH   1  28
ATOM     28  C   UNL     1      19.579  24.074  -9.037  1.00  0.00    -0.077 C 
ATOM     29  C   UNL     1      19.193  22.689  -8.549  1.00  0.00     0.039 C 
ATOM     30  C   UNL     1      19.709  24.281 -10.369  1.00  0.00     0.008 C 
ENDBRANCH   1  28
BRANCH  13  31
ATOM     31  O   UNL     1       9.218  24.485 -10.696  1.00  0.00    -0.393 OA
ATOM     32  H   UNL     1       9.192  25.285 -11.299  1.00  0.00     0.210 HD
ENDBRANCH  13  31
TORSDOF 2
ENDMDL
MODEL 3
REMARK VINA RESULT:    -6.897      3.900      8.201
REMARK INTER + INTRA:          -7.930
REMARK INTER:                  -7.438
REMARK INTRA:                  -0.492
REMARK UNBOUND:                -0.429
REMARK SMILES C=C(C)[C@H]1CC[C@@]2(C)CC[C@@]3(C)[C@H](CC[C@@H]4[C@@]5(C)CC[C@H](O)C(C)(C)[C@@H]5CC[C@@]43C)[C@@H]12
REMARK SMILES IDX 4 1 5 2 6 3 7 4 31 5 13 6 14 7 15 8 16 9 17 10 19 11 20 12
REMARK SMILES IDX 21 13 23 14 26 15 27 16 28 17 29 18 11 19 10 20 9 21 12 22
REMARK SMILES IDX 30 23 24 24 25 25 18 26 8 27 2 28 3 29 1 30 22 31
REMARK H PARENT 22 32
REMARK Flexibility Score: inf
ROOT
ATOM      1  C   UNL     1      20.674  20.814  -9.498  1.00  0.00     0.018 C 
ATOM      2  C   UNL     1      21.360  20.745 -10.875  1.00  0.00     0.009 C 
ATOM      3  C   UNL     1      22.080  22.065 -11.041  1.00  0.00     0.008 C 
ATOM      4  C   UNL     1      22.101  22.742  -9.653  1.00  0.00    -0.029 C 
ATOM      5  C   UNL     1      20.751  22.303  -9.021  1.00  0.00     0.006 C 
ATOM      6  C   UNL     1      19.517  23.229  -9.402  1.00  0.00    -0.000 C 
ATOM      7  C   UNL     1      18.379  22.994  -8.423  1.00  0.00     0.005 C 
ATOM      8  C   UNL     1      17.133  23.722  -8.899  1.00  0.00     0.005 C 
ATOM      9  C   UNL     1      17.260  25.226  -8.573  1.00  0.00     0.002 C 
ATOM     10  C   UNL     1      16.051  26.132  -9.081  1.00  0.00    -0.026 C 
ATOM     11  C   UNL     1      14.673  25.605  -8.545  1.00  0.00     0.010 C 
ATOM     12  C   UNL     1      14.280  26.183  -7.198  1.00  0.00     0.033 C 
ATOM     13  C   UNL     1      14.058  27.718  -7.297  1.00  0.00     0.120 C 
ATOM     14  C   UNL     1      15.063  28.471  -8.284  1.00  0.00    -0.006 C 
ATOM     15  C   UNL     1      16.327  27.561  -8.460  1.00  0.00     0.003 C 
ATOM     16  C   UNL     1      17.592  28.238  -9.045  1.00  0.00     0.005 C 
ATOM     17  C   UNL     1      18.658  27.230  -9.538  1.00  0.00     0.008 C 
ATOM     18  C   UNL     1      18.733  25.831  -8.785  1.00  0.00    -0.024 C 
ATOM     19  C   UNL     1      19.785  24.809  -9.570  1.00  0.00    -0.024 C 
ATOM     20  C   UNL     1      21.241  25.093  -9.071  1.00  0.00     0.008 C 
ATOM     21  C   UNL     1      22.308  24.278  -9.780  1.00  0.00     0.007 C 
ATOM     22  C   UNL     1      19.738  25.101 -11.109  1.00  0.00     0.012 C 
ATOM     23  C   UNL     1      19.282  26.206  -7.351  1.00  0.00     0.012 C 
ATOM     24  C   UNL     1      14.419  28.841  -9.647  1.00  0.00     0.014 C 
ATOM     25  C   UNL     1      15.469  29.824  -7.623  1.00  0.00     0.014 C 
ATOM     26  C   UNL     1      15.955  26.161 -10.639  1.00  0.00     0.012 C 
ATOM     27  C   UNL     1      23.309  22.146  -8.830  1.00  0.00     0.011 C 
ENDROOT
BRANCH   1  28
ATOM     28  C   UNL     1      19.347  20.079  -9.416  1.00  0.00    -0.077 C 
ATOM     29  C   UNL     1      18.448  19.880 -10.624  1.00  0.00     0.039 C 
ATOM     30  C   UNL     1      18.971  19.544  -8.230  1.00  0.00     0.008 C 
ENDBRANCH   1  28
BRANCH  13  31
ATOM     31  O   UNL     1      12.702  27.998  -7.570  1.00  0.00    -0.393 OA
ATOM     32  H   UNL     1      12.180  27.310  -7.062  1.00  0.00     0.210 HD
ENDBRANCH  13  31
TORSDOF 2
ENDMDL
MODEL 4
REMARK VINA RESULT:    -6.849      3.073      6.192
REMARK INTER + INTRA:          -7.878
REMARK INTER:                  -7.426
REMARK INTRA:                  -0.452
REMARK UNBOUND:                -0.429
REMARK SMILES C=C(C)[C@H]1CC[C@@]2(C)CC[C@@]3(C)[C@H](CC[C@@H]4[C@@]5(C)CC[C@H](O)C(C)(C)[C@@H]5CC[C@@]43C)[C@@H]12
REMARK SMILES IDX 4 1 5 2 6 3 7 4 31 5 13 6 14 7 15 8 16 9 17 10 19 11 20 12
REMARK SMILES IDX 21 13 23 14 26 15 27 16 28 17 29 18 11 19 10 20 9 21 12 22
REMARK SMILES IDX 30 23 24 24 25 25 18 26 8 27 2 28 3 29 1 30 22 31
REMARK H PARENT 22 32
REMARK Flexibility Score: inf
ROOT
ATOM      1  C   UNL     1      10.377  25.432  -9.995  1.00  0.00     0.018 C 
ATOM      2  C   UNL     1       9.464  25.959  -8.873  1.00  0.00     0.009 C 
ATOM      3  C   UNL     1       9.909  27.382  -8.617  1.00  0.00     0.008 C 
ATOM      4  C   UNL     1      10.822  27.784  -9.796  1.00  0.00    -0.029 C 
ATOM      5  C   UNL     1      11.547  26.458 -10.156  1.00  0.00     0.006 C 
ATOM      6  C   UNL     1      12.856  26.173  -9.301  1.00  0.00    -0.000 C 
ATOM      7  C   UNL     1      13.706  25.125  -9.999  1.00  0.00     0.005 C 
ATOM      8  C   UNL     1      14.850  24.704  -9.092  1.00  0.00     0.005 C 
ATOM      9  C   UNL     1      15.952  25.785  -9.119  1.00  0.00     0.002 C 
ATOM     10  C   UNL     1      17.190  25.511  -8.154  1.00  0.00    -0.026 C 
ATOM     11  C   UNL     1      17.840  24.110  -8.434  1.00  0.00     0.010 C 
ATOM     12  C   UNL     1      18.925  24.140  -9.493  1.00  0.00     0.033 C 
ATOM     13  C   UNL     1      20.131  25.002  -9.027  1.00  0.00     0.120 C 
ATOM     14  C   UNL     1      19.733  26.296  -8.180  1.00  0.00    -0.006 C 
ATOM     15  C   UNL     1      18.240  26.640  -8.512  1.00  0.00     0.003 C 
ATOM     16  C   UNL     1      17.754  28.060  -8.127  1.00  0.00     0.005 C 
ATOM     17  C   UNL     1      16.213  28.205  -8.130  1.00  0.00     0.008 C 
ATOM     18  C   UNL     1      15.403  27.294  -9.153  1.00  0.00    -0.024 C 
ATOM     19  C   UNL     1      13.768  27.433  -8.879  1.00  0.00    -0.024 C 
ATOM     20  C   UNL     1      13.226  28.683  -9.648  1.00  0.00     0.008 C 
ATOM     21  C   UNL     1      11.753  28.968  -9.407  1.00  0.00     0.007 C 
ATOM     22  C   UNL     1      13.518  27.663  -7.349  1.00  0.00     0.012 C 
ATOM     23  C   UNL     1      15.786  27.887 -10.567  1.00  0.00     0.012 C 
ATOM     24  C   UNL     1      19.966  26.126  -6.655  1.00  0.00     0.014 C 
ATOM     25  C   UNL     1      20.660  27.470  -8.625  1.00  0.00     0.014 C 
ATOM     26  C   UNL     1      16.776  25.531  -6.649  1.00  0.00     0.012 C 
ATOM     27  C   UNL     1       9.906  28.249 -10.995  1.00  0.00     0.011 C 
ENDROOT
BRANCH   1  28
ATOM     28  C   UNL     1      10.700  23.950  -9.901  1.00  0.00    -0.077 C 
ATOM     29  C   UNL     1      10.991  23.099 -11.125  1.00  0.00     0.039 C 
ATOM     30  C   UNL     1      10.775  23.375  -8.677  1.00  0.00     0.008 C 
ENDBRANCH   1  28
BRANCH  13  31
ATOM     31  O   UNL     1      21.087  24.191  -8.378  1.00  0.00    -0.393 OA
ATOM     32  H   UNL     1      20.723  24.033  -7.458  1.00  0.00     0.210 HD
ENDBRANCH  13  31
TORSDOF 2
ENDMDL
MODEL 5
REMARK VINA RESULT:    -6.703      4.526      7.722
REMARK INTER + INTRA:          -7.720
REMARK INTER:                  -7.230
REMARK INTRA:                  -0.490
REMARK UNBOUND:                -0.429
REMARK SMILES C=C(C)[C@H]1CC[C@@]2(C)CC[C@@]3(C)[C@H](CC[C@@H]4[C@@]5(C)CC[C@H](O)C(C)(C)[C@@H]5CC[C@@]43C)[C@@H]12
REMARK SMILES IDX 4 1 5 2 6 3 7 4 31 5 13 6 14 7 15 8 16 9 17 10 19 11 20 12
REMARK SMILES IDX 21 13 23 14 26 15 27 16 28 17 29 18 11 19 10 20 9 21 12 22
REMARK SMILES IDX 30 23 24 24 25 25 18 26 8 27 2 28 3 29 1 30 22 31
REMARK H PARENT 22 32
REMARK Flexibility Score: inf
ROOT
ATOM      1  C   UNL     1      16.859  26.322  -0.745  1.00  0.00     0.018 C 
ATOM      2  C   UNL     1      17.697  25.073  -0.421  1.00  0.00     0.009 C 
ATOM      3  C   UNL     1      18.951  25.191  -1.259  1.00  0.00     0.008 C 
ATOM      4  C   UNL     1      18.998  26.640  -1.792  1.00  0.00    -0.029 C 
ATOM      5  C   UNL     1      17.500  26.992  -2.006  1.00  0.00     0.006 C 
ATOM      6  C   UNL     1      16.917  26.543  -3.415  1.00  0.00    -0.000 C 
ATOM      7  C   UNL     1      15.626  27.293  -3.697  1.00  0.00     0.005 C 
ATOM      8  C   UNL     1      14.963  26.725  -4.940  1.00  0.00     0.005 C 
ATOM      9  C   UNL     1      15.685  27.256  -6.197  1.00  0.00     0.002 C 
ATOM     10  C   UNL     1      15.139  26.684  -7.582  1.00  0.00    -0.026 C 
ATOM     11  C   UNL     1      13.596  26.926  -7.736  1.00  0.00     0.010 C 
ATOM     12  C   UNL     1      13.247  28.257  -8.374  1.00  0.00     0.033 C 
ATOM     13  C   UNL     1      13.763  28.321  -9.839  1.00  0.00     0.120 C 
ATOM     14  C   UNL     1      15.172  27.608 -10.078  1.00  0.00    -0.006 C 
ATOM     15  C   UNL     1      15.899  27.517  -8.691  1.00  0.00     0.003 C 
ATOM     16  C   UNL     1      17.422  27.229  -8.725  1.00  0.00     0.005 C 
ATOM     17  C   UNL     1      17.994  26.785  -7.358  1.00  0.00     0.008 C 
ATOM     18  C   UNL     1      17.282  27.356  -6.055  1.00  0.00    -0.024 C 
ATOM     19  C   UNL     1      17.894  26.622  -4.694  1.00  0.00    -0.024 C 
ATOM     20  C   UNL     1      19.191  27.374  -4.248  1.00  0.00     0.008 C 
ATOM     21  C   UNL     1      19.895  26.744  -3.058  1.00  0.00     0.007 C 
ATOM     22  C   UNL     1      18.289  25.144  -5.036  1.00  0.00     0.012 C 
ATOM     23  C   UNL     1      17.645  28.894  -6.074  1.00  0.00     0.012 C 
ATOM     24  C   UNL     1      15.047  26.219 -10.760  1.00  0.00     0.014 C 
ATOM     25  C   UNL     1      16.004  28.491 -11.058  1.00  0.00     0.014 C 
ATOM     26  C   UNL     1      15.377  25.147  -7.715  1.00  0.00     0.012 C 
ATOM     27  C   UNL     1      19.620  27.559  -0.669  1.00  0.00     0.011 C 
ENDROOT
BRANCH   1  28
ATOM     28  C   UNL     1      15.356  26.101  -0.710  1.00  0.00    -0.077 C 
ATOM     29  C   UNL     1      14.722  24.751  -0.996  1.00  0.00     0.039 C 
ATOM     30  C   UNL     1      14.553  27.137  -0.368  1.00  0.00     0.008 C 
ENDBRANCH   1  28
BRANCH  13  31
ATOM     31  O   UNL     1      12.762  27.877 -10.729  1.00  0.00    -0.393 OA
ATOM     32  H   UNL     1      12.004  27.573 -10.148  1.00  0.00     0.210 HD
ENDBRANCH  13  31
TORSDOF 2
ENDMDL
MODEL 6
REMARK VINA RESULT:    -6.277      3.703      8.462
REMARK INTER + INTRA:          -7.256
REMARK INTER:                  -6.805
REMARK INTRA:                  -0.451
REMARK UNBOUND:                -0.429
REMARK SMILES C=C(C)[C@H]1CC[C@@]2(C)CC[C@@]3(C)[C@H](CC[C@@H]4[C@@]5(C)CC[C@H](O)C(C)(C)[C@@H]5CC[C@@]43C)[C@@H]12
REMARK SMILES IDX 4 1 5 2 6 3 7 4 31 5 13 6 14 7 15 8 16 9 17 10 19 11 20 12
REMARK SMILES IDX 21 13 23 14 26 15 27 16 28 17 29 18 11 19 10 20 9 21 12 22
REMARK SMILES IDX 30 23 24 24 25 25 18 26 8 27 2 28 3 29 1 30 22 31
REMARK H PARENT 22 32
REMARK Flexibility Score: inf
ROOT
ATOM      1  C   UNL     1      20.344  26.932  -9.481  1.00  0.00     0.018 C 
ATOM      2  C   UNL     1      20.923  26.494  -8.123  1.00  0.00     0.009 C 
ATOM      3  C   UNL     1      20.266  25.169  -7.805  1.00  0.00     0.008 C 
ATOM      4  C   UNL     1      19.588  24.682  -9.105  1.00  0.00    -0.029 C 
ATOM      5  C   UNL     1      19.122  26.002  -9.781  1.00  0.00     0.006 C 
ATOM      6  C   UNL     1      17.703  26.523  -9.292  1.00  0.00    -0.000 C 
ATOM      7  C   UNL     1      17.156  27.531 -10.289  1.00  0.00     0.005 C 
ATOM      8  C   UNL     1      15.901  28.179  -9.729  1.00  0.00     0.005 C 
ATOM      9  C   UNL     1      14.710  27.208  -9.877  1.00  0.00     0.002 C 
ATOM     10  C   UNL     1      13.334  27.729  -9.264  1.00  0.00    -0.026 C 
ATOM     11  C   UNL     1      12.933  29.127  -9.855  1.00  0.00     0.010 C 
ATOM     12  C   UNL     1      12.107  29.039 -11.124  1.00  0.00     0.033 C 
ATOM     13  C   UNL     1      10.734  28.366 -10.847  1.00  0.00     0.120 C 
ATOM     14  C   UNL     1      10.782  27.178  -9.780  1.00  0.00    -0.006 C 
ATOM     15  C   UNL     1      12.260  26.658  -9.714  1.00  0.00     0.003 C 
ATOM     16  C   UNL     1      12.478  25.272  -9.057  1.00  0.00     0.005 C 
ATOM     17  C   UNL     1      13.954  24.992  -8.687  1.00  0.00     0.008 C 
ATOM     18  C   UNL     1      15.069  25.667  -9.599  1.00  0.00    -0.024 C 
ATOM     19  C   UNL     1      16.577  25.425  -8.941  1.00  0.00    -0.024 C 
ATOM     20  C   UNL     1      17.119  24.032  -9.406  1.00  0.00     0.008 C 
ATOM     21  C   UNL     1      18.460  23.656  -8.800  1.00  0.00     0.007 C 
ATOM     22  C   UNL     1      16.461  25.398  -7.378  1.00  0.00     0.012 C 
ATOM     23  C   UNL     1      14.932  24.911 -10.980  1.00  0.00     0.012 C 
ATOM     24  C   UNL     1      10.247  27.589  -8.382  1.00  0.00     0.014 C 
ATOM     25  C   UNL     1       9.839  26.040 -10.280  1.00  0.00     0.014 C 
ATOM     26  C   UNL     1      13.408  27.892  -7.714  1.00  0.00     0.012 C 
ATOM     27  C   UNL     1      20.679  23.968  -9.994  1.00  0.00     0.011 C 
ENDROOT
BRANCH   1  28
ATOM     28  C   UNL     1      20.187  28.434  -9.646  1.00  0.00    -0.077 C 
ATOM     29  C   UNL     1      20.284  29.122 -10.997  1.00  0.00     0.039 C 
ATOM     30  C   UNL     1      19.909  29.185  -8.553  1.00  0.00     0.008 C 
ENDBRANCH   1  28
BRANCH  13  31
ATOM     31  O   UNL     1       9.764  29.344 -10.540  1.00  0.00    -0.393 OA
ATOM     32  H   UNL     1       9.517  29.184  -9.582  1.00  0.00     0.210 HD
ENDBRANCH  13  31
TORSDOF 2
ENDMDL
MODEL 7
REMARK VINA RESULT:    -6.230      4.492      7.565
REMARK INTER + INTRA:          -7.205
REMARK INTER:                  -6.765
REMARK INTRA:                  -0.439
REMARK UNBOUND:                -0.429
REMARK SMILES C=C(C)[C@H]1CC[C@@]2(C)CC[C@@]3(C)[C@H](CC[C@@H]4[C@@]5(C)CC[C@H](O)C(C)(C)[C@@H]5CC[C@@]43C)[C@@H]12
REMARK SMILES IDX 4 1 5 2 6 3 7 4 31 5 13 6 14 7 15 8 16 9 17 10 19 11 20 12
REMARK SMILES IDX 21 13 23 14 26 15 27 16 28 17 29 18 11 19 10 20 9 21 12 22
REMARK SMILES IDX 30 23 24 24 25 25 18 26 8 27 2 28 3 29 1 30 22 31
REMARK H PARENT 22 32
REMARK Flexibility Score: inf
ROOT
ATOM      1  C   UNL     1      14.286  27.576  -9.365  1.00  0.00     0.018 C 
ATOM      2  C   UNL     1      14.682  28.957  -9.918  1.00  0.00     0.009 C 
ATOM      3  C   UNL     1      16.188  29.033  -9.792  1.00  0.00     0.008 C 
ATOM      4  C   UNL     1      16.685  27.601  -9.497  1.00  0.00    -0.029 C 
ATOM      5  C   UNL     1      15.543  26.996  -8.634  1.00  0.00     0.006 C 
ATOM      6  C   UNL     1      15.659  27.307  -7.080  1.00  0.00    -0.000 C 
ATOM      7  C   UNL     1      14.784  26.343  -6.298  1.00  0.00     0.005 C 
ATOM      8  C   UNL     1      14.735  26.763  -4.838  1.00  0.00     0.005 C 
ATOM      9  C   UNL     1      16.040  26.332  -4.135  1.00  0.00     0.002 C 
ATOM     10  C   UNL     1      16.160  26.772  -2.607  1.00  0.00    -0.026 C 
ATOM     11  C   UNL     1      14.935  26.269  -1.766  1.00  0.00     0.010 C 
ATOM     12  C   UNL     1      15.125  24.884  -1.178  1.00  0.00     0.033 C 
ATOM     13  C   UNL     1      16.289  24.873  -0.148  1.00  0.00     0.120 C 
ATOM     14  C   UNL     1      17.525  25.810  -0.534  1.00  0.00    -0.006 C 
ATOM     15  C   UNL     1      17.469  26.054  -2.082  1.00  0.00     0.003 C 
ATOM     16  C   UNL     1      18.761  26.594  -2.745  1.00  0.00     0.005 C 
ATOM     17  C   UNL     1      18.533  27.160  -4.167  1.00  0.00     0.008 C 
ATOM     18  C   UNL     1      17.365  26.507  -5.027  1.00  0.00    -0.024 C 
ATOM     19  C   UNL     1      17.134  27.366  -6.433  1.00  0.00    -0.024 C 
ATOM     20  C   UNL     1      18.142  26.854  -7.515  1.00  0.00     0.008 C 
ATOM     21  C   UNL     1      18.088  27.621  -8.824  1.00  0.00     0.007 C 
ATOM     22  C   UNL     1      17.439  28.880  -6.170  1.00  0.00     0.012 C 
ATOM     23  C   UNL     1      17.898  25.053  -5.339  1.00  0.00     0.012 C 
ATOM     24  C   UNL     1      17.557  27.141   0.263  1.00  0.00     0.014 C 
ATOM     25  C   UNL     1      18.839  25.057  -0.161  1.00  0.00     0.014 C 
ATOM     26  C   UNL     1      16.221  28.323  -2.447  1.00  0.00     0.012 C 
ATOM     27  C   UNL     1      16.805  26.826 -10.867  1.00  0.00     0.011 C 
ENDROOT
BRANCH   1  28
ATOM     28  C   UNL     1      12.940  27.541  -8.661  1.00  0.00    -0.077 C 
ATOM     29  C   UNL     1      12.132  26.264  -8.509  1.00  0.00     0.039 C 
ATOM     30  C   UNL     1      12.462  28.683  -8.111  1.00  0.00     0.008 C 
ENDBRANCH   1  28
BRANCH  13  31
ATOM     31  O   UNL     1      15.794  25.122   1.150  1.00  0.00    -0.393 OA
ATOM     32  H   UNL     1      16.570  24.968   1.766  1.00  0.00     0.210 HD
ENDBRANCH  13  31
TORSDOF 2
ENDMDL
MODEL 8
REMARK VINA RESULT:    -6.026      2.880      8.093
REMARK INTER + INTRA:          -6.983
REMARK INTER:                  -6.498
REMARK INTRA:                  -0.486
REMARK UNBOUND:                -0.429
REMARK SMILES C=C(C)[C@H]1CC[C@@]2(C)CC[C@@]3(C)[C@H](CC[C@@H]4[C@@]5(C)CC[C@H](O)C(C)(C)[C@@H]5CC[C@@]43C)[C@@H]12
REMARK SMILES IDX 4 1 5 2 6 3 7 4 31 5 13 6 14 7 15 8 16 9 17 10 19 11 20 12
REMARK SMILES IDX 21 13 23 14 26 15 27 16 28 17 29 18 11 19 10 20 9 21 12 22
REMARK SMILES IDX 30 23 24 24 25 25 18 26 8 27 2 28 3 29 1 30 22 31
REMARK H PARENT 22 32
REMARK Flexibility Score: inf
ROOT
ATOM      1  C   UNL     1      23.442  25.771  -9.642  1.00  0.00     0.018 C 
ATOM      2  C   UNL     1      24.059  26.348 -10.929  1.00  0.00     0.009 C 
ATOM      3  C   UNL     1      23.702  27.818 -10.931  1.00  0.00     0.008 C 
ATOM      4  C   UNL     1      23.191  28.157  -9.514  1.00  0.00    -0.029 C 
ATOM      5  C   UNL     1      22.466  26.855  -9.074  1.00  0.00     0.006 C 
ATOM      6  C   UNL     1      20.952  26.756  -9.545  1.00  0.00    -0.000 C 
ATOM      7  C   UNL     1      20.228  25.702  -8.724  1.00  0.00     0.005 C 
ATOM      8  C   UNL     1      18.843  25.462  -9.303  1.00  0.00     0.005 C 
ATOM      9  C   UNL     1      17.902  26.610  -8.877  1.00  0.00     0.002 C 
ATOM     10  C   UNL     1      16.426  26.528  -9.473  1.00  0.00    -0.026 C 
ATOM     11  C   UNL     1      15.745  25.154  -9.136  1.00  0.00     0.010 C 
ATOM     12  C   UNL     1      15.000  25.150  -7.815  1.00  0.00     0.033 C 
ATOM     13  C   UNL     1      13.802  26.139  -7.850  1.00  0.00     0.120 C 
ATOM     14  C   UNL     1      14.077  27.485  -8.665  1.00  0.00    -0.006 C 
ATOM     15  C   UNL     1      15.630  27.684  -8.742  1.00  0.00     0.003 C 
ATOM     16  C   UNL     1      16.129  29.099  -9.131  1.00  0.00     0.005 C 
ATOM     17  C   UNL     1      17.618  29.133  -9.551  1.00  0.00     0.008 C 
ATOM     18  C   UNL     1      18.584  28.064  -8.876  1.00  0.00    -0.024 C 
ATOM     19  C   UNL     1      20.087  28.115  -9.588  1.00  0.00    -0.024 C 
ATOM     20  C   UNL     1      20.938  29.235  -8.904  1.00  0.00     0.008 C 
ATOM     21  C   UNL     1      22.309  29.438  -9.526  1.00  0.00     0.007 C 
ATOM     22  C   UNL     1      19.930  28.487 -11.102  1.00  0.00     0.012 C 
ATOM     23  C   UNL     1      18.663  28.530  -7.368  1.00  0.00     0.012 C 
ATOM     24  C   UNL     1      13.420  27.494 -10.071  1.00  0.00     0.014 C 
ATOM     25  C   UNL     1      13.427  28.667  -7.883  1.00  0.00     0.014 C 
ATOM     26  C   UNL     1      16.412  26.678 -11.026  1.00  0.00     0.012 C 
ATOM     27  C   UNL     1      24.441  28.426  -8.589  1.00  0.00     0.011 C 
ENDROOT
BRANCH   1  28
ATOM     28  C   UNL     1      22.962  24.334  -9.762  1.00  0.00    -0.077 C 
ATOM     29  C   UNL     1      22.511  23.731 -11.081  1.00  0.00     0.039 C 
ATOM     30  C   UNL     1      22.975  23.549  -8.658  1.00  0.00     0.008 C 
ENDBRANCH   1  28
BRANCH  13  31
ATOM     31  O   UNL     1      12.630  25.472  -8.266  1.00  0.00    -0.393 OA
ATOM     32  H   UNL     1      11.961  25.627  -7.537  1.00  0.00     0.210 HD
ENDBRANCH  13  31
TORSDOF 2
ENDMDL
