MODEL 1
REMARK VINA RESULT:    -4.965      0.000      0.000
REMARK INTER + INTRA:          -6.133
REMARK INTER:                  -5.836
REMARK INTRA:                  -0.297
REMARK UNBOUND:                -0.297
REMARK SMILES O=c1c(O)c(-c2ccc(O)cc2)oc2cc(O)cc(O)c12
REMARK SMILES IDX 5 1 3 2 2 3 1 4 21 5 19 6 18 7 16 8 15 9 14 10 13 11 6 12
REMARK SMILES IDX 7 13 8 14 9 15 12 16 11 17 10 18 4 20 20 22 17 24
REMARK H PARENT 10 19 4 21 20 23 17 25
REMARK Flexibility Score: inf
ROOT
ATOM      1  C   UNL     1       7.649  -1.619  -8.372  1.00  0.00     0.180 A 
ATOM      2  C   UNL     1       8.309  -0.830  -9.333  1.00  0.00     0.208 A 
ATOM      3  C   UNL     1       7.873   0.488  -9.543  1.00  0.00     0.238 A 
ATOM      4  O   UNL     1       8.463   1.208 -10.394  1.00  0.00    -0.285 OA
ATOM      5  C   UNL     1       6.778   0.985  -8.807  1.00  0.00     0.111 A 
ATOM      6  C   UNL     1       6.275   2.300  -8.960  1.00  0.00     0.134 A 
ATOM      7  C   UNL     1       5.175   2.718  -8.196  1.00  0.00     0.093 A 
ATOM      8  C   UNL     1       4.570   1.847  -7.283  1.00  0.00     0.123 A 
ATOM      9  C   UNL     1       5.063   0.551  -7.128  1.00  0.00     0.094 A 
ATOM     10  C   UNL     1       6.159   0.116  -7.879  1.00  0.00     0.146 A 
ATOM     11  O   UNL     1       6.611  -1.122  -7.707  1.00  0.00    -0.452 OA
ENDROOT
BRANCH   1  12
ATOM     12  C   UNL     1       8.061  -3.012  -8.080  1.00  0.00     0.021 A 
ATOM     13  C   UNL     1       9.004  -3.302  -7.077  1.00  0.00     0.016 A 
ATOM     14  C   UNL     1       9.359  -4.626  -6.803  1.00  0.00     0.047 A 
ATOM     15  C   UNL     1       8.769  -5.675  -7.515  1.00  0.00     0.115 A 
ATOM     16  C   UNL     1       7.457  -4.072  -8.776  1.00  0.00     0.016 A 
ATOM     17  C   UNL     1       7.814  -5.395  -8.500  1.00  0.00     0.047 A 
BRANCH  15  18
ATOM     18  O   UNL     1       9.134  -6.990  -7.232  1.00  0.00    -0.508 OA
ATOM     19  H   UNL     1       8.438  -7.712  -7.084  1.00  0.00     0.293 HD
ENDBRANCH  15  18
ENDBRANCH   1  12
BRANCH   2  20
ATOM     20  O   UNL     1       9.359  -1.362 -10.085  1.00  0.00    -0.502 OA
ATOM     21  H   UNL     1      10.118  -0.792 -10.437  1.00  0.00     0.293 HD
ENDBRANCH   2  20
BRANCH   6  22
ATOM     22  O   UNL     1       6.857   3.191  -9.864  1.00  0.00    -0.507 OA
ATOM     23  H   UNL     1       7.199   2.885 -10.768  1.00  0.00     0.293 HD
ENDBRANCH   6  22
BRANCH   8  24
ATOM     24  O   UNL     1       3.477   2.261  -6.525  1.00  0.00    -0.508 OA
ATOM     25  H   UNL     1       3.471   2.181  -5.515  1.00  0.00     0.293 HD
ENDBRANCH   8  24
TORSDOF 5
ENDMDL
MODEL 2
REMARK VINA RESULT:    -4.783      1.734      6.683
REMARK INTER + INTRA:          -5.919
REMARK INTER:                  -5.628
REMARK INTRA:                  -0.291
REMARK UNBOUND:                -0.297
REMARK SMILES O=c1c(O)c(-c2ccc(O)cc2)oc2cc(O)cc(O)c12
REMARK SMILES IDX 5 1 3 2 2 3 1 4 21 5 19 6 18 7 16 8 15 9 14 10 13 11 6 12
REMARK SMILES IDX 7 13 8 14 9 15 12 16 11 17 10 18 4 20 20 22 17 24
REMARK H PARENT 10 19 4 21 20 23 17 25
REMARK Flexibility Score: inf
ROOT
ATOM      1  C   UNL     1       6.649  -1.255  -8.175  1.00  0.00     0.180 A 
ATOM      2  C   UNL     1       7.997  -1.331  -7.775  1.00  0.00     0.208 A 
ATOM      3  C   UNL     1       8.585  -2.595  -7.614  1.00  0.00     0.238 A 
ATOM      4  O   UNL     1       9.795  -2.676  -7.268  1.00  0.00    -0.285 OA
ATOM      5  C   UNL     1       7.815  -3.756  -7.834  1.00  0.00     0.111 A 
ATOM      6  C   UNL     1       8.332  -5.066  -7.691  1.00  0.00     0.134 A 
ATOM      7  C   UNL     1       7.499  -6.171  -7.919  1.00  0.00     0.093 A 
ATOM      8  C   UNL     1       6.161  -5.991  -8.288  1.00  0.00     0.123 A 
ATOM      9  C   UNL     1       5.647  -4.701  -8.431  1.00  0.00     0.094 A 
ATOM     10  C   UNL     1       6.462  -3.586  -8.209  1.00  0.00     0.146 A 
ATOM     11  O   UNL     1       5.949  -2.370  -8.359  1.00  0.00    -0.452 OA
ENDROOT
BRANCH   1  12
ATOM     12  C   UNL     1       5.962   0.041  -8.384  1.00  0.00     0.021 A 
ATOM     13  C   UNL     1       5.315   0.706  -7.326  1.00  0.00     0.016 A 
ATOM     14  C   UNL     1       4.694   1.941  -7.542  1.00  0.00     0.047 A 
ATOM     15  C   UNL     1       4.724   2.532  -8.809  1.00  0.00     0.115 A 
ATOM     16  C   UNL     1       6.005   0.651  -9.648  1.00  0.00     0.016 A 
ATOM     17  C   UNL     1       5.384   1.885  -9.862  1.00  0.00     0.047 A 
BRANCH  15  18
ATOM     18  O   UNL     1       4.100   3.761  -9.009  1.00  0.00    -0.508 OA
ATOM     19  H   UNL     1       4.630   4.590  -9.249  1.00  0.00     0.293 HD
ENDBRANCH  15  18
ENDBRANCH   1  12
BRANCH   2  20
ATOM     20  O   UNL     1       8.724  -0.167  -7.516  1.00  0.00    -0.502 OA
ATOM     21  H   UNL     1       9.598  -0.176  -7.005  1.00  0.00     0.293 HD
ENDBRANCH   2  20
BRANCH   6  22
ATOM     22  O   UNL     1       9.661  -5.278  -7.323  1.00  0.00    -0.507 OA
ATOM     23  H   UNL     1      10.317  -5.744  -7.940  1.00  0.00     0.293 HD
ENDBRANCH   6  22
BRANCH   8  24
ATOM     24  O   UNL     1       5.332  -7.087  -8.513  1.00  0.00    -0.508 OA
ATOM     25  H   UNL     1       5.489  -7.975  -8.051  1.00  0.00     0.293 HD
ENDBRANCH   8  24
TORSDOF 5
ENDMDL
MODEL 3
REMARK VINA RESULT:    -4.708     13.180     15.254
REMARK INTER + INTRA:          -5.831
REMARK INTER:                  -5.577
REMARK INTRA:                  -0.254
REMARK UNBOUND:                -0.297
REMARK SMILES O=c1c(O)c(-c2ccc(O)cc2)oc2cc(O)cc(O)c12
REMARK SMILES IDX 5 1 3 2 2 3 1 4 21 5 19 6 18 7 16 8 15 9 14 10 13 11 6 12
REMARK SMILES IDX 7 13 8 14 9 15 12 16 11 17 10 18 4 20 20 22 17 24
REMARK H PARENT 10 19 4 21 20 23 17 25
REMARK Flexibility Score: inf
ROOT
ATOM      1  C   UNL     1      -5.554  -5.343  -7.770  1.00  0.00     0.180 A 
ATOM      2  C   UNL     1      -5.128  -6.523  -8.411  1.00  0.00     0.208 A 
ATOM      3  C   UNL     1      -5.824  -7.717  -8.165  1.00  0.00     0.238 A 
ATOM      4  O   UNL     1      -5.459  -8.777  -8.742  1.00  0.00    -0.285 OA
ATOM      5  C   UNL     1      -6.916  -7.716  -7.273  1.00  0.00     0.111 A 
ATOM      6  C   UNL     1      -7.668  -8.877  -6.969  1.00  0.00     0.134 A 
ATOM      7  C   UNL     1      -8.736  -8.796  -6.064  1.00  0.00     0.093 A 
ATOM      8  C   UNL     1      -9.065  -7.579  -5.457  1.00  0.00     0.123 A 
ATOM      9  C   UNL     1      -8.327  -6.432  -5.754  1.00  0.00     0.094 A 
ATOM     10  C   UNL     1      -7.260  -6.492  -6.655  1.00  0.00     0.146 A 
ATOM     11  O   UNL     1      -6.578  -5.384  -6.924  1.00  0.00    -0.452 OA
ENDROOT
BRANCH   1  12
ATOM     12  C   UNL     1      -4.883  -4.041  -7.991  1.00  0.00     0.021 A 
ATOM     13  C   UNL     1      -5.450  -3.056  -8.820  1.00  0.00     0.016 A 
ATOM     14  C   UNL     1      -4.811  -1.825  -8.994  1.00  0.00     0.047 A 
ATOM     15  C   UNL     1      -3.607  -1.557  -8.335  1.00  0.00     0.115 A 
ATOM     16  C   UNL     1      -3.685  -3.757  -7.315  1.00  0.00     0.016 A 
ATOM     17  C   UNL     1      -3.047  -2.526  -7.492  1.00  0.00     0.047 A 
BRANCH  15  18
ATOM     18  O   UNL     1      -2.980  -0.327  -8.519  1.00  0.00    -0.508 OA
ATOM     19  H   UNL     1      -3.484   0.475  -8.880  1.00  0.00     0.293 HD
ENDBRANCH  15  18
ENDBRANCH   1  12
BRANCH   2  20
ATOM     20  O   UNL     1      -4.012  -6.507  -9.251  1.00  0.00    -0.502 OA
ATOM     21  H   UNL     1      -4.091  -6.574 -10.259  1.00  0.00     0.293 HD
ENDBRANCH   2  20
BRANCH   6  22
ATOM     22  O   UNL     1      -7.362 -10.105  -7.558  1.00  0.00    -0.507 OA
ATOM     23  H   UNL     1      -6.459 -10.547  -7.429  1.00  0.00     0.293 HD
ENDBRANCH   6  22
BRANCH   8  24
ATOM     24  O   UNL     1     -10.125  -7.498  -4.556  1.00  0.00    -0.508 OA
ATOM     25  H   UNL     1     -10.073  -7.920  -3.636  1.00  0.00     0.293 HD
ENDBRANCH   8  24
TORSDOF 5
ENDMDL
MODEL 4
REMARK VINA RESULT:    -4.681     11.922     14.780
REMARK INTER + INTRA:          -5.799
REMARK INTER:                  -5.512
REMARK INTRA:                  -0.287
REMARK UNBOUND:                -0.297
REMARK SMILES O=c1c(O)c(-c2ccc(O)cc2)oc2cc(O)cc(O)c12
REMARK SMILES IDX 5 1 3 2 2 3 1 4 21 5 19 6 18 7 16 8 15 9 14 10 13 11 6 12
REMARK SMILES IDX 7 13 8 14 9 15 12 16 11 17 10 18 4 20 20 22 17 24
REMARK H PARENT 10 19 4 21 20 23 17 25
REMARK Flexibility Score: inf
ROOT
ATOM      1  C   UNL     1      -6.454  -1.467  -7.938  1.00  0.00     0.180 A 
ATOM      2  C   UNL     1      -5.761  -0.960  -9.054  1.00  0.00     0.208 A 
ATOM      3  C   UNL     1      -4.900  -1.813  -9.763  1.00  0.00     0.238 A 
ATOM      4  O   UNL     1      -4.283  -1.373 -10.771  1.00  0.00    -0.285 OA
ATOM      5  C   UNL     1      -4.733  -3.146  -9.334  1.00  0.00     0.111 A 
ATOM      6  C   UNL     1      -3.883  -4.069  -9.991  1.00  0.00     0.134 A 
ATOM      7  C   UNL     1      -3.762  -5.376  -9.497  1.00  0.00     0.093 A 
ATOM      8  C   UNL     1      -4.475  -5.778  -8.362  1.00  0.00     0.123 A 
ATOM      9  C   UNL     1      -5.315  -4.872  -7.712  1.00  0.00     0.094 A 
ATOM     10  C   UNL     1      -5.449  -3.564  -8.189  1.00  0.00     0.146 A 
ATOM     11  O   UNL     1      -6.259  -2.724  -7.555  1.00  0.00    -0.452 OA
ENDROOT
BRANCH   1  12
ATOM     12  C   UNL     1      -7.393  -0.634  -7.150  1.00  0.00     0.021 A 
ATOM     13  C   UNL     1      -6.941   0.182  -6.097  1.00  0.00     0.016 A 
ATOM     14  C   UNL     1      -7.842   0.978  -5.384  1.00  0.00     0.047 A 
ATOM     15  C   UNL     1      -9.200   0.979  -5.720  1.00  0.00     0.115 A 
ATOM     16  C   UNL     1      -8.754  -0.612  -7.496  1.00  0.00     0.016 A 
ATOM     17  C   UNL     1      -9.653   0.184  -6.780  1.00  0.00     0.047 A 
BRANCH  15  18
ATOM     18  O   UNL     1     -10.087   1.776  -4.999  1.00  0.00    -0.508 OA
ATOM     19  H   UNL     1     -10.991   2.035  -5.375  1.00  0.00     0.293 HD
ENDBRANCH  15  18
ENDBRANCH   1  12
BRANCH   2  20
ATOM     20  O   UNL     1      -5.906   0.378  -9.428  1.00  0.00    -0.502 OA
ATOM     21  H   UNL     1      -5.113   0.972  -9.640  1.00  0.00     0.293 HD
ENDBRANCH   2  20
BRANCH   6  22
ATOM     22  O   UNL     1      -3.159  -3.697 -11.125  1.00  0.00    -0.507 OA
ATOM     23  H   UNL     1      -2.207  -4.011 -11.275  1.00  0.00     0.293 HD
ENDBRANCH   6  22
BRANCH   8  24
ATOM     24  O   UNL     1      -4.355  -7.075  -7.870  1.00  0.00    -0.508 OA
ATOM     25  H   UNL     1      -5.155  -7.696  -7.809  1.00  0.00     0.293 HD
ENDBRANCH   8  24
TORSDOF 5
ENDMDL
MODEL 5
REMARK VINA RESULT:    -4.679     11.713     13.945
REMARK INTER + INTRA:          -5.797
REMARK INTER:                  -5.505
REMARK INTRA:                  -0.293
REMARK UNBOUND:                -0.297
REMARK SMILES O=c1c(O)c(-c2ccc(O)cc2)oc2cc(O)cc(O)c12
REMARK SMILES IDX 5 1 3 2 2 3 1 4 21 5 19 6 18 7 16 8 15 9 14 10 13 11 6 12
REMARK SMILES IDX 7 13 8 14 9 15 12 16 11 17 10 18 4 20 20 22 17 24
REMARK H PARENT 10 19 4 21 20 23 17 25
REMARK Flexibility Score: inf
ROOT
ATOM      1  C   UNL     1      -6.044  -1.324  -7.730  1.00  0.00     0.180 A 
ATOM      2  C   UNL     1      -6.392  -0.576  -8.872  1.00  0.00     0.208 A 
ATOM      3  C   UNL     1      -7.395   0.400  -8.762  1.00  0.00     0.238 A 
ATOM      4  O   UNL     1      -7.708   1.084  -9.775  1.00  0.00    -0.285 OA
ATOM      5  C   UNL     1      -8.044   0.597  -7.526  1.00  0.00     0.111 A 
ATOM      6  C   UNL     1      -9.067   1.557  -7.333  1.00  0.00     0.134 A 
ATOM      7  C   UNL     1      -9.671   1.687  -6.074  1.00  0.00     0.093 A 
ATOM      8  C   UNL     1      -9.272   0.876  -5.005  1.00  0.00     0.123 A 
ATOM      9  C   UNL     1      -8.263  -0.071  -5.191  1.00  0.00     0.094 A 
ATOM     10  C   UNL     1      -7.649  -0.215  -6.438  1.00  0.00     0.146 A 
ATOM     11  O   UNL     1      -6.687  -1.121  -6.585  1.00  0.00    -0.452 OA
ENDROOT
BRANCH   1  12
ATOM     12  C   UNL     1      -4.984  -2.358  -7.760  1.00  0.00     0.021 A 
ATOM     13  C   UNL     1      -3.655  -2.056  -7.407  1.00  0.00     0.016 A 
ATOM     14  C   UNL     1      -2.677  -3.054  -7.419  1.00  0.00     0.047 A 
ATOM     15  C   UNL     1      -3.013  -4.366  -7.770  1.00  0.00     0.115 A 
ATOM     16  C   UNL     1      -5.318  -3.681  -8.090  1.00  0.00     0.016 A 
ATOM     17  C   UNL     1      -4.337  -4.678  -8.103  1.00  0.00     0.047 A 
BRANCH  15  18
ATOM     18  O   UNL     1      -2.027  -5.350  -7.779  1.00  0.00    -0.508 OA
ATOM     19  H   UNL     1      -2.098  -6.175  -7.196  1.00  0.00     0.293 HD
ENDBRANCH  15  18
ENDBRANCH   1  12
BRANCH   2  20
ATOM     20  O   UNL     1      -5.768  -0.825 -10.096  1.00  0.00    -0.502 OA
ATOM     21  H   UNL     1      -5.073  -1.552 -10.213  1.00  0.00     0.293 HD
ENDBRANCH   2  20
BRANCH   6  22
ATOM     22  O   UNL     1      -9.487   2.379  -8.380  1.00  0.00    -0.507 OA
ATOM     23  H   UNL     1      -9.846   3.313  -8.213  1.00  0.00     0.293 HD
ENDBRANCH   6  22
BRANCH   8  24
ATOM     24  O   UNL     1      -9.872   1.003  -3.755  1.00  0.00    -0.508 OA
ATOM     25  H   UNL     1      -9.466   0.582  -2.927  1.00  0.00     0.293 HD
ENDBRANCH   8  24
TORSDOF 5
ENDMDL
MODEL 6
REMARK VINA RESULT:    -4.619     12.510     14.542
REMARK INTER + INTRA:          -5.726
REMARK INTER:                  -5.493
REMARK INTRA:                  -0.233
REMARK UNBOUND:                -0.297
REMARK SMILES O=c1c(O)c(-c2ccc(O)cc2)oc2cc(O)cc(O)c12
REMARK SMILES IDX 5 1 3 2 2 3 1 4 21 5 19 6 18 7 16 8 15 9 14 10 13 11 6 12
REMARK SMILES IDX 7 13 8 14 9 15 12 16 11 17 10 18 4 20 20 22 17 24
REMARK H PARENT 10 19 4 21 20 23 17 25
REMARK Flexibility Score: inf
ROOT
ATOM      1  C   UNL     1      -4.701  -5.459  -8.133  1.00  0.00     0.180 A 
ATOM      2  C   UNL     1      -4.125  -6.146  -9.220  1.00  0.00     0.208 A 
ATOM      3  C   UNL     1      -4.594  -7.431  -9.535  1.00  0.00     0.238 A 
ATOM      4  O   UNL     1      -4.094  -8.050 -10.513  1.00  0.00    -0.285 OA
ATOM      5  C   UNL     1      -5.611  -8.013  -8.751  1.00  0.00     0.111 A 
ATOM      6  C   UNL     1      -6.137  -9.304  -9.000  1.00  0.00     0.134 A 
ATOM      7  C   UNL     1      -7.143  -9.817  -8.168  1.00  0.00     0.093 A 
ATOM      8  C   UNL     1      -7.632  -9.066  -7.094  1.00  0.00     0.123 A 
ATOM      9  C   UNL     1      -7.117  -7.792  -6.845  1.00  0.00     0.094 A 
ATOM     10  C   UNL     1      -6.115  -7.262  -7.663  1.00  0.00     0.146 A 
ATOM     11  O   UNL     1      -5.647  -6.046  -7.407  1.00  0.00    -0.452 OA
ENDROOT
BRANCH   1  12
ATOM     12  C   UNL     1      -4.273  -4.094  -7.749  1.00  0.00     0.021 A 
ATOM     13  C   UNL     1      -3.059  -3.869  -7.074  1.00  0.00     0.016 A 
ATOM     14  C   UNL     1      -2.664  -2.569  -6.744  1.00  0.00     0.047 A 
ATOM     15  C   UNL     1      -3.467  -1.479  -7.094  1.00  0.00     0.115 A 
ATOM     16  C   UNL     1      -5.064  -2.993  -8.116  1.00  0.00     0.016 A 
ATOM     17  C   UNL     1      -4.667  -1.694  -7.784  1.00  0.00     0.047 A 
BRANCH  15  18
ATOM     18  O   UNL     1      -3.062  -0.189  -6.756  1.00  0.00    -0.508 OA
ATOM     19  H   UNL     1      -2.700   0.027  -5.835  1.00  0.00     0.293 HD
ENDBRANCH  15  18
ENDBRANCH   1  12
BRANCH   2  20
ATOM     20  O   UNL     1      -3.084  -5.567  -9.950  1.00  0.00    -0.502 OA
ATOM     21  H   UNL     1      -3.250  -4.911 -10.704  1.00  0.00     0.293 HD
ENDBRANCH   2  20
BRANCH   6  22
ATOM     22  O   UNL     1      -5.668 -10.077 -10.063  1.00  0.00    -0.507 OA
ATOM     23  H   UNL     1      -5.172 -10.948  -9.910  1.00  0.00     0.293 HD
ENDBRANCH   6  22
BRANCH   8  24
ATOM     24  O   UNL     1      -8.630  -9.575  -6.267  1.00  0.00    -0.508 OA
ATOM     25  H   UNL     1      -8.438 -10.306  -5.592  1.00  0.00     0.293 HD
ENDBRANCH   8  24
TORSDOF 5
ENDMDL
MODEL 7
REMARK VINA RESULT:    -4.583     11.525     13.419
REMARK INTER + INTRA:          -5.684
REMARK INTER:                  -5.411
REMARK INTRA:                  -0.273
REMARK UNBOUND:                -0.297
REMARK SMILES O=c1c(O)c(-c2ccc(O)cc2)oc2cc(O)cc(O)c12
REMARK SMILES IDX 5 1 3 2 2 3 1 4 21 5 19 6 18 7 16 8 15 9 14 10 13 11 6 12
REMARK SMILES IDX 7 13 8 14 9 15 12 16 11 17 10 18 4 20 20 22 17 24
REMARK H PARENT 10 19 4 21 20 23 17 25
REMARK Flexibility Score: inf
ROOT
ATOM      1  C   UNL     1      -5.441  -2.368  -8.274  1.00  0.00     0.180 A 
ATOM      2  C   UNL     1      -5.469  -1.248  -9.127  1.00  0.00     0.208 A 
ATOM      3  C   UNL     1      -6.449  -0.264  -8.923  1.00  0.00     0.238 A 
ATOM      4  O   UNL     1      -6.476   0.748  -9.674  1.00  0.00    -0.285 OA
ATOM      5  C   UNL     1      -7.392  -0.425  -7.887  1.00  0.00     0.111 A 
ATOM      6  C   UNL     1      -8.413   0.519  -7.616  1.00  0.00     0.134 A 
ATOM      7  C   UNL     1      -9.319   0.283  -6.572  1.00  0.00     0.093 A 
ATOM      8  C   UNL     1      -9.224  -0.877  -5.795  1.00  0.00     0.123 A 
ATOM      9  C   UNL     1      -8.219  -1.809  -6.057  1.00  0.00     0.094 A 
ATOM     10  C   UNL     1      -7.306  -1.592  -7.093  1.00  0.00     0.146 A 
ATOM     11  O   UNL     1      -6.355  -2.493  -7.317  1.00  0.00    -0.452 OA
ENDROOT
BRANCH   1  12
ATOM     12  C   UNL     1      -4.428  -3.440  -8.414  1.00  0.00     0.021 A 
ATOM     13  C   UNL     1      -3.284  -3.478  -7.594  1.00  0.00     0.016 A 
ATOM     14  C   UNL     1      -2.354  -4.513  -7.728  1.00  0.00     0.047 A 
ATOM     15  C   UNL     1      -2.559  -5.527  -8.669  1.00  0.00     0.115 A 
ATOM     16  C   UNL     1      -4.637  -4.472  -9.342  1.00  0.00     0.016 A 
ATOM     17  C   UNL     1      -3.705  -5.506  -9.474  1.00  0.00     0.047 A 
BRANCH  15  18
ATOM     18  O   UNL     1      -1.622  -6.551  -8.792  1.00  0.00    -0.508 OA
ATOM     19  H   UNL     1      -0.752  -6.537  -8.273  1.00  0.00     0.293 HD
ENDBRANCH  15  18
ENDBRANCH   1  12
BRANCH   2  20
ATOM     20  O   UNL     1      -4.555  -1.138 -10.177  1.00  0.00    -0.502 OA
ATOM     21  H   UNL     1      -4.715  -1.562 -11.083  1.00  0.00     0.293 HD
ENDBRANCH   2  20
BRANCH   6  22
ATOM     22  O   UNL     1      -8.533   1.684  -8.375  1.00  0.00    -0.507 OA
ATOM     23  H   UNL     1      -9.428   2.136  -8.519  1.00  0.00     0.293 HD
ENDBRANCH   6  22
BRANCH   8  24
ATOM     24  O   UNL     1     -10.125  -1.112  -4.759  1.00  0.00    -0.508 OA
ATOM     25  H   UNL     1     -10.730  -1.925  -4.756  1.00  0.00     0.293 HD
ENDBRANCH   8  24
TORSDOF 5
ENDMDL
MODEL 8
REMARK VINA RESULT:    -4.569     12.895     14.425
REMARK INTER + INTRA:          -5.668
REMARK INTER:                  -5.592
REMARK INTRA:                  -0.076
REMARK UNBOUND:                -0.297
REMARK SMILES O=c1c(O)c(-c2ccc(O)cc2)oc2cc(O)cc(O)c12
REMARK SMILES IDX 5 1 3 2 2 3 1 4 21 5 19 6 18 7 16 8 15 9 14 10 13 11 6 12
REMARK SMILES IDX 7 13 8 14 9 15 12 16 11 17 10 18 4 20 20 22 17 24
REMARK H PARENT 10 19 4 21 20 23 17 25
REMARK Flexibility Score: inf
ROOT
ATOM      1  C   UNL     1      -6.417  -5.447  -7.468  1.00  0.00     0.180 A 
ATOM      2  C   UNL     1      -5.109  -5.802  -7.849  1.00  0.00     0.208 A 
ATOM      3  C   UNL     1      -4.260  -4.810  -8.364  1.00  0.00     0.238 A 
ATOM      4  O   UNL     1      -3.082  -5.114  -8.697  1.00  0.00    -0.285 OA
ATOM      5  C   UNL     1      -4.736  -3.491  -8.507  1.00  0.00     0.111 A 
ATOM      6  C   UNL     1      -3.945  -2.434  -9.020  1.00  0.00     0.134 A 
ATOM      7  C   UNL     1      -4.495  -1.149  -9.139  1.00  0.00     0.093 A 
ATOM      8  C   UNL     1      -5.818  -0.901  -8.757  1.00  0.00     0.123 A 
ATOM      9  C   UNL     1      -6.601  -1.940  -8.250  1.00  0.00     0.094 A 
ATOM     10  C   UNL     1      -6.071  -3.227  -8.122  1.00  0.00     0.146 A 
ATOM     11  O   UNL     1      -6.837  -4.196  -7.631  1.00  0.00    -0.452 OA
ENDROOT
BRANCH   1  12
ATOM     12  C   UNL     1      -7.367  -6.432  -6.900  1.00  0.00     0.021 A 
ATOM     13  C   UNL     1      -7.928  -6.255  -5.622  1.00  0.00     0.016 A 
ATOM     14  C   UNL     1      -8.842  -7.186  -5.117  1.00  0.00     0.047 A 
ATOM     15  C   UNL     1      -9.215  -8.294  -5.885  1.00  0.00     0.115 A 
ATOM     16  C   UNL     1      -7.763  -7.535  -7.674  1.00  0.00     0.016 A 
ATOM     17  C   UNL     1      -8.676  -8.465  -7.166  1.00  0.00     0.047 A 
BRANCH  15  18
ATOM     18  O   UNL     1     -10.125  -9.214  -5.368  1.00  0.00    -0.508 OA
ATOM     19  H   UNL     1     -11.113  -9.161  -5.587  1.00  0.00     0.293 HD
ENDBRANCH  15  18
ENDBRANCH   1  12
BRANCH   2  20
ATOM     20  O   UNL     1      -4.678  -7.127  -7.744  1.00  0.00    -0.502 OA
ATOM     21  H   UNL     1      -5.112  -7.790  -7.113  1.00  0.00     0.293 HD
ENDBRANCH   2  20
BRANCH   6  22
ATOM     22  O   UNL     1      -2.623  -2.650  -9.410  1.00  0.00    -0.507 OA
ATOM     23  H   UNL     1      -2.256  -3.585  -9.553  1.00  0.00     0.293 HD
ENDBRANCH   6  22
BRANCH   8  24
ATOM     24  O   UNL     1      -6.365   0.374  -8.877  1.00  0.00    -0.508 OA
ATOM     25  H   UNL     1      -6.316   1.046  -8.120  1.00  0.00     0.293 HD
ENDBRANCH   8  24
TORSDOF 5
ENDMDL
MODEL 9
REMARK VINA RESULT:    -4.432      2.086      6.920
REMARK INTER + INTRA:          -5.506
REMARK INTER:                  -5.402
REMARK INTRA:                  -0.104
REMARK UNBOUND:                -0.297
REMARK SMILES O=c1c(O)c(-c2ccc(O)cc2)oc2cc(O)cc(O)c12
REMARK SMILES IDX 5 1 3 2 2 3 1 4 21 5 19 6 18 7 16 8 15 9 14 10 13 11 6 12
REMARK SMILES IDX 7 13 8 14 9 15 12 16 11 17 10 18 4 20 20 22 17 24
REMARK H PARENT 10 19 4 21 20 23 17 25
REMARK Flexibility Score: inf
ROOT
ATOM      1  C   UNL     1       5.815  -1.369  -8.892  1.00  0.00     0.180 A 
ATOM      2  C   UNL     1       5.189  -2.417  -9.594  1.00  0.00     0.208 A 
ATOM      3  C   UNL     1       5.675  -3.724  -9.435  1.00  0.00     0.238 A 
ATOM      4  O   UNL     1       5.116  -4.673 -10.049  1.00  0.00    -0.285 OA
ATOM      5  C   UNL     1       6.786  -3.958  -8.598  1.00  0.00     0.111 A 
ATOM      6  C   UNL     1       7.339  -5.244  -8.386  1.00  0.00     0.134 A 
ATOM      7  C   UNL     1       8.451  -5.393  -7.544  1.00  0.00     0.093 A 
ATOM      8  C   UNL     1       9.020  -4.282  -6.911  1.00  0.00     0.123 A 
ATOM      9  C   UNL     1       8.477  -3.012  -7.116  1.00  0.00     0.094 A 
ATOM     10  C   UNL     1       7.368  -2.843  -7.951  1.00  0.00     0.146 A 
ATOM     11  O   UNL     1       6.869  -1.624  -8.124  1.00  0.00    -0.452 OA
ENDROOT
BRANCH   1  12
ATOM     12  C   UNL     1       5.349   0.034  -8.993  1.00  0.00     0.021 A 
ATOM     13  C   UNL     1       4.883   0.734  -7.865  1.00  0.00     0.016 A 
ATOM     14  C   UNL     1       4.472   2.065  -7.980  1.00  0.00     0.047 A 
ATOM     15  C   UNL     1       4.533   2.717  -9.216  1.00  0.00     0.115 A 
ATOM     16  C   UNL     1       5.427   0.701 -10.227  1.00  0.00     0.016 A 
ATOM     17  C   UNL     1       5.014   2.032 -10.339  1.00  0.00     0.047 A 
BRANCH  15  18
ATOM     18  O   UNL     1       4.118   4.043  -9.316  1.00  0.00    -0.508 OA
ATOM     19  H   UNL     1       3.467   4.445  -8.652  1.00  0.00     0.293 HD
ENDBRANCH  15  18
ENDBRANCH   1  12
BRANCH   2  20
ATOM     20  O   UNL     1       4.122  -2.153 -10.455  1.00  0.00    -0.502 OA
ATOM     21  H   UNL     1       3.517  -1.349 -10.338  1.00  0.00     0.293 HD
ENDBRANCH   2  20
BRANCH   6  22
ATOM     22  O   UNL     1       6.794  -6.370  -9.004  1.00  0.00    -0.507 OA
ATOM     23  H   UNL     1       6.367  -6.320  -9.922  1.00  0.00     0.293 HD
ENDBRANCH   6  22
BRANCH   8  24
ATOM     24  O   UNL     1      10.125  -4.429  -6.077  1.00  0.00    -0.508 OA
ATOM     25  H   UNL     1      10.603  -5.317  -5.981  1.00  0.00     0.293 HD
ENDBRANCH   8  24
TORSDOF 5
ENDMDL
