MODEL 1
REMARK VINA RESULT:    -4.486      0.000      0.000
REMARK INTER + INTRA:          -7.113
REMARK INTER:                  -6.847
REMARK INTRA:                  -0.266
REMARK UNBOUND:                -0.266
REMARK SMILES CC1=CCC[C@H](C)C(=O)C[C@@H](C(C)C)C(=O)C1
REMARK SMILES IDX 8 1 9 2 6 3 7 4 5 5 4 6 3 7 2 8 1 9 10 11 11 12 15 13 16 14
REMARK SMILES IDX 17 15 12 17 13 18 14 19
REMARK H PARENT
REMARK Flexibility Score: 70.00
ROOT
ATOM      1  C   UNL     1     -41.120  16.960  16.702  1.00  0.00     0.136 C 
ATOM      2  O   UNL     1     -40.361  17.053  17.658  1.00  0.00    -0.299 OA
ENDROOT
BRANCH   1   3
ATOM      3  C   UNL     1     -42.366  17.822  16.645  1.00  0.00     0.053 C 
ATOM      4  C   UNL     1     -42.028  19.235  17.139  1.00  0.00     0.016 C 
BRANCH   3   5
ATOM      5  C   UNL     1     -42.940  17.861  15.206  1.00  0.00     0.015 C 
BRANCH   5   6
ATOM      6  C   UNL     1     -42.329  18.926  14.263  1.00  0.00     0.028 C 
BRANCH   6   7
ATOM      7  C   UNL     1     -42.108  18.537  12.816  1.00  0.00    -0.028 C 
ATOM      8  C   UNL     1     -40.925  18.188  12.259  1.00  0.00    -0.070 CG0
ATOM      9  C   UNL     1     -40.839  18.149  10.755  1.00  0.00     0.039 C 
ATOM     10  G   UNL     1     -39.667  17.968  13.069  1.00  0.00     0.000 G0
ENDBRANCH   6   7
ENDBRANCH   5   6
ENDBRANCH   3   5
ENDBRANCH   1   3
BRANCH   1  11
ATOM     11  C   UNL     1     -40.844  15.929  15.637  1.00  0.00     0.087 C 
BRANCH  11  12
ATOM     12  C   UNL     1     -39.432  16.039  14.998  1.00  0.00     0.066 C 
BRANCH  12  13
ATOM     13  C   UNL     1     -39.413  16.533  13.540  1.00  0.00     0.140 C 
ATOM     14  O   UNL     1     -39.087  15.724  12.683  1.00  0.00    -0.299 OA
BRANCH  13  15
ATOM     15  C   UNL     1     -39.647  17.957  13.065  1.00  0.00     0.106 CG0
ATOM     16  G   UNL     1     -40.909  18.167  12.257  1.00  0.00     0.000 G0
ENDBRANCH  13  15
ENDBRANCH  12  13
BRANCH  12  17
ATOM     17  C   UNL     1     -38.616  14.712  15.186  1.00  0.00    -0.006 C 
ATOM     18  C   UNL     1     -39.498  13.567  15.720  1.00  0.00     0.008 C 
ATOM     19  C   UNL     1     -37.410  14.886  16.129  1.00  0.00     0.008 C 
ENDBRANCH  12  17
ENDBRANCH  11  12
ENDBRANCH   1  11
TORSDOF 1
ENDMDL
MODEL 2
REMARK VINA RESULT:    -4.175      1.472      3.858
REMARK INTER + INTRA:          -6.637
REMARK INTER:                  -6.292
REMARK INTRA:                  -0.345
REMARK UNBOUND:                -0.266
REMARK SMILES CC1=CCC[C@H](C)C(=O)C[C@@H](C(C)C)C(=O)C1
REMARK SMILES IDX 8 1 9 2 6 3 7 4 5 5 4 6 3 7 2 8 1 9 10 11 11 12 15 13 16 14
REMARK SMILES IDX 17 15 12 17 13 18 14 19
REMARK H PARENT
REMARK Flexibility Score: 70.00
ROOT
ATOM      1  C   UNL     1     -39.158  17.067  12.964  1.00  0.00     0.136 C 
ATOM      2  O   UNL     1     -39.026  16.203  12.107  1.00  0.00    -0.299 OA
ENDROOT
BRANCH   1   3
ATOM      3  C   UNL     1     -39.487  18.489  12.554  1.00  0.00     0.053 C 
ATOM      4  C   UNL     1     -38.366  19.030  11.656  1.00  0.00     0.016 C 
BRANCH   3   5
ATOM      5  C   UNL     1     -40.855  18.548  11.829  1.00  0.00     0.015 C 
BRANCH   5   6
ATOM      6  C   UNL     1     -42.100  18.300  12.715  1.00  0.00     0.028 C 
BRANCH   6   7
ATOM      7  C   UNL     1     -42.261  19.160  13.953  1.00  0.00    -0.028 C 
ATOM      8  C   UNL     1     -42.460  18.709  15.213  1.00  0.00    -0.070 CG0
ATOM      9  C   UNL     1     -42.917  19.701  16.251  1.00  0.00     0.039 C 
ATOM     10  G   UNL     1     -42.374  17.246  15.587  1.00  0.00     0.000 G0
ENDBRANCH   6   7
ENDBRANCH   5   6
ENDBRANCH   3   5
ENDBRANCH   1   3
BRANCH   1  11
ATOM     11  C   UNL     1     -38.910  16.718  14.409  1.00  0.00     0.087 C 
BRANCH  11  12
ATOM     12  C   UNL     1     -40.058  15.906  15.072  1.00  0.00     0.066 C 
BRANCH  12  13
ATOM     13  C   UNL     1     -41.001  16.726  15.969  1.00  0.00     0.140 C 
ATOM     14  O   UNL     1     -40.650  16.909  17.126  1.00  0.00    -0.299 OA
BRANCH  13  15
ATOM     15  C   UNL     1     -42.384  17.238  15.599  1.00  0.00     0.106 CG0
ATOM     16  G   UNL     1     -42.447  18.698  15.208  1.00  0.00     0.000 G0
ENDBRANCH  13  15
ENDBRANCH  12  13
BRANCH  12  17
ATOM     17  C   UNL     1     -39.508  14.629  15.799  1.00  0.00    -0.006 C 
ATOM     18  C   UNL     1     -38.104  14.243  15.295  1.00  0.00     0.008 C 
ATOM     19  C   UNL     1     -40.439  13.412  15.646  1.00  0.00     0.008 C 
ENDBRANCH  12  17
ENDBRANCH  11  12
ENDBRANCH   1  11
TORSDOF 1
ENDMDL
MODEL 3
REMARK VINA RESULT:    -4.077      1.651      4.073
REMARK INTER + INTRA:          -6.488
REMARK INTER:                  -6.459
REMARK INTRA:                  -0.029
REMARK UNBOUND:                -0.266
REMARK SMILES CC1=CCC[C@H](C)C(=O)C[C@@H](C(C)C)C(=O)C1
REMARK SMILES IDX 8 1 9 2 6 3 7 4 5 5 4 6 3 7 2 8 1 9 10 11 11 12 15 13 16 14
REMARK SMILES IDX 17 15 12 17 13 18 14 19
REMARK H PARENT
REMARK Flexibility Score: 70.00
ROOT
ATOM      1  C   UNL     1     -40.203  15.893  15.783  1.00  0.00     0.136 C 
ATOM      2  O   UNL     1     -40.656  14.784  16.035  1.00  0.00    -0.299 OA
ENDROOT
BRANCH   1   3
ATOM      3  C   UNL     1     -39.130  16.043  14.723  1.00  0.00     0.053 C 
ATOM      4  C   UNL     1     -37.785  15.570  15.291  1.00  0.00     0.016 C 
BRANCH   3   5
ATOM      5  C   UNL     1     -39.505  15.246  13.447  1.00  0.00     0.015 C 
BRANCH   5   6
ATOM      6  C   UNL     1     -40.161  16.065  12.308  1.00  0.00     0.028 C 
BRANCH   6   7
ATOM      7  C   UNL     1     -40.008  17.571  12.351  1.00  0.00    -0.028 C 
ATOM      8  C   UNL     1     -40.918  18.449  12.832  1.00  0.00    -0.070 CG0
ATOM      9  C   UNL     1     -40.736  19.907  12.499  1.00  0.00     0.039 C 
ATOM     10  G   UNL     1     -42.167  18.019  13.568  1.00  0.00     0.000 G0
ENDBRANCH   6   7
ENDBRANCH   5   6
ENDBRANCH   3   5
ENDBRANCH   1   3
BRANCH   1  11
ATOM     11  C   UNL     1     -40.662  17.079  16.591  1.00  0.00     0.087 C 
BRANCH  11  12
ATOM     12  C   UNL     1     -42.110  17.544  16.271  1.00  0.00     0.066 C 
BRANCH  12  13
ATOM     13  C   UNL     1     -42.244  18.457  15.039  1.00  0.00     0.140 C 
ATOM     14  O   UNL     1     -42.529  19.628  15.243  1.00  0.00    -0.299 OA
BRANCH  13  15
ATOM     15  C   UNL     1     -42.173  18.028  13.583  1.00  0.00     0.106 CG0
ATOM     16  G   UNL     1     -40.929  18.466  12.843  1.00  0.00     0.000 G0
ENDBRANCH  13  15
ENDBRANCH  12  13
BRANCH  12  17
ATOM     17  C   UNL     1     -42.809  18.149  17.538  1.00  0.00    -0.006 C 
ATOM     18  C   UNL     1     -42.204  17.600  18.845  1.00  0.00     0.008 C 
ATOM     19  C   UNL     1     -44.329  17.898  17.555  1.00  0.00     0.008 C 
ENDBRANCH  12  17
ENDBRANCH  11  12
ENDBRANCH   1  11
TORSDOF 1
ENDMDL
MODEL 4
REMARK VINA RESULT:    -4.066      1.910      4.697
REMARK INTER + INTRA:          -6.471
REMARK INTER:                  -6.575
REMARK INTRA:                   0.104
REMARK UNBOUND:                -0.266
REMARK SMILES CC1=CCC[C@H](C)C(=O)C[C@@H](C(C)C)C(=O)C1
REMARK SMILES IDX 8 1 9 2 6 3 7 4 5 5 4 6 3 7 2 8 1 9 10 11 11 12 15 13 16 14
REMARK SMILES IDX 17 15 12 17 13 18 14 19
REMARK H PARENT
REMARK Flexibility Score: 70.00
ROOT
ATOM      1  C   UNL     1     -42.338  18.736  13.973  1.00  0.00     0.136 C 
ATOM      2  O   UNL     1     -42.546  19.923  14.186  1.00  0.00    -0.299 OA
ENDROOT
BRANCH   1   3
ATOM      3  C   UNL     1     -41.871  18.290  12.601  1.00  0.00     0.053 C 
ATOM      4  C   UNL     1     -41.337  19.503  11.828  1.00  0.00     0.016 C 
BRANCH   3   5
ATOM      5  C   UNL     1     -40.788  17.188  12.722  1.00  0.00     0.015 C 
BRANCH   5   6
ATOM      6  C   UNL     1     -39.542  17.556  13.564  1.00  0.00     0.028 C 
BRANCH   6   7
ATOM      7  C   UNL     1     -38.712  16.417  14.120  1.00  0.00    -0.028 C 
ATOM      8  C   UNL     1     -39.072  15.589  15.127  1.00  0.00    -0.070 CG0
ATOM      9  C   UNL     1     -38.001  14.735  15.755  1.00  0.00     0.039 C 
ATOM     10  G   UNL     1     -40.459  15.582  15.730  1.00  0.00     0.000 G0
ENDBRANCH   6   7
ENDBRANCH   5   6
ENDBRANCH   3   5
ENDBRANCH   1   3
BRANCH   1  11
ATOM     11  C   UNL     1     -42.628  17.729  15.055  1.00  0.00     0.087 C 
BRANCH  11  12
ATOM     12  C   UNL     1     -41.767  17.907  16.337  1.00  0.00     0.066 C 
BRANCH  12  13
ATOM     13  C   UNL     1     -40.824  16.733  16.656  1.00  0.00     0.140 C 
ATOM     14  O   UNL     1     -40.217  16.780  17.716  1.00  0.00    -0.299 OA
BRANCH  13  15
ATOM     15  C   UNL     1     -40.479  15.574  15.736  1.00  0.00     0.106 CG0
ATOM     16  G   UNL     1     -39.091  15.617  15.138  1.00  0.00     0.000 G0
ENDBRANCH  13  15
ENDBRANCH  12  13
BRANCH  12  17
ATOM     17  C   UNL     1     -42.652  18.311  17.567  1.00  0.00    -0.006 C 
ATOM     18  C   UNL     1     -44.155  18.253  17.237  1.00  0.00     0.008 C 
ATOM     19  C   UNL     1     -42.318  19.717  18.102  1.00  0.00     0.008 C 
ENDBRANCH  12  17
ENDBRANCH  11  12
ENDBRANCH   1  11
TORSDOF 1
ENDMDL
MODEL 5
REMARK VINA RESULT:    -3.924      1.952      4.748
REMARK INTER + INTRA:          -6.255
REMARK INTER:                  -6.214
REMARK INTRA:                  -0.041
REMARK UNBOUND:                -0.266
REMARK SMILES CC1=CCC[C@H](C)C(=O)C[C@@H](C(C)C)C(=O)C1
REMARK SMILES IDX 8 1 9 2 6 3 7 4 5 5 4 6 3 7 2 8 1 9 10 11 11 12 15 13 16 14
REMARK SMILES IDX 17 15 12 17 13 18 14 19
REMARK H PARENT
REMARK Flexibility Score: 70.00
ROOT
ATOM      1  C   UNL     1     -39.296  15.950  13.937  1.00  0.00     0.136 C 
ATOM      2  O   UNL     1     -38.162  16.401  13.844  1.00  0.00    -0.299 OA
ENDROOT
BRANCH   1   3
ATOM      3  C   UNL     1     -39.568  14.788  14.873  1.00  0.00     0.053 C 
ATOM      4  C   UNL     1     -38.234  14.235  15.395  1.00  0.00     0.016 C 
BRANCH   3   5
ATOM      5  C   UNL     1     -40.481  15.229  16.044  1.00  0.00     0.015 C 
BRANCH   5   6
ATOM      6  C   UNL     1     -40.217  16.647  16.609  1.00  0.00     0.028 C 
BRANCH   6   7
ATOM      7  C   UNL     1     -41.404  17.415  17.154  1.00  0.00    -0.028 C 
ATOM      8  C   UNL     1     -42.451  17.877  16.433  1.00  0.00    -0.070 CG0
ATOM      9  C   UNL     1     -43.362  18.887  17.081  1.00  0.00     0.039 C 
ATOM     10  G   UNL     1     -42.664  17.528  14.976  1.00  0.00     0.000 G0
ENDBRANCH   6   7
ENDBRANCH   5   6
ENDBRANCH   3   5
ENDBRANCH   1   3
BRANCH   1  11
ATOM     11  C   UNL     1     -40.387  16.505  13.058  1.00  0.00     0.087 C 
BRANCH  11  12
ATOM     12  C   UNL     1     -40.640  18.027  13.244  1.00  0.00     0.066 C 
BRANCH  12  13
ATOM     13  C   UNL     1     -41.954  18.386  13.959  1.00  0.00     0.140 C 
ATOM     14  O   UNL     1     -42.404  19.507  13.766  1.00  0.00    -0.299 OA
BRANCH  13  15
ATOM     15  C   UNL     1     -42.694  17.532  14.975  1.00  0.00     0.106 CG0
ATOM     16  G   UNL     1     -42.434  17.884  16.423  1.00  0.00     0.000 G0
ENDBRANCH  13  15
ENDBRANCH  12  13
BRANCH  12  17
ATOM     17  C   UNL     1     -40.467  18.803  11.892  1.00  0.00    -0.006 C 
ATOM     18  C   UNL     1     -40.462  17.852  10.680  1.00  0.00     0.008 C 
ATOM     19  C   UNL     1     -39.183  19.654  11.856  1.00  0.00     0.008 C 
ENDBRANCH  12  17
ENDBRANCH  11  12
ENDBRANCH   1  11
TORSDOF 1
ENDMDL
MODEL 6
REMARK VINA RESULT:    -3.762      2.055      4.080
REMARK INTER + INTRA:          -6.007
REMARK INTER:                  -5.785
REMARK INTRA:                  -0.223
REMARK UNBOUND:                -0.266
REMARK SMILES CC1=CCC[C@H](C)C(=O)C[C@@H](C(C)C)C(=O)C1
REMARK SMILES IDX 8 1 9 2 6 3 7 4 5 5 4 6 3 7 2 8 1 9 10 11 11 12 15 13 16 14
REMARK SMILES IDX 17 15 12 17 13 18 14 19
REMARK H PARENT
REMARK Flexibility Score: 70.00
ROOT
ATOM      1  C   UNL     1     -41.635  18.480  13.310  1.00  0.00     0.136 C 
ATOM      2  O   UNL     1     -42.629  18.514  12.597  1.00  0.00    -0.299 OA
ENDROOT
BRANCH   1   3
ATOM      3  C   UNL     1     -41.779  18.660  14.809  1.00  0.00     0.053 C 
ATOM      4  C   UNL     1     -42.804  19.769  15.090  1.00  0.00     0.016 C 
BRANCH   3   5
ATOM      5  C   UNL     1     -42.202  17.331  15.483  1.00  0.00     0.015 C 
BRANCH   5   6
ATOM      6  C   UNL     1     -41.204  16.749  16.514  1.00  0.00     0.028 C 
BRANCH   6   7
ATOM      7  C   UNL     1     -40.565  15.413  16.193  1.00  0.00    -0.028 C 
ATOM      8  C   UNL     1     -39.414  15.227  15.508  1.00  0.00    -0.070 CG0
ATOM      9  C   UNL     1     -39.108  13.839  15.009  1.00  0.00     0.039 C 
ATOM     10  G   UNL     1     -38.499  16.365  15.111  1.00  0.00     0.000 G0
ENDBRANCH   6   7
ENDBRANCH   5   6
ENDBRANCH   3   5
ENDBRANCH   1   3
BRANCH   1  11
ATOM     11  C   UNL     1     -40.275  18.340  12.677  1.00  0.00     0.087 C 
BRANCH  11  12
ATOM     12  C   UNL     1     -39.697  16.898  12.723  1.00  0.00     0.066 C 
BRANCH  12  13
ATOM     13  C   UNL     1     -38.472  16.717  13.637  1.00  0.00     0.140 C 
ATOM     14  O   UNL     1     -37.372  16.761  13.107  1.00  0.00    -0.299 OA
BRANCH  13  15
ATOM     15  C   UNL     1     -38.491  16.372  15.117  1.00  0.00     0.106 CG0
ATOM     16  G   UNL     1     -39.405  15.229  15.501  1.00  0.00     0.000 G0
ENDBRANCH  13  15
ENDBRANCH  12  13
BRANCH  12  17
ATOM     17  C   UNL     1     -39.451  16.336  11.280  1.00  0.00    -0.006 C 
ATOM     18  C   UNL     1     -39.658  17.415  10.200  1.00  0.00     0.008 C 
ATOM     19  C   UNL     1     -40.353  15.130  10.951  1.00  0.00     0.008 C 
ENDBRANCH  12  17
ENDBRANCH  11  12
ENDBRANCH   1  11
TORSDOF 1
ENDMDL
MODEL 7
REMARK VINA RESULT:    -3.724      2.069      4.219
REMARK INTER + INTRA:          -5.950
REMARK INTER:                  -5.654
REMARK INTRA:                  -0.296
REMARK UNBOUND:                -0.266
REMARK SMILES CC1=CCC[C@H](C)C(=O)C[C@@H](C(C)C)C(=O)C1
REMARK SMILES IDX 8 1 9 2 6 3 7 4 5 5 4 6 3 7 2 8 1 9 10 11 11 12 15 13 16 14
REMARK SMILES IDX 17 15 12 17 13 18 14 19
REMARK H PARENT
REMARK Flexibility Score: 70.00
ROOT
ATOM      1  C   UNL     1     -37.332  17.370  12.377  1.00  0.00     0.136 C 
ATOM      2  O   UNL     1     -36.555  16.475  12.071  1.00  0.00    -0.299 OA
ENDROOT
BRANCH   1   3
ATOM      3  C   UNL     1     -37.603  18.497  11.399  1.00  0.00     0.053 C 
ATOM      4  C   UNL     1     -36.291  19.235  11.101  1.00  0.00     0.016 C 
BRANCH   3   5
ATOM      5  C   UNL     1     -38.240  17.951  10.096  1.00  0.00     0.015 C 
BRANCH   5   6
ATOM      6  C   UNL     1     -39.784  18.037  10.011  1.00  0.00     0.028 C 
BRANCH   6   7
ATOM      7  C   UNL     1     -40.479  19.036  10.914  1.00  0.00    -0.028 C 
ATOM      8  C   UNL     1     -41.236  18.737  11.995  1.00  0.00    -0.070 CG0
ATOM      9  C   UNL     1     -42.103  19.826  12.571  1.00  0.00     0.039 C 
ATOM     10  G   UNL     1     -41.348  17.338  12.560  1.00  0.00     0.000 G0
ENDBRANCH   6   7
ENDBRANCH   5   6
ENDBRANCH   3   5
ENDBRANCH   1   3
BRANCH   1  11
ATOM     11  C   UNL     1     -37.945  17.379  13.754  1.00  0.00     0.087 C 
BRANCH  11  12
ATOM     12  C   UNL     1     -39.156  16.419  13.916  1.00  0.00     0.066 C 
BRANCH  12  13
ATOM     13  C   UNL     1     -40.537  17.094  13.837  1.00  0.00     0.140 C 
ATOM     14  O   UNL     1     -41.081  17.375  14.895  1.00  0.00    -0.299 OA
BRANCH  13  15
ATOM     15  C   UNL     1     -41.351  17.344  12.578  1.00  0.00     0.106 CG0
ATOM     16  G   UNL     1     -41.232  18.737  12.000  1.00  0.00     0.000 G0
ENDBRANCH  13  15
ENDBRANCH  12  13
BRANCH  12  17
ATOM     17  C   UNL     1     -39.006  15.522  15.194  1.00  0.00    -0.006 C 
ATOM     18  C   UNL     1     -37.541  15.109  15.437  1.00  0.00     0.008 C 
ATOM     19  C   UNL     1     -39.873  14.250  15.132  1.00  0.00     0.008 C 
ENDBRANCH  12  17
ENDBRANCH  11  12
ENDBRANCH   1  11
TORSDOF 1
ENDMDL
MODEL 8
REMARK VINA RESULT:    -3.469      3.782      6.442
REMARK INTER + INTRA:          -5.561
REMARK INTER:                  -5.339
REMARK INTRA:                  -0.222
REMARK UNBOUND:                -0.266
REMARK SMILES CC1=CCC[C@H](C)C(=O)C[C@@H](C(C)C)C(=O)C1
REMARK SMILES IDX 8 1 9 2 6 3 7 4 5 5 4 6 3 7 2 8 1 9 10 11 11 12 15 13 16 14
REMARK SMILES IDX 17 15 12 17 13 18 14 19
REMARK H PARENT
REMARK Flexibility Score: 70.00
ROOT
ATOM      1  C   UNL     1     -39.100  18.166   8.622  1.00  0.00     0.136 C 
ATOM      2  O   UNL     1     -39.792  17.156   8.611  1.00  0.00    -0.299 OA
ENDROOT
BRANCH   1   3
ATOM      3  C   UNL     1     -39.761  19.529   8.546  1.00  0.00     0.053 C 
ATOM      4  C   UNL     1     -40.869  19.497   7.484  1.00  0.00     0.016 C 
BRANCH   3   5
ATOM      5  C   UNL     1     -40.329  19.942   9.927  1.00  0.00     0.015 C 
BRANCH   5   6
ATOM      6  C   UNL     1     -39.311  19.971  11.094  1.00  0.00     0.028 C 
BRANCH   6   7
ATOM      7  C   UNL     1     -39.364  18.838  12.098  1.00  0.00    -0.028 C 
ATOM      8  C   UNL     1     -38.384  17.935  12.329  1.00  0.00    -0.070 CG0
ATOM      9  C   UNL     1     -38.735  16.701  13.119  1.00  0.00     0.039 C 
ATOM     10  G   UNL     1     -37.003  18.046  11.722  1.00  0.00     0.000 G0
ENDBRANCH   6   7
ENDBRANCH   5   6
ENDBRANCH   3   5
ENDBRANCH   1   3
BRANCH   1  11
ATOM     11  C   UNL     1     -37.599  18.035   8.629  1.00  0.00     0.087 C 
BRANCH  11  12
ATOM     12  C   UNL     1     -37.078  16.750   9.331  1.00  0.00     0.066 C 
BRANCH  12  13
ATOM     13  C   UNL     1     -36.581  16.952  10.773  1.00  0.00     0.140 C 
ATOM     14  O   UNL     1     -35.859  16.082  11.240  1.00  0.00    -0.299 OA
BRANCH  13  15
ATOM     15  C   UNL     1     -36.989  18.065  11.723  1.00  0.00     0.106 CG0
ATOM     16  G   UNL     1     -38.362  17.915  12.340  1.00  0.00     0.000 G0
ENDBRANCH  13  15
ENDBRANCH  12  13
BRANCH  12  17
ATOM     17  C   UNL     1     -36.027  16.000   8.440  1.00  0.00    -0.006 C 
ATOM     18  C   UNL     1     -35.260  16.968   7.518  1.00  0.00     0.008 C 
ATOM     19  C   UNL     1     -36.663  14.895   7.574  1.00  0.00     0.008 C 
ENDBRANCH  12  17
ENDBRANCH  11  12
ENDBRANCH   1  11
TORSDOF 1
ENDMDL
MODEL 9
REMARK VINA RESULT:    -3.315      3.778      6.162
REMARK INTER + INTRA:          -5.325
REMARK INTER:                  -5.500
REMARK INTRA:                   0.175
REMARK UNBOUND:                -0.266
REMARK SMILES CC1=CCC[C@H](C)C(=O)C[C@@H](C(C)C)C(=O)C1
REMARK SMILES IDX 8 1 9 2 6 3 7 4 5 5 4 6 3 7 2 8 1 9 10 11 11 12 15 13 16 14
REMARK SMILES IDX 17 15 12 17 13 18 14 19
REMARK H PARENT
REMARK Flexibility Score: 70.00
ROOT
ATOM      1  C   UNL     1     -36.390  17.871  11.553  1.00  0.00     0.136 C 
ATOM      2  O   UNL     1     -36.160  16.721  11.903  1.00  0.00    -0.299 OA
ENDROOT
BRANCH   1   3
ATOM      3  C   UNL     1     -37.025  18.842  12.530  1.00  0.00     0.053 C 
ATOM      4  C   UNL     1     -36.026  19.960  12.855  1.00  0.00     0.016 C 
BRANCH   3   5
ATOM      5  C   UNL     1     -38.339  19.423  11.950  1.00  0.00     0.015 C 
BRANCH   5   6
ATOM      6  C   UNL     1     -39.634  18.654  12.308  1.00  0.00     0.028 C 
BRANCH   6   7
ATOM      7  C   UNL     1     -39.544  17.147  12.423  1.00  0.00    -0.028 C 
ATOM      8  C   UNL     1     -39.578  16.268  11.395  1.00  0.00    -0.070 CG0
ATOM      9  C   UNL     1     -39.801  14.813  11.719  1.00  0.00     0.039 C 
ATOM     10  G   UNL     1     -39.536  16.696   9.945  1.00  0.00     0.000 G0
ENDBRANCH   6   7
ENDBRANCH   5   6
ENDBRANCH   3   5
ENDBRANCH   1   3
BRANCH   1  11
ATOM     11  C   UNL     1     -36.113  18.280  10.129  1.00  0.00     0.087 C 
BRANCH  11  12
ATOM     12  C   UNL     1     -37.320  18.094   9.168  1.00  0.00     0.066 C 
BRANCH  12  13
ATOM     13  C   UNL     1     -38.122  16.796   9.373  1.00  0.00     0.140 C 
ATOM     14  O   UNL     1     -37.623  15.763   8.950  1.00  0.00    -0.299 OA
BRANCH  13  15
ATOM     15  C   UNL     1     -39.525  16.680   9.944  1.00  0.00     0.106 CG0
ATOM     16  G   UNL     1     -39.598  16.261  11.395  1.00  0.00     0.000 G0
ENDBRANCH  13  15
ENDBRANCH  12  13
BRANCH  12  17
ATOM     17  C   UNL     1     -36.896  18.302   7.673  1.00  0.00    -0.006 C 
ATOM     18  C   UNL     1     -35.400  18.007   7.454  1.00  0.00     0.008 C 
ATOM     19  C   UNL     1     -37.198  19.724   7.162  1.00  0.00     0.008 C 
ENDBRANCH  12  17
ENDBRANCH  11  12
ENDBRANCH   1  11
TORSDOF 1
ENDMDL
