MODEL 1
REMARK VINA RESULT:    -6.171      0.000      0.000
REMARK INTER + INTRA:          -7.462
REMARK INTER:                  -7.253
REMARK INTRA:                  -0.209
REMARK UNBOUND:                -0.209
REMARK SMILES O=c1c(O)c(-c2ccc(O)c(O)c2)oc2cc(O)ccc12
REMARK SMILES IDX 5 1 3 2 2 3 1 4 21 5 15 6 14 7 16 8 17 9 19 10 20 11 6 12
REMARK SMILES IDX 7 13 8 14 9 15 13 16 11 17 10 18 12 20 4 22 18 24
REMARK H PARENT 10 19 12 21 4 23 18 25
REMARK Flexibility Score: inf
ROOT
ATOM      1  C   UNL     1     -44.410 -11.114  -0.266  1.00  0.00     0.180 A 
ATOM      2  C   UNL     1     -43.011 -11.275  -0.335  1.00  0.00     0.208 A 
ATOM      3  C   UNL     1     -42.489 -12.339  -1.087  1.00  0.00     0.235 A 
ATOM      4  O   UNL     1     -41.240 -12.498  -1.173  1.00  0.00    -0.285 OA
ATOM      5  C   UNL     1     -43.366 -13.225  -1.732  1.00  0.00     0.069 A 
ATOM      6  C   UNL     1     -44.755 -13.009  -1.594  1.00  0.00     0.142 A 
ATOM      7  O   UNL     1     -45.209 -11.984  -0.881  1.00  0.00    -0.452 OA
ATOM      8  C   UNL     1     -45.663 -13.875  -2.214  1.00  0.00     0.094 A 
ATOM      9  C   UNL     1     -45.200 -14.956  -2.973  1.00  0.00     0.119 A 
ATOM     10  C   UNL     1     -43.823 -15.172  -3.113  1.00  0.00     0.047 A 
ATOM     11  C   UNL     1     -42.908 -14.313  -2.496  1.00  0.00     0.020 A 
ENDROOT
BRANCH   1  12
ATOM     12  C   UNL     1     -45.038 -10.007   0.491  1.00  0.00     0.025 A 
ATOM     13  C   UNL     1     -44.907  -8.690   0.023  1.00  0.00     0.016 A 
ATOM     14  C   UNL     1     -45.473  -7.626   0.732  1.00  0.00     0.051 A 
ATOM     15  C   UNL     1     -46.165  -7.865   1.926  1.00  0.00     0.157 A 
ATOM     16  C   UNL     1     -45.716 -10.238   1.702  1.00  0.00     0.062 A 
ATOM     17  C   UNL     1     -46.282  -9.172   2.415  1.00  0.00     0.158 A 
BRANCH  15  18
ATOM     18  O   UNL     1     -46.732  -6.807   2.636  1.00  0.00    -0.504 OA
ATOM     19  H   UNL     1     -46.201  -6.284   3.321  1.00  0.00     0.293 HD
ENDBRANCH  15  18
BRANCH  17  20
ATOM     20  O   UNL     1     -46.960  -9.404   3.611  1.00  0.00    -0.504 OA
ATOM     21  H   UNL     1     -46.638 -10.096   4.277  1.00  0.00     0.293 HD
ENDBRANCH  17  20
ENDBRANCH   1  12
BRANCH   2  22
ATOM     22  O   UNL     1     -42.163 -10.407   0.359  1.00  0.00    -0.502 OA
ATOM     23  H   UNL     1     -41.250 -10.147   0.008  1.00  0.00     0.293 HD
ENDBRANCH   2  22
BRANCH   9  24
ATOM     24  O   UNL     1     -46.118 -15.808  -3.583  1.00  0.00    -0.508 OA
ATOM     25  H   UNL     1     -46.489 -16.619  -3.101  1.00  0.00     0.293 HD
ENDBRANCH   9  24
TORSDOF 5
ENDMDL
MODEL 2
REMARK VINA RESULT:    -6.120      3.275      3.511
REMARK INTER + INTRA:          -7.402
REMARK INTER:                  -7.085
REMARK INTRA:                  -0.317
REMARK UNBOUND:                -0.209
REMARK SMILES O=c1c(O)c(-c2ccc(O)c(O)c2)oc2cc(O)ccc12
REMARK SMILES IDX 5 1 3 2 2 3 1 4 21 5 15 6 14 7 16 8 17 9 19 10 20 11 6 12
REMARK SMILES IDX 7 13 8 14 9 15 13 16 11 17 10 18 12 20 4 22 18 24
REMARK H PARENT 10 19 12 21 4 23 18 25
REMARK Flexibility Score: inf
ROOT
ATOM      1  C   UNL     1     -42.182 -11.053  -1.416  1.00  0.00     0.180 A 
ATOM      2  C   UNL     1     -41.215 -11.909  -1.984  1.00  0.00     0.208 A 
ATOM      3  C   UNL     1     -41.621 -13.166  -2.457  1.00  0.00     0.235 A 
ATOM      4  O   UNL     1     -40.777 -13.946  -2.979  1.00  0.00    -0.285 OA
ATOM      5  C   UNL     1     -42.966 -13.550  -2.338  1.00  0.00     0.069 A 
ATOM      6  C   UNL     1     -43.867 -12.645  -1.735  1.00  0.00     0.142 A 
ATOM      7  O   UNL     1     -43.446 -11.460  -1.308  1.00  0.00    -0.452 OA
ATOM      8  C   UNL     1     -45.214 -12.993  -1.588  1.00  0.00     0.094 A 
ATOM      9  C   UNL     1     -45.675 -14.236  -2.038  1.00  0.00     0.119 A 
ATOM     10  C   UNL     1     -44.783 -15.135  -2.637  1.00  0.00     0.047 A 
ATOM     11  C   UNL     1     -43.434 -14.797  -2.787  1.00  0.00     0.020 A 
ENDROOT
BRANCH   1  12
ATOM     12  C   UNL     1     -41.839  -9.704  -0.911  1.00  0.00     0.025 A 
ATOM     13  C   UNL     1     -41.886  -8.607  -1.786  1.00  0.00     0.016 A 
ATOM     14  C   UNL     1     -41.546  -7.328  -1.336  1.00  0.00     0.051 A 
ATOM     15  C   UNL     1     -41.140  -7.132  -0.011  1.00  0.00     0.157 A 
ATOM     16  C   UNL     1     -41.409  -9.505   0.413  1.00  0.00     0.062 A 
ATOM     17  C   UNL     1     -41.066  -8.222   0.865  1.00  0.00     0.158 A 
BRANCH  15  18
ATOM     18  O   UNL     1     -40.800  -5.858   0.442  1.00  0.00    -0.504 OA
ATOM     19  H   UNL     1     -41.107  -5.517   1.345  1.00  0.00     0.293 HD
ENDBRANCH  15  18
BRANCH  17  20
ATOM     20  O   UNL     1     -40.647  -8.026   2.180  1.00  0.00    -0.504 OA
ATOM     21  H   UNL     1     -41.260  -7.616   2.875  1.00  0.00     0.293 HD
ENDBRANCH  17  20
ENDBRANCH   1  12
BRANCH   2  22
ATOM     22  O   UNL     1     -39.875 -11.521  -2.045  1.00  0.00    -0.502 OA
ATOM     23  H   UNL     1     -39.404 -11.075  -1.267  1.00  0.00     0.293 HD
ENDBRANCH   2  22
BRANCH   9  24
ATOM     24  O   UNL     1     -47.019 -14.566  -1.883  1.00  0.00    -0.508 OA
ATOM     25  H   UNL     1     -47.528 -15.063  -2.605  1.00  0.00     0.293 HD
ENDBRANCH   9  24
TORSDOF 5
ENDMDL
MODEL 3
REMARK VINA RESULT:    -6.071      1.888      2.314
REMARK INTER + INTRA:          -7.344
REMARK INTER:                  -7.058
REMARK INTRA:                  -0.287
REMARK UNBOUND:                -0.209
REMARK SMILES O=c1c(O)c(-c2ccc(O)c(O)c2)oc2cc(O)ccc12
REMARK SMILES IDX 5 1 3 2 2 3 1 4 21 5 15 6 14 7 16 8 17 9 19 10 20 11 6 12
REMARK SMILES IDX 7 13 8 14 9 15 13 16 11 17 10 18 12 20 4 22 18 24
REMARK H PARENT 10 19 12 21 4 23 18 25
REMARK Flexibility Score: inf
ROOT
ATOM      1  C   UNL     1     -45.275 -11.822   0.673  1.00  0.00     0.180 A 
ATOM      2  C   UNL     1     -44.075 -11.237   0.215  1.00  0.00     0.208 A 
ATOM      3  C   UNL     1     -43.544 -11.659  -1.014  1.00  0.00     0.235 A 
ATOM      4  O   UNL     1     -42.479 -11.143  -1.451  1.00  0.00    -0.285 OA
ATOM      5  C   UNL     1     -44.203 -12.660  -1.745  1.00  0.00     0.069 A 
ATOM      6  C   UNL     1     -45.385 -13.213  -1.206  1.00  0.00     0.142 A 
ATOM      7  O   UNL     1     -45.861 -12.780  -0.043  1.00  0.00    -0.452 OA
ATOM      8  C   UNL     1     -46.066 -14.220  -1.898  1.00  0.00     0.094 A 
ATOM      9  C   UNL     1     -45.581 -14.683  -3.127  1.00  0.00     0.119 A 
ATOM     10  C   UNL     1     -44.408 -14.136  -3.665  1.00  0.00     0.047 A 
ATOM     11  C   UNL     1     -43.720 -13.130  -2.979  1.00  0.00     0.020 A 
ENDROOT
BRANCH   1  12
ATOM     12  C   UNL     1     -45.908 -11.419   1.949  1.00  0.00     0.025 A 
ATOM     13  C   UNL     1     -46.958 -10.487   1.934  1.00  0.00     0.016 A 
ATOM     14  C   UNL     1     -47.558 -10.076   3.128  1.00  0.00     0.051 A 
ATOM     15  C   UNL     1     -47.105 -10.580   4.353  1.00  0.00     0.157 A 
ATOM     16  C   UNL     1     -45.444 -11.905   3.184  1.00  0.00     0.062 A 
ATOM     17  C   UNL     1     -46.043 -11.493   4.382  1.00  0.00     0.158 A 
BRANCH  15  18
ATOM     18  O   UNL     1     -47.701 -10.174   5.546  1.00  0.00    -0.504 OA
ATOM     19  H   UNL     1     -48.642  -9.800   5.568  1.00  0.00     0.293 HD
ENDBRANCH  15  18
BRANCH  17  20
ATOM     20  O   UNL     1     -45.586 -11.981   5.605  1.00  0.00    -0.504 OA
ATOM     21  H   UNL     1     -45.469 -12.975   5.769  1.00  0.00     0.293 HD
ENDBRANCH  17  20
ENDBRANCH   1  12
BRANCH   2  22
ATOM     22  O   UNL     1     -43.416 -10.278   0.986  1.00  0.00    -0.502 OA
ATOM     23  H   UNL     1     -42.895 -10.519   1.821  1.00  0.00     0.293 HD
ENDBRANCH   2  22
BRANCH   9  24
ATOM     24  O   UNL     1     -46.271 -15.687  -3.802  1.00  0.00    -0.508 OA
ATOM     25  H   UNL     1     -47.078 -16.142  -3.392  1.00  0.00     0.293 HD
ENDBRANCH   9  24
TORSDOF 5
ENDMDL
MODEL 4
REMARK VINA RESULT:    -6.068      1.685      7.034
REMARK INTER + INTRA:          -7.341
REMARK INTER:                  -7.035
REMARK INTRA:                  -0.306
REMARK UNBOUND:                -0.209
REMARK SMILES O=c1c(O)c(-c2ccc(O)c(O)c2)oc2cc(O)ccc12
REMARK SMILES IDX 5 1 3 2 2 3 1 4 21 5 15 6 14 7 16 8 17 9 19 10 20 11 6 12
REMARK SMILES IDX 7 13 8 14 9 15 13 16 11 17 10 18 12 20 4 22 18 24
REMARK H PARENT 10 19 12 21 4 23 18 25
REMARK Flexibility Score: inf
ROOT
ATOM      1  C   UNL     1     -45.431 -12.271  -0.011  1.00  0.00     0.180 A 
ATOM      2  C   UNL     1     -46.250 -12.531   1.108  1.00  0.00     0.208 A 
ATOM      3  C   UNL     1     -46.709 -11.450   1.875  1.00  0.00     0.235 A 
ATOM      4  O   UNL     1     -47.452 -11.655   2.874  1.00  0.00    -0.285 OA
ATOM      5  C   UNL     1     -46.329 -10.144   1.527  1.00  0.00     0.069 A 
ATOM      6  C   UNL     1     -45.486  -9.969   0.407  1.00  0.00     0.142 A 
ATOM      7  O   UNL     1     -45.081 -11.019  -0.299  1.00  0.00    -0.452 OA
ATOM      8  C   UNL     1     -45.077  -8.685   0.033  1.00  0.00     0.094 A 
ATOM      9  C   UNL     1     -45.500  -7.569   0.764  1.00  0.00     0.119 A 
ATOM     10  C   UNL     1     -46.337  -7.739   1.875  1.00  0.00     0.047 A 
ATOM     11  C   UNL     1     -46.750  -9.019   2.257  1.00  0.00     0.020 A 
ENDROOT
BRANCH   1  12
ATOM     12  C   UNL     1     -44.921 -13.355  -0.881  1.00  0.00     0.025 A 
ATOM     13  C   UNL     1     -43.591 -13.783  -0.744  1.00  0.00     0.016 A 
ATOM     14  C   UNL     1     -43.082 -14.790  -1.568  1.00  0.00     0.051 A 
ATOM     15  C   UNL     1     -43.893 -15.373  -2.551  1.00  0.00     0.157 A 
ATOM     16  C   UNL     1     -45.724 -13.929  -1.884  1.00  0.00     0.062 A 
ATOM     17  C   UNL     1     -45.214 -14.938  -2.713  1.00  0.00     0.158 A 
BRANCH  15  18
ATOM     18  O   UNL     1     -43.390 -16.379  -3.375  1.00  0.00    -0.504 OA
ATOM     19  H   UNL     1     -43.172 -17.300  -3.014  1.00  0.00     0.293 HD
ENDBRANCH  15  18
BRANCH  17  20
ATOM     20  O   UNL     1     -46.013 -15.511  -3.701  1.00  0.00    -0.504 OA
ATOM     21  H   UNL     1     -46.193 -16.508  -3.725  1.00  0.00     0.293 HD
ENDBRANCH  17  20
ENDBRANCH   1  12
BRANCH   2  22
ATOM     22  O   UNL     1     -46.572 -13.844   1.459  1.00  0.00    -0.502 OA
ATOM     23  H   UNL     1     -47.484 -14.101   1.818  1.00  0.00     0.293 HD
ENDBRANCH   2  22
BRANCH   9  24
ATOM     24  O   UNL     1     -45.082  -6.297   0.377  1.00  0.00    -0.508 OA
ATOM     25  H   UNL     1     -45.748  -5.577   0.121  1.00  0.00     0.293 HD
ENDBRANCH   9  24
TORSDOF 5
ENDMDL
MODEL 5
REMARK VINA RESULT:    -6.052      1.958      6.394
REMARK INTER + INTRA:          -7.322
REMARK INTER:                  -7.458
REMARK INTRA:                   0.136
REMARK UNBOUND:                -0.209
REMARK SMILES O=c1c(O)c(-c2ccc(O)c(O)c2)oc2cc(O)ccc12
REMARK SMILES IDX 5 1 3 2 2 3 1 4 21 5 15 6 14 7 16 8 17 9 19 10 20 11 6 12
REMARK SMILES IDX 7 13 8 14 9 15 13 16 11 17 10 18 12 20 4 22 18 24
REMARK H PARENT 10 19 12 21 4 23 18 25
REMARK Flexibility Score: inf
ROOT
ATOM      1  C   UNL     1     -43.230 -11.383  -1.282  1.00  0.00     0.180 A 
ATOM      2  C   UNL     1     -41.826 -11.366  -1.151  1.00  0.00     0.208 A 
ATOM      3  C   UNL     1     -41.220 -10.269  -0.520  1.00  0.00     0.235 A 
ATOM      4  O   UNL     1     -39.966 -10.235  -0.380  1.00  0.00    -0.285 OA
ATOM      5  C   UNL     1     -42.017  -9.212  -0.055  1.00  0.00     0.069 A 
ATOM      6  C   UNL     1     -43.414  -9.293  -0.247  1.00  0.00     0.142 A 
ATOM      7  O   UNL     1     -43.950 -10.354  -0.841  1.00  0.00    -0.452 OA
ATOM      8  C   UNL     1     -44.242  -8.256   0.194  1.00  0.00     0.094 A 
ATOM      9  C   UNL     1     -43.693  -7.135   0.827  1.00  0.00     0.119 A 
ATOM     10  C   UNL     1     -42.307  -7.051   1.019  1.00  0.00     0.047 A 
ATOM     11  C   UNL     1     -41.471  -8.083   0.581  1.00  0.00     0.020 A 
ENDROOT
BRANCH   1  12
ATOM     12  C   UNL     1     -43.946 -12.512  -1.919  1.00  0.00     0.025 A 
ATOM     13  C   UNL     1     -43.454 -13.054  -3.117  1.00  0.00     0.016 A 
ATOM     14  C   UNL     1     -44.125 -14.106  -3.747  1.00  0.00     0.051 A 
ATOM     15  C   UNL     1     -45.305 -14.620  -3.195  1.00  0.00     0.157 A 
ATOM     16  C   UNL     1     -45.143 -13.018  -1.381  1.00  0.00     0.062 A 
ATOM     17  C   UNL     1     -45.818 -14.073  -2.013  1.00  0.00     0.158 A 
BRANCH  15  18
ATOM     18  O   UNL     1     -45.977 -15.671  -3.819  1.00  0.00    -0.504 OA
ATOM     19  H   UNL     1     -46.816 -15.514  -4.364  1.00  0.00     0.293 HD
ENDBRANCH  15  18
BRANCH  17  20
ATOM     20  O   UNL     1     -47.000 -14.578  -1.473  1.00  0.00    -0.504 OA
ATOM     21  H   UNL     1     -47.437 -14.153  -0.664  1.00  0.00     0.293 HD
ENDBRANCH  17  20
ENDBRANCH   1  12
BRANCH   2  22
ATOM     22  O   UNL     1     -41.054 -12.410  -1.668  1.00  0.00    -0.502 OA
ATOM     23  H   UNL     1     -40.466 -12.295  -2.485  1.00  0.00     0.293 HD
ENDBRANCH   2  22
BRANCH   9  24
ATOM     24  O   UNL     1     -44.533  -6.111   1.259  1.00  0.00    -0.508 OA
ATOM     25  H   UNL     1     -44.970  -5.474   0.603  1.00  0.00     0.293 HD
ENDBRANCH   9  24
TORSDOF 5
ENDMDL
MODEL 6
REMARK VINA RESULT:    -6.017      3.021      4.069
REMARK INTER + INTRA:          -7.280
REMARK INTER:                  -6.958
REMARK INTRA:                  -0.323
REMARK UNBOUND:                -0.209
REMARK SMILES O=c1c(O)c(-c2ccc(O)c(O)c2)oc2cc(O)ccc12
REMARK SMILES IDX 5 1 3 2 2 3 1 4 21 5 15 6 14 7 16 8 17 9 19 10 20 11 6 12
REMARK SMILES IDX 7 13 8 14 9 15 13 16 11 17 10 18 12 20 4 22 18 24
REMARK H PARENT 10 19 12 21 4 23 18 25
REMARK Flexibility Score: inf
ROOT
ATOM      1  C   UNL     1     -42.719 -11.479  -1.426  1.00  0.00     0.180 A 
ATOM      2  C   UNL     1     -44.094 -11.745  -1.261  1.00  0.00     0.208 A 
ATOM      3  C   UNL     1     -44.579 -13.021  -1.588  1.00  0.00     0.235 A 
ATOM      4  O   UNL     1     -45.804 -13.287  -1.440  1.00  0.00    -0.285 OA
ATOM      5  C   UNL     1     -43.695 -13.990  -2.087  1.00  0.00     0.069 A 
ATOM      6  C   UNL     1     -42.337 -13.637  -2.246  1.00  0.00     0.142 A 
ATOM      7  O   UNL     1     -41.915 -12.421  -1.916  1.00  0.00    -0.452 OA
ATOM      8  C   UNL     1     -41.425 -14.571  -2.749  1.00  0.00     0.094 A 
ATOM      9  C   UNL     1     -41.853 -15.858  -3.096  1.00  0.00     0.119 A 
ATOM     10  C   UNL     1     -43.199 -16.212  -2.939  1.00  0.00     0.047 A 
ATOM     11  C   UNL     1     -44.118 -15.284  -2.438  1.00  0.00     0.020 A 
ENDROOT
BRANCH   1  12
ATOM     12  C   UNL     1     -42.126 -10.165  -1.087  1.00  0.00     0.025 A 
ATOM     13  C   UNL     1     -41.962  -9.202  -2.094  1.00  0.00     0.016 A 
ATOM     14  C   UNL     1     -41.386  -7.962  -1.801  1.00  0.00     0.051 A 
ATOM     15  C   UNL     1     -40.954  -7.676  -0.500  1.00  0.00     0.157 A 
ATOM     16  C   UNL     1     -41.671  -9.880   0.213  1.00  0.00     0.062 A 
ATOM     17  C   UNL     1     -41.092  -8.637   0.508  1.00  0.00     0.158 A 
BRANCH  15  18
ATOM     18  O   UNL     1     -40.380  -6.440  -0.203  1.00  0.00    -0.504 OA
ATOM     19  H   UNL     1     -39.377  -6.327  -0.122  1.00  0.00     0.293 HD
ENDBRANCH  15  18
BRANCH  17  20
ATOM     20  O   UNL     1     -40.647  -8.354   1.799  1.00  0.00    -0.504 OA
ATOM     21  H   UNL     1     -40.508  -9.088   2.484  1.00  0.00     0.293 HD
ENDBRANCH  17  20
ENDBRANCH   1  12
BRANCH   2  22
ATOM     22  O   UNL     1     -44.959 -10.746  -0.810  1.00  0.00    -0.502 OA
ATOM     23  H   UNL     1     -45.838 -10.542  -1.270  1.00  0.00     0.293 HD
ENDBRANCH   2  22
BRANCH   9  24
ATOM     24  O   UNL     1     -40.931 -16.776  -3.596  1.00  0.00    -0.508 OA
ATOM     25  H   UNL     1     -39.966 -16.517  -3.764  1.00  0.00     0.293 HD
ENDBRANCH   9  24
TORSDOF 5
ENDMDL
MODEL 7
REMARK VINA RESULT:    -5.956      7.704      9.542
REMARK INTER + INTRA:          -7.209
REMARK INTER:                  -6.906
REMARK INTRA:                  -0.303
REMARK UNBOUND:                -0.209
REMARK SMILES O=c1c(O)c(-c2ccc(O)c(O)c2)oc2cc(O)ccc12
REMARK SMILES IDX 5 1 3 2 2 3 1 4 21 5 15 6 14 7 16 8 17 9 19 10 20 11 6 12
REMARK SMILES IDX 7 13 8 14 9 15 13 16 11 17 10 18 12 20 4 22 18 24
REMARK H PARENT 10 19 12 21 4 23 18 25
REMARK Flexibility Score: inf
ROOT
ATOM      1  C   UNL     1     -45.532 -16.215   5.779  1.00  0.00     0.180 A 
ATOM      2  C   UNL     1     -44.444 -15.512   6.339  1.00  0.00     0.208 A 
ATOM      3  C   UNL     1     -44.287 -14.153   6.028  1.00  0.00     0.235 A 
ATOM      4  O   UNL     1     -43.328 -13.499   6.525  1.00  0.00    -0.285 OA
ATOM      5  C   UNL     1     -45.197 -13.532   5.158  1.00  0.00     0.069 A 
ATOM      6  C   UNL     1     -46.244 -14.311   4.620  1.00  0.00     0.142 A 
ATOM      7  O   UNL     1     -46.365 -15.593   4.946  1.00  0.00    -0.452 OA
ATOM      8  C   UNL     1     -47.166 -13.732   3.741  1.00  0.00     0.094 A 
ATOM      9  C   UNL     1     -47.056 -12.381   3.392  1.00  0.00     0.119 A 
ATOM     10  C   UNL     1     -46.018 -11.605   3.925  1.00  0.00     0.047 A 
ATOM     11  C   UNL     1     -45.091 -12.175   4.803  1.00  0.00     0.020 A 
ENDROOT
BRANCH   1  12
ATOM     12  C   UNL     1     -45.778 -17.645   6.072  1.00  0.00     0.025 A 
ATOM     13  C   UNL     1     -45.436 -18.614   5.116  1.00  0.00     0.016 A 
ATOM     14  C   UNL     1     -45.678 -19.969   5.362  1.00  0.00     0.051 A 
ATOM     15  C   UNL     1     -46.279 -20.370   6.561  1.00  0.00     0.157 A 
ATOM     16  C   UNL     1     -46.401 -18.053   7.266  1.00  0.00     0.062 A 
ATOM     17  C   UNL     1     -46.645 -19.411   7.513  1.00  0.00     0.158 A 
BRANCH  15  18
ATOM     18  O   UNL     1     -46.521 -21.720   6.812  1.00  0.00    -0.504 OA
ATOM     19  H   UNL     1     -47.462 -22.081   6.910  1.00  0.00     0.293 HD
ENDBRANCH  15  18
BRANCH  17  20
ATOM     20  O   UNL     1     -47.256 -19.813   8.700  1.00  0.00    -0.504 OA
ATOM     21  H   UNL     1     -48.258 -19.959   8.757  1.00  0.00     0.293 HD
ENDBRANCH  17  20
ENDBRANCH   1  12
BRANCH   2  22
ATOM     22  O   UNL     1     -43.527 -16.168   7.163  1.00  0.00    -0.502 OA
ATOM     23  H   UNL     1     -42.904 -16.887   6.815  1.00  0.00     0.293 HD
ENDBRANCH   2  22
BRANCH   9  24
ATOM     24  O   UNL     1     -47.983 -11.822   2.516  1.00  0.00    -0.508 OA
ATOM     25  H   UNL     1     -48.960 -12.091   2.536  1.00  0.00     0.293 HD
ENDBRANCH   9  24
TORSDOF 5
ENDMDL
MODEL 8
REMARK VINA RESULT:    -5.918      2.803      7.195
REMARK INTER + INTRA:          -7.165
REMARK INTER:                  -6.989
REMARK INTRA:                  -0.176
REMARK UNBOUND:                -0.209
REMARK SMILES O=c1c(O)c(-c2ccc(O)c(O)c2)oc2cc(O)ccc12
REMARK SMILES IDX 5 1 3 2 2 3 1 4 21 5 15 6 14 7 16 8 17 9 19 10 20 11 6 12
REMARK SMILES IDX 7 13 8 14 9 15 13 16 11 17 10 18 12 20 4 22 18 24
REMARK H PARENT 10 19 12 21 4 23 18 25
REMARK Flexibility Score: inf
ROOT
ATOM      1  C   UNL     1     -44.639 -13.986   0.870  1.00  0.00     0.180 A 
ATOM      2  C   UNL     1     -44.693 -14.790   2.027  1.00  0.00     0.208 A 
ATOM      3  C   UNL     1     -45.178 -14.227   3.218  1.00  0.00     0.235 A 
ATOM      4  O   UNL     1     -45.246 -14.929   4.265  1.00  0.00    -0.285 OA
ATOM      5  C   UNL     1     -45.575 -12.881   3.236  1.00  0.00     0.069 A 
ATOM      6  C   UNL     1     -45.467 -12.137   2.041  1.00  0.00     0.142 A 
ATOM      7  O   UNL     1     -45.012 -12.709   0.931  1.00  0.00    -0.452 OA
ATOM      8  C   UNL     1     -45.844 -10.789   2.019  1.00  0.00     0.094 A 
ATOM      9  C   UNL     1     -46.330 -10.174   3.178  1.00  0.00     0.119 A 
ATOM     10  C   UNL     1     -46.440 -10.910   4.365  1.00  0.00     0.047 A 
ATOM     11  C   UNL     1     -46.064 -12.257   4.397  1.00  0.00     0.020 A 
ENDROOT
BRANCH   1  12
ATOM     12  C   UNL     1     -44.159 -14.510  -0.429  1.00  0.00     0.025 A 
ATOM     13  C   UNL     1     -42.805 -14.848  -0.578  1.00  0.00     0.016 A 
ATOM     14  C   UNL     1     -42.324 -15.325  -1.802  1.00  0.00     0.051 A 
ATOM     15  C   UNL     1     -43.189 -15.456  -2.895  1.00  0.00     0.157 A 
ATOM     16  C   UNL     1     -45.018 -14.623  -1.537  1.00  0.00     0.062 A 
ATOM     17  C   UNL     1     -44.537 -15.100  -2.765  1.00  0.00     0.158 A 
BRANCH  15  18
ATOM     18  O   UNL     1     -42.714 -15.932  -4.117  1.00  0.00    -0.504 OA
ATOM     19  H   UNL     1     -41.804 -16.369  -4.198  1.00  0.00     0.293 HD
ENDBRANCH  15  18
BRANCH  17  20
ATOM     20  O   UNL     1     -45.391 -15.218  -3.860  1.00  0.00    -0.504 OA
ATOM     21  H   UNL     1     -46.318 -14.809  -3.855  1.00  0.00     0.293 HD
ENDBRANCH  17  20
ENDBRANCH   1  12
BRANCH   2  22
ATOM     22  O   UNL     1     -44.245 -16.112   1.993  1.00  0.00    -0.502 OA
ATOM     23  H   UNL     1     -44.000 -16.623   2.832  1.00  0.00     0.293 HD
ENDBRANCH   2  22
BRANCH   9  24
ATOM     24  O   UNL     1     -46.700  -8.832   3.138  1.00  0.00    -0.508 OA
ATOM     25  H   UNL     1     -47.655  -8.541   3.316  1.00  0.00     0.293 HD
ENDBRANCH   9  24
TORSDOF 5
ENDMDL
MODEL 9
REMARK VINA RESULT:    -5.824      2.271      6.793
REMARK INTER + INTRA:          -7.054
REMARK INTER:                  -6.787
REMARK INTRA:                  -0.267
REMARK UNBOUND:                -0.209
REMARK SMILES O=c1c(O)c(-c2ccc(O)c(O)c2)oc2cc(O)ccc12
REMARK SMILES IDX 5 1 3 2 2 3 1 4 21 5 15 6 14 7 16 8 17 9 19 10 20 11 6 12
REMARK SMILES IDX 7 13 8 14 9 15 13 16 11 17 10 18 12 20 4 22 18 24
REMARK H PARENT 10 19 12 21 4 23 18 25
REMARK Flexibility Score: inf
ROOT
ATOM      1  C   UNL     1     -44.831 -12.482   0.332  1.00  0.00     0.180 A 
ATOM      2  C   UNL     1     -45.147 -11.111   0.225  1.00  0.00     0.208 A 
ATOM      3  C   UNL     1     -45.608 -10.434   1.364  1.00  0.00     0.235 A 
ATOM      4  O   UNL     1     -45.887  -9.205   1.298  1.00  0.00    -0.285 OA
ATOM      5  C   UNL     1     -45.763 -11.135   2.571  1.00  0.00     0.069 A 
ATOM      6  C   UNL     1     -45.449 -12.511   2.589  1.00  0.00     0.142 A 
ATOM      7  O   UNL     1     -45.006 -13.114   1.491  1.00  0.00    -0.452 OA
ATOM      8  C   UNL     1     -45.599 -13.248   3.769  1.00  0.00     0.094 A 
ATOM      9  C   UNL     1     -46.059 -12.626   4.935  1.00  0.00     0.119 A 
ATOM     10  C   UNL     1     -46.372 -11.260   4.920  1.00  0.00     0.047 A 
ATOM     11  C   UNL     1     -46.226 -10.515   3.745  1.00  0.00     0.020 A 
ENDROOT
BRANCH   1  12
ATOM     12  C   UNL     1     -44.321 -13.263  -0.818  1.00  0.00     0.025 A 
ATOM     13  C   UNL     1     -42.985 -13.108  -1.219  1.00  0.00     0.016 A 
ATOM     14  C   UNL     1     -42.488 -13.819  -2.315  1.00  0.00     0.051 A 
ATOM     15  C   UNL     1     -43.324 -14.684  -3.032  1.00  0.00     0.157 A 
ATOM     16  C   UNL     1     -45.162 -14.116  -1.555  1.00  0.00     0.062 A 
ATOM     17  C   UNL     1     -44.664 -14.829  -2.655  1.00  0.00     0.158 A 
BRANCH  15  18
ATOM     18  O   UNL     1     -42.831 -15.396  -4.125  1.00  0.00    -0.504 OA
ATOM     19  H   UNL     1     -43.359 -16.150  -4.547  1.00  0.00     0.293 HD
ENDBRANCH  15  18
BRANCH  17  20
ATOM     20  O   UNL     1     -45.497 -15.680  -3.381  1.00  0.00    -0.504 OA
ATOM     21  H   UNL     1     -46.081 -15.335  -4.134  1.00  0.00     0.293 HD
ENDBRANCH  17  20
ENDBRANCH   1  12
BRANCH   2  22
ATOM     22  O   UNL     1     -45.030 -10.452  -1.000  1.00  0.00    -0.502 OA
ATOM     23  H   UNL     1     -45.506  -9.579  -1.193  1.00  0.00     0.293 HD
ENDBRANCH   2  22
BRANCH   9  24
ATOM     24  O   UNL     1     -46.203 -13.374   6.101  1.00  0.00    -0.508 OA
ATOM     25  H   UNL     1     -46.190 -14.388   6.084  1.00  0.00     0.293 HD
ENDBRANCH   9  24
TORSDOF 5
ENDMDL
