MODEL 1
REMARK VINA RESULT:    -7.283      0.000      0.000
REMARK INTER + INTRA:          -7.918
REMARK INTER:                  -7.921
REMARK INTRA:                   0.003
REMARK UNBOUND:                 0.003
REMARK SMILES C[C@H]1[C@@H](C)CC[C@@]2(C(=O)[O-])CC[C@]3(C)C(=CC[C@@H]4[C@@]5(C)CC[C@@H](O)C(C)(C)[C@H]5CC[C@]43C)[C@@H]12
REMARK SMILES IDX 7 1 6 2 11 3 33 4 5 5 12 6 15 7 2 8 3 9 13 10 16 11 1 12
REMARK SMILES IDX 4 13 14 14 31 15 17 16 18 17 30 18 32 19 19 20 29 21 28 22
REMARK SMILES IDX 21 23 20 24 25 25 22 26 23 27 26 28 27 29 8 30 9 31 10 32
REMARK SMILES IDX 24 33
REMARK H PARENT 24 34
REMARK Flexibility Score: inf
ROOT
ATOM      1  C   UNL     1      15.357  -7.398 128.750  1.00  0.00     0.017 C 
ATOM      2  C   UNL     1      14.269  -7.408 127.623  1.00  0.00     0.014 C 
ATOM      3  C   UNL     1      16.290  -8.616 128.442  1.00  0.00     0.014 C 
ATOM      4  C   UNL     1      16.201  -6.039 128.822  1.00  0.00     0.030 C 
ATOM      5  C   UNL     1      13.458  -6.109 127.580  1.00  0.00     0.004 C 
ATOM      6  C   UNL     1      17.699  -8.625 129.120  1.00  0.00     0.013 C 
ATOM      7  C   UNL     1      17.644  -6.264 128.345  1.00  0.00    -0.063 C 
ATOM      8  C   UNL     1      15.435  -4.724 128.355  1.00  0.00    -0.003 C 
ATOM      9  C   UNL     1      14.379  -4.908 127.219  1.00  0.00    -0.011 C 
ATOM     10  C   UNL     1      18.500  -7.234 129.216  1.00  0.00    -0.006 C 
ATOM     11  C   UNL     1      17.948  -6.163 127.018  1.00  0.00    -0.027 C 
ATOM     12  C   UNL     1      16.348  -3.506 128.079  1.00  0.00     0.008 C 
ATOM     13  C   UNL     1      14.937  -4.982 125.761  1.00  0.00     0.008 C 
ATOM     14  C   UNL     1      18.443  -6.793 130.704  1.00  0.00     0.017 C 
ATOM     15  C   UNL     1      20.086  -7.254 128.740  1.00  0.00    -0.020 C 
ATOM     16  C   UNL     1      19.137  -6.806 126.407  1.00  0.00     0.032 C 
ATOM     17  C   UNL     1      20.309  -6.541 127.355  1.00  0.00     0.006 C 
ATOM     18  C   UNL     1      21.054  -6.457 129.719  1.00  0.00     0.008 C 
ATOM     19  C   UNL     1      20.582  -8.719 128.726  1.00  0.00     0.012 C 
ATOM     20  C   UNL     1      21.753  -6.672 126.674  1.00  0.00    -0.025 C 
ATOM     21  C   UNL     1      22.321  -5.855 129.077  1.00  0.00     0.005 C 
ATOM     22  C   UNL     1      22.865  -6.529 127.800  1.00  0.00     0.003 C 
ATOM     23  C   UNL     1      21.867  -5.549 125.583  1.00  0.00     0.010 C 
ATOM     24  C   UNL     1      21.890  -8.068 125.956  1.00  0.00     0.012 C 
ATOM     25  C   UNL     1      24.306  -6.010 127.333  1.00  0.00    -0.006 C 
ATOM     26  C   UNL     1      23.251  -4.928 125.301  1.00  0.00     0.033 C 
ATOM     27  C   UNL     1      24.385  -5.804 125.782  1.00  0.00     0.120 C 
ATOM     28  C   UNL     1      25.348  -7.083 127.726  1.00  0.00     0.014 C 
ATOM     29  C   UNL     1      24.731  -4.681 128.070  1.00  0.00     0.014 C 
ENDROOT
BRANCH   1  30
ATOM     30  C   UNL     1      14.653  -7.685 130.077  1.00  0.00     0.048 C 
ATOM     31  O   UNL     1      14.768  -8.818 130.615  1.00  0.00    -0.550 OA
ATOM     32  O   UNL     1      13.772  -6.774 130.696  1.00  0.00    -0.550 OA
ENDBRANCH   1  30
BRANCH  27  33
ATOM     33  O   UNL     1      25.584  -5.174 125.400  1.00  0.00    -0.393 OA
ATOM     34  H   UNL     1      26.009  -5.754 124.704  1.00  0.00     0.210 HD
ENDBRANCH  27  33
TORSDOF 2
ENDMDL
MODEL 2
REMARK VINA RESULT:    -6.836      1.726      3.477
REMARK INTER + INTRA:          -7.433
REMARK INTER:                  -7.261
REMARK INTRA:                  -0.171
REMARK UNBOUND:                 0.003
REMARK SMILES C[C@H]1[C@@H](C)CC[C@@]2(C(=O)[O-])CC[C@]3(C)C(=CC[C@@H]4[C@@]5(C)CC[C@@H](O)C(C)(C)[C@H]5CC[C@]43C)[C@@H]12
REMARK SMILES IDX 7 1 6 2 11 3 33 4 5 5 12 6 15 7 2 8 3 9 13 10 16 11 1 12
REMARK SMILES IDX 4 13 14 14 31 15 17 16 18 17 30 18 32 19 19 20 29 21 28 22
REMARK SMILES IDX 21 23 20 24 25 25 22 26 23 27 26 28 27 29 8 30 9 31 10 32
REMARK SMILES IDX 24 33
REMARK H PARENT 24 34
REMARK Flexibility Score: inf
ROOT
ATOM      1  C   UNL     1      15.528  -5.932 128.675  1.00  0.00     0.017 C 
ATOM      2  C   UNL     1      15.042  -5.015 129.848  1.00  0.00     0.014 C 
ATOM      3  C   UNL     1      16.289  -4.984 127.689  1.00  0.00     0.014 C 
ATOM      4  C   UNL     1      16.473  -7.138 129.145  1.00  0.00     0.030 C 
ATOM      5  C   UNL     1      14.554  -5.820 131.057  1.00  0.00     0.004 C 
ATOM      6  C   UNL     1      17.250  -5.653 126.653  1.00  0.00     0.013 C 
ATOM      7  C   UNL     1      17.922  -6.909 128.690  1.00  0.00    -0.063 C 
ATOM      8  C   UNL     1      16.209  -7.689 130.615  1.00  0.00    -0.003 C 
ATOM      9  C   UNL     1      15.725  -6.642 131.668  1.00  0.00    -0.011 C 
ATOM     10  C   UNL     1      18.150  -6.890 127.147  1.00  0.00    -0.006 C 
ATOM     11  C   UNL     1      18.776  -6.184 129.469  1.00  0.00    -0.027 C 
ATOM     12  C   UNL     1      17.339  -8.577 131.187  1.00  0.00     0.008 C 
ATOM     13  C   UNL     1      16.833  -5.745 132.310  1.00  0.00     0.008 C 
ATOM     14  C   UNL     1      17.535  -8.166 126.509  1.00  0.00     0.017 C 
ATOM     15  C   UNL     1      19.759  -6.840 126.762  1.00  0.00    -0.020 C 
ATOM     16  C   UNL     1      19.987  -5.513 128.937  1.00  0.00     0.032 C 
ATOM     17  C   UNL     1      20.668  -6.520 128.007  1.00  0.00     0.006 C 
ATOM     18  C   UNL     1      20.332  -8.229 126.241  1.00  0.00     0.008 C 
ATOM     19  C   UNL     1      19.964  -5.821 125.616  1.00  0.00     0.012 C 
ATOM     20  C   UNL     1      22.220  -6.231 127.740  1.00  0.00    -0.025 C 
ATOM     21  C   UNL     1      21.833  -8.482 126.497  1.00  0.00     0.005 C 
ATOM     22  C   UNL     1      22.751  -7.251 126.643  1.00  0.00     0.003 C 
ATOM     23  C   UNL     1      22.975  -6.388 129.109  1.00  0.00     0.010 C 
ATOM     24  C   UNL     1      22.419  -4.750 127.240  1.00  0.00     0.012 C 
ATOM     25  C   UNL     1      24.317  -7.584 126.661  1.00  0.00    -0.006 C 
ATOM     26  C   UNL     1      24.427  -6.906 129.099  1.00  0.00     0.033 C 
ATOM     27  C   UNL     1      25.084  -6.754 127.747  1.00  0.00     0.120 C 
ATOM     28  C   UNL     1      24.898  -7.213 125.277  1.00  0.00     0.014 C 
ATOM     29  C   UNL     1      24.599  -9.123 126.868  1.00  0.00     0.014 C 
ENDROOT
BRANCH   1  30
ATOM     30  C   UNL     1      14.288  -6.451 127.946  1.00  0.00     0.048 C 
ATOM     31  O   UNL     1      14.375  -7.468 127.208  1.00  0.00    -0.550 OA
ATOM     32  O   UNL     1      13.048  -5.781 127.961  1.00  0.00    -0.550 OA
ENDBRANCH   1  30
BRANCH  27  33
ATOM     33  O   UNL     1      26.418  -7.184 127.885  1.00  0.00    -0.393 OA
ATOM     34  H   UNL     1      26.420  -7.911 128.573  1.00  0.00     0.210 HD
ENDBRANCH  27  33
TORSDOF 2
ENDMDL
MODEL 3
REMARK VINA RESULT:    -6.442      1.876      8.042
REMARK INTER + INTRA:          -7.004
REMARK INTER:                  -7.274
REMARK INTRA:                   0.270
REMARK UNBOUND:                 0.003
REMARK SMILES C[C@H]1[C@@H](C)CC[C@@]2(C(=O)[O-])CC[C@]3(C)C(=CC[C@@H]4[C@@]5(C)CC[C@@H](O)C(C)(C)[C@H]5CC[C@]43C)[C@@H]12
REMARK SMILES IDX 7 1 6 2 11 3 33 4 5 5 12 6 15 7 2 8 3 9 13 10 16 11 1 12
REMARK SMILES IDX 4 13 14 14 31 15 17 16 18 17 30 18 32 19 19 20 29 21 28 22
REMARK SMILES IDX 21 23 20 24 25 25 22 26 23 27 26 28 27 29 8 30 9 31 10 32
REMARK SMILES IDX 24 33
REMARK H PARENT 24 34
REMARK Flexibility Score: inf
ROOT
ATOM      1  C   UNL     1      24.577  -5.270 125.923  1.00  0.00     0.017 C 
ATOM      2  C   UNL     1      25.241  -3.860 126.078  1.00  0.00     0.014 C 
ATOM      3  C   UNL     1      24.660  -5.930 127.340  1.00  0.00     0.014 C 
ATOM      4  C   UNL     1      23.061  -5.218 125.408  1.00  0.00     0.030 C 
ATOM      5  C   UNL     1      24.969  -2.949 124.876  1.00  0.00     0.004 C 
ATOM      6  C   UNL     1      23.714  -7.143 127.619  1.00  0.00     0.013 C 
ATOM      7  C   UNL     1      22.087  -5.613 126.529  1.00  0.00    -0.063 C 
ATOM      8  C   UNL     1      22.692  -3.986 124.470  1.00  0.00    -0.003 C 
ATOM      9  C   UNL     1      23.447  -2.650 124.757  1.00  0.00    -0.011 C 
ATOM     10  C   UNL     1      22.213  -7.078 127.048  1.00  0.00    -0.006 C 
ATOM     11  C   UNL     1      21.628  -4.667 127.398  1.00  0.00    -0.027 C 
ATOM     12  C   UNL     1      21.175  -3.744 124.285  1.00  0.00     0.008 C 
ATOM     13  C   UNL     1      22.899  -1.787 125.940  1.00  0.00     0.008 C 
ATOM     14  C   UNL     1      22.152  -8.066 125.851  1.00  0.00     0.017 C 
ATOM     15  C   UNL     1      20.998  -7.465 128.104  1.00  0.00    -0.020 C 
ATOM     16  C   UNL     1      21.102  -4.991 128.747  1.00  0.00     0.032 C 
ATOM     17  C   UNL     1      20.184  -6.203 128.575  1.00  0.00     0.006 C 
ATOM     18  C   UNL     1      19.881  -8.404 127.472  1.00  0.00     0.008 C 
ATOM     19  C   UNL     1      21.605  -8.242 129.297  1.00  0.00     0.012 C 
ATOM     20  C   UNL     1      19.121  -6.401 129.756  1.00  0.00    -0.025 C 
ATOM     21  C   UNL     1      18.466  -8.273 128.073  1.00  0.00     0.005 C 
ATOM     22  C   UNL     1      18.350  -7.772 129.528  1.00  0.00     0.003 C 
ATOM     23  C   UNL     1      18.150  -5.166 129.735  1.00  0.00     0.010 C 
ATOM     24  C   UNL     1      19.855  -6.422 131.150  1.00  0.00     0.012 C 
ATOM     25  C   UNL     1      16.884  -7.894 130.162  1.00  0.00    -0.006 C 
ATOM     26  C   UNL     1      16.683  -5.369 130.166  1.00  0.00     0.033 C 
ATOM     27  C   UNL     1      16.492  -6.622 130.989  1.00  0.00     0.120 C 
ATOM     28  C   UNL     1      16.880  -9.108 131.120  1.00  0.00     0.014 C 
ATOM     29  C   UNL     1      15.782  -8.182 129.070  1.00  0.00     0.014 C 
ENDROOT
BRANCH   1  30
ATOM     30  C   UNL     1      25.455  -6.096 124.982  1.00  0.00     0.048 C 
ATOM     31  O   UNL     1      25.481  -7.350 125.089  1.00  0.00    -0.550 OA
ATOM     32  O   UNL     1      26.344  -5.519 124.052  1.00  0.00    -0.550 OA
ENDBRANCH   1  30
BRANCH  27  33
ATOM     33  O   UNL     1      15.141  -6.654 131.384  1.00  0.00    -0.393 OA
ATOM     34  H   UNL     1      15.056  -6.051 132.178  1.00  0.00     0.210 HD
ENDBRANCH  27  33
TORSDOF 2
ENDMDL
MODEL 4
REMARK VINA RESULT:    -6.328     10.735     14.963
REMARK INTER + INTRA:          -6.880
REMARK INTER:                  -7.161
REMARK INTRA:                   0.281
REMARK UNBOUND:                 0.003
REMARK SMILES C[C@H]1[C@@H](C)CC[C@@]2(C(=O)[O-])CC[C@]3(C)C(=CC[C@@H]4[C@@]5(C)CC[C@@H](O)C(C)(C)[C@H]5CC[C@]43C)[C@@H]12
REMARK SMILES IDX 7 1 6 2 11 3 33 4 5 5 12 6 15 7 2 8 3 9 13 10 16 11 1 12
REMARK SMILES IDX 4 13 14 14 31 15 17 16 18 17 30 18 32 19 19 20 29 21 28 22
REMARK SMILES IDX 21 23 20 24 25 25 22 26 23 27 26 28 27 29 8 30 9 31 10 32
REMARK SMILES IDX 24 33
REMARK H PARENT 24 34
REMARK Flexibility Score: inf
ROOT
ATOM      1  C   UNL     1      15.970   3.195 131.604  1.00  0.00     0.017 C 
ATOM      2  C   UNL     1      15.874   3.302 133.164  1.00  0.00     0.014 C 
ATOM      3  C   UNL     1      14.555   2.723 131.129  1.00  0.00     0.014 C 
ATOM      4  C   UNL     1      16.383   4.566 130.886  1.00  0.00     0.030 C 
ATOM      5  C   UNL     1      17.064   4.051 133.774  1.00  0.00     0.004 C 
ATOM      6  C   UNL     1      14.203   2.934 129.620  1.00  0.00     0.013 C 
ATOM      7  C   UNL     1      15.195   5.159 130.112  1.00  0.00    -0.063 C 
ATOM      8  C   UNL     1      17.306   5.543 131.739  1.00  0.00    -0.003 C 
ATOM      9  C   UNL     1      17.083   5.527 133.285  1.00  0.00    -0.011 C 
ATOM     10  C   UNL     1      14.672   4.303 128.918  1.00  0.00    -0.006 C 
ATOM     11  C   UNL     1      14.306   5.977 130.746  1.00  0.00    -0.027 C 
ATOM     12  C   UNL     1      17.390   6.991 131.200  1.00  0.00     0.008 C 
ATOM     13  C   UNL     1      15.875   6.364 133.817  1.00  0.00     0.008 C 
ATOM     14  C   UNL     1      15.852   3.934 127.978  1.00  0.00     0.017 C 
ATOM     15  C   UNL     1      13.533   5.112 128.030  1.00  0.00    -0.020 C 
ATOM     16  C   UNL     1      12.922   6.202 130.263  1.00  0.00     0.032 C 
ATOM     17  C   UNL     1      13.021   6.414 128.750  1.00  0.00     0.006 C 
ATOM     18  C   UNL     1      14.079   5.656 126.639  1.00  0.00     0.008 C 
ATOM     19  C   UNL     1      12.377   4.139 127.700  1.00  0.00     0.012 C 
ATOM     20  C   UNL     1      11.769   7.177 128.106  1.00  0.00    -0.025 C 
ATOM     21  C   UNL     1      13.386   6.918 126.086  1.00  0.00     0.005 C 
ATOM     22  C   UNL     1      11.932   7.186 126.525  1.00  0.00     0.003 C 
ATOM     23  C   UNL     1      11.737   8.629 128.706  1.00  0.00     0.010 C 
ATOM     24  C   UNL     1      10.427   6.454 128.505  1.00  0.00     0.012 C 
ATOM     25  C   UNL     1      11.200   8.367 125.728  1.00  0.00    -0.006 C 
ATOM     26  C   UNL     1      11.207   9.781 127.828  1.00  0.00     0.033 C 
ATOM     27  C   UNL     1      10.361   9.288 126.678  1.00  0.00     0.120 C 
ATOM     28  C   UNL     1      10.232   7.722 124.709  1.00  0.00     0.014 C 
ATOM     29  C   UNL     1      12.213   9.242 124.892  1.00  0.00     0.014 C 
ENDROOT
BRANCH   1  30
ATOM     30  C   UNL     1      16.960   2.077 131.276  1.00  0.00     0.048 C 
ATOM     31  O   UNL     1      17.835   1.747 132.119  1.00  0.00    -0.550 OA
ATOM     32  O   UNL     1      17.027   1.453 130.013  1.00  0.00    -0.550 OA
ENDBRANCH   1  30
BRANCH  27  33
ATOM     33  O   UNL     1       9.875  10.425 126.005  1.00  0.00    -0.393 OA
ATOM     34  H   UNL     1      10.334  10.456 125.116  1.00  0.00     0.210 HD
ENDBRANCH  27  33
TORSDOF 2
ENDMDL
MODEL 5
REMARK VINA RESULT:    -6.182      1.549      7.990
REMARK INTER + INTRA:          -6.722
REMARK INTER:                  -6.418
REMARK INTRA:                  -0.304
REMARK UNBOUND:                 0.003
REMARK SMILES C[C@H]1[C@@H](C)CC[C@@]2(C(=O)[O-])CC[C@]3(C)C(=CC[C@@H]4[C@@]5(C)CC[C@@H](O)C(C)(C)[C@H]5CC[C@]43C)[C@@H]12
REMARK SMILES IDX 7 1 6 2 11 3 33 4 5 5 12 6 15 7 2 8 3 9 13 10 16 11 1 12
REMARK SMILES IDX 4 13 14 14 31 15 17 16 18 17 30 18 32 19 19 20 29 21 28 22
REMARK SMILES IDX 21 23 20 24 25 25 22 26 23 27 26 28 27 29 8 30 9 31 10 32
REMARK SMILES IDX 24 33
REMARK H PARENT 24 34
REMARK Flexibility Score: inf
ROOT
ATOM      1  C   UNL     1      24.005  -6.185 126.885  1.00  0.00     0.017 C 
ATOM      2  C   UNL     1      24.895  -4.950 127.253  1.00  0.00     0.014 C 
ATOM      3  C   UNL     1      23.626  -6.851 128.250  1.00  0.00     0.014 C 
ATOM      4  C   UNL     1      22.689  -5.808 126.052  1.00  0.00     0.030 C 
ATOM      5  C   UNL     1      25.098  -3.999 126.069  1.00  0.00     0.004 C 
ATOM      6  C   UNL     1      22.410  -7.834 128.251  1.00  0.00     0.013 C 
ATOM      7  C   UNL     1      21.427  -5.987 126.910  1.00  0.00    -0.063 C 
ATOM      8  C   UNL     1      22.806  -4.523 125.119  1.00  0.00    -0.003 C 
ATOM      9  C   UNL     1      23.738  -3.381 125.633  1.00  0.00    -0.011 C 
ATOM     10  C   UNL     1      21.124  -7.446 127.368  1.00  0.00    -0.006 C 
ATOM     11  C   UNL     1      20.990  -4.967 127.703  1.00  0.00    -0.027 C 
ATOM     12  C   UNL     1      21.455  -3.961 124.618  1.00  0.00     0.008 C 
ATOM     13  C   UNL     1      23.130  -2.423 126.708  1.00  0.00     0.008 C 
ATOM     14  C   UNL     1      21.130  -8.396 126.139  1.00  0.00     0.017 C 
ATOM     15  C   UNL     1      19.648  -7.567 128.110  1.00  0.00    -0.020 C 
ATOM     16  C   UNL     1      20.118  -5.174 128.885  1.00  0.00     0.032 C 
ATOM     17  C   UNL     1      19.030  -6.161 128.453  1.00  0.00     0.006 C 
ATOM     18  C   UNL     1      18.532  -8.243 127.200  1.00  0.00     0.008 C 
ATOM     19  C   UNL     1      19.795  -8.459 129.365  1.00  0.00     0.012 C 
ATOM     20  C   UNL     1      17.711  -6.130 129.360  1.00  0.00    -0.025 C 
ATOM     21  C   UNL     1      17.078  -7.813 127.481  1.00  0.00     0.005 C 
ATOM     22  C   UNL     1      16.743  -7.303 128.898  1.00  0.00     0.003 C 
ATOM     23  C   UNL     1      17.049  -4.715 129.189  1.00  0.00     0.010 C 
ATOM     24  C   UNL     1      18.091  -6.311 130.879  1.00  0.00     0.012 C 
ATOM     25  C   UNL     1      15.180  -7.109 129.187  1.00  0.00    -0.006 C 
ATOM     26  C   UNL     1      15.513  -4.600 129.275  1.00  0.00     0.033 C 
ATOM     27  C   UNL     1      14.885  -5.785 129.971  1.00  0.00     0.120 C 
ATOM     28  C   UNL     1      14.707  -8.296 130.058  1.00  0.00     0.014 C 
ATOM     29  C   UNL     1      14.318  -7.151 127.866  1.00  0.00     0.014 C 
ENDROOT
BRANCH   1  30
ATOM     30  C   UNL     1      24.880  -7.177 126.119  1.00  0.00     0.048 C 
ATOM     31  O   UNL     1      24.480  -7.649 125.022  1.00  0.00    -0.550 OA
ATOM     32  O   UNL     1      26.088  -7.695 126.631  1.00  0.00    -0.550 OA
ENDBRANCH   1  30
BRANCH  27  33
ATOM     33  O   UNL     1      13.503  -5.528 130.057  1.00  0.00    -0.393 OA
ATOM     34  H   UNL     1      13.163  -5.449 129.120  1.00  0.00     0.210 HD
ENDBRANCH  27  33
TORSDOF 2
ENDMDL
MODEL 6
REMARK VINA RESULT:    -6.085      5.029     11.228
REMARK INTER + INTRA:          -6.616
REMARK INTER:                  -6.351
REMARK INTRA:                  -0.265
REMARK UNBOUND:                 0.003
REMARK SMILES C[C@H]1[C@@H](C)CC[C@@]2(C(=O)[O-])CC[C@]3(C)C(=CC[C@@H]4[C@@]5(C)CC[C@@H](O)C(C)(C)[C@H]5CC[C@]43C)[C@@H]12
REMARK SMILES IDX 7 1 6 2 11 3 33 4 5 5 12 6 15 7 2 8 3 9 13 10 16 11 1 12
REMARK SMILES IDX 4 13 14 14 31 15 17 16 18 17 30 18 32 19 19 20 29 21 28 22
REMARK SMILES IDX 21 23 20 24 25 25 22 26 23 27 26 28 27 29 8 30 9 31 10 32
REMARK SMILES IDX 24 33
REMARK H PARENT 24 34
REMARK Flexibility Score: inf
ROOT
ATOM      1  C   UNL     1      28.409   0.580 125.455  1.00  0.00     0.017 C 
ATOM      2  C   UNL     1      28.711   0.976 123.970  1.00  0.00     0.014 C 
ATOM      3  C   UNL     1      26.882   0.854 125.659  1.00  0.00     0.014 C 
ATOM      4  C   UNL     1      28.764  -0.943 125.803  1.00  0.00     0.030 C 
ATOM      5  C   UNL     1      30.082   0.480 123.498  1.00  0.00     0.004 C 
ATOM      6  C   UNL     1      26.190   0.167 126.882  1.00  0.00     0.013 C 
ATOM      7  C   UNL     1      27.487  -1.769 126.016  1.00  0.00    -0.063 C 
ATOM      8  C   UNL     1      29.961  -1.581 124.969  1.00  0.00    -0.003 C 
ATOM      9  C   UNL     1      30.125  -1.076 123.501  1.00  0.00    -0.011 C 
ATOM     10  C   UNL     1      26.605  -1.347 127.231  1.00  0.00    -0.006 C 
ATOM     11  C   UNL     1      26.867  -2.354 124.952  1.00  0.00    -0.027 C 
ATOM     12  C   UNL     1      30.051  -3.124 125.044  1.00  0.00     0.008 C 
ATOM     13  C   UNL     1      29.173  -1.716 122.439  1.00  0.00     0.008 C 
ATOM     14  C   UNL     1      27.475  -1.281 128.516  1.00  0.00     0.017 C 
ATOM     15  C   UNL     1      25.367  -2.415 127.496  1.00  0.00    -0.020 C 
ATOM     16  C   UNL     1      25.435  -2.742 124.959  1.00  0.00     0.032 C 
ATOM     17  C   UNL     1      25.178  -3.426 126.304  1.00  0.00     0.006 C 
ATOM     18  C   UNL     1      25.605  -3.367 128.747  1.00  0.00     0.008 C 
ATOM     19  C   UNL     1      24.075  -1.615 127.789  1.00  0.00     0.012 C 
ATOM     20  C   UNL     1      23.887  -4.373 126.330  1.00  0.00    -0.025 C 
ATOM     21  C   UNL     1      24.924  -4.750 128.685  1.00  0.00     0.005 C 
ATOM     22  C   UNL     1      23.656  -4.885 127.817  1.00  0.00     0.003 C 
ATOM     23  C   UNL     1      24.146  -5.557 125.330  1.00  0.00     0.010 C 
ATOM     24  C   UNL     1      22.621  -3.579 125.830  1.00  0.00     0.012 C 
ATOM     25  C   UNL     1      22.870  -6.269 127.993  1.00  0.00    -0.006 C 
ATOM     26  C   UNL     1      23.533  -6.937 125.642  1.00  0.00     0.033 C 
ATOM     27  C   UNL     1      22.385  -6.850 126.621  1.00  0.00     0.120 C 
ATOM     28  C   UNL     1      21.622  -5.999 128.865  1.00  0.00     0.014 C 
ATOM     29  C   UNL     1      23.727  -7.350 128.758  1.00  0.00     0.014 C 
ENDROOT
BRANCH   1  30
ATOM     30  C   UNL     1      29.173   1.549 126.358  1.00  0.00     0.048 C 
ATOM     31  O   UNL     1      29.310   2.752 126.013  1.00  0.00    -0.550 OA
ATOM     32  O   UNL     1      29.846   1.143 127.529  1.00  0.00    -0.550 OA
ENDBRANCH   1  30
BRANCH  27  33
ATOM     33  O   UNL     1      21.863  -8.150 126.761  1.00  0.00    -0.393 OA
ATOM     34  H   UNL     1      22.409  -8.609 127.463  1.00  0.00     0.210 HD
ENDBRANCH  27  33
TORSDOF 2
ENDMDL
MODEL 7
REMARK VINA RESULT:    -6.059      2.805      8.748
REMARK INTER + INTRA:          -6.588
REMARK INTER:                  -6.361
REMARK INTRA:                  -0.227
REMARK UNBOUND:                 0.003
REMARK SMILES C[C@H]1[C@@H](C)CC[C@@]2(C(=O)[O-])CC[C@]3(C)C(=CC[C@@H]4[C@@]5(C)CC[C@@H](O)C(C)(C)[C@H]5CC[C@]43C)[C@@H]12
REMARK SMILES IDX 7 1 6 2 11 3 33 4 5 5 12 6 15 7 2 8 3 9 13 10 16 11 1 12
REMARK SMILES IDX 4 13 14 14 31 15 17 16 18 17 30 18 32 19 19 20 29 21 28 22
REMARK SMILES IDX 21 23 20 24 25 25 22 26 23 27 26 28 27 29 8 30 9 31 10 32
REMARK SMILES IDX 24 33
REMARK H PARENT 24 34
REMARK Flexibility Score: inf
ROOT
ATOM      1  C   UNL     1      25.163  -2.497 124.712  1.00  0.00     0.017 C 
ATOM      2  C   UNL     1      26.437  -1.927 125.423  1.00  0.00     0.014 C 
ATOM      3  C   UNL     1      25.263  -4.052 124.857  1.00  0.00     0.014 C 
ATOM      4  C   UNL     1      23.785  -1.957 125.325  1.00  0.00     0.030 C 
ATOM      5  C   UNL     1      26.351  -0.415 125.657  1.00  0.00     0.004 C 
ATOM      6  C   UNL     1      23.952  -4.875 124.636  1.00  0.00     0.013 C 
ATOM      7  C   UNL     1      23.050  -3.071 126.087  1.00  0.00    -0.063 C 
ATOM      8  C   UNL     1      23.835  -0.498 125.960  1.00  0.00    -0.003 C 
ATOM      9  C   UNL     1      25.183  -0.084 126.631  1.00  0.00    -0.011 C 
ATOM     10  C   UNL     1      22.579  -4.282 125.225  1.00  0.00    -0.006 C 
ATOM     11  C   UNL     1      23.330  -3.296 127.403  1.00  0.00    -0.027 C 
ATOM     12  C   UNL     1      22.628  -0.141 126.860  1.00  0.00     0.008 C 
ATOM     13  C   UNL     1      25.426  -0.616 128.080  1.00  0.00     0.008 C 
ATOM     14  C   UNL     1      21.760  -3.773 124.007  1.00  0.00     0.017 C 
ATOM     15  C   UNL     1      21.629  -5.324 126.092  1.00  0.00    -0.020 C 
ATOM     16  C   UNL     1      23.062  -4.589 128.079  1.00  0.00     0.032 C 
ATOM     17  C   UNL     1      21.665  -5.029 127.637  1.00  0.00     0.006 C 
ATOM     18  C   UNL     1      20.082  -5.220 125.737  1.00  0.00     0.008 C 
ATOM     19  C   UNL     1      22.059  -6.775 125.768  1.00  0.00     0.012 C 
ATOM     20  C   UNL     1      20.964  -6.088 128.613  1.00  0.00    -0.025 C 
ATOM     21  C   UNL     1      19.101  -5.596 126.867  1.00  0.00     0.005 C 
ATOM     22  C   UNL     1      19.600  -6.569 127.954  1.00  0.00     0.003 C 
ATOM     23  C   UNL     1      20.734  -5.380 129.997  1.00  0.00     0.010 C 
ATOM     24  C   UNL     1      21.915  -7.322 128.848  1.00  0.00     0.012 C 
ATOM     25  C   UNL     1      18.463  -7.102 128.948  1.00  0.00    -0.006 C 
ATOM     26  C   UNL     1      19.507  -5.781 130.840  1.00  0.00     0.033 C 
ATOM     27  C   UNL     1      18.946  -7.126 130.438  1.00  0.00     0.120 C 
ATOM     28  C   UNL     1      18.112  -8.550 128.536  1.00  0.00     0.014 C 
ATOM     29  C   UNL     1      17.129  -6.267 128.832  1.00  0.00     0.014 C 
ENDROOT
BRANCH   1  30
ATOM     30  C   UNL     1      25.275  -2.167 123.224  1.00  0.00     0.048 C 
ATOM     31  O   UNL     1      26.035  -2.848 122.487  1.00  0.00    -0.550 OA
ATOM     32  O   UNL     1      24.649  -1.050 122.632  1.00  0.00    -0.550 OA
ENDBRANCH   1  30
BRANCH  27  33
ATOM     33  O   UNL     1      17.890  -7.414 131.324  1.00  0.00    -0.393 OA
ATOM     34  H   UNL     1      17.068  -7.535 130.766  1.00  0.00     0.210 HD
ENDBRANCH  27  33
TORSDOF 2
ENDMDL
MODEL 8
REMARK VINA RESULT:    -5.781      2.048      2.874
REMARK INTER + INTRA:          -6.285
REMARK INTER:                  -6.373
REMARK INTRA:                   0.088
REMARK UNBOUND:                 0.003
REMARK SMILES C[C@H]1[C@@H](C)CC[C@@]2(C(=O)[O-])CC[C@]3(C)C(=CC[C@@H]4[C@@]5(C)CC[C@@H](O)C(C)(C)[C@H]5CC[C@]43C)[C@@H]12
REMARK SMILES IDX 7 1 6 2 11 3 33 4 5 5 12 6 15 7 2 8 3 9 13 10 16 11 1 12
REMARK SMILES IDX 4 13 14 14 31 15 17 16 18 17 30 18 32 19 19 20 29 21 28 22
REMARK SMILES IDX 21 23 20 24 25 25 22 26 23 27 26 28 27 29 8 30 9 31 10 32
REMARK SMILES IDX 24 33
REMARK H PARENT 24 34
REMARK Flexibility Score: inf
ROOT
ATOM      1  C   UNL     1      17.588  -7.658 128.241  1.00  0.00     0.017 C 
ATOM      2  C   UNL     1      16.448  -8.031 127.234  1.00  0.00     0.014 C 
ATOM      3  C   UNL     1      18.895  -8.280 127.643  1.00  0.00     0.014 C 
ATOM      4  C   UNL     1      17.761  -6.081 128.466  1.00  0.00     0.030 C 
ATOM      5  C   UNL     1      15.159  -7.243 127.489  1.00  0.00     0.004 C 
ATOM      6  C   UNL     1      20.257  -7.727 128.177  1.00  0.00     0.013 C 
ATOM      7  C   UNL     1      19.063  -5.575 127.827  1.00  0.00    -0.063 C 
ATOM      8  C   UNL     1      16.438  -5.211 128.305  1.00  0.00    -0.003 C 
ATOM      9  C   UNL     1      15.400  -5.723 127.257  1.00  0.00    -0.011 C 
ATOM     10  C   UNL     1      20.381  -6.145 128.436  1.00  0.00    -0.006 C 
ATOM     11  C   UNL     1      19.078  -5.200 126.515  1.00  0.00    -0.027 C 
ATOM     12  C   UNL     1      16.677  -3.689 128.159  1.00  0.00     0.008 C 
ATOM     13  C   UNL     1      15.695  -5.372 125.762  1.00  0.00     0.008 C 
ATOM     14  C   UNL     1      20.376  -5.948 129.976  1.00  0.00     0.017 C 
ATOM     15  C   UNL     1      21.721  -5.393 127.820  1.00  0.00    -0.020 C 
ATOM     16  C   UNL     1      20.314  -5.163 125.696  1.00  0.00     0.032 C 
ATOM     17  C   UNL     1      21.390  -4.506 126.562  1.00  0.00     0.006 C 
ATOM     18  C   UNL     1      22.391  -4.361 128.827  1.00  0.00     0.008 C 
ATOM     19  C   UNL     1      22.793  -6.465 127.508  1.00  0.00     0.012 C 
ATOM     20  C   UNL     1      22.620  -3.894 125.740  1.00  0.00    -0.025 C 
ATOM     21  C   UNL     1      23.153  -3.184 128.184  1.00  0.00     0.005 C 
ATOM     22  C   UNL     1      23.724  -3.391 126.766  1.00  0.00     0.003 C 
ATOM     23  C   UNL     1      22.062  -2.724 124.851  1.00  0.00     0.010 C 
ATOM     24  C   UNL     1      23.231  -4.986 124.783  1.00  0.00     0.012 C 
ATOM     25  C   UNL     1      24.705  -2.228 126.264  1.00  0.00    -0.006 C 
ATOM     26  C   UNL     1      22.977  -1.518 124.554  1.00  0.00     0.033 C 
ATOM     27  C   UNL     1      24.438  -1.836 124.771  1.00  0.00     0.120 C 
ATOM     28  C   UNL     1      26.156  -2.752 126.370  1.00  0.00     0.014 C 
ATOM     29  C   UNL     1      24.624  -0.943 127.176  1.00  0.00     0.014 C 
ENDROOT
BRANCH   1  30
ATOM     30  C   UNL     1      17.299  -8.379 129.558  1.00  0.00     0.048 C 
ATOM     31  O   UNL     1      16.290  -9.125 129.655  1.00  0.00    -0.550 OA
ATOM     32  O   UNL     1      18.048  -8.167 130.733  1.00  0.00    -0.550 OA
ENDBRANCH   1  30
BRANCH  27  33
ATOM     33  O   UNL     1      25.170  -0.693 124.394  1.00  0.00    -0.393 OA
ATOM     34  H   UNL     1      25.059  -0.022 125.127  1.00  0.00     0.210 HD
ENDBRANCH  27  33
TORSDOF 2
ENDMDL
MODEL 9
REMARK VINA RESULT:    -5.465     11.806     14.375
REMARK INTER + INTRA:          -5.941
REMARK INTER:                  -5.814
REMARK INTRA:                  -0.127
REMARK UNBOUND:                 0.003
REMARK SMILES C[C@H]1[C@@H](C)CC[C@@]2(C(=O)[O-])CC[C@]3(C)C(=CC[C@@H]4[C@@]5(C)CC[C@@H](O)C(C)(C)[C@H]5CC[C@]43C)[C@@H]12
REMARK SMILES IDX 7 1 6 2 11 3 33 4 5 5 12 6 15 7 2 8 3 9 13 10 16 11 1 12
REMARK SMILES IDX 4 13 14 14 31 15 17 16 18 17 30 18 32 19 19 20 29 21 28 22
REMARK SMILES IDX 21 23 20 24 25 25 22 26 23 27 26 28 27 29 8 30 9 31 10 32
REMARK SMILES IDX 24 33
REMARK H PARENT 24 34
REMARK Flexibility Score: inf
ROOT
ATOM      1  C   UNL     1      14.152   6.443 127.048  1.00  0.00     0.017 C 
ATOM      2  C   UNL     1      13.047   7.492 126.684  1.00  0.00     0.014 C 
ATOM      3  C   UNL     1      15.376   7.281 127.548  1.00  0.00     0.014 C 
ATOM      4  C   UNL     1      13.696   5.385 128.162  1.00  0.00     0.030 C 
ATOM      5  C   UNL     1      11.672   6.847 126.477  1.00  0.00     0.004 C 
ATOM      6  C   UNL     1      16.465   6.528 128.379  1.00  0.00     0.013 C 
ATOM      7  C   UNL     1      14.428   5.636 129.489  1.00  0.00    -0.063 C 
ATOM      8  C   UNL     1      12.142   5.043 128.195  1.00  0.00    -0.003 C 
ATOM      9  C   UNL     1      11.172   6.202 127.802  1.00  0.00    -0.011 C 
ATOM     10  C   UNL     1      15.974   5.439 129.456  1.00  0.00    -0.006 C 
ATOM     11  C   UNL     1      13.918   6.523 130.392  1.00  0.00    -0.027 C 
ATOM     12  C   UNL     1      11.664   4.325 129.480  1.00  0.00     0.008 C 
ATOM     13  C   UNL     1      10.865   7.255 128.916  1.00  0.00     0.008 C 
ATOM     14  C   UNL     1      16.314   4.046 128.860  1.00  0.00     0.017 C 
ATOM     15  C   UNL     1      16.642   5.535 130.968  1.00  0.00    -0.020 C 
ATOM     16  C   UNL     1      14.742   7.183 131.434  1.00  0.00     0.032 C 
ATOM     17  C   UNL     1      15.632   6.095 132.038  1.00  0.00     0.006 C 
ATOM     18  C   UNL     1      17.062   4.123 131.568  1.00  0.00     0.008 C 
ATOM     19  C   UNL     1      17.933   6.383 130.889  1.00  0.00     0.012 C 
ATOM     20  C   UNL     1      16.206   6.440 133.493  1.00  0.00    -0.025 C 
ATOM     21  C   UNL     1      17.043   4.008 133.107  1.00  0.00     0.005 C 
ATOM     22  C   UNL     1      17.230   5.304 133.923  1.00  0.00     0.003 C 
ATOM     23  C   UNL     1      14.984   6.538 134.475  1.00  0.00     0.010 C 
ATOM     24  C   UNL     1      16.930   7.839 133.473  1.00  0.00     0.012 C 
ATOM     25  C   UNL     1      17.445   5.078 135.494  1.00  0.00    -0.006 C 
ATOM     26  C   UNL     1      15.180   6.118 135.946  1.00  0.00     0.033 C 
ATOM     27  C   UNL     1      16.635   6.109 136.353  1.00  0.00     0.120 C 
ATOM     28  C   UNL     1      18.947   5.276 135.802  1.00  0.00     0.014 C 
ATOM     29  C   UNL     1      17.084   3.609 135.942  1.00  0.00     0.014 C 
ENDROOT
BRANCH   1  30
ATOM     30  C   UNL     1      14.572   5.743 125.756  1.00  0.00     0.048 C 
ATOM     31  O   UNL     1      14.321   6.277 124.644  1.00  0.00    -0.550 OA
ATOM     32  O   UNL     1      15.139   4.452 125.728  1.00  0.00    -0.550 OA
ENDBRANCH   1  30
BRANCH  27  33
ATOM     33  O   UNL     1      16.678   5.791 137.724  1.00  0.00    -0.393 OA
ATOM     34  H   UNL     1      16.897   4.817 137.791  1.00  0.00     0.210 HD
ENDBRANCH  27  33
TORSDOF 2
ENDMDL
