MODEL 1
REMARK VINA RESULT:    -5.676      0.000      0.000
REMARK INTER + INTRA:         -14.165
REMARK INTER:                 -12.313
REMARK INTRA:                  -1.852
REMARK UNBOUND:                -1.852
REMARK SMILES CCCCCCCCCCCCCCCCCCCCCC(=O)[O-]
REMARK SMILES IDX 12 1 11 2 10 3 9 4 8 5 7 6 6 7 5 8 4 9 3 10 2 11 1 12 13 13
REMARK SMILES IDX 14 14 15 15 16 16 17 17 18 18 19 19 20 20 21 21 22 22 23 23
REMARK SMILES IDX 24 24
REMARK H PARENT
REMARK Flexibility Score: inf
ROOT
ATOM      1  C   UNL     1       4.922  -0.397  36.693  1.00  0.00     0.000 C 
ENDROOT
BRANCH   1   2
ATOM      2  C   UNL     1       6.205   0.343  36.282  1.00  0.00     0.000 C 
BRANCH   2   3
ATOM      3  C   UNL     1       7.233  -0.581  35.605  1.00  0.00     0.000 C 
BRANCH   3   4
ATOM      4  C   UNL     1       8.607   0.090  35.448  1.00  0.00    -0.000 C 
BRANCH   4   5
ATOM      5  C   UNL     1       8.818   1.230  36.455  1.00  0.00    -0.000 C 
BRANCH   5   6
ATOM      6  C   UNL     1      10.273   1.725  36.437  1.00  0.00    -0.000 C 
BRANCH   6   7
ATOM      7  C   UNL     1      11.015   1.308  35.149  1.00  0.00    -0.000 C 
BRANCH   7   8
ATOM      8  C   UNL     1      12.528   1.086  35.346  1.00  0.00    -0.000 C 
BRANCH   8   9
ATOM      9  C   UNL     1      13.302   2.311  35.861  1.00  0.00    -0.000 C 
BRANCH   9  10
ATOM     10  C   UNL     1      13.021   3.582  35.046  1.00  0.00    -0.000 C 
BRANCH  10  11
ATOM     11  C   UNL     1      13.633   3.480  33.645  1.00  0.00    -0.003 C 
ATOM     12  C   UNL     1      12.619   3.866  32.571  1.00  0.00     0.004 C 
ENDBRANCH  10  11
ENDBRANCH   9  10
ENDBRANCH   8   9
ENDBRANCH   7   8
ENDBRANCH   6   7
ENDBRANCH   5   6
ENDBRANCH   4   5
ENDBRANCH   3   4
ENDBRANCH   2   3
ENDBRANCH   1   2
BRANCH   1  13
ATOM     13  C   UNL     1       3.785   0.556  37.091  1.00  0.00     0.000 C 
BRANCH  13  14
ATOM     14  C   UNL     1       3.230   0.196  38.478  1.00  0.00     0.000 C 
BRANCH  14  15
ATOM     15  C   UNL     1       2.421  -1.110  38.474  1.00  0.00     0.000 C 
BRANCH  15  16
ATOM     16  C   UNL     1       2.637  -1.947  39.745  1.00  0.00     0.000 C 
BRANCH  16  17
ATOM     17  C   UNL     1       3.281  -3.300  39.407  1.00  0.00     0.000 C 
BRANCH  17  18
ATOM     18  C   UNL     1       3.344  -3.575  37.893  1.00  0.00     0.000 C 
BRANCH  18  19
ATOM     19  C   UNL     1       4.758  -3.814  37.328  1.00  0.00     0.000 C 
BRANCH  19  20
ATOM     20  C   UNL     1       4.868  -3.790  35.792  1.00  0.00     0.006 C 
BRANCH  20  21
ATOM     21  C   UNL     1       6.163  -4.421  35.248  1.00  0.00     0.053 C 
BRANCH  21  22
ATOM     22  C   UNL     1       6.133  -5.919  35.287  1.00  0.00     0.041 C 
ATOM     23  O   UNL     1       7.184  -6.568  35.531  1.00  0.00    -0.550 OA
ATOM     24  O   UNL     1       4.936  -6.598  35.092  1.00  0.00    -0.550 OA
ENDBRANCH  21  22
ENDBRANCH  20  21
ENDBRANCH  19  20
ENDBRANCH  18  19
ENDBRANCH  17  18
ENDBRANCH  16  17
ENDBRANCH  15  16
ENDBRANCH  14  15
ENDBRANCH  13  14
ENDBRANCH   1  13
TORSDOF 20
ENDMDL
MODEL 2
REMARK VINA RESULT:    -5.654      3.756      8.987
REMARK INTER + INTRA:         -14.115
REMARK INTER:                 -12.163
REMARK INTRA:                  -1.952
REMARK UNBOUND:                -1.852
REMARK SMILES CCCCCCCCCCCCCCCCCCCCCC(=O)[O-]
REMARK SMILES IDX 12 1 11 2 10 3 9 4 8 5 7 6 6 7 5 8 4 9 3 10 2 11 1 12 13 13
REMARK SMILES IDX 14 14 15 15 16 16 17 17 18 18 19 19 20 20 21 21 22 22 23 23
REMARK SMILES IDX 24 24
REMARK H PARENT
REMARK Flexibility Score: inf
ROOT
ATOM      1  C   UNL     1       4.253   0.064  36.546  1.00  0.00     0.000 C 
ENDROOT
BRANCH   1   2
ATOM      2  C   UNL     1       3.662   0.236  37.954  1.00  0.00     0.000 C 
BRANCH   2   3
ATOM      3  C   UNL     1       2.473  -0.705  38.218  1.00  0.00     0.000 C 
BRANCH   3   4
ATOM      4  C   UNL     1       2.884  -1.957  39.010  1.00  0.00    -0.000 C 
BRANCH   4   5
ATOM      5  C   UNL     1       2.500  -3.257  38.287  1.00  0.00    -0.000 C 
BRANCH   5   6
ATOM      6  C   UNL     1       3.711  -4.193  38.149  1.00  0.00    -0.000 C 
BRANCH   6   7
ATOM      7  C   UNL     1       4.821  -3.584  37.265  1.00  0.00    -0.000 C 
BRANCH   7   8
ATOM      8  C   UNL     1       4.512  -3.634  35.755  1.00  0.00    -0.000 C 
BRANCH   8   9
ATOM      9  C   UNL     1       4.838  -4.970  35.069  1.00  0.00    -0.000 C 
BRANCH   9  10
ATOM     10  C   UNL     1       6.343  -5.171  34.833  1.00  0.00    -0.000 C 
BRANCH  10  11
ATOM     11  C   UNL     1       6.835  -6.456  35.509  1.00  0.00    -0.003 C 
ATOM     12  C   UNL     1       7.298  -7.479  34.476  1.00  0.00     0.004 C 
ENDBRANCH  10  11
ENDBRANCH   9  10
ENDBRANCH   8   9
ENDBRANCH   7   8
ENDBRANCH   6   7
ENDBRANCH   5   6
ENDBRANCH   4   5
ENDBRANCH   3   4
ENDBRANCH   2   3
ENDBRANCH   1   2
BRANCH   1  13
ATOM     13  C   UNL     1       5.741   0.437  36.474  1.00  0.00     0.000 C 
BRANCH  13  14
ATOM     14  C   UNL     1       6.586  -0.765  36.025  1.00  0.00     0.000 C 
BRANCH  14  15
ATOM     15  C   UNL     1       7.905  -0.349  35.357  1.00  0.00     0.000 C 
BRANCH  15  16
ATOM     16  C   UNL     1       8.347   1.070  35.748  1.00  0.00     0.000 C 
BRANCH  16  17
ATOM     17  C   UNL     1       9.362   1.626  34.737  1.00  0.00     0.000 C 
BRANCH  17  18
ATOM     18  C   UNL     1      10.259   0.535  34.123  1.00  0.00     0.000 C 
BRANCH  18  19
ATOM     19  C   UNL     1      11.737   0.578  34.558  1.00  0.00     0.000 C 
BRANCH  19  20
ATOM     20  C   UNL     1      12.027   1.389  35.835  1.00  0.00     0.006 C 
BRANCH  20  21
ATOM     21  C   UNL     1      13.132   2.447  35.666  1.00  0.00     0.053 C 
BRANCH  21  22
ATOM     22  C   UNL     1      12.582   3.813  35.383  1.00  0.00     0.041 C 
ATOM     23  O   UNL     1      12.249   4.131  34.212  1.00  0.00    -0.550 OA
ATOM     24  O   UNL     1      12.402   4.720  36.420  1.00  0.00    -0.550 OA
ENDBRANCH  21  22
ENDBRANCH  20  21
ENDBRANCH  19  20
ENDBRANCH  18  19
ENDBRANCH  17  18
ENDBRANCH  16  17
ENDBRANCH  15  16
ENDBRANCH  14  15
ENDBRANCH  13  14
ENDBRANCH   1  13
TORSDOF 20
ENDMDL
MODEL 3
REMARK VINA RESULT:    -5.578      2.915      4.414
REMARK INTER + INTRA:         -13.951
REMARK INTER:                 -12.191
REMARK INTRA:                  -1.760
REMARK UNBOUND:                -1.852
REMARK SMILES CCCCCCCCCCCCCCCCCCCCCC(=O)[O-]
REMARK SMILES IDX 12 1 11 2 10 3 9 4 8 5 7 6 6 7 5 8 4 9 3 10 2 11 1 12 13 13
REMARK SMILES IDX 14 14 15 15 16 16 17 17 18 18 19 19 20 20 21 21 22 22 23 23
REMARK SMILES IDX 24 24
REMARK H PARENT
REMARK Flexibility Score: inf
ROOT
ATOM      1  C   UNL     1       6.213  -1.433  36.010  1.00  0.00     0.000 C 
ENDROOT
BRANCH   1   2
ATOM      2  C   UNL     1       7.517  -0.770  35.539  1.00  0.00     0.000 C 
BRANCH   2   3
ATOM      3  C   UNL     1       7.641   0.693  36.001  1.00  0.00     0.000 C 
BRANCH   3   4
ATOM      4  C   UNL     1       8.689   1.474  35.193  1.00  0.00    -0.000 C 
BRANCH   4   5
ATOM      5  C   UNL     1       8.936   0.858  33.808  1.00  0.00    -0.000 C 
BRANCH   5   6
ATOM      6  C   UNL     1      10.408   0.999  33.391  1.00  0.00    -0.000 C 
BRANCH   6   7
ATOM      7  C   UNL     1      11.308  -0.062  34.061  1.00  0.00    -0.000 C 
BRANCH   7   8
ATOM      8  C   UNL     1      12.692   0.472  34.481  1.00  0.00    -0.000 C 
BRANCH   8   9
ATOM      9  C   UNL     1      12.748   1.099  35.884  1.00  0.00    -0.000 C 
BRANCH   9  10
ATOM     10  C   UNL     1      13.269   2.545  35.873  1.00  0.00    -0.000 C 
BRANCH  10  11
ATOM     11  C   UNL     1      12.131   3.533  35.596  1.00  0.00    -0.003 C 
ATOM     12  C   UNL     1      12.387   4.873  36.280  1.00  0.00     0.004 C 
ENDBRANCH  10  11
ENDBRANCH   9  10
ENDBRANCH   8   9
ENDBRANCH   7   8
ENDBRANCH   6   7
ENDBRANCH   5   6
ENDBRANCH   4   5
ENDBRANCH   3   4
ENDBRANCH   2   3
ENDBRANCH   1   2
BRANCH   1  13
ATOM     13  C   UNL     1       6.393  -2.914  36.373  1.00  0.00     0.000 C 
BRANCH  13  14
ATOM     14  C   UNL     1       6.029  -3.817  35.184  1.00  0.00     0.000 C 
BRANCH  14  15
ATOM     15  C   UNL     1       5.945  -5.302  35.568  1.00  0.00     0.000 C 
BRANCH  15  16
ATOM     16  C   UNL     1       4.518  -5.743  35.927  1.00  0.00     0.000 C 
BRANCH  16  17
ATOM     17  C   UNL     1       4.210  -5.454  37.404  1.00  0.00     0.000 C 
BRANCH  17  18
ATOM     18  C   UNL     1       3.123  -4.380  37.592  1.00  0.00     0.000 C 
BRANCH  18  19
ATOM     19  C   UNL     1       3.355  -3.410  38.767  1.00  0.00     0.000 C 
BRANCH  19  20
ATOM     20  C   UNL     1       3.074  -1.926  38.465  1.00  0.00     0.006 C 
BRANCH  20  21
ATOM     21  C   UNL     1       2.640  -1.109  39.695  1.00  0.00     0.053 C 
BRANCH  21  22
ATOM     22  C   UNL     1       1.671  -1.850  40.565  1.00  0.00     0.041 C 
ATOM     23  O   UNL     1       2.025  -2.260  41.702  1.00  0.00    -0.550 OA
ATOM     24  O   UNL     1       0.366  -2.056  40.137  1.00  0.00    -0.550 OA
ENDBRANCH  21  22
ENDBRANCH  20  21
ENDBRANCH  19  20
ENDBRANCH  18  19
ENDBRANCH  17  18
ENDBRANCH  16  17
ENDBRANCH  15  16
ENDBRANCH  14  15
ENDBRANCH  13  14
ENDBRANCH   1  13
TORSDOF 20
ENDMDL
MODEL 4
REMARK VINA RESULT:    -5.578      3.611      8.462
REMARK INTER + INTRA:         -13.951
REMARK INTER:                 -11.975
REMARK INTRA:                  -1.975
REMARK UNBOUND:                -1.852
REMARK SMILES CCCCCCCCCCCCCCCCCCCCCC(=O)[O-]
REMARK SMILES IDX 12 1 11 2 10 3 9 4 8 5 7 6 6 7 5 8 4 9 3 10 2 11 1 12 13 13
REMARK SMILES IDX 14 14 15 15 16 16 17 17 18 18 19 19 20 20 21 21 22 22 23 23
REMARK SMILES IDX 24 24
REMARK H PARENT
REMARK Flexibility Score: inf
ROOT
ATOM      1  C   UNL     1       2.439   0.033  37.861  1.00  0.00     0.000 C 
ENDROOT
BRANCH   1   2
ATOM      2  C   UNL     1       1.845  -1.166  38.617  1.00  0.00     0.000 C 
BRANCH   2   3
ATOM      3  C   UNL     1       2.701  -1.591  39.824  1.00  0.00     0.000 C 
BRANCH   3   4
ATOM      4  C   UNL     1       3.059  -3.085  39.790  1.00  0.00    -0.000 C 
BRANCH   4   5
ATOM      5  C   UNL     1       3.120  -3.637  38.358  1.00  0.00    -0.000 C 
BRANCH   5   6
ATOM      6  C   UNL     1       4.564  -3.663  37.833  1.00  0.00    -0.000 C 
BRANCH   6   7
ATOM      7  C   UNL     1       4.626  -3.597  36.292  1.00  0.00    -0.000 C 
BRANCH   7   8
ATOM      8  C   UNL     1       6.036  -3.833  35.715  1.00  0.00    -0.000 C 
BRANCH   8   9
ATOM      9  C   UNL     1       6.071  -4.268  34.241  1.00  0.00    -0.000 C 
BRANCH   9  10
ATOM     10  C   UNL     1       5.052  -5.372  33.919  1.00  0.00    -0.000 C 
BRANCH  10  11
ATOM     11  C   UNL     1       4.197  -4.990  32.706  1.00  0.00    -0.003 C 
ATOM     12  C   UNL     1       2.749  -4.730  33.113  1.00  0.00     0.004 C 
ENDBRANCH  10  11
ENDBRANCH   9  10
ENDBRANCH   8   9
ENDBRANCH   7   8
ENDBRANCH   6   7
ENDBRANCH   5   6
ENDBRANCH   4   5
ENDBRANCH   3   4
ENDBRANCH   2   3
ENDBRANCH   1   2
BRANCH   1  13
ATOM     13  C   UNL     1       3.975   0.051  37.883  1.00  0.00     0.000 C 
BRANCH  13  14
ATOM     14  C   UNL     1       4.541   0.089  36.455  1.00  0.00     0.000 C 
BRANCH  14  15
ATOM     15  C   UNL     1       6.029   0.473  36.415  1.00  0.00     0.000 C 
BRANCH  15  16
ATOM     16  C   UNL     1       6.903  -0.607  35.759  1.00  0.00     0.000 C 
BRANCH  16  17
ATOM     17  C   UNL     1       8.323  -0.080  35.501  1.00  0.00     0.000 C 
BRANCH  17  18
ATOM     18  C   UNL     1       8.760  -0.222  34.031  1.00  0.00     0.000 C 
BRANCH  18  19
ATOM     19  C   UNL     1      10.282  -0.301  33.803  1.00  0.00     0.000 C 
BRANCH  19  20
ATOM     20  C   UNL     1      11.026   1.048  33.833  1.00  0.00     0.006 C 
BRANCH  20  21
ATOM     21  C   UNL     1      12.390   0.993  34.544  1.00  0.00     0.053 C 
BRANCH  21  22
ATOM     22  C   UNL     1      12.778   2.309  35.145  1.00  0.00     0.041 C 
ATOM     23  O   UNL     1      12.325   3.382  34.668  1.00  0.00    -0.550 OA
ATOM     24  O   UNL     1      13.610   2.350  36.257  1.00  0.00    -0.550 OA
ENDBRANCH  21  22
ENDBRANCH  20  21
ENDBRANCH  19  20
ENDBRANCH  18  19
ENDBRANCH  17  18
ENDBRANCH  16  17
ENDBRANCH  15  16
ENDBRANCH  14  15
ENDBRANCH  13  14
ENDBRANCH   1  13
TORSDOF 20
ENDMDL
MODEL 5
REMARK VINA RESULT:    -5.534      1.087      1.906
REMARK INTER + INTRA:         -13.857
REMARK INTER:                 -12.214
REMARK INTRA:                  -1.642
REMARK UNBOUND:                -1.852
REMARK SMILES CCCCCCCCCCCCCCCCCCCCCC(=O)[O-]
REMARK SMILES IDX 12 1 11 2 10 3 9 4 8 5 7 6 6 7 5 8 4 9 3 10 2 11 1 12 13 13
REMARK SMILES IDX 14 14 15 15 16 16 17 17 18 18 19 19 20 20 21 21 22 22 23 23
REMARK SMILES IDX 24 24
REMARK H PARENT
REMARK Flexibility Score: inf
ROOT
ATOM      1  C   UNL     1       3.616   0.381  37.408  1.00  0.00     0.000 C 
ENDROOT
BRANCH   1   2
ATOM      2  C   UNL     1       4.710  -0.454  36.726  1.00  0.00     0.000 C 
BRANCH   2   3
ATOM      3  C   UNL     1       5.944   0.382  36.341  1.00  0.00     0.000 C 
BRANCH   3   4
ATOM      4  C   UNL     1       7.026  -0.458  35.644  1.00  0.00    -0.000 C 
BRANCH   4   5
ATOM      5  C   UNL     1       8.228   0.390  35.202  1.00  0.00    -0.000 C 
BRANCH   5   6
ATOM      6  C   UNL     1       8.777  -0.088  33.849  1.00  0.00    -0.000 C 
BRANCH   6   7
ATOM      7  C   UNL     1      10.320  -0.078  33.808  1.00  0.00    -0.000 C 
BRANCH   7   8
ATOM      8  C   UNL     1      10.966   0.814  34.888  1.00  0.00    -0.000 C 
BRANCH   8   9
ATOM      9  C   UNL     1      12.502   0.787  34.919  1.00  0.00    -0.000 C 
BRANCH   9  10
ATOM     10  C   UNL     1      13.112   2.088  35.464  1.00  0.00    -0.000 C 
BRANCH  10  11
ATOM     11  C   UNL     1      12.250   3.297  35.083  1.00  0.00    -0.003 C 
ATOM     12  C   UNL     1      12.480   4.462  36.042  1.00  0.00     0.004 C 
ENDBRANCH  10  11
ENDBRANCH   9  10
ENDBRANCH   8   9
ENDBRANCH   7   8
ENDBRANCH   6   7
ENDBRANCH   5   6
ENDBRANCH   4   5
ENDBRANCH   3   4
ENDBRANCH   2   3
ENDBRANCH   1   2
BRANCH   1  13
ATOM     13  C   UNL     1       3.313  -0.087  38.839  1.00  0.00     0.000 C 
BRANCH  13  14
ATOM     14  C   UNL     1       2.301  -1.244  38.833  1.00  0.00     0.000 C 
BRANCH  14  15
ATOM     15  C   UNL     1       2.583  -2.287  39.925  1.00  0.00     0.000 C 
BRANCH  15  16
ATOM     16  C   UNL     1       3.431  -3.463  39.418  1.00  0.00     0.000 C 
BRANCH  16  17
ATOM     17  C   UNL     1       3.128  -3.760  37.941  1.00  0.00     0.000 C 
BRANCH  17  18
ATOM     18  C   UNL     1       4.400  -3.946  37.093  1.00  0.00     0.000 C 
BRANCH  18  19
ATOM     19  C   UNL     1       4.207  -3.771  35.574  1.00  0.00     0.000 C 
BRANCH  19  20
ATOM     20  C   UNL     1       5.165  -4.588  34.687  1.00  0.00     0.006 C 
BRANCH  20  21
ATOM     21  C   UNL     1       6.364  -5.184  35.446  1.00  0.00     0.053 C 
BRANCH  21  22
ATOM     22  C   UNL     1       6.374  -6.682  35.420  1.00  0.00     0.041 C 
ATOM     23  O   UNL     1       6.138  -7.336  36.470  1.00  0.00    -0.550 OA
ATOM     24  O   UNL     1       6.606  -7.357  34.228  1.00  0.00    -0.550 OA
ENDBRANCH  21  22
ENDBRANCH  20  21
ENDBRANCH  19  20
ENDBRANCH  18  19
ENDBRANCH  17  18
ENDBRANCH  16  17
ENDBRANCH  15  16
ENDBRANCH  14  15
ENDBRANCH  13  14
ENDBRANCH   1  13
TORSDOF 20
ENDMDL
MODEL 6
REMARK VINA RESULT:    -5.532      3.493      9.231
REMARK INTER + INTRA:         -13.852
REMARK INTER:                 -11.756
REMARK INTRA:                  -2.097
REMARK UNBOUND:                -1.852
REMARK SMILES CCCCCCCCCCCCCCCCCCCCCC(=O)[O-]
REMARK SMILES IDX 12 1 11 2 10 3 9 4 8 5 7 6 6 7 5 8 4 9 3 10 2 11 1 12 13 13
REMARK SMILES IDX 14 14 15 15 16 16 17 17 18 18 19 19 20 20 21 21 22 22 23 23
REMARK SMILES IDX 24 24
REMARK H PARENT
REMARK Flexibility Score: inf
ROOT
ATOM      1  C   UNL     1       2.552  -1.052  38.649  1.00  0.00     0.000 C 
ENDROOT
BRANCH   1   2
ATOM      2  C   UNL     1       2.634  -0.952  40.181  1.00  0.00     0.000 C 
BRANCH   2   3
ATOM      3  C   UNL     1       2.696  -2.331  40.863  1.00  0.00     0.000 C 
BRANCH   3   4
ATOM      4  C   UNL     1       1.342  -2.748  41.462  1.00  0.00    -0.000 C 
BRANCH   4   5
ATOM      5  C   UNL     1       0.865  -4.108  40.933  1.00  0.00    -0.000 C 
BRANCH   5   6
ATOM      6  C   UNL     1       0.250  -3.974  39.531  1.00  0.00    -0.000 C 
BRANCH   6   7
ATOM      7  C   UNL     1       1.159  -4.569  38.435  1.00  0.00    -0.000 C 
BRANCH   7   8
ATOM      8  C   UNL     1       2.252  -5.513  38.977  1.00  0.00    -0.000 C 
BRANCH   8   9
ATOM      9  C   UNL     1       3.539  -5.566  38.137  1.00  0.00    -0.000 C 
BRANCH   9  10
ATOM     10  C   UNL     1       4.133  -4.176  37.864  1.00  0.00    -0.000 C 
BRANCH  10  11
ATOM     11  C   UNL     1       5.010  -4.193  36.608  1.00  0.00    -0.003 C 
ATOM     12  C   UNL     1       4.168  -4.043  35.345  1.00  0.00     0.004 C 
ENDBRANCH  10  11
ENDBRANCH   9  10
ENDBRANCH   8   9
ENDBRANCH   7   8
ENDBRANCH   6   7
ENDBRANCH   5   6
ENDBRANCH   4   5
ENDBRANCH   3   4
ENDBRANCH   2   3
ENDBRANCH   1   2
BRANCH   1  13
ATOM     13  C   UNL     1       3.406   0.007  37.936  1.00  0.00     0.000 C 
BRANCH  13  14
ATOM     14  C   UNL     1       4.394  -0.653  36.962  1.00  0.00     0.000 C 
BRANCH  14  15
ATOM     15  C   UNL     1       5.401   0.344  36.369  1.00  0.00     0.000 C 
BRANCH  15  16
ATOM     16  C   UNL     1       6.725  -0.321  35.961  1.00  0.00     0.000 C 
BRANCH  16  17
ATOM     17  C   UNL     1       7.851   0.720  35.856  1.00  0.00     0.000 C 
BRANCH  17  18
ATOM     18  C   UNL     1       8.529   0.734  34.473  1.00  0.00     0.000 C 
BRANCH  18  19
ATOM     19  C   UNL     1       9.275   2.036  34.121  1.00  0.00     0.000 C 
BRANCH  19  20
ATOM     20  C   UNL     1      10.521   2.336  34.977  1.00  0.00     0.006 C 
BRANCH  20  21
ATOM     21  C   UNL     1      11.437   1.118  35.194  1.00  0.00     0.053 C 
BRANCH  21  22
ATOM     22  C   UNL     1      12.890   1.464  35.071  1.00  0.00     0.041 C 
ATOM     23  O   UNL     1      13.529   1.883  36.071  1.00  0.00    -0.550 OA
ATOM     24  O   UNL     1      13.549   1.286  33.860  1.00  0.00    -0.550 OA
ENDBRANCH  21  22
ENDBRANCH  20  21
ENDBRANCH  19  20
ENDBRANCH  18  19
ENDBRANCH  17  18
ENDBRANCH  16  17
ENDBRANCH  15  16
ENDBRANCH  14  15
ENDBRANCH  13  14
ENDBRANCH   1  13
TORSDOF 20
ENDMDL
MODEL 7
REMARK VINA RESULT:    -5.520      1.249      2.002
REMARK INTER + INTRA:         -13.825
REMARK INTER:                 -11.791
REMARK INTRA:                  -2.034
REMARK UNBOUND:                -1.852
REMARK SMILES CCCCCCCCCCCCCCCCCCCCCC(=O)[O-]
REMARK SMILES IDX 12 1 11 2 10 3 9 4 8 5 7 6 6 7 5 8 4 9 3 10 2 11 1 12 13 13
REMARK SMILES IDX 14 14 15 15 16 16 17 17 18 18 19 19 20 20 21 21 22 22 23 23
REMARK SMILES IDX 24 24
REMARK H PARENT
REMARK Flexibility Score: inf
ROOT
ATOM      1  C   UNL     1       6.772  -0.975  35.983  1.00  0.00     0.000 C 
ENDROOT
BRANCH   1   2
ATOM      2  C   UNL     1       7.204   0.500  35.960  1.00  0.00     0.000 C 
BRANCH   2   3
ATOM      3  C   UNL     1       8.666   0.698  36.399  1.00  0.00     0.000 C 
BRANCH   3   4
ATOM      4  C   UNL     1       9.375   1.797  35.591  1.00  0.00    -0.000 C 
BRANCH   4   5
ATOM      5  C   UNL     1       9.176   1.628  34.078  1.00  0.00    -0.000 C 
BRANCH   5   6
ATOM      6  C   UNL     1      10.492   1.241  33.385  1.00  0.00    -0.000 C 
BRANCH   6   7
ATOM      7  C   UNL     1      11.113  -0.039  33.985  1.00  0.00    -0.000 C 
BRANCH   7   8
ATOM      8  C   UNL     1      12.586   0.125  34.413  1.00  0.00    -0.000 C 
BRANCH   8   9
ATOM      9  C   UNL     1      13.097   1.575  34.440  1.00  0.00    -0.000 C 
BRANCH   9  10
ATOM     10  C   UNL     1      13.147   2.165  35.858  1.00  0.00    -0.000 C 
BRANCH  10  11
ATOM     11  C   UNL     1      13.054   3.694  35.817  1.00  0.00    -0.003 C 
ATOM     12  C   UNL     1      12.347   4.170  34.552  1.00  0.00     0.004 C 
ENDBRANCH  10  11
ENDBRANCH   9  10
ENDBRANCH   8   9
ENDBRANCH   7   8
ENDBRANCH   6   7
ENDBRANCH   5   6
ENDBRANCH   4   5
ENDBRANCH   3   4
ENDBRANCH   2   3
ENDBRANCH   1   2
BRANCH   1  13
ATOM     13  C   UNL     1       5.298  -1.159  36.373  1.00  0.00     0.000 C 
BRANCH  13  14
ATOM     14  C   UNL     1       4.637   0.197  36.667  1.00  0.00     0.000 C 
BRANCH  14  15
ATOM     15  C   UNL     1       3.727   0.160  37.905  1.00  0.00     0.000 C 
BRANCH  15  16
ATOM     16  C   UNL     1       2.752  -1.028  37.890  1.00  0.00     0.000 C 
BRANCH  16  17
ATOM     17  C   UNL     1       2.817  -1.807  39.213  1.00  0.00     0.000 C 
BRANCH  17  18
ATOM     18  C   UNL     1       2.870  -3.332  39.010  1.00  0.00     0.000 C 
BRANCH  18  19
ATOM     19  C   UNL     1       4.136  -3.858  38.307  1.00  0.00     0.000 C 
BRANCH  19  20
ATOM     20  C   UNL     1       3.974  -5.198  37.566  1.00  0.00     0.006 C 
BRANCH  20  21
ATOM     21  C   UNL     1       4.972  -5.400  36.412  1.00  0.00     0.053 C 
BRANCH  21  22
ATOM     22  C   UNL     1       5.168  -6.846  36.068  1.00  0.00     0.041 C 
ATOM     23  O   UNL     1       4.884  -7.266  34.916  1.00  0.00    -0.550 OA
ATOM     24  O   UNL     1       5.699  -7.721  37.007  1.00  0.00    -0.550 OA
ENDBRANCH  21  22
ENDBRANCH  20  21
ENDBRANCH  19  20
ENDBRANCH  18  19
ENDBRANCH  17  18
ENDBRANCH  16  17
ENDBRANCH  15  16
ENDBRANCH  14  15
ENDBRANCH  13  14
ENDBRANCH   1  13
TORSDOF 20
ENDMDL
MODEL 8
REMARK VINA RESULT:    -5.489      3.867      9.563
REMARK INTER + INTRA:         -13.758
REMARK INTER:                 -11.602
REMARK INTRA:                  -2.155
REMARK UNBOUND:                -1.852
REMARK SMILES CCCCCCCCCCCCCCCCCCCCCC(=O)[O-]
REMARK SMILES IDX 12 1 11 2 10 3 9 4 8 5 7 6 6 7 5 8 4 9 3 10 2 11 1 12 13 13
REMARK SMILES IDX 14 14 15 15 16 16 17 17 18 18 19 19 20 20 21 21 22 22 23 23
REMARK SMILES IDX 24 24
REMARK H PARENT
REMARK Flexibility Score: inf
ROOT
ATOM      1  C   UNL     1       6.557  -2.626  36.474  1.00  0.00     0.000 C 
ENDROOT
BRANCH   1   2
ATOM      2  C   UNL     1       6.350  -3.868  35.594  1.00  0.00     0.000 C 
BRANCH   2   3
ATOM      3  C   UNL     1       5.004  -3.850  34.846  1.00  0.00     0.000 C 
BRANCH   3   4
ATOM      4  C   UNL     1       4.025  -4.907  35.382  1.00  0.00    -0.000 C 
BRANCH   4   5
ATOM      5  C   UNL     1       3.028  -4.319  36.392  1.00  0.00    -0.000 C 
BRANCH   5   6
ATOM      6  C   UNL     1       3.411  -4.695  37.832  1.00  0.00    -0.000 C 
BRANCH   6   7
ATOM      7  C   UNL     1       3.667  -3.453  38.712  1.00  0.00    -0.000 C 
BRANCH   7   8
ATOM      8  C   UNL     1       3.087  -2.148  38.130  1.00  0.00    -0.000 C 
BRANCH   8   9
ATOM      9  C   UNL     1       2.102  -1.407  39.049  1.00  0.00    -0.000 C 
BRANCH   9  10
ATOM     10  C   UNL     1       1.419  -2.336  40.065  1.00  0.00    -0.000 C 
BRANCH  10  11
ATOM     11  C   UNL     1       1.877  -2.015  41.492  1.00  0.00    -0.003 C 
ATOM     12  C   UNL     1       2.733  -0.752  41.525  1.00  0.00     0.004 C 
ENDBRANCH  10  11
ENDBRANCH   9  10
ENDBRANCH   8   9
ENDBRANCH   7   8
ENDBRANCH   6   7
ENDBRANCH   5   6
ENDBRANCH   4   5
ENDBRANCH   3   4
ENDBRANCH   2   3
ENDBRANCH   1   2
BRANCH   1  13
ATOM     13  C   UNL     1       5.671  -1.443  36.055  1.00  0.00     0.000 C 
BRANCH  13  14
ATOM     14  C   UNL     1       6.476  -0.134  36.044  1.00  0.00     0.000 C 
BRANCH  14  15
ATOM     15  C   UNL     1       7.947  -0.343  35.654  1.00  0.00     0.000 C 
BRANCH  15  16
ATOM     16  C   UNL     1       8.244   0.082  34.207  1.00  0.00     0.000 C 
BRANCH  16  17
ATOM     17  C   UNL     1       9.139   1.330  34.176  1.00  0.00     0.000 C 
BRANCH  17  18
ATOM     18  C   UNL     1      10.475   1.094  33.448  1.00  0.00     0.000 C 
BRANCH  18  19
ATOM     19  C   UNL     1      11.396   0.039  34.092  1.00  0.00     0.000 C 
BRANCH  19  20
ATOM     20  C   UNL     1      12.700   0.585  34.704  1.00  0.00     0.006 C 
BRANCH  20  21
ATOM     21  C   UNL     1      12.484   1.707  35.736  1.00  0.00     0.053 C 
BRANCH  21  22
ATOM     22  C   UNL     1      13.080   3.011  35.299  1.00  0.00     0.041 C 
ATOM     23  O   UNL     1      13.488   3.157  34.117  1.00  0.00    -0.550 OA
ATOM     24  O   UNL     1      13.150   4.078  36.186  1.00  0.00    -0.550 OA
ENDBRANCH  21  22
ENDBRANCH  20  21
ENDBRANCH  19  20
ENDBRANCH  18  19
ENDBRANCH  17  18
ENDBRANCH  16  17
ENDBRANCH  15  16
ENDBRANCH  14  15
ENDBRANCH  13  14
ENDBRANCH   1  13
TORSDOF 20
ENDMDL
MODEL 9
REMARK VINA RESULT:    -5.487      1.559      3.071
REMARK INTER + INTRA:         -13.754
REMARK INTER:                 -11.749
REMARK INTRA:                  -2.005
REMARK UNBOUND:                -1.852
REMARK SMILES CCCCCCCCCCCCCCCCCCCCCC(=O)[O-]
REMARK SMILES IDX 12 1 11 2 10 3 9 4 8 5 7 6 6 7 5 8 4 9 3 10 2 11 1 12 13 13
REMARK SMILES IDX 14 14 15 15 16 16 17 17 18 18 19 19 20 20 21 21 22 22 23 23
REMARK SMILES IDX 24 24
REMARK H PARENT
REMARK Flexibility Score: inf
ROOT
ATOM      1  C   UNL     1       3.166  -0.037  38.930  1.00  0.00     0.000 C 
ENDROOT
BRANCH   1   2
ATOM      2  C   UNL     1       3.174   0.010  37.394  1.00  0.00     0.000 C 
BRANCH   2   3
ATOM      3  C   UNL     1       4.413   0.725  36.827  1.00  0.00     0.000 C 
BRANCH   3   4
ATOM      4  C   UNL     1       5.492  -0.262  36.353  1.00  0.00    -0.000 C 
BRANCH   4   5
ATOM      5  C   UNL     1       6.829   0.434  36.057  1.00  0.00    -0.000 C 
BRANCH   5   6
ATOM      6  C   UNL     1       7.782  -0.498  35.292  1.00  0.00    -0.000 C 
BRANCH   6   7
ATOM      7  C   UNL     1       8.335   0.159  34.009  1.00  0.00    -0.000 C 
BRANCH   7   8
ATOM      8  C   UNL     1       9.311   1.322  34.276  1.00  0.00    -0.000 C 
BRANCH   8   9
ATOM      9  C   UNL     1      10.597   0.933  35.024  1.00  0.00    -0.000 C 
BRANCH   9  10
ATOM     10  C   UNL     1      11.641   0.269  34.113  1.00  0.00    -0.000 C 
BRANCH  10  11
ATOM     11  C   UNL     1      13.042   0.823  34.394  1.00  0.00    -0.003 C 
ATOM     12  C   UNL     1      13.109   1.482  35.769  1.00  0.00     0.004 C 
ENDBRANCH  10  11
ENDBRANCH   9  10
ENDBRANCH   8   9
ENDBRANCH   7   8
ENDBRANCH   6   7
ENDBRANCH   5   6
ENDBRANCH   4   5
ENDBRANCH   3   4
ENDBRANCH   2   3
ENDBRANCH   1   2
BRANCH   1  13
ATOM     13  C   UNL     1       2.624  -1.362  39.484  1.00  0.00     0.000 C 
BRANCH  13  14
ATOM     14  C   UNL     1       2.129  -2.269  38.347  1.00  0.00     0.000 C 
BRANCH  14  15
ATOM     15  C   UNL     1       2.827  -3.637  38.329  1.00  0.00     0.000 C 
BRANCH  15  16
ATOM     16  C   UNL     1       4.311  -3.542  37.942  1.00  0.00     0.000 C 
BRANCH  16  17
ATOM     17  C   UNL     1       4.491  -3.685  36.423  1.00  0.00     0.000 C 
BRANCH  17  18
ATOM     18  C   UNL     1       5.965  -3.613  35.983  1.00  0.00     0.000 C 
BRANCH  18  19
ATOM     19  C   UNL     1       6.335  -4.504  34.781  1.00  0.00     0.000 C 
BRANCH  19  20
ATOM     20  C   UNL     1       5.737  -5.923  34.801  1.00  0.00     0.006 C 
BRANCH  20  21
ATOM     21  C   UNL     1       6.501  -6.911  35.701  1.00  0.00     0.053 C 
BRANCH  21  22
ATOM     22  C   UNL     1       5.594  -7.669  36.622  1.00  0.00     0.041 C 
ATOM     23  O   UNL     1       4.855  -7.051  37.433  1.00  0.00    -0.550 OA
ATOM     24  O   UNL     1       5.537  -9.055  36.560  1.00  0.00    -0.550 OA
ENDBRANCH  21  22
ENDBRANCH  20  21
ENDBRANCH  19  20
ENDBRANCH  18  19
ENDBRANCH  17  18
ENDBRANCH  16  17
ENDBRANCH  15  16
ENDBRANCH  14  15
ENDBRANCH  13  14
ENDBRANCH   1  13
TORSDOF 20
ENDMDL
