MODEL 1
REMARK VINA RESULT:    -4.230      0.000      0.000
REMARK INTER + INTRA:          -4.570
REMARK INTER:                  -4.477
REMARK INTRA:                  -0.092
REMARK UNBOUND:                -0.092
REMARK SMILES C=C(C)[C@@H]1CC=C(C)C(=O)C1
REMARK SMILES IDX 8 1 7 2 6 3 5 4 4 5 11 6 9 7 10 8 2 9 1 10 3 11
REMARK H PARENT
REMARK Flexibility Score: inf
ROOT
ATOM      1  C   UNL     1     126.412 119.499 101.116  1.00  0.00     0.048 C 
ATOM      2  C   UNL     1     127.277 120.558 100.489  1.00  0.00    -0.012 C 
ATOM      3  C   UNL     1     126.862 121.835 100.453  1.00  0.00    -0.019 C 
ATOM      4  C   UNL     1     127.728 122.942  99.909  1.00  0.00     0.036 C 
ATOM      5  C   UNL     1     128.664 122.422  98.801  1.00  0.00     0.025 C 
ATOM      6  C   UNL     1     129.494 121.231  99.318  1.00  0.00     0.089 C 
ATOM      7  C   UNL     1     128.601 120.187  99.931  1.00  0.00     0.158 C 
ATOM      8  O   UNL     1     129.011 118.998 100.008  1.00  0.00    -0.295 OA
ENDROOT
BRANCH   5   9
ATOM      9  C   UNL     1     129.554 123.529  98.250  1.00  0.00    -0.077 C 
ATOM     10  C   UNL     1     129.035 124.582  97.597  1.00  0.00     0.008 C 
ATOM     11  C   UNL     1     131.048 123.458  98.432  1.00  0.00     0.039 C 
ENDBRANCH   5   9
TORSDOF 1
ENDMDL
MODEL 2
REMARK VINA RESULT:    -4.207     10.073     10.981
REMARK INTER + INTRA:          -4.546
REMARK INTER:                  -4.450
REMARK INTRA:                  -0.096
REMARK UNBOUND:                -0.092
REMARK SMILES C=C(C)[C@@H]1CC=C(C)C(=O)C1
REMARK SMILES IDX 8 1 7 2 6 3 5 4 4 5 11 6 9 7 10 8 2 9 1 10 3 11
REMARK H PARENT
REMARK Flexibility Score: inf
ROOT
ATOM      1  C   UNL     1     133.534 125.436 109.194  1.00  0.00     0.048 C 
ATOM      2  C   UNL     1     132.068 125.619 108.911  1.00  0.00    -0.012 C 
ATOM      3  C   UNL     1     131.645 125.843 107.656  1.00  0.00    -0.019 C 
ATOM      4  C   UNL     1     130.183 125.951 107.312  1.00  0.00     0.036 C 
ATOM      5  C   UNL     1     129.375 126.525 108.493  1.00  0.00     0.025 C 
ATOM      6  C   UNL     1     129.616 125.686 109.762  1.00  0.00     0.089 C 
ATOM      7  C   UNL     1     131.089 125.528 110.023  1.00  0.00     0.158 C 
ATOM      8  O   UNL     1     131.481 125.270 111.192  1.00  0.00    -0.295 OA
ENDROOT
BRANCH   5   9
ATOM      9  C   UNL     1     127.892 126.629 108.162  1.00  0.00    -0.077 C 
ATOM     10  C   UNL     1     126.994 125.787 108.700  1.00  0.00     0.008 C 
ATOM     11  C   UNL     1     127.403 127.691 107.211  1.00  0.00     0.039 C 
ENDBRANCH   5   9
TORSDOF 1
ENDMDL
MODEL 3
REMARK VINA RESULT:    -4.199     11.342     13.221
REMARK INTER + INTRA:          -4.537
REMARK INTER:                  -4.440
REMARK INTRA:                  -0.097
REMARK UNBOUND:                -0.092
REMARK SMILES C=C(C)[C@@H]1CC=C(C)C(=O)C1
REMARK SMILES IDX 8 1 7 2 6 3 5 4 4 5 11 6 9 7 10 8 2 9 1 10 3 11
REMARK H PARENT
REMARK Flexibility Score: inf
ROOT
ATOM      1  C   UNL     1     122.810 126.031 106.026  1.00  0.00     0.048 C 
ATOM      2  C   UNL     1     121.405 126.184 106.540  1.00  0.00    -0.012 C 
ATOM      3  C   UNL     1     121.137 127.065 107.519  1.00  0.00    -0.019 C 
ATOM      4  C   UNL     1     119.734 127.311 108.010  1.00  0.00     0.036 C 
ATOM      5  C   UNL     1     118.868 126.043 107.878  1.00  0.00     0.025 C 
ATOM      6  C   UNL     1     118.897 125.525 106.427  1.00  0.00     0.089 C 
ATOM      7  C   UNL     1     120.313 125.375 105.945  1.00  0.00     0.158 C 
ATOM      8  O   UNL     1     120.557 124.585 104.994  1.00  0.00    -0.295 OA
ENDROOT
BRANCH   5   9
ATOM      9  C   UNL     1     117.443 126.283 108.361  1.00  0.00    -0.077 C 
ATOM     10  C   UNL     1     116.383 125.903 107.628  1.00  0.00     0.008 C 
ATOM     11  C   UNL     1     117.199 126.960 109.685  1.00  0.00     0.039 C 
ENDBRANCH   5   9
TORSDOF 1
ENDMDL
MODEL 4
REMARK VINA RESULT:    -4.191      9.690     10.501
REMARK INTER + INTRA:          -4.528
REMARK INTER:                  -4.435
REMARK INTRA:                  -0.093
REMARK UNBOUND:                -0.092
REMARK SMILES C=C(C)[C@@H]1CC=C(C)C(=O)C1
REMARK SMILES IDX 8 1 7 2 6 3 5 4 4 5 11 6 9 7 10 8 2 9 1 10 3 11
REMARK H PARENT
REMARK Flexibility Score: inf
ROOT
ATOM      1  C   UNL     1     131.462 125.215 110.803  1.00  0.00     0.048 C 
ATOM      2  C   UNL     1     130.419 125.758 109.865  1.00  0.00    -0.012 C 
ATOM      3  C   UNL     1     129.201 126.088 110.327  1.00  0.00    -0.019 C 
ATOM      4  C   UNL     1     128.153 126.711 109.443  1.00  0.00     0.036 C 
ATOM      5  C   UNL     1     128.304 126.239 107.983  1.00  0.00     0.025 C 
ATOM      6  C   UNL     1     129.733 126.514 107.478  1.00  0.00     0.089 C 
ATOM      7  C   UNL     1     130.751 125.952 108.432  1.00  0.00     0.158 C 
ATOM      8  O   UNL     1     131.908 125.688 108.009  1.00  0.00    -0.295 OA
ENDROOT
BRANCH   5   9
ATOM      9  C   UNL     1     127.256 126.872 107.076  1.00  0.00    -0.077 C 
ATOM     10  C   UNL     1     127.076 128.202 107.037  1.00  0.00     0.008 C 
ATOM     11  C   UNL     1     126.393 126.002 106.200  1.00  0.00     0.039 C 
ENDBRANCH   5   9
TORSDOF 1
ENDMDL
MODEL 5
REMARK VINA RESULT:    -4.161      2.394      5.136
REMARK INTER + INTRA:          -4.497
REMARK INTER:                  -4.402
REMARK INTRA:                  -0.095
REMARK UNBOUND:                -0.092
REMARK SMILES C=C(C)[C@@H]1CC=C(C)C(=O)C1
REMARK SMILES IDX 8 1 7 2 6 3 5 4 4 5 11 6 9 7 10 8 2 9 1 10 3 11
REMARK H PARENT
REMARK Flexibility Score: inf
ROOT
ATOM      1  C   UNL     1     132.285 126.424  97.749  1.00  0.00     0.048 C 
ATOM      2  C   UNL     1     131.374 125.254  98.004  1.00  0.00    -0.012 C 
ATOM      3  C   UNL     1     130.067 125.340  97.708  1.00  0.00    -0.019 C 
ATOM      4  C   UNL     1     129.132 124.169  97.870  1.00  0.00     0.036 C 
ATOM      5  C   UNL     1     129.586 123.249  99.020  1.00  0.00     0.025 C 
ATOM      6  C   UNL     1     131.046 122.806  98.805  1.00  0.00     0.089 C 
ATOM      7  C   UNL     1     131.932 123.997  98.561  1.00  0.00     0.158 C 
ATOM      8  O   UNL     1     133.167 123.901  98.793  1.00  0.00    -0.295 OA
ENDROOT
BRANCH   5   9
ATOM      9  C   UNL     1     128.656 122.055  99.186  1.00  0.00    -0.077 C 
ATOM     10  C   UNL     1     128.987 120.840  98.719  1.00  0.00     0.008 C 
ATOM     11  C   UNL     1     127.332 122.222  99.886  1.00  0.00     0.039 C 
ENDBRANCH   5   9
TORSDOF 1
ENDMDL
MODEL 6
REMARK VINA RESULT:    -4.142      9.939     10.701
REMARK INTER + INTRA:          -4.476
REMARK INTER:                  -4.380
REMARK INTRA:                  -0.096
REMARK UNBOUND:                -0.092
REMARK SMILES C=C(C)[C@@H]1CC=C(C)C(=O)C1
REMARK SMILES IDX 8 1 7 2 6 3 5 4 4 5 11 6 9 7 10 8 2 9 1 10 3 11
REMARK H PARENT
REMARK Flexibility Score: inf
ROOT
ATOM      1  C   UNL     1     127.191 127.543 107.111  1.00  0.00     0.048 C 
ATOM      2  C   UNL     1     128.368 126.876 107.767  1.00  0.00    -0.012 C 
ATOM      3  C   UNL     1     128.293 126.482 109.049  1.00  0.00    -0.019 C 
ATOM      4  C   UNL     1     129.416 125.738 109.724  1.00  0.00     0.036 C 
ATOM      5  C   UNL     1     130.783 126.143 109.139  1.00  0.00     0.025 C 
ATOM      6  C   UNL     1     130.789 125.949 107.611  1.00  0.00     0.089 C 
ATOM      7  C   UNL     1     129.605 126.633 106.984  1.00  0.00     0.158 C 
ATOM      8  O   UNL     1     129.658 126.959 105.767  1.00  0.00    -0.295 OA
ENDROOT
BRANCH   5   9
ATOM      9  C   UNL     1     131.926 125.389 109.806  1.00  0.00    -0.077 C 
ATOM     10  C   UNL     1     131.762 124.773 110.988  1.00  0.00     0.008 C 
ATOM     11  C   UNL     1     133.276 125.324 109.140  1.00  0.00     0.039 C 
ENDBRANCH   5   9
TORSDOF 1
ENDMDL
MODEL 7
REMARK VINA RESULT:    -4.114      2.156      3.593
REMARK INTER + INTRA:          -4.447
REMARK INTER:                  -4.354
REMARK INTRA:                  -0.093
REMARK UNBOUND:                -0.092
REMARK SMILES C=C(C)[C@@H]1CC=C(C)C(=O)C1
REMARK SMILES IDX 8 1 7 2 6 3 5 4 4 5 11 6 9 7 10 8 2 9 1 10 3 11
REMARK H PARENT
REMARK Flexibility Score: inf
ROOT
ATOM      1  C   UNL     1     128.131 122.028  99.247  1.00  0.00     0.048 C 
ATOM      2  C   UNL     1     129.228 122.955  98.800  1.00  0.00    -0.012 C 
ATOM      3  C   UNL     1     128.926 124.148  98.260  1.00  0.00    -0.019 C 
ATOM      4  C   UNL     1     129.988 125.143  97.872  1.00  0.00     0.036 C 
ATOM      5  C   UNL     1     131.288 124.431  97.448  1.00  0.00     0.025 C 
ATOM      6  C   UNL     1     131.761 123.475  98.560  1.00  0.00     0.089 C 
ATOM      7  C   UNL     1     130.646 122.556  98.980  1.00  0.00     0.158 C 
ATOM      8  O   UNL     1     130.929 121.459  99.531  1.00  0.00    -0.295 OA
ENDROOT
BRANCH   5   9
ATOM      9  C   UNL     1     132.375 125.427  97.065  1.00  0.00    -0.077 C 
ATOM     10  C   UNL     1     132.614 126.521  97.806  1.00  0.00     0.008 C 
ATOM     11  C   UNL     1     133.209 125.196  95.831  1.00  0.00     0.039 C 
ENDBRANCH   5   9
TORSDOF 1
ENDMDL
MODEL 8
REMARK VINA RESULT:    -4.061      2.694      4.695
REMARK INTER + INTRA:          -4.390
REMARK INTER:                  -4.294
REMARK INTRA:                  -0.097
REMARK UNBOUND:                -0.092
REMARK SMILES C=C(C)[C@@H]1CC=C(C)C(=O)C1
REMARK SMILES IDX 8 1 7 2 6 3 5 4 4 5 11 6 9 7 10 8 2 9 1 10 3 11
REMARK H PARENT
REMARK Flexibility Score: inf
ROOT
ATOM      1  C   UNL     1     129.443 124.893  98.438  1.00  0.00     0.048 C 
ATOM      2  C   UNL     1     129.850 123.446  98.495  1.00  0.00    -0.012 C 
ATOM      3  C   UNL     1     128.915 122.482  98.523  1.00  0.00    -0.019 C 
ATOM      4  C   UNL     1     129.273 121.019  98.498  1.00  0.00     0.036 C 
ATOM      5  C   UNL     1     130.635 120.768  99.175  1.00  0.00     0.025 C 
ATOM      6  C   UNL     1     131.723 121.648  98.529  1.00  0.00     0.089 C 
ATOM      7  C   UNL     1     131.290 123.088  98.494  1.00  0.00     0.158 C 
ATOM      8  O   UNL     1     132.167 123.990  98.418  1.00  0.00    -0.295 OA
ENDROOT
BRANCH   5   9
ATOM      9  C   UNL     1     131.015 119.294  99.145  1.00  0.00    -0.077 C 
ATOM     10  C   UNL     1     132.195 118.885  98.649  1.00  0.00     0.008 C 
ATOM     11  C   UNL     1     130.059 118.258  99.678  1.00  0.00     0.039 C 
ENDBRANCH   5   9
TORSDOF 1
ENDMDL
MODEL 9
REMARK VINA RESULT:    -4.050      2.500      3.797
REMARK INTER + INTRA:          -4.379
REMARK INTER:                  -4.283
REMARK INTRA:                  -0.096
REMARK UNBOUND:                -0.092
REMARK SMILES C=C(C)[C@@H]1CC=C(C)C(=O)C1
REMARK SMILES IDX 8 1 7 2 6 3 5 4 4 5 11 6 9 7 10 8 2 9 1 10 3 11
REMARK H PARENT
REMARK Flexibility Score: inf
ROOT
ATOM      1  C   UNL     1     132.555 118.081  98.878  1.00  0.00     0.048 C 
ATOM      2  C   UNL     1     131.593 119.230  99.003  1.00  0.00    -0.012 C 
ATOM      3  C   UNL     1     130.270 119.000  99.065  1.00  0.00    -0.019 C 
ATOM      4  C   UNL     1     129.274 120.111  99.271  1.00  0.00     0.036 C 
ATOM      5  C   UNL     1     129.782 121.434  98.663  1.00  0.00     0.025 C 
ATOM      6  C   UNL     1     131.172 121.783  99.228  1.00  0.00     0.089 C 
ATOM      7  C   UNL     1     132.113 120.618  99.082  1.00  0.00     0.158 C 
ATOM      8  O   UNL     1     133.355 120.830  99.073  1.00  0.00    -0.295 OA
ENDROOT
BRANCH   5   9
ATOM      9  C   UNL     1     128.788 122.568  98.875  1.00  0.00    -0.077 C 
ATOM     10  C   UNL     1     127.719 122.421  99.675  1.00  0.00     0.008 C 
ATOM     11  C   UNL     1     128.992 123.890  98.180  1.00  0.00     0.039 C 
ENDBRANCH   5   9
TORSDOF 1
ENDMDL
