MODEL 1
REMARK VINA RESULT:    -6.295      0.000      0.000
REMARK INTER + INTRA:          -7.395
REMARK INTER:                  -7.398
REMARK INTRA:                   0.004
REMARK UNBOUND:                 0.004
REMARK SMILES O=c1c(O)c(-c2ccc(O)c(O)c2)oc2cc(O)ccc12
REMARK SMILES IDX 5 1 3 2 2 3 1 4 21 5 15 6 14 7 16 8 17 9 19 10 20 11 6 12
REMARK SMILES IDX 7 13 8 14 9 15 13 16 11 17 10 18 12 20 4 22 18 24
REMARK H PARENT 10 19 12 21 4 23 18 25
REMARK Flexibility Score: inf
ROOT
ATOM      1  C   UNL     1      27.482  -2.241  35.500  1.00  0.00     0.180 A 
ATOM      2  C   UNL     1      27.359  -1.877  36.857  1.00  0.00     0.208 A 
ATOM      3  C   UNL     1      26.410  -0.905  37.213  1.00  0.00     0.235 A 
ATOM      4  O   UNL     1      26.289  -0.555  38.419  1.00  0.00    -0.285 OA
ATOM      5  C   UNL     1      25.597  -0.338  36.219  1.00  0.00     0.069 A 
ATOM      6  C   UNL     1      25.765  -0.774  34.886  1.00  0.00     0.142 A 
ATOM      7  O   UNL     1      26.682  -1.690  34.590  1.00  0.00    -0.452 OA
ATOM      8  C   UNL     1      24.968  -0.240  33.869  1.00  0.00     0.094 A 
ATOM      9  C   UNL     1      24.002   0.729  34.164  1.00  0.00     0.119 A 
ATOM     10  C   UNL     1      23.833   1.165  35.485  1.00  0.00     0.047 A 
ATOM     11  C   UNL     1      24.625   0.636  36.510  1.00  0.00     0.020 A 
ENDROOT
BRANCH   1  12
ATOM     12  C   UNL     1      28.470  -3.244  35.042  1.00  0.00     0.025 A 
ATOM     13  C   UNL     1      28.081  -4.366  34.289  1.00  0.00     0.016 A 
ATOM     14  C   UNL     1      29.028  -5.312  33.889  1.00  0.00     0.051 A 
ATOM     15  C   UNL     1      30.374  -5.159  34.245  1.00  0.00     0.157 A 
ATOM     16  C   UNL     1      29.818  -3.107  35.415  1.00  0.00     0.062 A 
ATOM     17  C   UNL     1      30.769  -4.053  35.016  1.00  0.00     0.158 A 
BRANCH  15  18
ATOM     18  O   UNL     1      31.317  -6.104  33.843  1.00  0.00    -0.504 OA
ATOM     19  H   UNL     1      32.072  -5.866  33.211  1.00  0.00     0.293 HD
ENDBRANCH  15  18
BRANCH  17  20
ATOM     20  O   UNL     1      32.100  -3.876  35.393  1.00  0.00    -0.504 OA
ATOM     21  H   UNL     1      32.453  -4.195  36.287  1.00  0.00     0.293 HD
ENDBRANCH  17  20
ENDBRANCH   1  12
BRANCH   2  22
ATOM     22  O   UNL     1      28.147  -2.495  37.830  1.00  0.00    -0.502 OA
ATOM     23  H   UNL     1      27.809  -3.268  38.392  1.00  0.00     0.293 HD
ENDBRANCH   2  22
BRANCH   9  24
ATOM     24  O   UNL     1      23.218   1.250  33.138  1.00  0.00    -0.508 OA
ATOM     25  H   UNL     1      23.186   2.246  32.951  1.00  0.00     0.293 HD
ENDBRANCH   9  24
TORSDOF 5
ENDMDL
MODEL 2
REMARK VINA RESULT:    -6.162      2.014      3.176
REMARK INTER + INTRA:          -7.240
REMARK INTER:                  -6.983
REMARK INTRA:                  -0.257
REMARK UNBOUND:                 0.004
REMARK SMILES O=c1c(O)c(-c2ccc(O)c(O)c2)oc2cc(O)ccc12
REMARK SMILES IDX 5 1 3 2 2 3 1 4 21 5 15 6 14 7 16 8 17 9 19 10 20 11 6 12
REMARK SMILES IDX 7 13 8 14 9 15 13 16 11 17 10 18 12 20 4 22 18 24
REMARK H PARENT 10 19 12 21 4 23 18 25
REMARK Flexibility Score: inf
ROOT
ATOM      1  C   UNL     1      25.370  -1.184  34.902  1.00  0.00     0.180 A 
ATOM      2  C   UNL     1      24.245  -1.269  35.748  1.00  0.00     0.208 A 
ATOM      3  C   UNL     1      23.136  -0.450  35.483  1.00  0.00     0.235 A 
ATOM      4  O   UNL     1      22.122  -0.500  36.232  1.00  0.00    -0.285 OA
ATOM      5  C   UNL     1      23.165   0.414  34.377  1.00  0.00     0.069 A 
ATOM      6  C   UNL     1      24.320   0.422  33.564  1.00  0.00     0.142 A 
ATOM      7  O   UNL     1      25.352  -0.362  33.855  1.00  0.00    -0.452 OA
ATOM      8  C   UNL     1      24.383   1.262  32.447  1.00  0.00     0.094 A 
ATOM      9  C   UNL     1      23.307   2.098  32.130  1.00  0.00     0.119 A 
ATOM     10  C   UNL     1      22.160   2.093  32.935  1.00  0.00     0.047 A 
ATOM     11  C   UNL     1      22.086   1.256  34.054  1.00  0.00     0.020 A 
ENDROOT
BRANCH   1  12
ATOM     12  C   UNL     1      26.585  -2.001  35.126  1.00  0.00     0.025 A 
ATOM     13  C   UNL     1      27.471  -1.722  36.181  1.00  0.00     0.016 A 
ATOM     14  C   UNL     1      28.624  -2.491  36.358  1.00  0.00     0.051 A 
ATOM     15  C   UNL     1      28.915  -3.541  35.478  1.00  0.00     0.157 A 
ATOM     16  C   UNL     1      26.893  -3.040  34.233  1.00  0.00     0.062 A 
ATOM     17  C   UNL     1      28.047  -3.813  34.408  1.00  0.00     0.158 A 
BRANCH  15  18
ATOM     18  O   UNL     1      30.066  -4.307  35.658  1.00  0.00    -0.504 OA
ATOM     19  H   UNL     1      30.053  -5.316  35.560  1.00  0.00     0.293 HD
ENDBRANCH  15  18
BRANCH  17  20
ATOM     20  O   UNL     1      28.312  -4.846  33.510  1.00  0.00    -0.504 OA
ATOM     21  H   UNL     1      27.577  -5.317  32.998  1.00  0.00     0.293 HD
ENDBRANCH  17  20
ENDBRANCH   1  12
BRANCH   2  22
ATOM     22  O   UNL     1      24.226  -2.174  36.812  1.00  0.00    -0.502 OA
ATOM     23  H   UNL     1      24.275  -1.875  37.779  1.00  0.00     0.293 HD
ENDBRANCH   2  22
BRANCH   9  24
ATOM     24  O   UNL     1      23.388   2.928  31.015  1.00  0.00    -0.508 OA
ATOM     25  H   UNL     1      22.595   3.479  30.707  1.00  0.00     0.293 HD
ENDBRANCH   9  24
TORSDOF 5
ENDMDL
MODEL 3
REMARK VINA RESULT:    -6.056      1.927      7.118
REMARK INTER + INTRA:          -7.115
REMARK INTER:                  -7.027
REMARK INTRA:                  -0.088
REMARK UNBOUND:                 0.004
REMARK SMILES O=c1c(O)c(-c2ccc(O)c(O)c2)oc2cc(O)ccc12
REMARK SMILES IDX 5 1 3 2 2 3 1 4 21 5 15 6 14 7 16 8 17 9 19 10 20 11 6 12
REMARK SMILES IDX 7 13 8 14 9 15 13 16 11 17 10 18 12 20 4 22 18 24
REMARK H PARENT 10 19 12 21 4 23 18 25
REMARK Flexibility Score: inf
ROOT
ATOM      1  C   UNL     1      29.037  -3.267  34.986  1.00  0.00     0.180 A 
ATOM      2  C   UNL     1      28.976  -4.586  34.490  1.00  0.00     0.208 A 
ATOM      3  C   UNL     1      30.156  -5.189  34.025  1.00  0.00     0.235 A 
ATOM      4  O   UNL     1      30.124  -6.364  33.567  1.00  0.00    -0.285 OA
ATOM      5  C   UNL     1      31.364  -4.478  34.086  1.00  0.00     0.069 A 
ATOM      6  C   UNL     1      31.346  -3.171  34.619  1.00  0.00     0.142 A 
ATOM      7  O   UNL     1      30.206  -2.632  35.039  1.00  0.00    -0.452 OA
ATOM      8  C   UNL     1      32.531  -2.433  34.705  1.00  0.00     0.094 A 
ATOM      9  C   UNL     1      33.739  -2.984  34.262  1.00  0.00     0.119 A 
ATOM     10  C   UNL     1      33.761  -4.281  33.731  1.00  0.00     0.047 A 
ATOM     11  C   UNL     1      32.581  -5.027  33.642  1.00  0.00     0.020 A 
ENDROOT
BRANCH   1  12
ATOM     12  C   UNL     1      27.835  -2.555  35.476  1.00  0.00     0.025 A 
ATOM     13  C   UNL     1      26.698  -2.392  34.664  1.00  0.00     0.016 A 
ATOM     14  C   UNL     1      25.584  -1.696  35.139  1.00  0.00     0.051 A 
ATOM     15  C   UNL     1      25.593  -1.141  36.426  1.00  0.00     0.157 A 
ATOM     16  C   UNL     1      27.847  -1.978  36.756  1.00  0.00     0.062 A 
ATOM     17  C   UNL     1      26.732  -1.280  37.236  1.00  0.00     0.158 A 
BRANCH  15  18
ATOM     18  O   UNL     1      24.479  -0.448  36.897  1.00  0.00    -0.504 OA
ATOM     19  H   UNL     1      23.572  -0.536  36.454  1.00  0.00     0.293 HD
ENDBRANCH  15  18
BRANCH  17  20
ATOM     20  O   UNL     1      26.776  -0.733  38.517  1.00  0.00    -0.504 OA
ATOM     21  H   UNL     1      26.591   0.247  38.691  1.00  0.00     0.293 HD
ENDBRANCH  17  20
ENDBRANCH   1  12
BRANCH   2  22
ATOM     22  O   UNL     1      27.768  -5.287  34.489  1.00  0.00    -0.502 OA
ATOM     23  H   UNL     1      26.873  -4.825  34.375  1.00  0.00     0.293 HD
ENDBRANCH   2  22
BRANCH   9  24
ATOM     24  O   UNL     1      34.910  -2.235  34.354  1.00  0.00    -0.508 OA
ATOM     25  H   UNL     1      35.257  -1.903  35.247  1.00  0.00     0.293 HD
ENDBRANCH   9  24
TORSDOF 5
ENDMDL
MODEL 4
REMARK VINA RESULT:    -5.746      4.084      6.772
REMARK INTER + INTRA:          -6.750
REMARK INTER:                  -6.457
REMARK INTRA:                  -0.293
REMARK UNBOUND:                 0.004
REMARK SMILES O=c1c(O)c(-c2ccc(O)c(O)c2)oc2cc(O)ccc12
REMARK SMILES IDX 5 1 3 2 2 3 1 4 21 5 15 6 14 7 16 8 17 9 19 10 20 11 6 12
REMARK SMILES IDX 7 13 8 14 9 15 13 16 11 17 10 18 12 20 4 22 18 24
REMARK H PARENT 10 19 12 21 4 23 18 25
REMARK Flexibility Score: inf
ROOT
ATOM      1  C   UNL     1      22.479   1.246  34.789  1.00  0.00     0.180 A 
ATOM      2  C   UNL     1      21.504   1.735  33.894  1.00  0.00     0.208 A 
ATOM      3  C   UNL     1      20.577   2.683  34.357  1.00  0.00     0.235 A 
ATOM      4  O   UNL     1      19.688   3.127  33.579  1.00  0.00    -0.285 OA
ATOM      5  C   UNL     1      20.655   3.135  35.683  1.00  0.00     0.069 A 
ATOM      6  C   UNL     1      21.677   2.615  36.509  1.00  0.00     0.142 A 
ATOM      7  O   UNL     1      22.528   1.712  36.035  1.00  0.00    -0.452 OA
ATOM      8  C   UNL     1      21.794   3.047  37.833  1.00  0.00     0.094 A 
ATOM      9  C   UNL     1      20.902   3.994  38.349  1.00  0.00     0.119 A 
ATOM     10  C   UNL     1      19.887   4.512  37.533  1.00  0.00     0.047 A 
ATOM     11  C   UNL     1      19.761   4.086  36.206  1.00  0.00     0.020 A 
ENDROOT
BRANCH   1  12
ATOM     12  C   UNL     1      23.479   0.232  34.383  1.00  0.00     0.025 A 
ATOM     13  C   UNL     1      24.637   0.590  33.670  1.00  0.00     0.016 A 
ATOM     14  C   UNL     1      25.554  -0.387  33.276  1.00  0.00     0.051 A 
ATOM     15  C   UNL     1      25.324  -1.736  33.577  1.00  0.00     0.157 A 
ATOM     16  C   UNL     1      23.242  -1.123  34.663  1.00  0.00     0.062 A 
ATOM     17  C   UNL     1      24.160  -2.105  34.271  1.00  0.00     0.158 A 
BRANCH  15  18
ATOM     18  O   UNL     1      26.243  -2.708  33.184  1.00  0.00    -0.504 OA
ATOM     19  H   UNL     1      25.956  -3.659  32.986  1.00  0.00     0.293 HD
ENDBRANCH  15  18
BRANCH  17  20
ATOM     20  O   UNL     1      23.897  -3.439  34.579  1.00  0.00    -0.504 OA
ATOM     21  H   UNL     1      23.015  -3.880  34.353  1.00  0.00     0.293 HD
ENDBRANCH  17  20
ENDBRANCH   1  12
BRANCH   2  22
ATOM     22  O   UNL     1      21.481   1.304  32.566  1.00  0.00    -0.502 OA
ATOM     23  H   UNL     1      21.848   1.866  31.807  1.00  0.00     0.293 HD
ENDBRANCH   2  22
BRANCH   9  24
ATOM     24  O   UNL     1      21.033   4.413  39.671  1.00  0.00    -0.508 OA
ATOM     25  H   UNL     1      20.585   5.258  40.005  1.00  0.00     0.293 HD
ENDBRANCH   9  24
TORSDOF 5
ENDMDL
MODEL 5
REMARK VINA RESULT:    -5.634      4.994      8.240
REMARK INTER + INTRA:          -6.618
REMARK INTER:                  -6.309
REMARK INTRA:                  -0.310
REMARK UNBOUND:                 0.004
REMARK SMILES O=c1c(O)c(-c2ccc(O)c(O)c2)oc2cc(O)ccc12
REMARK SMILES IDX 5 1 3 2 2 3 1 4 21 5 15 6 14 7 16 8 17 9 19 10 20 11 6 12
REMARK SMILES IDX 7 13 8 14 9 15 13 16 11 17 10 18 12 20 4 22 18 24
REMARK H PARENT 10 19 12 21 4 23 18 25
REMARK Flexibility Score: inf
ROOT
ATOM      1  C   UNL     1      22.921   2.497  38.300  1.00  0.00     0.180 A 
ATOM      2  C   UNL     1      22.207   3.671  37.979  1.00  0.00     0.208 A 
ATOM      3  C   UNL     1      21.823   4.535  39.017  1.00  0.00     0.235 A 
ATOM      4  O   UNL     1      21.175   5.585  38.756  1.00  0.00    -0.285 OA
ATOM      5  C   UNL     1      22.175   4.223  40.339  1.00  0.00     0.069 A 
ATOM      6  C   UNL     1      22.912   3.041  40.576  1.00  0.00     0.142 A 
ATOM      7  O   UNL     1      23.247   2.246  39.566  1.00  0.00    -0.452 OA
ATOM      8  C   UNL     1      23.290   2.701  41.879  1.00  0.00     0.094 A 
ATOM      9  C   UNL     1      22.940   3.525  42.954  1.00  0.00     0.119 A 
ATOM     10  C   UNL     1      22.208   4.698  42.723  1.00  0.00     0.047 A 
ATOM     11  C   UNL     1      21.826   5.048  41.424  1.00  0.00     0.020 A 
ENDROOT
BRANCH   1  12
ATOM     12  C   UNL     1      23.345   1.527  37.265  1.00  0.00     0.025 A 
ATOM     13  C   UNL     1      24.536   1.704  36.539  1.00  0.00     0.016 A 
ATOM     14  C   UNL     1      24.903   0.789  35.550  1.00  0.00     0.051 A 
ATOM     15  C   UNL     1      24.081  -0.309  35.262  1.00  0.00     0.157 A 
ATOM     16  C   UNL     1      22.513   0.438  36.957  1.00  0.00     0.062 A 
ATOM     17  C   UNL     1      22.879  -0.482  35.967  1.00  0.00     0.158 A 
BRANCH  15  18
ATOM     18  O   UNL     1      24.452  -1.221  34.274  1.00  0.00    -0.504 OA
ATOM     19  H   UNL     1      24.089  -2.167  34.263  1.00  0.00     0.293 HD
ENDBRANCH  15  18
BRANCH  17  20
ATOM     20  O   UNL     1      22.035  -1.559  35.698  1.00  0.00    -0.504 OA
ATOM     21  H   UNL     1      21.906  -1.921  34.762  1.00  0.00     0.293 HD
ENDBRANCH  17  20
ENDBRANCH   1  12
BRANCH   2  22
ATOM     22  O   UNL     1      21.914   3.980  36.648  1.00  0.00    -0.502 OA
ATOM     23  H   UNL     1      22.604   4.374  36.019  1.00  0.00     0.293 HD
ENDBRANCH   2  22
BRANCH   9  24
ATOM     24  O   UNL     1      23.324   3.170  44.244  1.00  0.00    -0.508 OA
ATOM     25  H   UNL     1      23.642   2.233  44.463  1.00  0.00     0.293 HD
ENDBRANCH   9  24
TORSDOF 5
ENDMDL
MODEL 6
REMARK VINA RESULT:    -5.631      3.952      7.889
REMARK INTER + INTRA:          -6.615
REMARK INTER:                  -6.337
REMARK INTRA:                  -0.278
REMARK UNBOUND:                 0.004
REMARK SMILES O=c1c(O)c(-c2ccc(O)c(O)c2)oc2cc(O)ccc12
REMARK SMILES IDX 5 1 3 2 2 3 1 4 21 5 15 6 14 7 16 8 17 9 19 10 20 11 6 12
REMARK SMILES IDX 7 13 8 14 9 15 13 16 11 17 10 18 12 20 4 22 18 24
REMARK H PARENT 10 19 12 21 4 23 18 25
REMARK Flexibility Score: inf
ROOT
ATOM      1  C   UNL     1      25.312   1.961  38.262  1.00  0.00     0.180 A 
ATOM      2  C   UNL     1      26.581   1.527  37.824  1.00  0.00     0.208 A 
ATOM      3  C   UNL     1      26.652   0.489  36.882  1.00  0.00     0.235 A 
ATOM      4  O   UNL     1      27.776   0.076  36.483  1.00  0.00    -0.285 OA
ATOM      5  C   UNL     1      25.467  -0.074  36.385  1.00  0.00     0.069 A 
ATOM      6  C   UNL     1      24.235   0.433  36.855  1.00  0.00     0.142 A 
ATOM      7  O   UNL     1      24.211   1.410  37.755  1.00  0.00    -0.452 OA
ATOM      8  C   UNL     1      23.032  -0.096  36.376  1.00  0.00     0.094 A 
ATOM      9  C   UNL     1      23.040  -1.129  35.433  1.00  0.00     0.119 A 
ATOM     10  C   UNL     1      24.260  -1.635  34.965  1.00  0.00     0.047 A 
ATOM     11  C   UNL     1      25.469  -1.113  35.436  1.00  0.00     0.020 A 
ENDROOT
BRANCH   1  12
ATOM     12  C   UNL     1      25.153   3.037  39.267  1.00  0.00     0.025 A 
ATOM     13  C   UNL     1      24.853   4.357  38.886  1.00  0.00     0.016 A 
ATOM     14  C   UNL     1      24.732   5.361  39.850  1.00  0.00     0.051 A 
ATOM     15  C   UNL     1      24.921   5.065  41.206  1.00  0.00     0.157 A 
ATOM     16  C   UNL     1      25.364   2.751  40.626  1.00  0.00     0.062 A 
ATOM     17  C   UNL     1      25.243   3.754  41.594  1.00  0.00     0.158 A 
BRANCH  15  18
ATOM     18  O   UNL     1      24.799   6.069  42.166  1.00  0.00    -0.504 OA
ATOM     19  H   UNL     1      24.408   5.883  43.082  1.00  0.00     0.293 HD
ENDBRANCH  15  18
BRANCH  17  20
ATOM     20  O   UNL     1      25.446   3.429  42.935  1.00  0.00    -0.504 OA
ATOM     21  H   UNL     1      26.267   3.732  43.444  1.00  0.00     0.293 HD
ENDBRANCH  17  20
ENDBRANCH   1  12
BRANCH   2  22
ATOM     22  O   UNL     1      27.742   2.141  38.300  1.00  0.00    -0.502 OA
ATOM     23  H   UNL     1      27.973   3.103  38.085  1.00  0.00     0.293 HD
ENDBRANCH   2  22
BRANCH   9  24
ATOM     24  O   UNL     1      21.832  -1.643  34.968  1.00  0.00    -0.508 OA
ATOM     25  H   UNL     1      20.945  -1.234  35.236  1.00  0.00     0.293 HD
ENDBRANCH   9  24
TORSDOF 5
ENDMDL
MODEL 7
REMARK VINA RESULT:    -5.596      5.746      9.266
REMARK INTER + INTRA:          -6.574
REMARK INTER:                  -6.264
REMARK INTRA:                  -0.310
REMARK UNBOUND:                 0.004
REMARK SMILES O=c1c(O)c(-c2ccc(O)c(O)c2)oc2cc(O)ccc12
REMARK SMILES IDX 5 1 3 2 2 3 1 4 21 5 15 6 14 7 16 8 17 9 19 10 20 11 6 12
REMARK SMILES IDX 7 13 8 14 9 15 13 16 11 17 10 18 12 20 4 22 18 24
REMARK H PARENT 10 19 12 21 4 23 18 25
REMARK Flexibility Score: inf
ROOT
ATOM      1  C   UNL     1      33.924  -3.090  31.990  1.00  0.00     0.180 A 
ATOM      2  C   UNL     1      35.119  -3.825  31.837  1.00  0.00     0.208 A 
ATOM      3  C   UNL     1      36.054  -3.402  30.879  1.00  0.00     0.235 A 
ATOM      4  O   UNL     1      37.125  -4.049  30.716  1.00  0.00    -0.285 OA
ATOM      5  C   UNL     1      35.790  -2.253  30.116  1.00  0.00     0.069 A 
ATOM      6  C   UNL     1      34.582  -1.559  30.347  1.00  0.00     0.142 A 
ATOM      7  O   UNL     1      33.719  -1.998  31.257  1.00  0.00    -0.452 OA
ATOM      8  C   UNL     1      34.287  -0.405  29.615  1.00  0.00     0.094 A 
ATOM      9  C   UNL     1      35.183   0.068  28.650  1.00  0.00     0.119 A 
ATOM     10  C   UNL     1      36.383  -0.619  28.417  1.00  0.00     0.047 A 
ATOM     11  C   UNL     1      36.688  -1.774  29.145  1.00  0.00     0.020 A 
ENDROOT
BRANCH   1  12
ATOM     12  C   UNL     1      32.880  -3.482  32.964  1.00  0.00     0.025 A 
ATOM     13  C   UNL     1      32.850  -2.943  34.263  1.00  0.00     0.016 A 
ATOM     14  C   UNL     1      31.870  -3.346  35.173  1.00  0.00     0.051 A 
ATOM     15  C   UNL     1      30.915  -4.302  34.806  1.00  0.00     0.157 A 
ATOM     16  C   UNL     1      31.933  -4.456  32.608  1.00  0.00     0.062 A 
ATOM     17  C   UNL     1      30.950  -4.862  33.518  1.00  0.00     0.158 A 
BRANCH  15  18
ATOM     18  O   UNL     1      29.937  -4.701  35.716  1.00  0.00    -0.504 OA
ATOM     19  H   UNL     1      29.901  -5.648  36.074  1.00  0.00     0.293 HD
ENDBRANCH  15  18
BRANCH  17  20
ATOM     20  O   UNL     1      30.017  -5.821  33.124  1.00  0.00    -0.504 OA
ATOM     21  H   UNL     1      29.040  -5.759  33.381  1.00  0.00     0.293 HD
ENDBRANCH  17  20
ENDBRANCH   1  12
BRANCH   2  22
ATOM     22  O   UNL     1      35.376  -4.935  32.644  1.00  0.00    -0.502 OA
ATOM     23  H   UNL     1      34.647  -5.578  32.930  1.00  0.00     0.293 HD
ENDBRANCH   2  22
BRANCH   9  24
ATOM     24  O   UNL     1      34.873   1.218  27.929  1.00  0.00    -0.508 OA
ATOM     25  H   UNL     1      35.598   1.830  27.571  1.00  0.00     0.293 HD
ENDBRANCH   9  24
TORSDOF 5
ENDMDL
MODEL 8
REMARK VINA RESULT:    -5.546      4.833      8.411
REMARK INTER + INTRA:          -6.515
REMARK INTER:                  -6.211
REMARK INTRA:                  -0.304
REMARK UNBOUND:                 0.004
REMARK SMILES O=c1c(O)c(-c2ccc(O)c(O)c2)oc2cc(O)ccc12
REMARK SMILES IDX 5 1 3 2 2 3 1 4 21 5 15 6 14 7 16 8 17 9 19 10 20 11 6 12
REMARK SMILES IDX 7 13 8 14 9 15 13 16 11 17 10 18 12 20 4 22 18 24
REMARK H PARENT 10 19 12 21 4 23 18 25
REMARK Flexibility Score: inf
ROOT
ATOM      1  C   UNL     1      23.800   2.519  38.367  1.00  0.00     0.180 A 
ATOM      2  C   UNL     1      22.734   3.145  37.688  1.00  0.00     0.208 A 
ATOM      3  C   UNL     1      22.177   2.507  36.568  1.00  0.00     0.235 A 
ATOM      4  O   UNL     1      21.230   3.052  35.938  1.00  0.00    -0.285 OA
ATOM      5  C   UNL     1      22.676   1.258  36.167  1.00  0.00     0.069 A 
ATOM      6  C   UNL     1      23.728   0.685  36.915  1.00  0.00     0.142 A 
ATOM      7  O   UNL     1      24.234   1.327  37.963  1.00  0.00    -0.452 OA
ATOM      8  C   UNL     1      24.246  -0.562  36.553  1.00  0.00     0.094 A 
ATOM      9  C   UNL     1      23.728  -1.249  35.450  1.00  0.00     0.119 A 
ATOM     10  C   UNL     1      22.684  -0.684  34.704  1.00  0.00     0.047 A 
ATOM     11  C   UNL     1      22.158   0.563  35.059  1.00  0.00     0.020 A 
ENDROOT
BRANCH   1  12
ATOM     12  C   UNL     1      24.453   3.137  39.544  1.00  0.00     0.025 A 
ATOM     13  C   UNL     1      25.655   3.855  39.421  1.00  0.00     0.016 A 
ATOM     14  C   UNL     1      26.266   4.408  40.549  1.00  0.00     0.051 A 
ATOM     15  C   UNL     1      25.693   4.242  41.817  1.00  0.00     0.157 A 
ATOM     16  C   UNL     1      23.894   2.954  40.819  1.00  0.00     0.062 A 
ATOM     17  C   UNL     1      24.503   3.508  41.951  1.00  0.00     0.158 A 
BRANCH  15  18
ATOM     18  O   UNL     1      26.304   4.797  42.940  1.00  0.00    -0.504 OA
ATOM     19  H   UNL     1      26.292   5.795  43.112  1.00  0.00     0.293 HD
ENDBRANCH  15  18
BRANCH  17  20
ATOM     20  O   UNL     1      23.911   3.319  43.199  1.00  0.00    -0.504 OA
ATOM     21  H   UNL     1      23.742   2.396  43.581  1.00  0.00     0.293 HD
ENDBRANCH  17  20
ENDBRANCH   1  12
BRANCH   2  22
ATOM     22  O   UNL     1      22.225   4.365  38.140  1.00  0.00    -0.502 OA
ATOM     23  H   UNL     1      22.619   5.255  37.858  1.00  0.00     0.293 HD
ENDBRANCH   2  22
BRANCH   9  24
ATOM     24  O   UNL     1      24.257  -2.490  35.103  1.00  0.00    -0.508 OA
ATOM     25  H   UNL     1      24.833  -3.018  35.748  1.00  0.00     0.293 HD
ENDBRANCH   9  24
TORSDOF 5
ENDMDL
MODEL 9
REMARK VINA RESULT:    -3.299      4.785      8.873
REMARK INTER + INTRA:          -3.875
REMARK INTER:                  -3.565
REMARK INTRA:                  -0.309
REMARK UNBOUND:                 0.004
REMARK SMILES O=c1c(O)c(-c2ccc(O)c(O)c2)oc2cc(O)ccc12
REMARK SMILES IDX 5 1 3 2 2 3 1 4 21 5 15 6 14 7 16 8 17 9 19 10 20 11 6 12
REMARK SMILES IDX 7 13 8 14 9 15 13 16 11 17 10 18 12 20 4 22 18 24
REMARK H PARENT 10 19 12 21 4 23 18 25
REMARK Flexibility Score: inf
ROOT
ATOM      1  C   UNL     1      33.115  -3.939  32.778  1.00  0.00     0.180 A 
ATOM      2  C   UNL     1      34.152  -4.780  33.232  1.00  0.00     0.208 A 
ATOM      3  C   UNL     1      35.443  -4.604  32.708  1.00  0.00     0.235 A 
ATOM      4  O   UNL     1      36.385  -5.352  33.090  1.00  0.00    -0.285 OA
ATOM      5  C   UNL     1      35.674  -3.588  31.769  1.00  0.00     0.069 A 
ATOM      6  C   UNL     1      34.588  -2.771  31.385  1.00  0.00     0.142 A 
ATOM      7  O   UNL     1      33.379  -2.977  31.897  1.00  0.00    -0.452 OA
ATOM      8  C   UNL     1      34.779  -1.741  30.458  1.00  0.00     0.094 A 
ATOM      9  C   UNL     1      36.045  -1.515  29.906  1.00  0.00     0.119 A 
ATOM     10  C   UNL     1      37.125  -2.324  30.284  1.00  0.00     0.047 A 
ATOM     11  C   UNL     1      36.944  -3.356  31.211  1.00  0.00     0.020 A 
ENDROOT
BRANCH   1  12
ATOM     12  C   UNL     1      31.723  -4.073  33.268  1.00  0.00     0.025 A 
ATOM     13  C   UNL     1      30.852  -5.043  32.742  1.00  0.00     0.016 A 
ATOM     14  C   UNL     1      29.537  -5.135  33.202  1.00  0.00     0.051 A 
ATOM     15  C   UNL     1      29.067  -4.253  34.183  1.00  0.00     0.157 A 
ATOM     16  C   UNL     1      31.242  -3.176  34.235  1.00  0.00     0.062 A 
ATOM     17  C   UNL     1      29.924  -3.266  34.699  1.00  0.00     0.158 A 
BRANCH  15  18
ATOM     18  O   UNL     1      27.754  -4.349  34.641  1.00  0.00    -0.504 OA
ATOM     19  H   UNL     1      27.520  -4.870  35.478  1.00  0.00     0.293 HD
ENDBRANCH  15  18
BRANCH  17  20
ATOM     20  O   UNL     1      29.485  -2.368  35.671  1.00  0.00    -0.504 OA
ATOM     21  H   UNL     1      28.933  -2.663  36.467  1.00  0.00     0.293 HD
ENDBRANCH  17  20
ENDBRANCH   1  12
BRANCH   2  22
ATOM     22  O   UNL     1      33.902  -5.751  34.205  1.00  0.00    -0.502 OA
ATOM     23  H   UNL     1      33.106  -5.700  34.829  1.00  0.00     0.293 HD
ENDBRANCH   2  22
BRANCH   9  24
ATOM     24  O   UNL     1      36.217  -0.486  28.984  1.00  0.00    -0.508 OA
ATOM     25  H   UNL     1      37.035   0.113  29.005  1.00  0.00     0.293 HD
ENDBRANCH   9  24
TORSDOF 5
ENDMDL
