MODEL 1
REMARK VINA RESULT:    -4.977      0.000      0.000
REMARK INTER + INTRA:          -7.765
REMARK INTER:                  -6.722
REMARK INTRA:                  -1.043
REMARK UNBOUND:                -1.043
REMARK SMILES CC(=O)CCC=C(C)CCC=C(C)C
REMARK SMILES IDX 7 1 6 2 8 3 9 4 10 5 11 6 13 7 12 8 14 9 5 10 4 11 2 12 3 13
REMARK SMILES IDX 1 14
REMARK H PARENT
REMARK Flexibility Score: inf
ROOT
ATOM      1  C   UNL     1      51.598  31.296  31.439  1.00  0.00    -0.077 C 
ATOM      2  C   UNL     1      50.759  32.318  31.728  1.00  0.00    -0.028 C 
ATOM      3  C   UNL     1      51.352  30.511  30.176  1.00  0.00     0.039 C 
ENDROOT
BRANCH   1   4
ATOM      4  C   UNL     1      52.791  30.923  32.300  1.00  0.00     0.034 C 
BRANCH   4   5
ATOM      5  C   UNL     1      54.121  31.290  31.628  1.00  0.00     0.032 C 
BRANCH   5   6
ATOM      6  C   UNL     1      54.624  32.634  32.099  1.00  0.00    -0.028 C 
ATOM      7  C   UNL     1      56.184  34.514  32.351  1.00  0.00     0.039 C 
ATOM      8  C   UNL     1      55.862  33.124  31.866  1.00  0.00    -0.080 C 
ATOM      9  C   UNL     1      56.919  32.327  31.142  1.00  0.00     0.039 C 
ENDBRANCH   5   6
ENDBRANCH   4   5
ENDBRANCH   1   4
BRANCH   2  10
ATOM     10  C   UNL     1      50.810  33.161  32.979  1.00  0.00     0.035 C 
BRANCH  10  11
ATOM     11  C   UNL     1      50.711  34.659  32.656  1.00  0.00     0.079 C 
BRANCH  11  12
ATOM     12  C   UNL     1      52.040  35.220  32.216  1.00  0.00     0.130 C 
ATOM     13  O   UNL     1      52.829  35.626  33.057  1.00  0.00    -0.300 OA
ATOM     14  C   UNL     1      52.414  35.291  30.767  1.00  0.00     0.087 C 
ENDBRANCH  11  12
ENDBRANCH  10  11
ENDBRANCH   2  10
TORSDOF 6
ENDMDL
MODEL 2
REMARK VINA RESULT:    -4.843      1.497      4.069
REMARK INTER + INTRA:          -7.585
REMARK INTER:                  -6.174
REMARK INTRA:                  -1.411
REMARK UNBOUND:                -1.043
REMARK SMILES CC(=O)CCC=C(C)CCC=C(C)C
REMARK SMILES IDX 7 1 6 2 8 3 9 4 10 5 11 6 13 7 12 8 14 9 5 10 4 11 2 12 3 13
REMARK SMILES IDX 1 14
REMARK H PARENT
REMARK Flexibility Score: inf
ROOT
ATOM      1  C   UNL     1      53.547  31.301  32.166  1.00  0.00    -0.077 C 
ATOM      2  C   UNL     1      54.305  32.361  32.532  1.00  0.00    -0.028 C 
ATOM      3  C   UNL     1      53.558  30.080  33.050  1.00  0.00     0.039 C 
ENDROOT
BRANCH   1   4
ATOM      4  C   UNL     1      52.662  31.290  30.933  1.00  0.00     0.034 C 
BRANCH   4   5
ATOM      5  C   UNL     1      51.190  31.029  31.285  1.00  0.00     0.032 C 
BRANCH   5   6
ATOM      6  C   UNL     1      50.312  32.190  30.881  1.00  0.00    -0.028 C 
ATOM      7  C   UNL     1      49.153  34.343  31.100  1.00  0.00     0.039 C 
ATOM      8  C   UNL     1      49.989  33.232  31.679  1.00  0.00    -0.080 C 
ATOM      9  C   UNL     1      50.436  33.311  33.118  1.00  0.00     0.039 C 
ENDBRANCH   5   6
ENDBRANCH   4   5
ENDBRANCH   1   4
BRANCH   2  10
ATOM     10  C   UNL     1      54.471  33.632  31.734  1.00  0.00     0.035 C 
BRANCH  10  11
ATOM     11  C   UNL     1      53.697  34.799  32.363  1.00  0.00     0.079 C 
BRANCH  11  12
ATOM     12  C   UNL     1      52.892  35.549  31.332  1.00  0.00     0.130 C 
ATOM     13  O   UNL     1      52.563  34.986  30.298  1.00  0.00    -0.300 OA
ATOM     14  C   UNL     1      52.487  36.976  31.547  1.00  0.00     0.087 C 
ENDBRANCH  11  12
ENDBRANCH  10  11
ENDBRANCH   2  10
TORSDOF 6
ENDMDL
MODEL 3
REMARK VINA RESULT:    -4.826      2.828      5.139
REMARK INTER + INTRA:          -7.562
REMARK INTER:                  -6.180
REMARK INTRA:                  -1.382
REMARK UNBOUND:                -1.043
REMARK SMILES CC(=O)CCC=C(C)CCC=C(C)C
REMARK SMILES IDX 7 1 6 2 8 3 9 4 10 5 11 6 13 7 12 8 14 9 5 10 4 11 2 12 3 13
REMARK SMILES IDX 1 14
REMARK H PARENT
REMARK Flexibility Score: inf
ROOT
ATOM      1  C   UNL     1      58.070  31.509  31.602  1.00  0.00    -0.077 C 
ATOM      2  C   UNL     1      56.783  31.134  31.786  1.00  0.00    -0.028 C 
ATOM      3  C   UNL     1      59.154  30.643  32.192  1.00  0.00     0.039 C 
ENDROOT
BRANCH   1   4
ATOM      4  C   UNL     1      58.480  32.734  30.805  1.00  0.00     0.034 C 
BRANCH   4   5
ATOM      5  C   UNL     1      58.898  33.897  31.715  1.00  0.00     0.032 C 
BRANCH   5   6
ATOM      6  C   UNL     1      57.733  34.811  32.012  1.00  0.00    -0.028 C 
ATOM      7  C   UNL     1      55.942  35.851  33.331  1.00  0.00     0.039 C 
ATOM      8  C   UNL     1      57.039  34.830  33.171  1.00  0.00    -0.080 C 
ATOM      9  C   UNL     1      57.327  33.868  34.297  1.00  0.00     0.039 C 
ENDBRANCH   5   6
ENDBRANCH   4   5
ENDBRANCH   1   4
BRANCH   2  10
ATOM     10  C   UNL     1      55.573  31.914  31.331  1.00  0.00     0.035 C 
BRANCH  10  11
ATOM     11  C   UNL     1      54.533  32.049  32.451  1.00  0.00     0.079 C 
BRANCH  11  12
ATOM     12  C   UNL     1      53.550  30.906  32.435  1.00  0.00     0.130 C 
ATOM     13  O   UNL     1      53.665  30.001  33.248  1.00  0.00    -0.300 OA
ATOM     14  C   UNL     1      52.432  30.855  31.438  1.00  0.00     0.087 C 
ENDBRANCH  11  12
ENDBRANCH  10  11
ENDBRANCH   2  10
TORSDOF 6
ENDMDL
MODEL 4
REMARK VINA RESULT:    -4.825      1.507      4.268
REMARK INTER + INTRA:          -7.561
REMARK INTER:                  -6.388
REMARK INTRA:                  -1.173
REMARK UNBOUND:                -1.043
REMARK SMILES CC(=O)CCC=C(C)CCC=C(C)C
REMARK SMILES IDX 7 1 6 2 8 3 9 4 10 5 11 6 13 7 12 8 14 9 5 10 4 11 2 12 3 13
REMARK SMILES IDX 1 14
REMARK H PARENT
REMARK Flexibility Score: inf
ROOT
ATOM      1  C   UNL     1      55.426  32.262  31.919  1.00  0.00    -0.077 C 
ATOM      2  C   UNL     1      54.633  31.195  31.666  1.00  0.00    -0.028 C 
ATOM      3  C   UNL     1      56.759  32.340  31.219  1.00  0.00     0.039 C 
ENDROOT
BRANCH   1   4
ATOM      4  C   UNL     1      55.030  33.399  32.844  1.00  0.00     0.034 C 
BRANCH   4   5
ATOM      5  C   UNL     1      54.275  34.508  32.098  1.00  0.00     0.032 C 
BRANCH   5   6
ATOM      6  C   UNL     1      52.960  34.828  32.770  1.00  0.00    -0.028 C 
ATOM      7  C   UNL     1      50.717  35.794  33.028  1.00  0.00     0.039 C 
ATOM      8  C   UNL     1      52.001  35.629  32.257  1.00  0.00    -0.080 C 
ATOM      9  C   UNL     1      52.179  36.358  30.947  1.00  0.00     0.039 C 
ENDBRANCH   5   6
ENDBRANCH   4   5
ENDBRANCH   1   4
BRANCH   2  10
ATOM     10  C   UNL     1      53.305  30.918  32.328  1.00  0.00     0.035 C 
BRANCH  10  11
ATOM     11  C   UNL     1      52.174  30.799  31.298  1.00  0.00     0.079 C 
BRANCH  11  12
ATOM     12  C   UNL     1      51.247  31.987  31.353  1.00  0.00     0.130 C 
ATOM     13  O   UNL     1      50.667  32.251  32.396  1.00  0.00    -0.300 OA
ATOM     14  C   UNL     1      51.021  32.855  30.152  1.00  0.00     0.087 C 
ENDBRANCH  11  12
ENDBRANCH  10  11
ENDBRANCH   2  10
TORSDOF 6
ENDMDL
MODEL 5
REMARK VINA RESULT:    -4.810      1.622      2.167
REMARK INTER + INTRA:          -7.539
REMARK INTER:                  -6.425
REMARK INTRA:                  -1.115
REMARK UNBOUND:                -1.043
REMARK SMILES CC(=O)CCC=C(C)CCC=C(C)C
REMARK SMILES IDX 7 1 6 2 8 3 9 4 10 5 11 6 13 7 12 8 14 9 5 10 4 11 2 12 3 13
REMARK SMILES IDX 1 14
REMARK H PARENT
REMARK Flexibility Score: inf
ROOT
ATOM      1  C   UNL     1      51.531  31.286  31.411  1.00  0.00    -0.077 C 
ATOM      2  C   UNL     1      50.629  32.259  31.677  1.00  0.00    -0.028 C 
ATOM      3  C   UNL     1      51.438  30.574  30.085  1.00  0.00     0.039 C 
ENDROOT
BRANCH   1   4
ATOM      4  C   UNL     1      52.650  30.899  32.360  1.00  0.00     0.034 C 
BRANCH   4   5
ATOM      5  C   UNL     1      54.005  31.468  31.913  1.00  0.00     0.032 C 
BRANCH   5   6
ATOM      6  C   UNL     1      54.432  32.624  32.786  1.00  0.00    -0.028 C 
ATOM      7  C   UNL     1      54.660  34.959  33.512  1.00  0.00     0.039 C 
ATOM      8  C   UNL     1      54.228  33.929  32.501  1.00  0.00    -0.080 C 
ATOM      9  C   UNL     1      53.586  34.378  31.211  1.00  0.00     0.039 C 
ENDBRANCH   5   6
ENDBRANCH   4   5
ENDBRANCH   1   4
BRANCH   2  10
ATOM     10  C   UNL     1      50.528  33.023  32.975  1.00  0.00     0.035 C 
BRANCH  10  11
ATOM     11  C   UNL     1      50.482  34.539  32.737  1.00  0.00     0.079 C 
BRANCH  11  12
ATOM     12  C   UNL     1      49.482  34.901  31.668  1.00  0.00     0.130 C 
ATOM     13  O   UNL     1      49.828  35.610  30.734  1.00  0.00    -0.300 OA
ATOM     14  C   UNL     1      48.066  34.411  31.727  1.00  0.00     0.087 C 
ENDBRANCH  11  12
ENDBRANCH  10  11
ENDBRANCH   2  10
TORSDOF 6
ENDMDL
MODEL 6
REMARK VINA RESULT:    -4.802      1.620      2.608
REMARK INTER + INTRA:          -7.530
REMARK INTER:                  -6.836
REMARK INTRA:                  -0.694
REMARK UNBOUND:                -1.043
REMARK SMILES CC(=O)CCC=C(C)CCC=C(C)C
REMARK SMILES IDX 7 1 6 2 8 3 9 4 10 5 11 6 13 7 12 8 14 9 5 10 4 11 2 12 3 13
REMARK SMILES IDX 1 14
REMARK H PARENT
REMARK Flexibility Score: inf
ROOT
ATOM      1  C   UNL     1      53.327  31.087  32.270  1.00  0.00    -0.077 C 
ATOM      2  C   UNL     1      52.291  30.949  31.412  1.00  0.00    -0.028 C 
ATOM      3  C   UNL     1      53.642  29.939  33.195  1.00  0.00     0.039 C 
ENDROOT
BRANCH   1   4
ATOM      4  C   UNL     1      54.209  32.322  32.327  1.00  0.00     0.034 C 
BRANCH   4   5
ATOM      5  C   UNL     1      55.374  32.241  31.331  1.00  0.00     0.032 C 
BRANCH   5   6
ATOM      6  C   UNL     1      56.465  31.324  31.832  1.00  0.00    -0.028 C 
ATOM      7  C   UNL     1      58.752  30.527  32.240  1.00  0.00     0.039 C 
ATOM      8  C   UNL     1      57.787  31.501  31.614  1.00  0.00    -0.080 C 
ATOM      9  C   UNL     1      58.319  32.633  30.770  1.00  0.00     0.039 C 
ENDBRANCH   5   6
ENDBRANCH   4   5
ENDBRANCH   1   4
BRANCH   2  10
ATOM     10  C   UNL     1      51.790  32.018  30.470  1.00  0.00     0.035 C 
BRANCH  10  11
ATOM     11  C   UNL     1      50.653  32.837  31.098  1.00  0.00     0.079 C 
BRANCH  11  12
ATOM     12  C   UNL     1      50.908  34.318  30.979  1.00  0.00     0.130 C 
ATOM     13  O   UNL     1      50.011  35.106  31.241  1.00  0.00    -0.300 OA
ATOM     14  C   UNL     1      52.242  34.847  30.545  1.00  0.00     0.087 C 
ENDBRANCH  11  12
ENDBRANCH  10  11
ENDBRANCH   2  10
TORSDOF 6
ENDMDL
MODEL 7
REMARK VINA RESULT:    -4.801      1.729      5.135
REMARK INTER + INTRA:          -7.528
REMARK INTER:                  -6.780
REMARK INTRA:                  -0.748
REMARK UNBOUND:                -1.043
REMARK SMILES CC(=O)CCC=C(C)CCC=C(C)C
REMARK SMILES IDX 7 1 6 2 8 3 9 4 10 5 11 6 13 7 12 8 14 9 5 10 4 11 2 12 3 13
REMARK SMILES IDX 1 14
REMARK H PARENT
REMARK Flexibility Score: inf
ROOT
ATOM      1  C   UNL     1      51.915  31.510  31.359  1.00  0.00    -0.077 C 
ATOM      2  C   UNL     1      52.894  30.674  31.775  1.00  0.00    -0.028 C 
ATOM      3  C   UNL     1      50.783  30.932  30.547  1.00  0.00     0.039 C 
ENDROOT
BRANCH   1   4
ATOM      4  C   UNL     1      51.878  32.990  31.695  1.00  0.00     0.034 C 
BRANCH   4   5
ATOM      5  C   UNL     1      50.811  33.312  32.751  1.00  0.00     0.032 C 
BRANCH   5   6
ATOM      6  C   UNL     1      50.235  34.694  32.548  1.00  0.00    -0.028 C 
ATOM      7  C   UNL     1      48.611  36.396  31.846  1.00  0.00     0.039 C 
ATOM      8  C   UNL     1      49.078  34.965  31.905  1.00  0.00    -0.080 C 
ATOM      9  C   UNL     1      48.251  33.886  31.249  1.00  0.00     0.039 C 
ENDBRANCH   5   6
ENDBRANCH   4   5
ENDBRANCH   1   4
BRANCH   2  10
ATOM     10  C   UNL     1      54.133  31.089  32.532  1.00  0.00     0.035 C 
BRANCH  10  11
ATOM     11  C   UNL     1      55.397  30.928  31.676  1.00  0.00     0.079 C 
BRANCH  11  12
ATOM     12  C   UNL     1      56.044  32.259  31.388  1.00  0.00     0.130 C 
ATOM     13  O   UNL     1      55.354  33.267  31.348  1.00  0.00    -0.300 OA
ATOM     14  C   UNL     1      57.519  32.373  31.147  1.00  0.00     0.087 C 
ENDBRANCH  11  12
ENDBRANCH  10  11
ENDBRANCH   2  10
TORSDOF 6
ENDMDL
MODEL 8
REMARK VINA RESULT:    -4.759      1.500      4.149
REMARK INTER + INTRA:          -7.471
REMARK INTER:                  -6.288
REMARK INTRA:                  -1.183
REMARK UNBOUND:                -1.043
REMARK SMILES CC(=O)CCC=C(C)CCC=C(C)C
REMARK SMILES IDX 7 1 6 2 8 3 9 4 10 5 11 6 13 7 12 8 14 9 5 10 4 11 2 12 3 13
REMARK SMILES IDX 1 14
REMARK H PARENT
REMARK Flexibility Score: inf
ROOT
ATOM      1  C   UNL     1      51.821  31.411  31.323  1.00  0.00    -0.077 C 
ATOM      2  C   UNL     1      53.135  31.495  31.631  1.00  0.00    -0.028 C 
ATOM      3  C   UNL     1      51.411  30.492  30.200  1.00  0.00     0.039 C 
ENDROOT
BRANCH   1   4
ATOM      4  C   UNL     1      50.735  32.164  32.070  1.00  0.00     0.034 C 
BRANCH   4   5
ATOM      5  C   UNL     1      50.092  33.255  31.201  1.00  0.00     0.032 C 
BRANCH   5   6
ATOM      6  C   UNL     1      51.112  34.277  30.756  1.00  0.00    -0.028 C 
ATOM      7  C   UNL     1      52.600  36.222  30.926  1.00  0.00     0.039 C 
ATOM      8  C   UNL     1      51.526  35.330  31.493  1.00  0.00    -0.080 C 
ATOM      9  C   UNL     1      50.949  35.637  32.853  1.00  0.00     0.039 C 
ENDBRANCH   5   6
ENDBRANCH   4   5
ENDBRANCH   1   4
BRANCH   2  10
ATOM     10  C   UNL     1      53.730  32.413  32.672  1.00  0.00     0.035 C 
BRANCH  10  11
ATOM     11  C   UNL     1      54.738  33.392  32.053  1.00  0.00     0.079 C 
BRANCH  11  12
ATOM     12  C   UNL     1      56.159  32.943  32.284  1.00  0.00     0.130 C 
ATOM     13  O   UNL     1      56.668  33.099  33.384  1.00  0.00    -0.300 OA
ATOM     14  C   UNL     1      56.963  32.309  31.189  1.00  0.00     0.087 C 
ENDBRANCH  11  12
ENDBRANCH  10  11
ENDBRANCH   2  10
TORSDOF 6
ENDMDL
MODEL 9
REMARK VINA RESULT:    -4.683      1.858      2.636
REMARK INTER + INTRA:          -7.368
REMARK INTER:                  -6.339
REMARK INTRA:                  -1.029
REMARK UNBOUND:                -1.043
REMARK SMILES CC(=O)CCC=C(C)CCC=C(C)C
REMARK SMILES IDX 7 1 6 2 8 3 9 4 10 5 11 6 13 7 12 8 14 9 5 10 4 11 2 12 3 13
REMARK SMILES IDX 1 14
REMARK H PARENT
REMARK Flexibility Score: inf
ROOT
ATOM      1  C   UNL     1      51.095  32.477  30.858  1.00  0.00    -0.077 C 
ATOM      2  C   UNL     1      49.883  32.631  31.438  1.00  0.00    -0.028 C 
ATOM      3  C   UNL     1      51.371  31.193  30.116  1.00  0.00     0.039 C 
ENDROOT
BRANCH   1   4
ATOM      4  C   UNL     1      52.178  33.540  30.885  1.00  0.00     0.034 C 
BRANCH   4   5
ATOM      5  C   UNL     1      53.066  33.423  32.132  1.00  0.00     0.032 C 
BRANCH   5   6
ATOM      6  C   UNL     1      54.371  32.730  31.816  1.00  0.00    -0.028 C 
ATOM      7  C   UNL     1      55.971  30.877  31.632  1.00  0.00     0.039 C 
ATOM      8  C   UNL     1      54.639  31.430  32.069  1.00  0.00    -0.080 C 
ATOM      9  C   UNL     1      53.655  30.528  32.771  1.00  0.00     0.039 C 
ENDBRANCH   5   6
ENDBRANCH   4   5
ENDBRANCH   1   4
BRANCH   2  10
ATOM     10  C   UNL     1      49.461  33.812  32.277  1.00  0.00     0.035 C 
BRANCH  10  11
ATOM     11  C   UNL     1      48.814  34.911  31.422  1.00  0.00     0.079 C 
BRANCH  11  12
ATOM     12  C   UNL     1      49.594  36.199  31.492  1.00  0.00     0.130 C 
ATOM     13  O   UNL     1      49.664  36.915  30.504  1.00  0.00    -0.300 OA
ATOM     14  C   UNL     1      50.288  36.622  32.752  1.00  0.00     0.087 C 
ENDBRANCH  11  12
ENDBRANCH  10  11
ENDBRANCH   2  10
TORSDOF 6
ENDMDL
