MODEL 1
REMARK VINA RESULT:    -3.807      0.000      0.000
REMARK INTER + INTRA:          -5.101
REMARK INTER:                  -4.474
REMARK INTRA:                  -0.626
REMARK UNBOUND:                -0.626
REMARK SMILES C=C[C@]1(C)CC[C@H](C(=C)C)C[C@@H]1C(=C)C
REMARK SMILES IDX 7 1 6 2 5 3 3 4 12 5 11 6 4 7 8 8 10 9 9 10 13 11 14 12
REMARK SMILES IDX 15 13 2 14 1 15
REMARK H PARENT
REMARK Flexibility Score: inf
ROOT
ATOM      1  C   UNL     1     -61.004  26.766 -13.392  1.00  0.00     0.015 C 
ATOM      2  C   UNL     1     -61.131  28.244 -13.850  1.00  0.00     0.009 C 
ATOM      3  C   UNL     1     -59.792  28.990 -13.766  1.00  0.00     0.012 C 
ATOM      4  C   UNL     1     -58.687  28.354 -14.685  1.00  0.00    -0.008 C 
ATOM      5  C   UNL     1     -58.962  26.817 -14.926  1.00  0.00     0.024 C 
ATOM      6  C   UNL     1     -59.606  26.154 -13.689  1.00  0.00     0.017 C 
ATOM      7  C   UNL     1     -58.707  29.076 -16.052  1.00  0.00     0.016 C 
ENDROOT
BRANCH   1   8
ATOM      8  C   UNL     1     -61.392  26.598 -11.934  1.00  0.00    -0.077 C 
ATOM      9  C   UNL     1     -60.529  25.742 -11.040  1.00  0.00     0.039 C 
ATOM     10  C   UNL     1     -62.493  27.202 -11.455  1.00  0.00     0.008 C 
ENDBRANCH   1   8
BRANCH   5  11
ATOM     11  C   UNL     1     -57.769  26.028 -15.474  1.00  0.00    -0.077 C 
ATOM     12  C   UNL     1     -57.369  26.134 -16.752  1.00  0.00     0.008 C 
ATOM     13  C   UNL     1     -56.962  25.153 -14.548  1.00  0.00     0.039 C 
ENDBRANCH   5  11
BRANCH   4  14
ATOM     14  C   UNL     1     -57.316  28.629 -14.080  1.00  0.00    -0.028 C 
ATOM     15  C   UNL     1     -56.812  28.505 -12.809  1.00  0.00     0.004 C 
ENDBRANCH   4  14
TORSDOF 3
ENDMDL
MODEL 2
REMARK VINA RESULT:    -3.757      1.639      2.350
REMARK INTER + INTRA:          -5.042
REMARK INTER:                  -4.565
REMARK INTRA:                  -0.477
REMARK UNBOUND:                -0.626
REMARK SMILES C=C[C@]1(C)CC[C@H](C(=C)C)C[C@@H]1C(=C)C
REMARK SMILES IDX 7 1 6 2 5 3 3 4 12 5 11 6 4 7 8 8 10 9 9 10 13 11 14 12
REMARK SMILES IDX 15 13 2 14 1 15
REMARK H PARENT
REMARK Flexibility Score: inf
ROOT
ATOM      1  C   UNL     1     -58.671  25.013 -13.373  1.00  0.00     0.015 C 
ATOM      2  C   UNL     1     -59.626  26.144 -13.845  1.00  0.00     0.009 C 
ATOM      3  C   UNL     1     -58.878  27.459 -14.104  1.00  0.00     0.012 C 
ATOM      4  C   UNL     1     -57.790  27.323 -15.230  1.00  0.00    -0.008 C 
ATOM      5  C   UNL     1     -57.267  25.837 -15.341  1.00  0.00     0.024 C 
ATOM      6  C   UNL     1     -57.239  25.140 -13.963  1.00  0.00     0.017 C 
ATOM      7  C   UNL     1     -58.427  27.722 -16.582  1.00  0.00     0.016 C 
ENDROOT
BRANCH   1   8
ATOM      8  C   UNL     1     -58.646  24.900 -11.859  1.00  0.00    -0.077 C 
ATOM      9  C   UNL     1     -57.348  24.551 -11.172  1.00  0.00     0.039 C 
ATOM     10  C   UNL     1     -59.768  25.104 -11.149  1.00  0.00     0.008 C 
ENDBRANCH   1   8
BRANCH   5  11
ATOM     11  C   UNL     1     -55.959  25.672 -16.122  1.00  0.00    -0.077 C 
ATOM     12  C   UNL     1     -55.847  26.031 -17.411  1.00  0.00     0.008 C 
ATOM     13  C   UNL     1     -54.729  25.157 -15.419  1.00  0.00     0.039 C 
ENDBRANCH   5  11
BRANCH   4  14
ATOM     14  C   UNL     1     -56.677  28.332 -14.973  1.00  0.00    -0.028 C 
ATOM     15  C   UNL     1     -55.999  28.708 -13.840  1.00  0.00     0.004 C 
ENDBRANCH   4  14
TORSDOF 3
ENDMDL
MODEL 3
REMARK VINA RESULT:    -3.742      0.350      1.314
REMARK INTER + INTRA:          -5.025
REMARK INTER:                  -4.460
REMARK INTRA:                  -0.565
REMARK UNBOUND:                -0.626
REMARK SMILES C=C[C@]1(C)CC[C@H](C(=C)C)C[C@@H]1C(=C)C
REMARK SMILES IDX 7 1 6 2 5 3 3 4 12 5 11 6 4 7 8 8 10 9 9 10 13 11 14 12
REMARK SMILES IDX 15 13 2 14 1 15
REMARK H PARENT
REMARK Flexibility Score: inf
ROOT
ATOM      1  C   UNL     1     -60.751  26.539 -13.449  1.00  0.00     0.015 C 
ATOM      2  C   UNL     1     -60.994  27.935 -14.085  1.00  0.00     0.009 C 
ATOM      3  C   UNL     1     -59.727  28.800 -14.079  1.00  0.00     0.012 C 
ATOM      4  C   UNL     1     -58.552  28.157 -14.902  1.00  0.00    -0.008 C 
ATOM      5  C   UNL     1     -58.689  26.584 -14.956  1.00  0.00     0.024 C 
ATOM      6  C   UNL     1     -59.299  26.022 -13.654  1.00  0.00     0.017 C 
ATOM      7  C   UNL     1     -58.605  28.706 -16.347  1.00  0.00     0.016 C 
ENDROOT
BRANCH   1   8
ATOM      8  C   UNL     1     -61.153  26.514 -11.986  1.00  0.00    -0.077 C 
ATOM      9  C   UNL     1     -62.236  27.450 -11.507  1.00  0.00     0.039 C 
ATOM     10  C   UNL     1     -60.545  25.670 -11.134  1.00  0.00     0.008 C 
ENDBRANCH   1   8
BRANCH   5  11
ATOM     11  C   UNL     1     -57.421  25.843 -15.392  1.00  0.00    -0.077 C 
ATOM     12  C   UNL     1     -56.773  24.994 -14.578  1.00  0.00     0.008 C 
ATOM     13  C   UNL     1     -56.908  26.005 -16.801  1.00  0.00     0.039 C 
ENDBRANCH   5  11
BRANCH   4  14
ATOM     14  C   UNL     1     -57.222  28.622 -14.321  1.00  0.00    -0.028 C 
ATOM     15  C   UNL     1     -56.744  28.718 -13.037  1.00  0.00     0.004 C 
ENDBRANCH   4  14
TORSDOF 3
ENDMDL
MODEL 4
REMARK VINA RESULT:    -3.721     13.294     15.191
REMARK INTER + INTRA:          -5.000
REMARK INTER:                  -4.307
REMARK INTRA:                  -0.693
REMARK UNBOUND:                -0.626
REMARK SMILES C=C[C@]1(C)CC[C@H](C(=C)C)C[C@@H]1C(=C)C
REMARK SMILES IDX 7 1 6 2 5 3 3 4 12 5 11 6 4 7 8 8 10 9 9 10 13 11 14 12
REMARK SMILES IDX 15 13 2 14 1 15
REMARK H PARENT
REMARK Flexibility Score: inf
ROOT
ATOM      1  C   UNL     1     -47.589  23.560  -4.217  1.00  0.00     0.015 C 
ATOM      2  C   UNL     1     -48.073  23.007  -5.585  1.00  0.00     0.009 C 
ATOM      3  C   UNL     1     -48.329  24.126  -6.602  1.00  0.00     0.012 C 
ATOM      4  C   UNL     1     -47.037  24.966  -6.916  1.00  0.00    -0.008 C 
ATOM      5  C   UNL     1     -46.026  24.929  -5.702  1.00  0.00     0.024 C 
ATOM      6  C   UNL     1     -46.765  24.872  -4.348  1.00  0.00     0.017 C 
ATOM      7  C   UNL     1     -46.342  24.356  -8.154  1.00  0.00     0.016 C 
ENDROOT
BRANCH   1   8
ATOM      8  C   UNL     1     -48.741  23.717  -3.240  1.00  0.00    -0.077 C 
ATOM      9  C   UNL     1     -49.271  25.100  -2.948  1.00  0.00     0.039 C 
ATOM     10  C   UNL     1     -49.272  22.636  -2.645  1.00  0.00     0.008 C 
ENDBRANCH   1   8
BRANCH   5  11
ATOM     11  C   UNL     1     -44.933  26.002  -5.743  1.00  0.00    -0.077 C 
ATOM     12  C   UNL     1     -44.933  27.054  -4.908  1.00  0.00     0.008 C 
ATOM     13  C   UNL     1     -43.775  25.853  -6.697  1.00  0.00     0.039 C 
ENDBRANCH   5  11
BRANCH   4  14
ATOM     14  C   UNL     1     -47.445  26.379  -7.312  1.00  0.00    -0.028 C 
ATOM     15  C   UNL     1     -48.326  27.285  -6.774  1.00  0.00     0.004 C 
ENDBRANCH   4  14
TORSDOF 3
ENDMDL
MODEL 5
REMARK VINA RESULT:    -3.671     10.992     13.779
REMARK INTER + INTRA:          -4.941
REMARK INTER:                  -4.285
REMARK INTRA:                  -0.656
REMARK UNBOUND:                -0.626
REMARK SMILES C=C[C@]1(C)CC[C@H](C(=C)C)C[C@@H]1C(=C)C
REMARK SMILES IDX 7 1 6 2 5 3 3 4 12 5 11 6 4 7 8 8 10 9 9 10 13 11 14 12
REMARK SMILES IDX 15 13 2 14 1 15
REMARK H PARENT
REMARK Flexibility Score: inf
ROOT
ATOM      1  C   UNL     1     -54.667  14.051 -12.169  1.00  0.00     0.015 C 
ATOM      2  C   UNL     1     -54.784  13.356 -10.785  1.00  0.00     0.009 C 
ATOM      3  C   UNL     1     -54.063  14.142  -9.682  1.00  0.00     0.012 C 
ATOM      4  C   UNL     1     -54.652  15.585  -9.484  1.00  0.00    -0.008 C 
ATOM      5  C   UNL     1     -55.323  16.114 -10.814  1.00  0.00     0.024 C 
ATOM      6  C   UNL     1     -54.582  15.599 -12.067  1.00  0.00     0.017 C 
ATOM      7  C   UNL     1     -55.731  15.530  -8.378  1.00  0.00     0.016 C 
ENDROOT
BRANCH   1   8
ATOM      8  C   UNL     1     -53.521  13.479 -12.985  1.00  0.00    -0.077 C 
ATOM      9  C   UNL     1     -53.498  11.999 -13.280  1.00  0.00     0.039 C 
ATOM     10  C   UNL     1     -52.543  14.286 -13.432  1.00  0.00     0.008 C 
ENDBRANCH   1   8
BRANCH   5  11
ATOM     11  C   UNL     1     -55.580  17.623 -10.848  1.00  0.00    -0.077 C 
ATOM     12  C   UNL     1     -54.842  18.458 -11.598  1.00  0.00     0.008 C 
ATOM     13  C   UNL     1     -56.740  18.201 -10.077  1.00  0.00     0.039 C 
ENDBRANCH   5  11
BRANCH   4  14
ATOM     14  C   UNL     1     -53.556  16.505  -8.961  1.00  0.00    -0.028 C 
ATOM     15  C   UNL     1     -52.291  16.800  -9.406  1.00  0.00     0.004 C 
ENDBRANCH   4  14
TORSDOF 3
ENDMDL
MODEL 6
REMARK VINA RESULT:    -3.662      1.951      4.342
REMARK INTER + INTRA:          -4.930
REMARK INTER:                  -4.319
REMARK INTRA:                  -0.611
REMARK UNBOUND:                -0.626
REMARK SMILES C=C[C@]1(C)CC[C@H](C(=C)C)C[C@@H]1C(=C)C
REMARK SMILES IDX 7 1 6 2 5 3 3 4 12 5 11 6 4 7 8 8 10 9 9 10 13 11 14 12
REMARK SMILES IDX 15 13 2 14 1 15
REMARK H PARENT
REMARK Flexibility Score: inf
ROOT
ATOM      1  C   UNL     1     -58.800  26.439 -15.351  1.00  0.00     0.015 C 
ATOM      2  C   UNL     1     -57.556  26.084 -16.209  1.00  0.00     0.009 C 
ATOM      3  C   UNL     1     -56.280  25.982 -15.361  1.00  0.00     0.012 C 
ATOM      4  C   UNL     1     -56.373  24.862 -14.261  1.00  0.00    -0.008 C 
ATOM      5  C   UNL     1     -57.874  24.594 -13.847  1.00  0.00     0.024 C 
ATOM      6  C   UNL     1     -58.717  25.886 -13.900  1.00  0.00     0.017 C 
ATOM      7  C   UNL     1     -55.781  23.555 -14.838  1.00  0.00     0.016 C 
ENDROOT
BRANCH   1   8
ATOM      8  C   UNL     1     -59.081  27.931 -15.366  1.00  0.00    -0.077 C 
ATOM      9  C   UNL     1     -59.883  28.538 -14.241  1.00  0.00     0.039 C 
ATOM     10  C   UNL     1     -58.622  28.693 -16.374  1.00  0.00     0.008 C 
ENDBRANCH   1   8
BRANCH   5  11
ATOM     11  C   UNL     1     -58.050  23.817 -12.538  1.00  0.00    -0.077 C 
ATOM     12  C   UNL     1     -58.460  24.410 -11.405  1.00  0.00     0.008 C 
ATOM     13  C   UNL     1     -57.830  22.326 -12.519  1.00  0.00     0.039 C 
ENDBRANCH   5  11
BRANCH   4  14
ATOM     14  C   UNL     1     -55.486  25.245 -13.083  1.00  0.00    -0.028 C 
ATOM     15  C   UNL     1     -55.288  26.423 -12.404  1.00  0.00     0.004 C 
ENDBRANCH   4  14
TORSDOF 3
ENDMDL
MODEL 7
REMARK VINA RESULT:    -3.611     13.935     15.440
REMARK INTER + INTRA:          -4.870
REMARK INTER:                  -4.391
REMARK INTRA:                  -0.479
REMARK UNBOUND:                -0.626
REMARK SMILES C=C[C@]1(C)CC[C@H](C(=C)C)C[C@@H]1C(=C)C
REMARK SMILES IDX 7 1 6 2 5 3 3 4 12 5 11 6 4 7 8 8 10 9 9 10 13 11 14 12
REMARK SMILES IDX 15 13 2 14 1 15
REMARK H PARENT
REMARK Flexibility Score: inf
ROOT
ATOM      1  C   UNL     1     -47.961  24.068  -3.388  1.00  0.00     0.015 C 
ATOM      2  C   UNL     1     -47.761  22.737  -4.162  1.00  0.00     0.009 C 
ATOM      3  C   UNL     1     -47.788  22.944  -5.682  1.00  0.00     0.012 C 
ATOM      4  C   UNL     1     -46.647  23.902  -6.182  1.00  0.00    -0.008 C 
ATOM      5  C   UNL     1     -46.206  24.905  -5.044  1.00  0.00     0.024 C 
ATOM      6  C   UNL     1     -47.396  25.303  -4.145  1.00  0.00     0.017 C 
ATOM      7  C   UNL     1     -45.425  23.045  -6.583  1.00  0.00     0.016 C 
ENDROOT
BRANCH   1   8
ATOM      8  C   UNL     1     -49.412  24.270  -2.990  1.00  0.00    -0.077 C 
ATOM      9  C   UNL     1     -49.966  25.673  -2.927  1.00  0.00     0.039 C 
ATOM     10  C   UNL     1     -50.185  23.210  -2.696  1.00  0.00     0.008 C 
ENDBRANCH   1   8
BRANCH   5  11
ATOM     11  C   UNL     1     -45.392  26.109  -5.528  1.00  0.00    -0.077 C 
ATOM     12  C   UNL     1     -45.844  27.369  -5.416  1.00  0.00     0.008 C 
ATOM     13  C   UNL     1     -44.007  25.900  -6.086  1.00  0.00     0.039 C 
ENDBRANCH   5  11
BRANCH   4  14
ATOM     14  C   UNL     1     -47.107  24.605  -7.454  1.00  0.00    -0.028 C 
ATOM     15  C   UNL     1     -46.636  24.609  -8.743  1.00  0.00     0.004 C 
ENDBRANCH   4  14
TORSDOF 3
ENDMDL
MODEL 8
REMARK VINA RESULT:    -3.588      1.878      3.160
REMARK INTER + INTRA:          -4.844
REMARK INTER:                  -4.201
REMARK INTRA:                  -0.642
REMARK UNBOUND:                -0.626
REMARK SMILES C=C[C@]1(C)CC[C@H](C(=C)C)C[C@@H]1C(=C)C
REMARK SMILES IDX 7 1 6 2 5 3 3 4 12 5 11 6 4 7 8 8 10 9 9 10 13 11 14 12
REMARK SMILES IDX 15 13 2 14 1 15
REMARK H PARENT
REMARK Flexibility Score: inf
ROOT
ATOM      1  C   UNL     1     -58.259  24.566 -12.941  1.00  0.00     0.015 C 
ATOM      2  C   UNL     1     -59.220  25.552 -12.223  1.00  0.00     0.009 C 
ATOM      3  C   UNL     1     -58.783  27.013 -12.399  1.00  0.00     0.012 C 
ATOM      4  C   UNL     1     -58.761  27.460 -13.906  1.00  0.00    -0.008 C 
ATOM      5  C   UNL     1     -58.529  26.225 -14.863  1.00  0.00     0.024 C 
ATOM      6  C   UNL     1     -57.607  25.170 -14.216  1.00  0.00     0.017 C 
ATOM      7  C   UNL     1     -60.126  28.100 -14.250  1.00  0.00     0.016 C 
ENDROOT
BRANCH   1   8
ATOM      8  C   UNL     1     -57.216  24.010 -11.987  1.00  0.00    -0.077 C 
ATOM      9  C   UNL     1     -55.870  24.687 -11.899  1.00  0.00     0.039 C 
ATOM     10  C   UNL     1     -57.494  22.928 -11.240  1.00  0.00     0.008 C 
ENDBRANCH   1   8
BRANCH   5  11
ATOM     11  C   UNL     1     -58.114  26.588 -16.292  1.00  0.00    -0.077 C 
ATOM     12  C   UNL     1     -58.966  27.154 -17.163  1.00  0.00     0.008 C 
ATOM     13  C   UNL     1     -56.687  26.377 -16.732  1.00  0.00     0.039 C 
ENDBRANCH   5  11
BRANCH   4  14
ATOM     14  C   UNL     1     -57.721  28.559 -14.085  1.00  0.00    -0.028 C 
ATOM     15  C   UNL     1     -56.398  28.663 -13.730  1.00  0.00     0.004 C 
ENDBRANCH   4  14
TORSDOF 3
ENDMDL
MODEL 9
REMARK VINA RESULT:    -3.360      9.102     11.275
REMARK INTER + INTRA:          -4.576
REMARK INTER:                  -3.977
REMARK INTRA:                  -0.599
REMARK UNBOUND:                -0.626
REMARK SMILES C=C[C@]1(C)CC[C@H](C(=C)C)C[C@@H]1C(=C)C
REMARK SMILES IDX 7 1 6 2 5 3 3 4 12 5 11 6 4 7 8 8 10 9 9 10 13 11 14 12
REMARK SMILES IDX 15 13 2 14 1 15
REMARK H PARENT
REMARK Flexibility Score: inf
ROOT
ATOM      1  C   UNL     1     -59.267  16.452 -17.101  1.00  0.00     0.015 C 
ATOM      2  C   UNL     1     -58.916  15.505 -18.280  1.00  0.00     0.009 C 
ATOM      3  C   UNL     1     -58.072  16.207 -19.352  1.00  0.00     0.012 C 
ATOM      4  C   UNL     1     -56.695  16.722 -18.796  1.00  0.00    -0.008 C 
ATOM      5  C   UNL     1     -56.777  17.006 -17.245  1.00  0.00     0.024 C 
ATOM      6  C   UNL     1     -58.173  17.524 -16.835  1.00  0.00     0.017 C 
ATOM      7  C   UNL     1     -55.626  15.632 -19.041  1.00  0.00     0.016 C 
ENDROOT
BRANCH   1   8
ATOM      8  C   UNL     1     -60.637  17.082 -17.279  1.00  0.00    -0.077 C 
ATOM      9  C   UNL     1     -60.877  18.475 -16.752  1.00  0.00     0.039 C 
ATOM     10  C   UNL     1     -61.618  16.399 -17.894  1.00  0.00     0.008 C 
ENDBRANCH   1   8
BRANCH   5  11
ATOM     11  C   UNL     1     -55.634  17.858 -16.685  1.00  0.00    -0.077 C 
ATOM     12  C   UNL     1     -54.399  17.364 -16.500  1.00  0.00     0.008 C 
ATOM     13  C   UNL     1     -55.865  19.319 -16.392  1.00  0.00     0.039 C 
ENDBRANCH   5  11
BRANCH   4  14
ATOM     14  C   UNL     1     -56.254  17.937 -19.604  1.00  0.00    -0.028 C 
ATOM     15  C   UNL     1     -56.932  19.011 -20.125  1.00  0.00     0.004 C 
ENDBRANCH   4  14
TORSDOF 3
ENDMDL
