MODEL 1
REMARK VINA RESULT:    -3.421      0.000      0.000
REMARK INTER + INTRA:          -3.374
REMARK INTER:                  -4.221
REMARK INTRA:                   0.846
REMARK UNBOUND:                 0.846
REMARK SMILES CC1=CC=CC(C)(C)CC1=O
REMARK SMILES IDX 1 1 2 2 3 3 10 4 11 5 9 6 4 8 5 9 6 10 7 11 8 12
REMARK H PARENT
REMARK Flexibility Score: 80.00
ROOT
ATOM      1  C   UNL     1      15.633  30.199  29.829  1.00  0.00     0.048 C 
ATOM      2  C   UNL     1      16.958  30.903  29.653  1.00  0.00    -0.008 C 
ATOM      3  C   UNL     1      18.063  30.141  29.503  1.00  0.00     0.007 C 
ENDROOT
BRANCH   2   4
ATOM      4  C   UNL     1      16.923  32.389  29.603  1.00  0.00     0.159 C 
ATOM      5  O   UNL     1      15.814  32.972  29.751  1.00  0.00    -0.295 OA
BRANCH   4   6
ATOM      6  C   UNL     1      18.124  33.251  29.350  1.00  0.00     0.091 CG0
ATOM      7  G   UNL     1      19.353  32.885  30.212  1.00  0.00     0.000 G0
ENDBRANCH   4   6
ENDBRANCH   2   4
BRANCH   3   8
ATOM      8  C   UNL     1      19.476  30.547  29.327  1.00  0.00    -0.003 C 
ATOM      9  C   UNL     1      20.058  31.708  29.648  1.00  0.00    -0.020 C 
BRANCH   9  10
ATOM     10  C   UNL     1      19.365  32.924  30.217  1.00  0.00    -0.010 CG0
ATOM     11  C   UNL     1      20.338  34.120  30.129  1.00  0.00     0.016 C 
ATOM     12  C   UNL     1      19.024  32.698  31.708  1.00  0.00     0.016 C 
ATOM     13  G   UNL     1      18.119  33.252  29.364  1.00  0.00     0.000 G0
ENDBRANCH   9  10
ENDBRANCH   3   8
TORSDOF 0
ENDMDL
MODEL 2
REMARK VINA RESULT:    -3.304      1.779      2.785
REMARK INTER + INTRA:          -3.231
REMARK INTER:                  -4.305
REMARK INTRA:                   1.074
REMARK UNBOUND:                 0.846
REMARK SMILES CC1=CC=CC(C)(C)CC1=O
REMARK SMILES IDX 1 1 2 2 3 3 10 4 11 5 9 6 4 8 5 9 6 10 7 11 8 12
REMARK H PARENT
REMARK Flexibility Score: 80.00
ROOT
ATOM      1  C   UNL     1      16.361  32.684  29.165  1.00  0.00     0.048 C 
ATOM      2  C   UNL     1      17.851  32.465  29.280  1.00  0.00    -0.008 C 
ATOM      3  C   UNL     1      18.643  33.554  29.383  1.00  0.00     0.007 C 
ENDROOT
BRANCH   2   4
ATOM      4  C   UNL     1      18.318  31.053  29.325  1.00  0.00     0.159 C 
ATOM      5  O   UNL     1      17.458  30.137  29.445  1.00  0.00    -0.295 OA
BRANCH   4   6
ATOM      6  C   UNL     1      19.759  30.642  29.274  1.00  0.00     0.091 CG0
ATOM      7  G   UNL     1      20.644  31.320  30.344  1.00  0.00     0.000 G0
ENDBRANCH   4   6
ENDBRANCH   2   4
BRANCH   3   8
ATOM      8  C   UNL     1      20.116  33.646  29.495  1.00  0.00    -0.003 C 
ATOM      9  C   UNL     1      20.986  32.700  29.864  1.00  0.00    -0.020 C 
BRANCH   9  10
ATOM     10  C   UNL     1      20.641  31.304  30.329  1.00  0.00    -0.010 CG0
ATOM     11  C   UNL     1      19.851  31.417  31.652  1.00  0.00     0.016 C 
ATOM     12  C   UNL     1      21.930  30.500  30.612  1.00  0.00     0.016 C 
ATOM     13  G   UNL     1      19.732  30.624  29.281  1.00  0.00     0.000 G0
ENDBRANCH   9  10
ENDBRANCH   3   8
TORSDOF 0
ENDMDL
MODEL 3
REMARK VINA RESULT:    -3.276     10.260     11.733
REMARK INTER + INTRA:          -3.195
REMARK INTER:                  -4.039
REMARK INTRA:                   0.844
REMARK UNBOUND:                 0.846
REMARK SMILES CC1=CC=CC(C)(C)CC1=O
REMARK SMILES IDX 1 1 2 2 3 3 10 4 11 5 9 6 4 8 5 9 6 10 7 11 8 12
REMARK H PARENT
REMARK Flexibility Score: 80.00
ROOT
ATOM      1  C   UNL     1      27.294  30.579  31.507  1.00  0.00     0.048 C 
ATOM      2  C   UNL     1      28.245  31.480  30.755  1.00  0.00    -0.008 C 
ATOM      3  C   UNL     1      27.735  32.583  30.165  1.00  0.00     0.007 C 
ENDROOT
BRANCH   2   4
ATOM      4  C   UNL     1      29.682  31.100  30.775  1.00  0.00     0.159 C 
ATOM      5  O   UNL     1      30.009  30.002  31.305  1.00  0.00    -0.295 OA
BRANCH   4   6
ATOM      6  C   UNL     1      30.787  31.959  30.237  1.00  0.00     0.091 CG0
ATOM      7  G   UNL     1      30.579  32.406  28.773  1.00  0.00     0.000 G0
ENDBRANCH   4   6
ENDBRANCH   2   4
BRANCH   3   8
ATOM      8  C   UNL     1      28.413  33.627  29.364  1.00  0.00    -0.003 C 
ATOM      9  C   UNL     1      29.593  33.562  28.736  1.00  0.00    -0.020 C 
BRANCH   9  10
ATOM     10  C   UNL     1      30.555  32.398  28.766  1.00  0.00    -0.010 CG0
ATOM     11  C   UNL     1      31.914  32.879  28.207  1.00  0.00     0.016 C 
ATOM     12  C   UNL     1      30.044  31.257  27.856  1.00  0.00     0.016 C 
ATOM     13  G   UNL     1      30.769  31.945  30.227  1.00  0.00     0.000 G0
ENDBRANCH   9  10
ENDBRANCH   3   8
TORSDOF 0
ENDMDL
MODEL 4
REMARK VINA RESULT:    -3.261      1.632      2.258
REMARK INTER + INTRA:          -3.177
REMARK INTER:                  -4.027
REMARK INTRA:                   0.850
REMARK UNBOUND:                 0.846
REMARK SMILES CC1=CC=CC(C)(C)CC1=O
REMARK SMILES IDX 1 1 2 2 3 3 10 4 11 5 9 6 4 8 5 9 6 10 7 11 8 12
REMARK H PARENT
REMARK Flexibility Score: 80.00
ROOT
ATOM      1  C   UNL     1      16.388  32.528  29.014  1.00  0.00     0.048 C 
ATOM      2  C   UNL     1      17.634  31.821  29.494  1.00  0.00    -0.008 C 
ATOM      3  C   UNL     1      17.515  30.539  29.901  1.00  0.00     0.007 C 
ENDROOT
BRANCH   2   4
ATOM      4  C   UNL     1      18.906  32.588  29.424  1.00  0.00     0.159 C 
ATOM      5  O   UNL     1      18.864  33.795  29.056  1.00  0.00    -0.295 OA
BRANCH   4   6
ATOM      6  C   UNL     1      20.255  32.009  29.727  1.00  0.00     0.091 CG0
ATOM      7  G   UNL     1      20.334  31.275  31.084  1.00  0.00     0.000 G0
ENDBRANCH   4   6
ENDBRANCH   2   4
BRANCH   3   8
ATOM      8  C   UNL     1      18.544  29.613  30.426  1.00  0.00    -0.003 C 
ATOM      9  C   UNL     1      19.736  29.905  30.958  1.00  0.00    -0.020 C 
BRANCH   9  10
ATOM     10  C   UNL     1      20.343  31.283  31.083  1.00  0.00    -0.010 CG0
ATOM     11  C   UNL     1      21.838  31.122  31.438  1.00  0.00     0.016 C 
ATOM     12  C   UNL     1      19.664  32.065  32.231  1.00  0.00     0.016 C 
ATOM     13  G   UNL     1      20.245  32.013  29.725  1.00  0.00     0.000 G0
ENDBRANCH   9  10
ENDBRANCH   3   8
TORSDOF 0
ENDMDL
MODEL 5
REMARK VINA RESULT:    -3.214      2.160      4.025
REMARK INTER + INTRA:          -3.120
REMARK INTER:                  -3.979
REMARK INTRA:                   0.860
REMARK UNBOUND:                 0.846
REMARK SMILES CC1=CC=CC(C)(C)CC1=O
REMARK SMILES IDX 1 1 2 2 3 3 10 4 11 5 9 6 4 8 5 9 6 10 7 11 8 12
REMARK H PARENT
REMARK Flexibility Score: 80.00
ROOT
ATOM      1  C   UNL     1      19.857  33.364  29.375  1.00  0.00     0.048 C 
ATOM      2  C   UNL     1      18.595  32.542  29.497  1.00  0.00    -0.008 C 
ATOM      3  C   UNL     1      17.412  33.177  29.349  1.00  0.00     0.007 C 
ENDROOT
BRANCH   2   4
ATOM      4  C   UNL     1      18.767  31.082  29.715  1.00  0.00     0.159 C 
ATOM      5  O   UNL     1      19.936  30.627  29.856  1.00  0.00    -0.295 OA
BRANCH   4   6
ATOM      6  C   UNL     1      17.638  30.096  29.744  1.00  0.00     0.091 CG0
ATOM      7  G   UNL     1      16.475  30.499  30.678  1.00  0.00     0.000 G0
ENDBRANCH   4   6
ENDBRANCH   2   4
BRANCH   3   8
ATOM      8  C   UNL     1      16.034  32.641  29.427  1.00  0.00    -0.003 C 
ATOM      9  C   UNL     1      15.607  31.518  30.016  1.00  0.00    -0.020 C 
BRANCH   9  10
ATOM     10  C   UNL     1      16.473  30.483  30.694  1.00  0.00    -0.010 CG0
ATOM     11  C   UNL     1      15.615  29.222  30.943  1.00  0.00     0.016 C 
ATOM     12  C   UNL     1      16.958  31.005  32.066  1.00  0.00     0.016 C 
ATOM     13  G   UNL     1      17.639  30.095  29.757  1.00  0.00     0.000 G0
ENDBRANCH   9  10
ENDBRANCH   3   8
TORSDOF 0
ENDMDL
MODEL 6
REMARK VINA RESULT:    -3.164      8.973     10.641
REMARK INTER + INTRA:          -3.057
REMARK INTER:                  -3.907
REMARK INTRA:                   0.850
REMARK UNBOUND:                 0.846
REMARK SMILES CC1=CC=CC(C)(C)CC1=O
REMARK SMILES IDX 1 1 2 2 3 3 10 4 11 5 9 6 4 8 5 9 6 10 7 11 8 12
REMARK H PARENT
REMARK Flexibility Score: 80.00
ROOT
ATOM      1  C   UNL     1      30.749  32.986  27.880  1.00  0.00     0.048 C 
ATOM      2  C   UNL     1      29.443  32.702  28.585  1.00  0.00    -0.008 C 
ATOM      3  C   UNL     1      28.747  33.752  29.071  1.00  0.00     0.007 C 
ENDROOT
BRANCH   2   4
ATOM      4  C   UNL     1      29.006  31.281  28.634  1.00  0.00     0.159 C 
ATOM      5  O   UNL     1      29.777  30.396  28.171  1.00  0.00    -0.295 OA
BRANCH   4   6
ATOM      6  C   UNL     1      27.681  30.827  29.168  1.00  0.00     0.091 CG0
ATOM      7  G   UNL     1      27.361  31.352  30.586  1.00  0.00     0.000 G0
ENDBRANCH   4   6
ENDBRANCH   2   4
BRANCH   3   8
ATOM      8  C   UNL     1      27.462  33.777  29.806  1.00  0.00    -0.003 C 
ATOM      9  C   UNL     1      26.866  32.787  30.480  1.00  0.00    -0.020 C 
BRANCH   9  10
ATOM     10  C   UNL     1      27.355  31.362  30.586  1.00  0.00    -0.010 CG0
ATOM     11  C   UNL     1      26.213  30.501  31.170  1.00  0.00     0.016 C 
ATOM     12  C   UNL     1      28.556  31.278  31.556  1.00  0.00     0.016 C 
ATOM     13  G   UNL     1      27.689  30.826  29.176  1.00  0.00     0.000 G0
ENDBRANCH   9  10
ENDBRANCH   3   8
TORSDOF 0
ENDMDL
MODEL 7
REMARK VINA RESULT:    -3.155      9.633     11.298
REMARK INTER + INTRA:          -3.046
REMARK INTER:                  -3.900
REMARK INTRA:                   0.854
REMARK UNBOUND:                 0.846
REMARK SMILES CC1=CC=CC(C)(C)CC1=O
REMARK SMILES IDX 1 1 2 2 3 3 10 4 11 5 9 6 4 8 5 9 6 10 7 11 8 12
REMARK H PARENT
REMARK Flexibility Score: 80.00
ROOT
ATOM      1  C   UNL     1      31.897  32.659  28.221  1.00  0.00     0.048 C 
ATOM      2  C   UNL     1      30.748  32.328  29.145  1.00  0.00    -0.008 C 
ATOM      3  C   UNL     1      30.954  31.395  30.099  1.00  0.00     0.007 C 
ENDROOT
BRANCH   2   4
ATOM      4  C   UNL     1      29.494  33.106  28.957  1.00  0.00     0.159 C 
ATOM      5  O   UNL     1      29.426  33.917  27.993  1.00  0.00    -0.295 OA
BRANCH   4   6
ATOM      6  C   UNL     1      28.306  33.018  29.867  1.00  0.00     0.091 CG0
ATOM      7  G   UNL     1      27.800  31.577  30.103  1.00  0.00     0.000 G0
ENDBRANCH   4   6
ENDBRANCH   2   4
BRANCH   3   8
ATOM      8  C   UNL     1      30.024  30.866  31.123  1.00  0.00    -0.003 C 
ATOM      9  C   UNL     1      28.687  30.904  31.135  1.00  0.00    -0.020 C 
BRANCH   9  10
ATOM     10  C   UNL     1      27.806  31.575  30.109  1.00  0.00    -0.010 CG0
ATOM     11  C   UNL     1      26.373  31.659  30.682  1.00  0.00     0.016 C 
ATOM     12  C   UNL     1      27.750  30.731  28.815  1.00  0.00     0.016 C 
ATOM     13  G   UNL     1      28.310  33.014  29.860  1.00  0.00     0.000 G0
ENDBRANCH   9  10
ENDBRANCH   3   8
TORSDOF 0
ENDMDL
MODEL 8
REMARK VINA RESULT:    -3.124      1.625      2.420
REMARK INTER + INTRA:          -3.008
REMARK INTER:                  -3.862
REMARK INTRA:                   0.854
REMARK UNBOUND:                 0.846
REMARK SMILES CC1=CC=CC(C)(C)CC1=O
REMARK SMILES IDX 1 1 2 2 3 3 10 4 11 5 9 6 4 8 5 9 6 10 7 11 8 12
REMARK H PARENT
REMARK Flexibility Score: 80.00
ROOT
ATOM      1  C   UNL     1      15.097  30.075  29.632  1.00  0.00     0.048 C 
ATOM      2  C   UNL     1      16.221  31.022  29.980  1.00  0.00    -0.008 C 
ATOM      3  C   UNL     1      16.385  32.118  29.207  1.00  0.00     0.007 C 
ENDROOT
BRANCH   2   4
ATOM      4  C   UNL     1      17.024  30.692  31.187  1.00  0.00     0.159 C 
ATOM      5  O   UNL     1      16.781  29.614  31.797  1.00  0.00    -0.295 OA
BRANCH   4   6
ATOM      6  C   UNL     1      18.091  31.578  31.756  1.00  0.00     0.091 CG0
ATOM      7  G   UNL     1      19.137  32.048  30.721  1.00  0.00     0.000 G0
ENDBRANCH   4   6
ENDBRANCH   2   4
BRANCH   3   8
ATOM      8  C   UNL     1      17.392  33.199  29.299  1.00  0.00    -0.003 C 
ATOM      9  C   UNL     1      18.582  33.182  29.910  1.00  0.00    -0.020 C 
BRANCH   9  10
ATOM     10  C   UNL     1      19.148  32.043  30.726  1.00  0.00    -0.010 CG0
ATOM     11  C   UNL     1      20.374  32.569  31.505  1.00  0.00     0.016 C 
ATOM     12  C   UNL     1      19.629  30.905  29.796  1.00  0.00     0.016 C 
ATOM     13  G   UNL     1      18.093  31.570  31.750  1.00  0.00     0.000 G0
ENDBRANCH   9  10
ENDBRANCH   3   8
TORSDOF 0
ENDMDL
MODEL 9
REMARK VINA RESULT:    -2.795     11.278     13.041
REMARK INTER + INTRA:          -2.603
REMARK INTER:                  -3.454
REMARK INTRA:                   0.852
REMARK UNBOUND:                 0.846
REMARK SMILES CC1=CC=CC(C)(C)CC1=O
REMARK SMILES IDX 1 1 2 2 3 3 10 4 11 5 9 6 4 8 5 9 6 10 7 11 8 12
REMARK H PARENT
REMARK Flexibility Score: 80.00
ROOT
ATOM      1  C   UNL     1      33.723  33.720  29.967  1.00  0.00     0.048 C 
ATOM      2  C   UNL     1      32.363  33.108  29.726  1.00  0.00    -0.008 C 
ATOM      3  C   UNL     1      31.679  33.503  28.630  1.00  0.00     0.007 C 
ENDROOT
BRANCH   2   4
ATOM      4  C   UNL     1      31.915  32.073  30.695  1.00  0.00     0.159 C 
ATOM      5  O   UNL     1      32.644  31.825  31.694  1.00  0.00    -0.295 OA
BRANCH   4   6
ATOM      6  C   UNL     1      30.659  31.268  30.544  1.00  0.00     0.091 CG0
ATOM      7  G   UNL     1      29.395  32.117  30.283  1.00  0.00     0.000 G0
ENDBRANCH   4   6
ENDBRANCH   2   4
BRANCH   3   8
ATOM      8  C   UNL     1      30.340  33.092  28.151  1.00  0.00    -0.003 C 
ATOM      9  C   UNL     1      29.342  32.530  28.843  1.00  0.00    -0.020 C 
BRANCH   9  10
ATOM     10  C   UNL     1      29.388  32.114  30.294  1.00  0.00    -0.010 CG0
ATOM     11  C   UNL     1      28.161  31.220  30.580  1.00  0.00     0.016 C 
ATOM     12  C   UNL     1      29.294  33.356  31.210  1.00  0.00     0.016 C 
ATOM     13  G   UNL     1      30.662  31.279  30.550  1.00  0.00     0.000 G0
ENDBRANCH   9  10
ENDBRANCH   3   8
TORSDOF 0
ENDMDL
