MODEL 1
REMARK VINA RESULT:    -5.789      0.000      0.000
REMARK INTER + INTRA:          -5.789
REMARK INTER:                  -5.789
REMARK INTRA:                   0.000
REMARK UNBOUND:                 0.000
REMARK SMILES C=C1CCC[C@@]2(C)CC(=O)C(=C(C)C)C[C@H]12
REMARK SMILES IDX 13 1 12 2 11 3 15 4 16 5 2 6 1 7 3 8 4 9 5 10 6 11 8 12 9 13
REMARK SMILES IDX 10 14 7 15 14 16
REMARK H PARENT
REMARK Flexibility Score: inf
ROOT
ATOM      1  C   UNL     1      44.746  26.526  22.649  1.00  0.00     0.039 C 
ATOM      2  C   UNL     1      44.025  25.254  22.267  1.00  0.00    -0.070 C 
ATOM      3  C   UNL     1      44.688  24.209  21.686  1.00  0.00    -0.006 C 
ATOM      4  C   UNL     1      46.186  24.276  21.424  1.00  0.00     0.047 C 
ATOM      5  C   UNL     1      46.869  22.887  21.491  1.00  0.00     0.025 C 
ATOM      6  C   UNL     1      48.369  22.887  21.195  1.00  0.00    -0.073 C 
ATOM      7  C   UNL     1      49.078  23.989  20.885  1.00  0.00     0.008 C 
ATOM      8  C   UNL     1      49.072  21.554  21.312  1.00  0.00     0.031 C 
ATOM      9  C   UNL     1      48.358  20.499  20.461  1.00  0.00     0.005 C 
ATOM     10  C   UNL     1      46.852  20.447  20.771  1.00  0.00     0.008 C 
ATOM     11  C   UNL     1      46.145  21.826  20.603  1.00  0.00    -0.018 C 
ATOM     12  C   UNL     1      44.685  21.682  21.098  1.00  0.00     0.088 C 
ATOM     13  C   UNL     1      43.977  23.004  21.167  1.00  0.00     0.159 C 
ATOM     14  O   UNL     1      42.784  23.071  20.766  1.00  0.00    -0.295 OA
ATOM     15  C   UNL     1      46.142  22.231  19.104  1.00  0.00     0.012 C 
ATOM     16  C   UNL     1      42.549  25.180  22.588  1.00  0.00     0.039 C 
ENDROOT
TORSDOF 0
ENDMDL
MODEL 2
REMARK VINA RESULT:    -5.461      4.837      7.561
REMARK INTER + INTRA:          -5.461
REMARK INTER:                  -5.461
REMARK INTRA:                   0.000
REMARK UNBOUND:                 0.000
REMARK SMILES C=C1CCC[C@@]2(C)CC(=O)C(=C(C)C)C[C@H]12
REMARK SMILES IDX 13 1 12 2 11 3 15 4 16 5 2 6 1 7 3 8 4 9 5 10 6 11 8 12 9 13
REMARK SMILES IDX 10 14 7 15 14 16
REMARK H PARENT
REMARK Flexibility Score: inf
ROOT
ATOM      1  C   UNL     1      50.988  22.632  19.269  1.00  0.00     0.039 C 
ATOM      2  C   UNL     1      50.382  23.717  20.130  1.00  0.00    -0.070 C 
ATOM      3  C   UNL     1      50.380  25.023  19.729  1.00  0.00    -0.006 C 
ATOM      4  C   UNL     1      50.966  25.435  18.386  1.00  0.00     0.047 C 
ATOM      5  C   UNL     1      50.263  26.676  17.780  1.00  0.00     0.025 C 
ATOM      6  C   UNL     1      50.838  27.161  16.448  1.00  0.00    -0.073 C 
ATOM      7  C   UNL     1      51.883  26.587  15.822  1.00  0.00     0.008 C 
ATOM      8  C   UNL     1      50.133  28.333  15.805  1.00  0.00     0.031 C 
ATOM      9  C   UNL     1      50.020  29.495  16.795  1.00  0.00     0.005 C 
ATOM     10  C   UNL     1      49.403  29.045  18.131  1.00  0.00     0.008 C 
ATOM     11  C   UNL     1      50.174  27.861  18.791  1.00  0.00    -0.018 C 
ATOM     12  C   UNL     1      49.370  27.394  20.029  1.00  0.00     0.088 C 
ATOM     13  C   UNL     1      49.922  26.129  20.620  1.00  0.00     0.159 C 
ATOM     14  O   UNL     1      50.001  26.034  21.874  1.00  0.00    -0.295 OA
ATOM     15  C   UNL     1      51.579  28.343  19.244  1.00  0.00     0.012 C 
ATOM     16  C   UNL     1      49.750  23.283  21.433  1.00  0.00     0.039 C 
ENDROOT
TORSDOF 0
ENDMDL
MODEL 3
REMARK VINA RESULT:    -5.423      3.473      6.015
REMARK INTER + INTRA:          -5.423
REMARK INTER:                  -5.423
REMARK INTRA:                   0.000
REMARK UNBOUND:                 0.000
REMARK SMILES C=C1CCC[C@@]2(C)CC(=O)C(=C(C)C)C[C@H]12
REMARK SMILES IDX 13 1 12 2 11 3 15 4 16 5 2 6 1 7 3 8 4 9 5 10 6 11 8 12 9 13
REMARK SMILES IDX 10 14 7 15 14 16
REMARK H PARENT
REMARK Flexibility Score: inf
ROOT
ATOM      1  C   UNL     1      46.378  23.385  21.491  1.00  0.00     0.039 C 
ATOM      2  C   UNL     1      47.754  22.955  21.033  1.00  0.00    -0.070 C 
ATOM      3  C   UNL     1      48.807  23.826  21.036  1.00  0.00    -0.006 C 
ATOM      4  C   UNL     1      48.642  25.259  21.524  1.00  0.00     0.047 C 
ATOM      5  C   UNL     1      49.938  25.832  22.151  1.00  0.00     0.025 C 
ATOM      6  C   UNL     1      49.844  27.284  22.622  1.00  0.00    -0.073 C 
ATOM      7  C   UNL     1      48.740  28.044  22.509  1.00  0.00     0.008 C 
ATOM      8  C   UNL     1      51.076  27.848  23.292  1.00  0.00     0.031 C 
ATOM      9  C   UNL     1      52.305  27.653  22.399  1.00  0.00     0.005 C 
ATOM     10  C   UNL     1      52.449  26.190  21.946  1.00  0.00     0.008 C 
ATOM     11  C   UNL     1      51.179  25.646  21.223  1.00  0.00    -0.018 C 
ATOM     12  C   UNL     1      51.382  24.133  20.966  1.00  0.00     0.088 C 
ATOM     13  C   UNL     1      50.135  23.472  20.455  1.00  0.00     0.159 C 
ATOM     14  O   UNL     1      50.237  22.631  19.523  1.00  0.00    -0.295 OA
ATOM     15  C   UNL     1      51.001  26.378  19.864  1.00  0.00     0.012 C 
ATOM     16  C   UNL     1      47.914  21.514  20.609  1.00  0.00     0.039 C 
ENDROOT
TORSDOF 0
ENDMDL
MODEL 4
REMARK VINA RESULT:    -5.241      2.348      4.368
REMARK INTER + INTRA:          -5.241
REMARK INTER:                  -5.241
REMARK INTRA:                   0.000
REMARK UNBOUND:                 0.000
REMARK SMILES C=C1CCC[C@@]2(C)CC(=O)C(=C(C)C)C[C@H]12
REMARK SMILES IDX 13 1 12 2 11 3 15 4 16 5 2 6 1 7 3 8 4 9 5 10 6 11 8 12 9 13
REMARK SMILES IDX 10 14 7 15 14 16
REMARK H PARENT
REMARK Flexibility Score: inf
ROOT
ATOM      1  C   UNL     1      44.441  23.555  21.107  1.00  0.00     0.039 C 
ATOM      2  C   UNL     1      45.627  22.617  21.097  1.00  0.00    -0.070 C 
ATOM      3  C   UNL     1      46.907  23.094  21.066  1.00  0.00    -0.006 C 
ATOM      4  C   UNL     1      47.191  24.589  21.065  1.00  0.00     0.047 C 
ATOM      5  C   UNL     1      48.532  24.945  21.754  1.00  0.00     0.025 C 
ATOM      6  C   UNL     1      48.890  26.432  21.747  1.00  0.00    -0.073 C 
ATOM      7  C   UNL     1      48.129  27.390  21.185  1.00  0.00     0.008 C 
ATOM      8  C   UNL     1      50.164  26.815  22.466  1.00  0.00     0.031 C 
ATOM      9  C   UNL     1      51.338  25.978  21.950  1.00  0.00     0.005 C 
ATOM     10  C   UNL     1      51.022  24.473  21.987  1.00  0.00     0.008 C 
ATOM     11  C   UNL     1      49.725  24.102  21.205  1.00  0.00    -0.018 C 
ATOM     12  C   UNL     1      49.425  22.603  21.454  1.00  0.00     0.088 C 
ATOM     13  C   UNL     1      48.088  22.194  20.908  1.00  0.00     0.159 C 
ATOM     14  O   UNL     1      47.993  21.090  20.308  1.00  0.00    -0.295 OA
ATOM     15  C   UNL     1      49.949  24.336  19.686  1.00  0.00     0.012 C 
ATOM     16  C   UNL     1      45.329  21.137  21.159  1.00  0.00     0.039 C 
ENDROOT
TORSDOF 0
ENDMDL
MODEL 5
REMARK VINA RESULT:    -5.207      4.223      6.504
REMARK INTER + INTRA:          -5.207
REMARK INTER:                  -5.207
REMARK INTRA:                   0.000
REMARK UNBOUND:                 0.000
REMARK SMILES C=C1CCC[C@@]2(C)CC(=O)C(=C(C)C)C[C@H]12
REMARK SMILES IDX 13 1 12 2 11 3 15 4 16 5 2 6 1 7 3 8 4 9 5 10 6 11 8 12 9 13
REMARK SMILES IDX 10 14 7 15 14 16
REMARK H PARENT
REMARK Flexibility Score: inf
ROOT
ATOM      1  C   UNL     1      50.366  28.715  17.416  1.00  0.00     0.039 C 
ATOM      2  C   UNL     1      50.734  27.291  17.064  1.00  0.00    -0.070 C 
ATOM      3  C   UNL     1      50.620  26.282  17.978  1.00  0.00    -0.006 C 
ATOM      4  C   UNL     1      50.092  26.546  19.381  1.00  0.00     0.047 C 
ATOM      5  C   UNL     1      49.349  25.327  19.982  1.00  0.00     0.025 C 
ATOM      6  C   UNL     1      48.832  25.521  21.408  1.00  0.00    -0.073 C 
ATOM      7  C   UNL     1      49.000  26.648  22.126  1.00  0.00     0.008 C 
ATOM      8  C   UNL     1      48.051  24.369  21.997  1.00  0.00     0.031 C 
ATOM      9  C   UNL     1      48.856  23.070  21.891  1.00  0.00     0.005 C 
ATOM     10  C   UNL     1      49.352  22.827  20.454  1.00  0.00     0.008 C 
ATOM     11  C   UNL     1      50.188  24.014  19.887  1.00  0.00    -0.018 C 
ATOM     12  C   UNL     1      50.485  23.725  18.396  1.00  0.00     0.088 C 
ATOM     13  C   UNL     1      51.113  24.900  17.704  1.00  0.00     0.159 C 
ATOM     14  O   UNL     1      52.066  24.692  16.906  1.00  0.00    -0.295 OA
ATOM     15  C   UNL     1      51.528  24.126  20.665  1.00  0.00     0.012 C 
ATOM     16  C   UNL     1      51.200  27.035  15.649  1.00  0.00     0.039 C 
ENDROOT
TORSDOF 0
ENDMDL
MODEL 6
REMARK VINA RESULT:    -5.150      1.527      5.029
REMARK INTER + INTRA:          -5.150
REMARK INTER:                  -5.150
REMARK INTRA:                   0.000
REMARK UNBOUND:                 0.000
REMARK SMILES C=C1CCC[C@@]2(C)CC(=O)C(=C(C)C)C[C@H]12
REMARK SMILES IDX 13 1 12 2 11 3 15 4 16 5 2 6 1 7 3 8 4 9 5 10 6 11 8 12 9 13
REMARK SMILES IDX 10 14 7 15 14 16
REMARK H PARENT
REMARK Flexibility Score: inf
ROOT
ATOM      1  C   UNL     1      49.367  23.003  21.807  1.00  0.00     0.039 C 
ATOM      2  C   UNL     1      48.006  22.564  21.315  1.00  0.00    -0.070 C 
ATOM      3  C   UNL     1      46.910  23.371  21.447  1.00  0.00    -0.006 C 
ATOM      4  C   UNL     1      47.021  24.754  22.072  1.00  0.00     0.047 C 
ATOM      5  C   UNL     1      45.987  25.756  21.500  1.00  0.00     0.025 C 
ATOM      6  C   UNL     1      46.025  27.153  22.121  1.00  0.00    -0.073 C 
ATOM      7  C   UNL     1      46.871  27.521  23.101  1.00  0.00     0.008 C 
ATOM      8  C   UNL     1      45.067  28.167  21.540  1.00  0.00     0.031 C 
ATOM      9  C   UNL     1      43.638  27.615  21.547  1.00  0.00     0.005 C 
ATOM     10  C   UNL     1      43.563  26.227  20.887  1.00  0.00     0.008 C 
ATOM     11  C   UNL     1      44.532  25.191  21.533  1.00  0.00    -0.018 C 
ATOM     12  C   UNL     1      44.486  23.896  20.685  1.00  0.00     0.088 C 
ATOM     13  C   UNL     1      45.534  22.906  21.105  1.00  0.00     0.159 C 
ATOM     14  O   UNL     1      45.219  21.688  21.174  1.00  0.00    -0.295 OA
ATOM     15  C   UNL     1      44.067  24.874  22.980  1.00  0.00     0.012 C 
ATOM     16  C   UNL     1      47.924  21.213  20.643  1.00  0.00     0.039 C 
ENDROOT
TORSDOF 0
ENDMDL
MODEL 7
REMARK VINA RESULT:    -5.105      4.182      6.061
REMARK INTER + INTRA:          -5.105
REMARK INTER:                  -5.105
REMARK INTRA:                   0.000
REMARK UNBOUND:                 0.000
REMARK SMILES C=C1CCC[C@@]2(C)CC(=O)C(=C(C)C)C[C@H]12
REMARK SMILES IDX 13 1 12 2 11 3 15 4 16 5 2 6 1 7 3 8 4 9 5 10 6 11 8 12 9 13
REMARK SMILES IDX 10 14 7 15 14 16
REMARK H PARENT
REMARK Flexibility Score: inf
ROOT
ATOM      1  C   UNL     1      47.486  29.593  19.399  1.00  0.00     0.039 C 
ATOM      2  C   UNL     1      48.848  29.012  19.094  1.00  0.00    -0.070 C 
ATOM      3  C   UNL     1      49.292  27.880  19.718  1.00  0.00    -0.006 C 
ATOM      4  C   UNL     1      48.422  27.145  20.729  1.00  0.00     0.047 C 
ATOM      5  C   UNL     1      48.695  25.620  20.758  1.00  0.00     0.025 C 
ATOM      6  C   UNL     1      47.877  24.835  21.785  1.00  0.00    -0.073 C 
ATOM      7  C   UNL     1      46.986  25.391  22.625  1.00  0.00     0.008 C 
ATOM      8  C   UNL     1      48.080  23.337  21.794  1.00  0.00     0.031 C 
ATOM      9  C   UNL     1      49.569  23.002  21.924  1.00  0.00     0.005 C 
ATOM     10  C   UNL     1      50.412  23.745  20.873  1.00  0.00     0.008 C 
ATOM     11  C   UNL     1      50.213  25.291  20.913  1.00  0.00    -0.018 C 
ATOM     12  C   UNL     1      50.976  25.906  19.714  1.00  0.00     0.088 C 
ATOM     13  C   UNL     1      50.684  27.368  19.546  1.00  0.00     0.159 C 
ATOM     14  O   UNL     1      51.637  28.146  19.272  1.00  0.00    -0.295 OA
ATOM     15  C   UNL     1      50.796  25.857  22.237  1.00  0.00     0.012 C 
ATOM     16  C   UNL     1      49.676  29.719  18.046  1.00  0.00     0.039 C 
ENDROOT
TORSDOF 0
ENDMDL
MODEL 8
REMARK VINA RESULT:    -5.010      1.886      5.721
REMARK INTER + INTRA:          -5.010
REMARK INTER:                  -5.010
REMARK INTRA:                   0.000
REMARK UNBOUND:                 0.000
REMARK SMILES C=C1CCC[C@@]2(C)CC(=O)C(=C(C)C)C[C@H]12
REMARK SMILES IDX 13 1 12 2 11 3 15 4 16 5 2 6 1 7 3 8 4 9 5 10 6 11 8 12 9 13
REMARK SMILES IDX 10 14 7 15 14 16
REMARK H PARENT
REMARK Flexibility Score: inf
ROOT
ATOM      1  C   UNL     1      46.343  21.504  19.867  1.00  0.00     0.039 C 
ATOM      2  C   UNL     1      47.056  22.487  20.767  1.00  0.00    -0.070 C 
ATOM      3  C   UNL     1      46.407  23.570  21.291  1.00  0.00    -0.006 C 
ATOM      4  C   UNL     1      44.931  23.816  21.007  1.00  0.00     0.047 C 
ATOM      5  C   UNL     1      44.211  24.545  22.169  1.00  0.00     0.025 C 
ATOM      6  C   UNL     1      42.734  24.855  21.923  1.00  0.00    -0.073 C 
ATOM      7  C   UNL     1      42.075  24.545  20.791  1.00  0.00     0.008 C 
ATOM      8  C   UNL     1      41.991  25.512  23.064  1.00  0.00     0.031 C 
ATOM      9  C   UNL     1      42.734  26.769  23.528  1.00  0.00     0.005 C 
ATOM     10  C   UNL     1      44.215  26.476  23.826  1.00  0.00     0.008 C 
ATOM     11  C   UNL     1      44.965  25.835  22.619  1.00  0.00    -0.018 C 
ATOM     12  C   UNL     1      46.385  25.438  23.090  1.00  0.00     0.088 C 
ATOM     13  C   UNL     1      47.120  24.631  22.060  1.00  0.00     0.159 C 
ATOM     14  O   UNL     1      48.338  24.881  21.854  1.00  0.00    -0.295 OA
ATOM     15  C   UNL     1      45.078  26.871  21.467  1.00  0.00     0.012 C 
ATOM     16  C   UNL     1      48.505  22.196  21.087  1.00  0.00     0.039 C 
ENDROOT
TORSDOF 0
ENDMDL
