MODEL 1
REMARK VINA RESULT:    -5.968      0.000      0.000
REMARK INTER + INTRA:          -7.754
REMARK INTER:                  -7.364
REMARK INTRA:                  -0.391
REMARK UNBOUND:                -0.391
REMARK SMILES COc1cc(-c2oc3cc(O)cc(O)c3c(=O)c2O)ccc1O
REMARK SMILES IDX 6 1 18 2 16 3 17 4 15 5 13 6 12 7 10 8 9 9 8 10 7 11 5 12
REMARK SMILES IDX 3 13 22 14 4 15 21 16 20 17 2 18 1 19 23 20 19 22 14 24
REMARK SMILES IDX 11 26
REMARK H PARENT 23 21 19 23 14 25 11 27
REMARK Flexibility Score: inf
ROOT
ATOM      1  C   UNL     1      18.284   1.098 -23.840  1.00  0.00     0.180 A 
ATOM      2  C   UNL     1      16.981   0.863 -23.365  1.00  0.00     0.208 A 
ATOM      3  C   UNL     1      16.085   1.940 -23.277  1.00  0.00     0.238 A 
ATOM      4  O   UNL     1      14.905   1.715 -22.904  1.00  0.00    -0.285 OA
ATOM      5  C   UNL     1      16.507   3.240 -23.649  1.00  0.00     0.111 A 
ATOM      6  C   UNL     1      15.695   4.411 -23.562  1.00  0.00     0.134 A 
ATOM      7  C   UNL     1      16.172   5.622 -24.080  1.00  0.00     0.093 A 
ATOM      8  C   UNL     1      17.456   5.717 -24.621  1.00  0.00     0.123 A 
ATOM      9  C   UNL     1      18.277   4.594 -24.656  1.00  0.00     0.094 A 
ATOM     10  C   UNL     1      17.817   3.363 -24.180  1.00  0.00     0.146 A 
ATOM     11  O   UNL     1      18.629   2.315 -24.242  1.00  0.00    -0.452 OA
ENDROOT
BRANCH   1  12
ATOM     12  C   UNL     1      19.293   0.017 -23.938  1.00  0.00     0.025 A 
ATOM     13  C   UNL     1      21.113  -1.254 -22.915  1.00  0.00     0.161 A 
ATOM     14  C   UNL     1      21.180  -2.064 -24.057  1.00  0.00     0.157 A 
ATOM     15  C   UNL     1      20.161  -0.218 -22.858  1.00  0.00     0.062 A 
ATOM     16  C   UNL     1      20.302  -1.846 -25.125  1.00  0.00     0.051 A 
ATOM     17  C   UNL     1      19.360  -0.818 -25.065  1.00  0.00     0.016 A 
BRANCH  13  18
ATOM     18  O   UNL     1      22.006  -1.509 -21.861  1.00  0.00    -0.493 OA
ATOM     19  C   UNL     1      21.612  -1.813 -20.527  1.00  0.00     0.278 C 
ENDBRANCH  13  18
BRANCH  14  20
ATOM     20  O   UNL     1      22.122  -3.091 -24.119  1.00  0.00    -0.504 OA
ATOM     21  H   UNL     1      23.115  -2.905 -24.044  1.00  0.00     0.293 HD
ENDBRANCH  14  20
ENDBRANCH   1  12
BRANCH   2  22
ATOM     22  O   UNL     1      16.580  -0.431 -23.025  1.00  0.00    -0.502 OA
ATOM     23  H   UNL     1      17.195  -1.085 -22.556  1.00  0.00     0.293 HD
ENDBRANCH   2  22
BRANCH   6  24
ATOM     24  O   UNL     1      14.435   4.443 -22.958  1.00  0.00    -0.507 OA
ATOM     25  H   UNL     1      13.570   4.630 -23.441  1.00  0.00     0.293 HD
ENDBRANCH   6  24
BRANCH   8  26
ATOM     26  O   UNL     1      17.929   6.930 -25.119  1.00  0.00    -0.508 OA
ATOM     27  H   UNL     1      18.555   6.968 -25.915  1.00  0.00     0.293 HD
ENDBRANCH   8  26
TORSDOF 6
ENDMDL
MODEL 2
REMARK VINA RESULT:    -4.466     10.362     14.009
REMARK INTER + INTRA:          -5.901
REMARK INTER:                  -6.048
REMARK INTRA:                   0.147
REMARK UNBOUND:                -0.391
REMARK SMILES COc1cc(-c2oc3cc(O)cc(O)c3c(=O)c2O)ccc1O
REMARK SMILES IDX 6 1 18 2 16 3 17 4 15 5 13 6 12 7 10 8 9 9 8 10 7 11 5 12
REMARK SMILES IDX 3 13 22 14 4 15 21 16 20 17 2 18 1 19 23 20 19 22 14 24
REMARK SMILES IDX 11 26
REMARK H PARENT 23 21 19 23 14 25 11 27
REMARK Flexibility Score: inf
ROOT
ATOM      1  C   UNL     1       6.869  -2.044 -24.594  1.00  0.00     0.180 A 
ATOM      2  C   UNL     1       8.066  -1.351 -24.844  1.00  0.00     0.208 A 
ATOM      3  C   UNL     1       9.276  -2.062 -24.847  1.00  0.00     0.238 A 
ATOM      4  O   UNL     1      10.338  -1.446 -25.125  1.00  0.00    -0.285 OA
ATOM      5  C   UNL     1       9.277  -3.453 -24.582  1.00  0.00     0.111 A 
ATOM      6  C   UNL     1      10.449  -4.266 -24.520  1.00  0.00     0.134 A 
ATOM      7  C   UNL     1      10.320  -5.654 -24.381  1.00  0.00     0.093 A 
ATOM      8  C   UNL     1       9.065  -6.249 -24.237  1.00  0.00     0.123 A 
ATOM      9  C   UNL     1       7.919  -5.458 -24.237  1.00  0.00     0.094 A 
ATOM     10  C   UNL     1       8.013  -4.075 -24.410  1.00  0.00     0.146 A 
ATOM     11  O   UNL     1       6.895  -3.359 -24.415  1.00  0.00    -0.452 OA
ENDROOT
BRANCH   1  12
ATOM     12  C   UNL     1       5.556  -1.358 -24.551  1.00  0.00     0.025 A 
ATOM     13  C   UNL     1       4.241   0.623 -23.987  1.00  0.00     0.161 A 
ATOM     14  C   UNL     1       3.096   0.004 -24.508  1.00  0.00     0.157 A 
ATOM     15  C   UNL     1       5.471  -0.061 -24.018  1.00  0.00     0.062 A 
ATOM     16  C   UNL     1       3.182  -1.280 -25.059  1.00  0.00     0.051 A 
ATOM     17  C   UNL     1       4.403  -1.955 -25.088  1.00  0.00     0.016 A 
BRANCH  13  18
ATOM     18  O   UNL     1       4.116   1.915 -23.450  1.00  0.00    -0.493 OA
ATOM     19  C   UNL     1       4.120   2.213 -22.057  1.00  0.00     0.278 C 
ENDBRANCH  13  18
BRANCH  14  20
ATOM     20  O   UNL     1       1.875   0.677 -24.479  1.00  0.00    -0.504 OA
ATOM     21  H   UNL     1       1.004   0.203 -24.686  1.00  0.00     0.293 HD
ENDBRANCH  14  20
ENDBRANCH   1  12
BRANCH   2  22
ATOM     22  O   UNL     1       8.040   0.018 -25.125  1.00  0.00    -0.502 OA
ATOM     23  H   UNL     1       7.414   0.658 -24.649  1.00  0.00     0.293 HD
ENDBRANCH   2  22
BRANCH   6  24
ATOM     24  O   UNL     1      11.752  -3.760 -24.562  1.00  0.00    -0.507 OA
ATOM     25  H   UNL     1      12.252  -3.531 -25.406  1.00  0.00     0.293 HD
ENDBRANCH   6  24
BRANCH   8  26
ATOM     26  O   UNL     1       8.947  -7.629 -24.083  1.00  0.00    -0.508 OA
ATOM     27  H   UNL     1       9.698  -8.184 -23.689  1.00  0.00     0.293 HD
ENDBRANCH   8  26
TORSDOF 6
ENDMDL
MODEL 3
REMARK VINA RESULT:    -4.333      1.316      2.092
REMARK INTER + INTRA:          -5.737
REMARK INTER:                  -5.645
REMARK INTRA:                  -0.092
REMARK UNBOUND:                -0.391
REMARK SMILES COc1cc(-c2oc3cc(O)cc(O)c3c(=O)c2O)ccc1O
REMARK SMILES IDX 6 1 18 2 16 3 17 4 15 5 13 6 12 7 10 8 9 9 8 10 7 11 5 12
REMARK SMILES IDX 3 13 22 14 4 15 21 16 20 17 2 18 1 19 23 20 19 22 14 24
REMARK SMILES IDX 11 26
REMARK H PARENT 23 21 19 23 14 25 11 27
REMARK Flexibility Score: inf
ROOT
ATOM      1  C   UNL     1      17.664   1.464 -23.714  1.00  0.00     0.180 A 
ATOM      2  C   UNL     1      16.426   0.879 -24.035  1.00  0.00     0.208 A 
ATOM      3  C   UNL     1      15.374   1.704 -24.463  1.00  0.00     0.238 A 
ATOM      4  O   UNL     1      14.286   1.170 -24.801  1.00  0.00    -0.285 OA
ATOM      5  C   UNL     1      15.568   3.105 -24.549  1.00  0.00     0.111 A 
ATOM      6  C   UNL     1      14.560   4.040 -24.933  1.00  0.00     0.134 A 
ATOM      7  C   UNL     1      14.900   5.387 -25.110  1.00  0.00     0.093 A 
ATOM      8  C   UNL     1      16.195   5.842 -24.854  1.00  0.00     0.123 A 
ATOM      9  C   UNL     1      17.170   4.948 -24.422  1.00  0.00     0.094 A 
ATOM     10  C   UNL     1      16.872   3.591 -24.271  1.00  0.00     0.146 A 
ATOM     11  O   UNL     1      17.834   2.771 -23.868  1.00  0.00    -0.452 OA
ENDROOT
BRANCH   1  12
ATOM     12  C   UNL     1      18.812   0.661 -23.232  1.00  0.00     0.025 A 
ATOM     13  C   UNL     1      20.437  -1.123 -23.622  1.00  0.00     0.161 A 
ATOM     14  C   UNL     1      21.029  -0.846 -22.383  1.00  0.00     0.157 A 
ATOM     15  C   UNL     1      19.331  -0.360 -24.046  1.00  0.00     0.062 A 
ATOM     16  C   UNL     1      20.527   0.184 -21.579  1.00  0.00     0.051 A 
ATOM     17  C   UNL     1      19.431   0.938 -22.002  1.00  0.00     0.016 A 
BRANCH  13  18
ATOM     18  O   UNL     1      20.974  -2.160 -24.403  1.00  0.00    -0.493 OA
ATOM     19  C   UNL     1      20.614  -3.532 -24.279  1.00  0.00     0.278 C 
ENDBRANCH  13  18
BRANCH  14  20
ATOM     20  O   UNL     1      22.124  -1.599 -21.958  1.00  0.00    -0.504 OA
ATOM     21  H   UNL     1      22.567  -2.279 -22.564  1.00  0.00     0.293 HD
ENDBRANCH  14  20
ENDBRANCH   1  12
BRANCH   2  22
ATOM     22  O   UNL     1      16.264  -0.507 -23.964  1.00  0.00    -0.502 OA
ATOM     23  H   UNL     1      15.431  -0.938 -23.581  1.00  0.00     0.293 HD
ENDBRANCH   2  22
BRANCH   6  24
ATOM     24  O   UNL     1      13.217   3.704 -25.124  1.00  0.00    -0.507 OA
ATOM     25  H   UNL     1      12.620   3.295 -24.422  1.00  0.00     0.293 HD
ENDBRANCH   6  24
BRANCH   8  26
ATOM     26  O   UNL     1      16.520   7.188 -25.017  1.00  0.00    -0.508 OA
ATOM     27  H   UNL     1      16.892   7.541 -25.892  1.00  0.00     0.293 HD
ENDBRANCH   8  26
TORSDOF 6
ENDMDL
MODEL 4
REMARK VINA RESULT:    -4.259     11.367     14.691
REMARK INTER + INTRA:          -5.646
REMARK INTER:                  -5.890
REMARK INTRA:                   0.244
REMARK UNBOUND:                -0.391
REMARK SMILES COc1cc(-c2oc3cc(O)cc(O)c3c(=O)c2O)ccc1O
REMARK SMILES IDX 6 1 18 2 16 3 17 4 15 5 13 6 12 7 10 8 9 9 8 10 7 11 5 12
REMARK SMILES IDX 3 13 22 14 4 15 21 16 20 17 2 18 1 19 23 20 19 22 14 24
REMARK SMILES IDX 11 26
REMARK H PARENT 23 21 19 23 14 25 11 27
REMARK Flexibility Score: inf
ROOT
ATOM      1  C   UNL     1       5.537  -2.813 -24.611  1.00  0.00     0.180 A 
ATOM      2  C   UNL     1       5.107  -4.147 -24.732  1.00  0.00     0.208 A 
ATOM      3  C   UNL     1       6.068  -5.169 -24.787  1.00  0.00     0.238 A 
ATOM      4  O   UNL     1       5.676  -6.364 -24.840  1.00  0.00    -0.285 OA
ATOM      5  C   UNL     1       7.446  -4.845 -24.738  1.00  0.00     0.111 A 
ATOM      6  C   UNL     1       8.505  -5.797 -24.827  1.00  0.00     0.134 A 
ATOM      7  C   UNL     1       9.828  -5.377 -24.635  1.00  0.00     0.093 A 
ATOM      8  C   UNL     1      10.132  -4.031 -24.424  1.00  0.00     0.123 A 
ATOM      9  C   UNL     1       9.110  -3.086 -24.395  1.00  0.00     0.094 A 
ATOM     10  C   UNL     1       7.778  -3.479 -24.546  1.00  0.00     0.146 A 
ATOM     11  O   UNL     1       6.833  -2.547 -24.502  1.00  0.00    -0.452 OA
ENDROOT
BRANCH   1  12
ATOM     12  C   UNL     1       4.584  -1.679 -24.571  1.00  0.00     0.025 A 
ATOM     13  C   UNL     1       4.116   0.649 -23.993  1.00  0.00     0.161 A 
ATOM     14  C   UNL     1       2.829   0.517 -24.531  1.00  0.00     0.157 A 
ATOM     15  C   UNL     1       4.993  -0.452 -24.023  1.00  0.00     0.062 A 
ATOM     16  C   UNL     1       2.426  -0.698 -25.098  1.00  0.00     0.051 A 
ATOM     17  C   UNL     1       3.298  -1.787 -25.125  1.00  0.00     0.016 A 
BRANCH  13  18
ATOM     18  O   UNL     1       4.486   1.886 -23.441  1.00  0.00    -0.493 OA
ATOM     19  C   UNL     1       4.590   2.147 -22.044  1.00  0.00     0.278 C 
ENDBRANCH  13  18
BRANCH  14  20
ATOM     20  O   UNL     1       1.955   1.604 -24.505  1.00  0.00    -0.504 OA
ATOM     21  H   UNL     1       2.280   2.549 -24.669  1.00  0.00     0.293 HD
ENDBRANCH  14  20
ENDBRANCH   1  12
BRANCH   2  22
ATOM     22  O   UNL     1       3.742  -4.445 -24.756  1.00  0.00    -0.502 OA
ATOM     23  H   UNL     1       3.220  -4.528 -25.620  1.00  0.00     0.293 HD
ENDBRANCH   2  22
BRANCH   6  24
ATOM     24  O   UNL     1       8.316  -7.150 -25.125  1.00  0.00    -0.507 OA
ATOM     25  H   UNL     1       8.258  -7.887 -24.440  1.00  0.00     0.293 HD
ENDBRANCH   6  24
BRANCH   8  26
ATOM     26  O   UNL     1      11.453  -3.620 -24.250  1.00  0.00    -0.508 OA
ATOM     27  H   UNL     1      12.224  -4.120 -24.678  1.00  0.00     0.293 HD
ENDBRANCH   8  26
TORSDOF 6
ENDMDL
MODEL 5
REMARK VINA RESULT:    -4.106      1.703      2.223
REMARK INTER + INTRA:          -5.457
REMARK INTER:                  -5.501
REMARK INTRA:                   0.044
REMARK UNBOUND:                -0.391
REMARK SMILES COc1cc(-c2oc3cc(O)cc(O)c3c(=O)c2O)ccc1O
REMARK SMILES IDX 6 1 18 2 16 3 17 4 15 5 13 6 12 7 10 8 9 9 8 10 7 11 5 12
REMARK SMILES IDX 3 13 22 14 4 15 21 16 20 17 2 18 1 19 23 20 19 22 14 24
REMARK SMILES IDX 11 26
REMARK H PARENT 23 21 19 23 14 25 11 27
REMARK Flexibility Score: inf
ROOT
ATOM      1  C   UNL     1      16.995   2.360 -24.466  1.00  0.00     0.180 A 
ATOM      2  C   UNL     1      15.607   2.478 -24.651  1.00  0.00     0.208 A 
ATOM      3  C   UNL     1      15.054   3.752 -24.855  1.00  0.00     0.238 A 
ATOM      4  O   UNL     1      13.818   3.847 -25.075  1.00  0.00    -0.285 OA
ATOM      5  C   UNL     1      15.893   4.894 -24.854  1.00  0.00     0.111 A 
ATOM      6  C   UNL     1      15.435   6.236 -25.011  1.00  0.00     0.134 A 
ATOM      7  C   UNL     1      16.368   7.275 -25.125  1.00  0.00     0.093 A 
ATOM      8  C   UNL     1      17.738   7.026 -25.022  1.00  0.00     0.123 A 
ATOM      9  C   UNL     1      18.192   5.727 -24.810  1.00  0.00     0.094 A 
ATOM     10  C   UNL     1      17.288   4.665 -24.728  1.00  0.00     0.146 A 
ATOM     11  O   UNL     1      17.763   3.441 -24.536  1.00  0.00    -0.452 OA
ENDROOT
BRANCH   1  12
ATOM     12  C   UNL     1      17.648   1.052 -24.221  1.00  0.00     0.025 A 
ATOM     13  C   UNL     1      19.081  -0.349 -22.822  1.00  0.00     0.161 A 
ATOM     14  C   UNL     1      18.857  -1.430 -23.686  1.00  0.00     0.157 A 
ATOM     15  C   UNL     1      18.467   0.890 -23.091  1.00  0.00     0.062 A 
ATOM     16  C   UNL     1      18.025  -1.276 -24.801  1.00  0.00     0.051 A 
ATOM     17  C   UNL     1      17.418  -0.047 -25.065  1.00  0.00     0.016 A 
BRANCH  13  18
ATOM     18  O   UNL     1      19.916  -0.545 -21.710  1.00  0.00    -0.493 OA
ATOM     19  C   UNL     1      21.338  -0.586 -21.767  1.00  0.00     0.278 C 
ENDBRANCH  13  18
BRANCH  14  20
ATOM     20  O   UNL     1      19.463  -2.658 -23.425  1.00  0.00    -0.504 OA
ATOM     21  H   UNL     1      19.318  -3.145 -22.548  1.00  0.00     0.293 HD
ENDBRANCH  14  20
ENDBRANCH   1  12
BRANCH   2  22
ATOM     22  O   UNL     1      14.801   1.337 -24.671  1.00  0.00    -0.502 OA
ATOM     23  H   UNL     1      15.061   0.496 -25.172  1.00  0.00     0.293 HD
ENDBRANCH   2  22
BRANCH   6  24
ATOM     24  O   UNL     1      14.086   6.603 -25.033  1.00  0.00    -0.507 OA
ATOM     25  H   UNL     1      13.498   6.584 -25.852  1.00  0.00     0.293 HD
ENDBRANCH   6  24
BRANCH   8  26
ATOM     26  O   UNL     1      18.659   8.068 -25.121  1.00  0.00    -0.508 OA
ATOM     27  H   UNL     1      18.780   8.740 -24.372  1.00  0.00     0.293 HD
ENDBRANCH   8  26
TORSDOF 6
ENDMDL
MODEL 6
REMARK VINA RESULT:    -4.039      6.930      9.315
REMARK INTER + INTRA:          -5.374
REMARK INTER:                  -5.471
REMARK INTRA:                   0.097
REMARK UNBOUND:                -0.391
REMARK SMILES COc1cc(-c2oc3cc(O)cc(O)c3c(=O)c2O)ccc1O
REMARK SMILES IDX 6 1 18 2 16 3 17 4 15 5 13 6 12 7 10 8 9 9 8 10 7 11 5 12
REMARK SMILES IDX 3 13 22 14 4 15 21 16 20 17 2 18 1 19 23 20 19 22 14 24
REMARK SMILES IDX 11 26
REMARK H PARENT 23 21 19 23 14 25 11 27
REMARK Flexibility Score: inf
ROOT
ATOM      1  C   UNL     1      11.895  -2.328 -24.540  1.00  0.00     0.180 A 
ATOM      2  C   UNL     1      10.825  -1.477 -24.865  1.00  0.00     0.208 A 
ATOM      3  C   UNL     1       9.522  -1.999 -24.887  1.00  0.00     0.238 A 
ATOM      4  O   UNL     1       8.562  -1.221 -25.125  1.00  0.00    -0.285 OA
ATOM      5  C   UNL     1       9.308  -3.370 -24.601  1.00  0.00     0.111 A 
ATOM      6  C   UNL     1       8.035  -4.015 -24.633  1.00  0.00     0.134 A 
ATOM      7  C   UNL     1       7.923  -5.344 -24.205  1.00  0.00     0.093 A 
ATOM      8  C   UNL     1       9.049  -6.069 -23.808  1.00  0.00     0.123 A 
ATOM      9  C   UNL     1      10.304  -5.466 -23.829  1.00  0.00     0.094 A 
ATOM     10  C   UNL     1      10.442  -4.131 -24.217  1.00  0.00     0.146 A 
ATOM     11  O   UNL     1      11.655  -3.592 -24.212  1.00  0.00    -0.452 OA
ENDROOT
BRANCH   1  12
ATOM     12  C   UNL     1      13.299  -1.855 -24.520  1.00  0.00     0.025 A 
ATOM     13  C   UNL     1      14.949  -0.209 -23.781  1.00  0.00     0.161 A 
ATOM     14  C   UNL     1      15.960  -0.953 -24.404  1.00  0.00     0.157 A 
ATOM     15  C   UNL     1      13.619  -0.670 -23.836  1.00  0.00     0.062 A 
ATOM     16  C   UNL     1      15.648  -2.145 -25.069  1.00  0.00     0.051 A 
ATOM     17  C   UNL     1      14.328  -2.598 -25.121  1.00  0.00     0.016 A 
BRANCH  13  18
ATOM     18  O   UNL     1      15.304   0.977 -23.118  1.00  0.00    -0.493 OA
ATOM     19  C   UNL     1      15.523   2.227 -23.764  1.00  0.00     0.278 C 
ENDBRANCH  13  18
BRANCH  14  20
ATOM     20  O   UNL     1      17.279  -0.502 -24.353  1.00  0.00    -0.504 OA
ATOM     21  H   UNL     1      17.507   0.481 -24.444  1.00  0.00     0.293 HD
ENDBRANCH  14  20
ENDBRANCH   1  12
BRANCH   2  22
ATOM     22  O   UNL     1      11.057  -0.123 -25.122  1.00  0.00    -0.502 OA
ATOM     23  H   UNL     1      10.441   0.607 -24.785  1.00  0.00     0.293 HD
ENDBRANCH   2  22
BRANCH   6  24
ATOM     24  O   UNL     1       6.865  -3.409 -25.099  1.00  0.00    -0.507 OA
ATOM     25  H   UNL     1       6.212  -3.835 -25.738  1.00  0.00     0.293 HD
ENDBRANCH   6  24
BRANCH   8  26
ATOM     26  O   UNL     1       8.931  -7.396 -23.398  1.00  0.00    -0.508 OA
ATOM     27  H   UNL     1       9.277  -8.159 -23.969  1.00  0.00     0.293 HD
ENDBRANCH   8  26
TORSDOF 6
ENDMDL
