MODEL 1
REMARK VINA RESULT:    -3.236      0.000      0.000
REMARK INTER + INTRA:          -8.231
REMARK INTER:                  -6.073
REMARK INTRA:                  -2.158
REMARK UNBOUND:                -2.158
REMARK SMILES O=C([O-])CCCCCCCCCCCCCCC(=O)[O-]
REMARK SMILES IDX 10 1 9 2 8 3 7 4 6 5 5 6 4 7 2 8 1 9 3 10 11 11 12 12 13 13
REMARK SMILES IDX 14 14 15 15 16 16 17 17 18 18 19 19 20 20
REMARK H PARENT
REMARK Flexibility Score: inf
ROOT
ATOM      1  C   UNL     1      50.665  34.682  85.761  1.00  0.00     0.000 C 
ENDROOT
BRANCH   1   2
ATOM      2  C   UNL     1      49.866  35.138  86.991  1.00  0.00     0.000 C 
BRANCH   2   3
ATOM      3  C   UNL     1      48.585  34.314  87.212  1.00  0.00     0.000 C 
BRANCH   3   4
ATOM      4  C   UNL     1      48.597  32.906  86.583  1.00  0.00     0.000 C 
BRANCH   4   5
ATOM      5  C   UNL     1      48.025  31.784  87.468  1.00  0.00     0.000 C 
BRANCH   5   6
ATOM      6  C   UNL     1      47.437  32.244  88.816  1.00  0.00     0.006 C 
BRANCH   6   7
ATOM      7  C   UNL     1      46.275  31.370  89.321  1.00  0.00     0.053 C 
BRANCH   7   8
ATOM      8  C   UNL     1      46.542  29.905  89.151  1.00  0.00     0.041 C 
ATOM      9  O   UNL     1      45.881  29.232  88.316  1.00  0.00    -0.550 OA
ATOM     10  O   UNL     1      47.546  29.289  89.888  1.00  0.00    -0.550 OA
ENDBRANCH   7   8
ENDBRANCH   6   7
ENDBRANCH   5   6
ENDBRANCH   4   5
ENDBRANCH   3   4
ENDBRANCH   2   3
ENDBRANCH   1   2
BRANCH   1  11
ATOM     11  C   UNL     1      52.157  34.557  86.092  1.00  0.00     0.000 C 
BRANCH  11  12
ATOM     12  C   UNL     1      52.459  35.106  87.494  1.00  0.00     0.000 C 
BRANCH  12  13
ATOM     13  C   UNL     1      53.189  34.088  88.385  1.00  0.00     0.000 C 
BRANCH  13  14
ATOM     14  C   UNL     1      52.543  32.693  88.339  1.00  0.00     0.000 C 
BRANCH  14  15
ATOM     15  C   UNL     1      51.286  32.594  89.218  1.00  0.00     0.000 C 
BRANCH  15  16
ATOM     16  C   UNL     1      51.001  31.160  89.688  1.00  0.00     0.006 C 
BRANCH  16  17
ATOM     17  C   UNL     1      50.323  31.160  91.063  1.00  0.00     0.053 C 
BRANCH  17  18
ATOM     18  C   UNL     1      51.246  31.714  92.102  1.00  0.00     0.041 C 
ATOM     19  O   UNL     1      52.458  31.377  92.118  1.00  0.00    -0.550 OA
ATOM     20  O   UNL     1      50.754  32.562  93.087  1.00  0.00    -0.550 OA
ENDBRANCH  17  18
ENDBRANCH  16  17
ENDBRANCH  15  16
ENDBRANCH  14  15
ENDBRANCH  13  14
ENDBRANCH  12  13
ENDBRANCH  11  12
ENDBRANCH   1  11
TORSDOF 15
ENDMDL
MODEL 2
REMARK VINA RESULT:    -3.194      2.547      4.289
REMARK INTER + INTRA:          -8.153
REMARK INTER:                  -6.014
REMARK INTRA:                  -2.139
REMARK UNBOUND:                -2.158
REMARK SMILES O=C([O-])CCCCCCCCCCCCCCC(=O)[O-]
REMARK SMILES IDX 10 1 9 2 8 3 7 4 6 5 5 6 4 7 2 8 1 9 3 10 11 11 12 12 13 13
REMARK SMILES IDX 14 14 15 15 16 16 17 17 18 18 19 19 20 20
REMARK H PARENT
REMARK Flexibility Score: inf
ROOT
ATOM      1  C   UNL     1      52.329  32.712  89.486  1.00  0.00     0.000 C 
ENDROOT
BRANCH   1   2
ATOM      2  C   UNL     1      51.362  31.661  88.922  1.00  0.00     0.000 C 
BRANCH   2   3
ATOM      3  C   UNL     1      50.219  31.317  89.893  1.00  0.00     0.000 C 
BRANCH   3   4
ATOM      4  C   UNL     1      49.474  30.002  89.585  1.00  0.00     0.000 C 
BRANCH   4   5
ATOM      5  C   UNL     1      47.978  29.990  89.953  1.00  0.00     0.000 C 
BRANCH   5   6
ATOM      6  C   UNL     1      47.445  31.293  90.580  1.00  0.00     0.006 C 
BRANCH   6   7
ATOM      7  C   UNL     1      45.950  31.547  90.313  1.00  0.00     0.053 C 
BRANCH   7   8
ATOM      8  C   UNL     1      45.083  31.122  91.459  1.00  0.00     0.041 C 
ATOM      9  O   UNL     1      44.620  31.978  92.259  1.00  0.00    -0.550 OA
ATOM     10  O   UNL     1      44.754  29.781  91.625  1.00  0.00    -0.550 OA
ENDBRANCH   7   8
ENDBRANCH   6   7
ENDBRANCH   5   6
ENDBRANCH   4   5
ENDBRANCH   3   4
ENDBRANCH   2   3
ENDBRANCH   1   2
BRANCH   1  11
ATOM     11  C   UNL     1      52.964  33.535  88.359  1.00  0.00     0.000 C 
BRANCH  11  12
ATOM     12  C   UNL     1      52.404  33.119  86.990  1.00  0.00     0.000 C 
BRANCH  12  13
ATOM     13  C   UNL     1      51.726  34.281  86.248  1.00  0.00     0.000 C 
BRANCH  13  14
ATOM     14  C   UNL     1      51.333  35.433  87.189  1.00  0.00     0.000 C 
BRANCH  14  15
ATOM     15  C   UNL     1      49.819  35.490  87.453  1.00  0.00     0.000 C 
BRANCH  15  16
ATOM     16  C   UNL     1      49.029  34.486  86.601  1.00  0.00     0.006 C 
BRANCH  16  17
ATOM     17  C   UNL     1      48.336  33.444  87.487  1.00  0.00     0.053 C 
BRANCH  17  18
ATOM     18  C   UNL     1      48.249  32.129  86.779  1.00  0.00     0.041 C 
ATOM     19  O   UNL     1      47.247  31.386  86.944  1.00  0.00    -0.550 OA
ATOM     20  O   UNL     1      49.300  31.701  85.977  1.00  0.00    -0.550 OA
ENDBRANCH  17  18
ENDBRANCH  16  17
ENDBRANCH  15  16
ENDBRANCH  14  15
ENDBRANCH  13  14
ENDBRANCH  12  13
ENDBRANCH  11  12
ENDBRANCH   1  11
TORSDOF 15
ENDMDL
MODEL 3
REMARK VINA RESULT:    -3.186      1.642      4.910
REMARK INTER + INTRA:          -8.138
REMARK INTER:                  -6.325
REMARK INTRA:                  -1.813
REMARK UNBOUND:                -2.158
REMARK SMILES O=C([O-])CCCCCCCCCCCCCCC(=O)[O-]
REMARK SMILES IDX 10 1 9 2 8 3 7 4 6 5 5 6 4 7 2 8 1 9 3 10 11 11 12 12 13 13
REMARK SMILES IDX 14 14 15 15 16 16 17 17 18 18 19 19 20 20
REMARK H PARENT
REMARK Flexibility Score: inf
ROOT
ATOM      1  C   UNL     1      50.307  35.837  87.460  1.00  0.00     0.000 C 
ENDROOT
BRANCH   1   2
ATOM      2  C   UNL     1      51.434  35.049  86.777  1.00  0.00     0.000 C 
BRANCH   2   3
ATOM      3  C   UNL     1      52.320  34.283  87.777  1.00  0.00     0.000 C 
BRANCH   3   4
ATOM      4  C   UNL     1      51.887  32.829  88.052  1.00  0.00     0.000 C 
BRANCH   4   5
ATOM      5  C   UNL     1      51.537  32.512  89.518  1.00  0.00     0.000 C 
BRANCH   5   6
ATOM      6  C   UNL     1      50.812  31.172  89.747  1.00  0.00     0.006 C 
BRANCH   6   7
ATOM      7  C   UNL     1      50.909  30.648  91.191  1.00  0.00     0.053 C 
BRANCH   7   8
ATOM      8  C   UNL     1      52.283  30.154  91.531  1.00  0.00     0.041 C 
ATOM      9  O   UNL     1      52.636  28.989  91.208  1.00  0.00    -0.550 OA
ATOM     10  O   UNL     1      53.187  30.992  92.173  1.00  0.00    -0.550 OA
ENDBRANCH   7   8
ENDBRANCH   6   7
ENDBRANCH   5   6
ENDBRANCH   4   5
ENDBRANCH   3   4
ENDBRANCH   2   3
ENDBRANCH   1   2
BRANCH   1  11
ATOM     11  C   UNL     1      48.932  35.291  87.055  1.00  0.00     0.000 C 
BRANCH  11  12
ATOM     12  C   UNL     1      49.068  34.190  85.993  1.00  0.00     0.000 C 
BRANCH  12  13
ATOM     13  C   UNL     1      48.499  32.841  86.459  1.00  0.00     0.000 C 
BRANCH  13  14
ATOM     14  C   UNL     1      48.023  32.875  87.922  1.00  0.00     0.000 C 
BRANCH  14  15
ATOM     15  C   UNL     1      47.364  31.557  88.360  1.00  0.00     0.000 C 
BRANCH  15  16
ATOM     16  C   UNL     1      47.124  31.489  89.875  1.00  0.00     0.006 C 
BRANCH  16  17
ATOM     17  C   UNL     1      45.636  31.657  90.201  1.00  0.00     0.053 C 
BRANCH  17  18
ATOM     18  C   UNL     1      45.253  30.797  91.365  1.00  0.00     0.041 C 
ATOM     19  O   UNL     1      45.814  29.684  91.541  1.00  0.00    -0.550 OA
ATOM     20  O   UNL     1      44.240  31.202  92.225  1.00  0.00    -0.550 OA
ENDBRANCH  17  18
ENDBRANCH  16  17
ENDBRANCH  15  16
ENDBRANCH  14  15
ENDBRANCH  13  14
ENDBRANCH  12  13
ENDBRANCH  11  12
ENDBRANCH   1  11
TORSDOF 15
ENDMDL
MODEL 4
REMARK VINA RESULT:    -3.184      1.635      5.266
REMARK INTER + INTRA:          -8.134
REMARK INTER:                  -6.095
REMARK INTRA:                  -2.039
REMARK UNBOUND:                -2.158
REMARK SMILES O=C([O-])CCCCCCCCCCCCCCC(=O)[O-]
REMARK SMILES IDX 10 1 9 2 8 3 7 4 6 5 5 6 4 7 2 8 1 9 3 10 11 11 12 12 13 13
REMARK SMILES IDX 14 14 15 15 16 16 17 17 18 18 19 19 20 20
REMARK H PARENT
REMARK Flexibility Score: inf
ROOT
ATOM      1  C   UNL     1      49.388  35.710  87.221  1.00  0.00     0.000 C 
ENDROOT
BRANCH   1   2
ATOM      2  C   UNL     1      50.893  35.590  87.501  1.00  0.00     0.000 C 
BRANCH   2   3
ATOM      3  C   UNL     1      51.656  34.871  86.375  1.00  0.00     0.000 C 
BRANCH   3   4
ATOM      4  C   UNL     1      52.594  33.738  86.841  1.00  0.00     0.000 C 
BRANCH   4   5
ATOM      5  C   UNL     1      54.027  34.175  87.196  1.00  0.00     0.000 C 
BRANCH   5   6
ATOM      6  C   UNL     1      54.809  33.196  88.093  1.00  0.00     0.006 C 
BRANCH   6   7
ATOM      7  C   UNL     1      53.918  32.352  89.023  1.00  0.00     0.053 C 
BRANCH   7   8
ATOM      8  C   UNL     1      53.743  32.978  90.373  1.00  0.00     0.041 C 
ATOM      9  O   UNL     1      52.837  32.573  91.149  1.00  0.00    -0.550 OA
ATOM     10  O   UNL     1      54.604  33.986  90.792  1.00  0.00    -0.550 OA
ENDBRANCH   7   8
ENDBRANCH   6   7
ENDBRANCH   5   6
ENDBRANCH   4   5
ENDBRANCH   3   4
ENDBRANCH   2   3
ENDBRANCH   1   2
BRANCH   1  11
ATOM     11  C   UNL     1      48.856  34.449  86.529  1.00  0.00     0.000 C 
BRANCH  11  12
ATOM     12  C   UNL     1      48.327  33.439  87.558  1.00  0.00     0.000 C 
BRANCH  12  13
ATOM     13  C   UNL     1      48.399  31.988  87.057  1.00  0.00     0.000 C 
BRANCH  13  14
ATOM     14  C   UNL     1      49.747  31.319  87.377  1.00  0.00     0.000 C 
BRANCH  14  15
ATOM     15  C   UNL     1      50.258  31.664  88.786  1.00  0.00     0.000 C 
BRANCH  15  16
ATOM     16  C   UNL     1      49.944  30.569  89.816  1.00  0.00     0.006 C 
BRANCH  16  17
ATOM     17  C   UNL     1      48.945  31.073  90.862  1.00  0.00     0.053 C 
BRANCH  17  18
ATOM     18  C   UNL     1      47.544  30.738  90.454  1.00  0.00     0.041 C 
ATOM     19  O   UNL     1      46.685  31.649  90.332  1.00  0.00    -0.550 OA
ATOM     20  O   UNL     1      47.176  29.413  90.260  1.00  0.00    -0.550 OA
ENDBRANCH  17  18
ENDBRANCH  16  17
ENDBRANCH  15  16
ENDBRANCH  14  15
ENDBRANCH  13  14
ENDBRANCH  12  13
ENDBRANCH  11  12
ENDBRANCH   1  11
TORSDOF 15
ENDMDL
MODEL 5
REMARK VINA RESULT:    -3.178      1.861      2.590
REMARK INTER + INTRA:          -8.123
REMARK INTER:                  -6.079
REMARK INTRA:                  -2.044
REMARK UNBOUND:                -2.158
REMARK SMILES O=C([O-])CCCCCCCCCCCCCCC(=O)[O-]
REMARK SMILES IDX 10 1 9 2 8 3 7 4 6 5 5 6 4 7 2 8 1 9 3 10 11 11 12 12 13 13
REMARK SMILES IDX 14 14 15 15 16 16 17 17 18 18 19 19 20 20
REMARK H PARENT
REMARK Flexibility Score: inf
ROOT
ATOM      1  C   UNL     1      48.747  34.021  87.194  1.00  0.00     0.000 C 
ENDROOT
BRANCH   1   2
ATOM      2  C   UNL     1      48.679  32.668  86.470  1.00  0.00     0.000 C 
BRANCH   2   3
ATOM      3  C   UNL     1      47.801  31.640  87.204  1.00  0.00     0.000 C 
BRANCH   3   4
ATOM      4  C   UNL     1      47.224  32.117  88.552  1.00  0.00     0.000 C 
BRANCH   4   5
ATOM      5  C   UNL     1      46.799  30.997  89.520  1.00  0.00     0.000 C 
BRANCH   5   6
ATOM      6  C   UNL     1      46.499  31.452  90.962  1.00  0.00     0.006 C 
BRANCH   6   7
ATOM      7  C   UNL     1      44.998  31.505  91.300  1.00  0.00     0.053 C 
BRANCH   7   8
ATOM      8  C   UNL     1      44.521  30.263  91.990  1.00  0.00     0.041 C 
ATOM      9  O   UNL     1      45.346  29.388  92.364  1.00  0.00    -0.550 OA
ATOM     10  O   UNL     1      43.168  30.085  92.251  1.00  0.00    -0.550 OA
ENDBRANCH   7   8
ENDBRANCH   6   7
ENDBRANCH   5   6
ENDBRANCH   4   5
ENDBRANCH   3   4
ENDBRANCH   2   3
ENDBRANCH   1   2
BRANCH   1  11
ATOM     11  C   UNL     1      49.754  34.957  86.514  1.00  0.00     0.000 C 
BRANCH  11  12
ATOM     12  C   UNL     1      50.836  35.413  87.503  1.00  0.00     0.000 C 
BRANCH  12  13
ATOM     13  C   UNL     1      52.135  34.601  87.378  1.00  0.00     0.000 C 
BRANCH  13  14
ATOM     14  C   UNL     1      52.263  33.520  88.465  1.00  0.00     0.000 C 
BRANCH  14  15
ATOM     15  C   UNL     1      52.107  32.097  87.905  1.00  0.00     0.000 C 
BRANCH  15  16
ATOM     16  C   UNL     1      51.245  31.197  88.803  1.00  0.00     0.006 C 
BRANCH  16  17
ATOM     17  C   UNL     1      50.564  32.016  89.905  1.00  0.00     0.053 C 
BRANCH  17  18
ATOM     18  C   UNL     1      50.424  31.202  91.153  1.00  0.00     0.041 C 
ATOM     19  O   UNL     1      50.872  31.637  92.246  1.00  0.00    -0.550 OA
ATOM     20  O   UNL     1      49.847  29.940  91.098  1.00  0.00    -0.550 OA
ENDBRANCH  17  18
ENDBRANCH  16  17
ENDBRANCH  15  16
ENDBRANCH  14  15
ENDBRANCH  13  14
ENDBRANCH  12  13
ENDBRANCH  11  12
ENDBRANCH   1  11
TORSDOF 15
ENDMDL
MODEL 6
REMARK VINA RESULT:    -3.158      2.579      4.634
REMARK INTER + INTRA:          -8.085
REMARK INTER:                  -6.253
REMARK INTRA:                  -1.832
REMARK UNBOUND:                -2.158
REMARK SMILES O=C([O-])CCCCCCCCCCCCCCC(=O)[O-]
REMARK SMILES IDX 10 1 9 2 8 3 7 4 6 5 5 6 4 7 2 8 1 9 3 10 11 11 12 12 13 13
REMARK SMILES IDX 14 14 15 15 16 16 17 17 18 18 19 19 20 20
REMARK H PARENT
REMARK Flexibility Score: inf
ROOT
ATOM      1  C   UNL     1      49.360  31.230  87.176  1.00  0.00     0.000 C 
ENDROOT
BRANCH   1   2
ATOM      2  C   UNL     1      50.177  31.659  88.403  1.00  0.00     0.000 C 
BRANCH   2   3
ATOM      3  C   UNL     1      50.129  30.629  89.545  1.00  0.00     0.000 C 
BRANCH   3   4
ATOM      4  C   UNL     1      49.099  30.930  90.653  1.00  0.00     0.000 C 
BRANCH   4   5
ATOM      5  C   UNL     1      47.815  30.080  90.607  1.00  0.00     0.000 C 
BRANCH   5   6
ATOM      6  C   UNL     1      46.592  30.768  89.971  1.00  0.00     0.006 C 
BRANCH   6   7
ATOM      7  C   UNL     1      45.812  31.675  90.941  1.00  0.00     0.053 C 
BRANCH   7   8
ATOM      8  C   UNL     1      44.782  30.922  91.727  1.00  0.00     0.041 C 
ATOM      9  O   UNL     1      44.240  31.450  92.734  1.00  0.00    -0.550 OA
ATOM     10  O   UNL     1      44.392  29.650  91.326  1.00  0.00    -0.550 OA
ENDBRANCH   7   8
ENDBRANCH   6   7
ENDBRANCH   5   6
ENDBRANCH   4   5
ENDBRANCH   3   4
ENDBRANCH   2   3
ENDBRANCH   1   2
BRANCH   1  11
ATOM     11  C   UNL     1      48.239  32.235  86.884  1.00  0.00     0.000 C 
BRANCH  11  12
ATOM     12  C   UNL     1      48.429  33.523  87.698  1.00  0.00     0.000 C 
BRANCH  12  13
ATOM     13  C   UNL     1      48.755  34.740  86.817  1.00  0.00     0.000 C 
BRANCH  13  14
ATOM     14  C   UNL     1      50.262  35.046  86.768  1.00  0.00     0.000 C 
BRANCH  14  15
ATOM     15  C   UNL     1      50.934  34.508  85.494  1.00  0.00     0.000 C 
BRANCH  15  16
ATOM     16  C   UNL     1      52.082  33.534  85.794  1.00  0.00     0.006 C 
BRANCH  16  17
ATOM     17  C   UNL     1      53.436  34.249  85.729  1.00  0.00     0.053 C 
BRANCH  17  18
ATOM     18  C   UNL     1      54.047  34.341  87.092  1.00  0.00     0.041 C 
ATOM     19  O   UNL     1      53.887  35.376  87.789  1.00  0.00    -0.550 OA
ATOM     20  O   UNL     1      54.837  33.304  87.570  1.00  0.00    -0.550 OA
ENDBRANCH  17  18
ENDBRANCH  16  17
ENDBRANCH  15  16
ENDBRANCH  14  15
ENDBRANCH  13  14
ENDBRANCH  12  13
ENDBRANCH  11  12
ENDBRANCH   1  11
TORSDOF 15
ENDMDL
MODEL 7
REMARK VINA RESULT:    -3.095      3.227      6.567
REMARK INTER + INTRA:          -7.967
REMARK INTER:                  -5.849
REMARK INTRA:                  -2.118
REMARK UNBOUND:                -2.158
REMARK SMILES O=C([O-])CCCCCCCCCCCCCCC(=O)[O-]
REMARK SMILES IDX 10 1 9 2 8 3 7 4 6 5 5 6 4 7 2 8 1 9 3 10 11 11 12 12 13 13
REMARK SMILES IDX 14 14 15 15 16 16 17 17 18 18 19 19 20 20
REMARK H PARENT
REMARK Flexibility Score: inf
ROOT
ATOM      1  C   UNL     1      48.968  30.954  90.818  1.00  0.00     0.000 C 
ENDROOT
BRANCH   1   2
ATOM      2  C   UNL     1      49.923  29.798  90.489  1.00  0.00     0.000 C 
BRANCH   2   3
ATOM      3  C   UNL     1      50.287  29.728  88.995  1.00  0.00     0.000 C 
BRANCH   3   4
ATOM      4  C   UNL     1      51.686  30.270  88.638  1.00  0.00     0.000 C 
BRANCH   4   5
ATOM      5  C   UNL     1      51.723  31.733  88.159  1.00  0.00     0.000 C 
BRANCH   5   6
ATOM      6  C   UNL     1      51.932  32.783  89.267  1.00  0.00     0.006 C 
BRANCH   6   7
ATOM      7  C   UNL     1      53.055  32.430  90.259  1.00  0.00     0.053 C 
BRANCH   7   8
ATOM      8  C   UNL     1      54.197  33.399  90.200  1.00  0.00     0.041 C 
ATOM      9  O   UNL     1      54.052  34.519  89.643  1.00  0.00    -0.550 OA
ATOM     10  O   UNL     1      55.414  33.080  90.791  1.00  0.00    -0.550 OA
ENDBRANCH   7   8
ENDBRANCH   6   7
ENDBRANCH   5   6
ENDBRANCH   4   5
ENDBRANCH   3   4
ENDBRANCH   2   3
ENDBRANCH   1   2
BRANCH   1  11
ATOM     11  C   UNL     1      47.516  30.573  90.503  1.00  0.00     0.000 C 
BRANCH  11  12
ATOM     12  C   UNL     1      46.829  31.664  89.668  1.00  0.00     0.000 C 
BRANCH  12  13
ATOM     13  C   UNL     1      47.328  31.702  88.215  1.00  0.00     0.000 C 
BRANCH  13  14
ATOM     14  C   UNL     1      48.154  32.962  87.907  1.00  0.00     0.000 C 
BRANCH  14  15
ATOM     15  C   UNL     1      48.624  33.018  86.444  1.00  0.00     0.000 C 
BRANCH  15  16
ATOM     16  C   UNL     1      48.981  34.441  85.989  1.00  0.00     0.006 C 
BRANCH  16  17
ATOM     17  C   UNL     1      50.109  35.023  86.849  1.00  0.00     0.053 C 
BRANCH  17  18
ATOM     18  C   UNL     1      51.421  34.909  86.139  1.00  0.00     0.041 C 
ATOM     19  O   UNL     1      52.489  35.226  86.725  1.00  0.00    -0.550 OA
ATOM     20  O   UNL     1      51.460  34.502  84.811  1.00  0.00    -0.550 OA
ENDBRANCH  17  18
ENDBRANCH  16  17
ENDBRANCH  15  16
ENDBRANCH  14  15
ENDBRANCH  13  14
ENDBRANCH  12  13
ENDBRANCH  11  12
ENDBRANCH   1  11
TORSDOF 15
ENDMDL
MODEL 8
REMARK VINA RESULT:    -3.094     15.560     17.985
REMARK INTER + INTRA:          -7.966
REMARK INTER:                  -5.672
REMARK INTRA:                  -2.293
REMARK UNBOUND:                -2.158
REMARK SMILES O=C([O-])CCCCCCCCCCCCCCC(=O)[O-]
REMARK SMILES IDX 10 1 9 2 8 3 7 4 6 5 5 6 4 7 2 8 1 9 3 10 11 11 12 12 13 13
REMARK SMILES IDX 14 14 15 15 16 16 17 17 18 18 19 19 20 20
REMARK H PARENT
REMARK Flexibility Score: inf
ROOT
ATOM      1  C   UNL     1      46.008  18.628  75.426  1.00  0.00     0.000 C 
ENDROOT
BRANCH   1   2
ATOM      2  C   UNL     1      46.143  19.669  74.307  1.00  0.00     0.000 C 
BRANCH   2   3
ATOM      3  C   UNL     1      47.514  20.369  74.301  1.00  0.00     0.000 C 
BRANCH   3   4
ATOM      4  C   UNL     1      47.467  21.899  74.485  1.00  0.00     0.000 C 
BRANCH   4   5
ATOM      5  C   UNL     1      48.312  22.449  75.649  1.00  0.00     0.000 C 
BRANCH   5   6
ATOM      6  C   UNL     1      49.277  21.438  76.296  1.00  0.00     0.006 C 
BRANCH   6   7
ATOM      7  C   UNL     1      49.922  21.938  77.602  1.00  0.00     0.053 C 
BRANCH   7   8
ATOM      8  C   UNL     1      50.046  20.855  78.631  1.00  0.00     0.041 C 
ATOM      9  O   UNL     1      49.116  20.021  78.791  1.00  0.00    -0.550 OA
ATOM     10  O   UNL     1      51.203  20.746  79.393  1.00  0.00    -0.550 OA
ENDBRANCH   7   8
ENDBRANCH   6   7
ENDBRANCH   5   6
ENDBRANCH   4   5
ENDBRANCH   3   4
ENDBRANCH   2   3
ENDBRANCH   1   2
BRANCH   1  11
ATOM     11  C   UNL     1      46.406  19.225  76.782  1.00  0.00     0.000 C 
BRANCH  11  12
ATOM     12  C   UNL     1      45.291  19.028  77.819  1.00  0.00     0.000 C 
BRANCH  12  13
ATOM     13  C   UNL     1      44.573  20.339  78.175  1.00  0.00     0.000 C 
BRANCH  13  14
ATOM     14  C   UNL     1      45.353  21.583  77.716  1.00  0.00     0.000 C 
BRANCH  14  15
ATOM     15  C   UNL     1      44.542  22.469  76.756  1.00  0.00     0.000 C 
BRANCH  15  16
ATOM     16  C   UNL     1      43.501  21.676  75.952  1.00  0.00     0.006 C 
BRANCH  16  17
ATOM     17  C   UNL     1      42.168  22.431  75.889  1.00  0.00     0.053 C 
BRANCH  17  18
ATOM     18  C   UNL     1      41.356  22.163  77.117  1.00  0.00     0.041 C 
ATOM     19  O   UNL     1      40.749  21.069  77.248  1.00  0.00    -0.550 OA
ATOM     20  O   UNL     1      41.227  23.144  78.091  1.00  0.00    -0.550 OA
ENDBRANCH  17  18
ENDBRANCH  16  17
ENDBRANCH  15  16
ENDBRANCH  14  15
ENDBRANCH  13  14
ENDBRANCH  12  13
ENDBRANCH  11  12
ENDBRANCH   1  11
TORSDOF 15
ENDMDL
MODEL 9
REMARK VINA RESULT:    -3.092     16.185     17.634
REMARK INTER + INTRA:          -7.961
REMARK INTER:                  -5.660
REMARK INTRA:                  -2.301
REMARK UNBOUND:                -2.158
REMARK SMILES O=C([O-])CCCCCCCCCCCCCCC(=O)[O-]
REMARK SMILES IDX 10 1 9 2 8 3 7 4 6 5 5 6 4 7 2 8 1 9 3 10 11 11 12 12 13 13
REMARK SMILES IDX 14 14 15 15 16 16 17 17 18 18 19 19 20 20
REMARK H PARENT
REMARK Flexibility Score: inf
ROOT
ATOM      1  C   UNL     1      45.312  23.189  74.629  1.00  0.00     0.000 C 
ENDROOT
BRANCH   1   2
ATOM      2  C   UNL     1      44.028  22.351  74.547  1.00  0.00     0.000 C 
BRANCH   2   3
ATOM      3  C   UNL     1      43.504  21.920  75.928  1.00  0.00     0.000 C 
BRANCH   3   4
ATOM      4  C   UNL     1      44.197  22.596  77.129  1.00  0.00     0.000 C 
BRANCH   4   5
ATOM      5  C   UNL     1      43.866  21.992  78.506  1.00  0.00     0.000 C 
BRANCH   5   6
ATOM      6  C   UNL     1      43.271  20.571  78.476  1.00  0.00     0.006 C 
BRANCH   6   7
ATOM      7  C   UNL     1      42.113  20.356  79.467  1.00  0.00     0.053 C 
BRANCH   7   8
ATOM      8  C   UNL     1      40.783  20.264  78.784  1.00  0.00     0.041 C 
ATOM      9  O   UNL     1      39.898  19.480  79.219  1.00  0.00    -0.550 OA
ATOM     10  O   UNL     1      40.505  21.070  77.686  1.00  0.00    -0.550 OA
ENDBRANCH   7   8
ENDBRANCH   6   7
ENDBRANCH   5   6
ENDBRANCH   4   5
ENDBRANCH   3   4
ENDBRANCH   2   3
ENDBRANCH   1   2
BRANCH   1  11
ATOM     11  C   UNL     1      46.322  22.751  73.561  1.00  0.00     0.000 C 
BRANCH  11  12
ATOM     12  C   UNL     1      45.871  21.453  72.875  1.00  0.00     0.000 C 
BRANCH  12  13
ATOM     13  C   UNL     1      46.836  20.284  73.124  1.00  0.00     0.000 C 
BRANCH  13  14
ATOM     14  C   UNL     1      47.256  20.169  74.599  1.00  0.00     0.000 C 
BRANCH  14  15
ATOM     15  C   UNL     1      46.251  19.363  75.439  1.00  0.00     0.000 C 
BRANCH  15  16
ATOM     16  C   UNL     1      46.463  19.541  76.950  1.00  0.00     0.006 C 
BRANCH  16  17
ATOM     17  C   UNL     1      47.327  20.773  77.240  1.00  0.00     0.053 C 
BRANCH  17  18
ATOM     18  C   UNL     1      48.522  20.395  78.056  1.00  0.00     0.041 C 
ATOM     19  O   UNL     1      48.394  19.643  79.057  1.00  0.00    -0.550 OA
ATOM     20  O   UNL     1      49.771  20.918  77.743  1.00  0.00    -0.550 OA
ENDBRANCH  17  18
ENDBRANCH  16  17
ENDBRANCH  15  16
ENDBRANCH  14  15
ENDBRANCH  13  14
ENDBRANCH  12  13
ENDBRANCH  11  12
ENDBRANCH   1  11
TORSDOF 15
ENDMDL
