MODEL 1
REMARK VINA RESULT:    -4.492      0.000      0.000
REMARK INTER + INTRA:          -5.197
REMARK INTER:                  -5.148
REMARK INTRA:                  -0.048
REMARK UNBOUND:                -0.048
REMARK SMILES CC(C)[C@@H]([NH3+])C(=O)[O-]
REMARK SMILES IDX 4 1 5 2 6 6 7 7 8 8 2 9 1 10 3 11
REMARK H PARENT 5 3 5 4 5 5
REMARK Flexibility Score: inf
ROOT
ATOM      1  C   UNL     1     -18.343  13.706 -12.708  1.00  0.00     0.230 C 
ENDROOT
BRANCH   1   2
ATOM      2  N   UNL     1     -18.372  13.718 -11.239  1.00  0.00    -0.350 N 
ATOM      3  H   UNL     1     -19.262  14.160 -10.910  1.00  0.00     0.345 HD
ATOM      4  H   UNL     1     -17.568  14.258 -10.844  1.00  0.00     0.345 HD
ATOM      5  H   UNL     1     -18.341  12.739 -10.872  1.00  0.00     0.345 HD
ENDBRANCH   1   2
BRANCH   1   6
ATOM      6  C   UNL     1     -16.998  13.232 -13.210  1.00  0.00     0.099 C 
ATOM      7  O   UNL     1     -15.971  13.389 -12.499  1.00  0.00    -0.544 OA
ATOM      8  O   UNL     1     -16.875  12.647 -14.465  1.00  0.00    -0.544 OA
ENDBRANCH   1   6
BRANCH   1   9
ATOM      9  C   UNL     1     -19.528  12.886 -13.302  1.00  0.00     0.047 C 
ATOM     10  C   UNL     1     -20.162  11.973 -12.241  1.00  0.00     0.014 C 
ATOM     11  C   UNL     1     -20.611  13.756 -13.961  1.00  0.00     0.014 C 
ENDBRANCH   1   9
TORSDOF 3
ENDMDL
MODEL 2
REMARK VINA RESULT:    -4.375      1.891      2.294
REMARK INTER + INTRA:          -5.062
REMARK INTER:                  -5.041
REMARK INTRA:                  -0.022
REMARK UNBOUND:                -0.048
REMARK SMILES CC(C)[C@@H]([NH3+])C(=O)[O-]
REMARK SMILES IDX 4 1 5 2 6 6 7 7 8 8 2 9 1 10 3 11
REMARK H PARENT 5 3 5 4 5 5
REMARK Flexibility Score: inf
ROOT
ATOM      1  C   UNL     1     -17.573  12.346 -13.634  1.00  0.00     0.230 C 
ENDROOT
BRANCH   1   2
ATOM      2  N   UNL     1     -18.052  11.944 -14.964  1.00  0.00    -0.350 N 
ATOM      3  H   UNL     1     -17.616  11.030 -15.231  1.00  0.00     0.345 HD
ATOM      4  H   UNL     1     -17.804  12.653 -15.691  1.00  0.00     0.345 HD
ATOM      5  H   UNL     1     -19.089  11.816 -14.947  1.00  0.00     0.345 HD
ENDBRANCH   1   2
BRANCH   1   6
ATOM      6  C   UNL     1     -16.115  12.738 -13.689  1.00  0.00     0.099 C 
ATOM      7  O   UNL     1     -15.735  13.823 -13.175  1.00  0.00    -0.544 OA
ATOM      8  O   UNL     1     -15.186  11.926 -14.329  1.00  0.00    -0.544 OA
ENDBRANCH   1   6
BRANCH   1   9
ATOM      9  C   UNL     1     -18.471  13.457 -13.009  1.00  0.00     0.047 C 
ATOM     10  C   UNL     1     -19.834  13.534 -13.714  1.00  0.00     0.014 C 
ATOM     11  C   UNL     1     -18.671  13.308 -11.492  1.00  0.00     0.014 C 
ENDBRANCH   1   9
TORSDOF 3
ENDMDL
MODEL 3
REMARK VINA RESULT:    -4.277     20.166     20.581
REMARK INTER + INTRA:          -4.951
REMARK INTER:                  -4.898
REMARK INTRA:                  -0.052
REMARK UNBOUND:                -0.048
REMARK SMILES CC(C)[C@@H]([NH3+])C(=O)[O-]
REMARK SMILES IDX 4 1 5 2 6 6 7 7 8 8 2 9 1 10 3 11
REMARK H PARENT 5 3 5 4 5 5
REMARK Flexibility Score: inf
ROOT
ATOM      1  C   UNL     1     -12.693  -4.671 -22.501  1.00  0.00     0.230 C 
ENDROOT
BRANCH   1   2
ATOM      2  N   UNL     1     -11.898  -4.429 -23.713  1.00  0.00    -0.350 N 
ATOM      3  H   UNL     1     -10.880  -4.503 -23.484  1.00  0.00     0.345 HD
ATOM      4  H   UNL     1     -12.081  -3.478 -24.108  1.00  0.00     0.345 HD
ATOM      5  H   UNL     1     -12.122  -5.149 -24.438  1.00  0.00     0.345 HD
ENDBRANCH   1   2
BRANCH   1   6
ATOM      6  C   UNL     1     -12.059  -3.998 -21.306  1.00  0.00     0.099 C 
ATOM      7  O   UNL     1     -10.805  -3.942 -21.208  1.00  0.00    -0.544 OA
ATOM      8  O   UNL     1     -12.847  -3.463 -20.293  1.00  0.00    -0.544 OA
ENDBRANCH   1   6
BRANCH   1   9
ATOM      9  C   UNL     1     -14.185  -4.263 -22.698  1.00  0.00     0.047 C 
ATOM     10  C   UNL     1     -14.401  -3.577 -24.056  1.00  0.00     0.014 C 
ATOM     11  C   UNL     1     -15.171  -5.433 -22.538  1.00  0.00     0.014 C 
ENDBRANCH   1   9
TORSDOF 3
ENDMDL
MODEL 4
REMARK VINA RESULT:    -4.190      2.767      3.472
REMARK INTER + INTRA:          -4.850
REMARK INTER:                  -4.908
REMARK INTRA:                   0.057
REMARK UNBOUND:                -0.048
REMARK SMILES CC(C)[C@@H]([NH3+])C(=O)[O-]
REMARK SMILES IDX 4 1 5 2 6 6 7 7 8 8 2 9 1 10 3 11
REMARK H PARENT 5 3 5 4 5 5
REMARK Flexibility Score: inf
ROOT
ATOM      1  C   UNL     1     -18.757  12.902 -13.719  1.00  0.00     0.230 C 
ENDROOT
BRANCH   1   2
ATOM      2  N   UNL     1     -18.384  11.480 -13.718  1.00  0.00    -0.350 N 
ATOM      3  H   UNL     1     -17.350  11.389 -13.854  1.00  0.00     0.345 HD
ATOM      4  H   UNL     1     -18.866  10.957 -14.484  1.00  0.00     0.345 HD
ATOM      5  H   UNL     1     -18.630  11.046 -12.799  1.00  0.00     0.345 HD
ENDBRANCH   1   2
BRANCH   1   6
ATOM      6  C   UNL     1     -20.257  13.058 -13.632  1.00  0.00     0.099 C 
ATOM      7  O   UNL     1     -20.944  12.204 -13.013  1.00  0.00    -0.544 OA
ATOM      8  O   UNL     1     -20.896  14.125 -14.254  1.00  0.00    -0.544 OA
ENDBRANCH   1   6
BRANCH   1   9
ATOM      9  C   UNL     1     -18.004  13.696 -12.609  1.00  0.00     0.047 C 
ATOM     10  C   UNL     1     -18.466  13.269 -11.207  1.00  0.00     0.014 C 
ATOM     11  C   UNL     1     -16.473  13.599 -12.710  1.00  0.00     0.014 C 
ENDBRANCH   1   9
TORSDOF 3
ENDMDL
MODEL 5
REMARK VINA RESULT:    -4.086      2.131      3.295
REMARK INTER + INTRA:          -4.732
REMARK INTER:                  -4.709
REMARK INTRA:                  -0.023
REMARK UNBOUND:                -0.048
REMARK SMILES CC(C)[C@@H]([NH3+])C(=O)[O-]
REMARK SMILES IDX 4 1 5 2 6 6 7 7 8 8 2 9 1 10 3 11
REMARK H PARENT 5 3 5 4 5 5
REMARK Flexibility Score: inf
ROOT
ATOM      1  C   UNL     1     -18.447  12.912 -12.540  1.00  0.00     0.230 C 
ENDROOT
BRANCH   1   2
ATOM      2  N   UNL     1     -18.392  13.726 -11.317  1.00  0.00    -0.350 N 
ATOM      3  H   UNL     1     -18.109  13.124 -10.509  1.00  0.00     0.345 HD
ATOM      4  H   UNL     1     -19.320  14.156 -11.101  1.00  0.00     0.345 HD
ATOM      5  H   UNL     1     -17.679  14.483 -11.423  1.00  0.00     0.345 HD
ENDBRANCH   1   2
BRANCH   1   6
ATOM      6  C   UNL     1     -19.822  12.978 -13.161  1.00  0.00     0.099 C 
ATOM      7  O   UNL     1     -20.087  13.870 -14.009  1.00  0.00    -0.544 OA
ATOM      8  O   UNL     1     -20.814  12.079 -12.787  1.00  0.00    -0.544 OA
ENDBRANCH   1   6
BRANCH   1   9
ATOM      9  C   UNL     1     -17.316  13.298 -13.541  1.00  0.00     0.047 C 
ATOM     10  C   UNL     1     -15.976  13.504 -12.817  1.00  0.00     0.014 C 
ATOM     11  C   UNL     1     -17.142  12.294 -14.692  1.00  0.00     0.014 C 
ENDBRANCH   1   9
TORSDOF 3
ENDMDL
MODEL 6
REMARK VINA RESULT:    -4.044     20.424     21.000
REMARK INTER + INTRA:          -4.683
REMARK INTER:                  -4.634
REMARK INTRA:                  -0.049
REMARK UNBOUND:                -0.048
REMARK SMILES CC(C)[C@@H]([NH3+])C(=O)[O-]
REMARK SMILES IDX 4 1 5 2 6 6 7 7 8 8 2 9 1 10 3 11
REMARK H PARENT 5 3 5 4 5 5
REMARK Flexibility Score: inf
ROOT
ATOM      1  C   UNL     1     -14.473  -3.860 -23.106  1.00  0.00     0.230 C 
ENDROOT
BRANCH   1   2
ATOM      2  N   UNL     1     -14.318  -3.180 -24.400  1.00  0.00    -0.350 N 
ATOM      3  H   UNL     1     -14.140  -2.161 -24.240  1.00  0.00     0.345 HD
ATOM      4  H   UNL     1     -15.177  -3.277 -24.989  1.00  0.00     0.345 HD
ATOM      5  H   UNL     1     -13.500  -3.575 -24.917  1.00  0.00     0.345 HD
ENDBRANCH   1   2
BRANCH   1   6
ATOM      6  C   UNL     1     -15.533  -4.934 -23.193  1.00  0.00     0.099 C 
ATOM      7  O   UNL     1     -16.479  -4.818 -24.016  1.00  0.00    -0.544 OA
ATOM      8  O   UNL     1     -15.491  -6.041 -22.353  1.00  0.00    -0.544 OA
ENDBRANCH   1   6
BRANCH   1   9
ATOM      9  C   UNL     1     -13.112  -4.401 -22.573  1.00  0.00     0.047 C 
ATOM     10  C   UNL     1     -12.034  -4.376 -23.668  1.00  0.00     0.014 C 
ATOM     11  C   UNL     1     -12.605  -3.669 -21.319  1.00  0.00     0.014 C 
ENDBRANCH   1   9
TORSDOF 3
ENDMDL
MODEL 7
REMARK VINA RESULT:    -4.025     19.479     19.931
REMARK INTER + INTRA:          -4.662
REMARK INTER:                  -4.643
REMARK INTRA:                  -0.019
REMARK UNBOUND:                -0.048
REMARK SMILES CC(C)[C@@H]([NH3+])C(=O)[O-]
REMARK SMILES IDX 4 1 5 2 6 6 7 7 8 8 2 9 1 10 3 11
REMARK H PARENT 5 3 5 4 5 5
REMARK Flexibility Score: inf
ROOT
ATOM      1  C   UNL     1     -13.087  -3.344 -21.491  1.00  0.00     0.230 C 
ENDROOT
BRANCH   1   2
ATOM      2  N   UNL     1     -14.330  -3.274 -20.709  1.00  0.00    -0.350 N 
ATOM      3  H   UNL     1     -14.130  -2.858 -19.771  1.00  0.00     0.345 HD
ATOM      4  H   UNL     1     -14.748  -4.222 -20.569  1.00  0.00     0.345 HD
ATOM      5  H   UNL     1     -15.025  -2.662 -21.195  1.00  0.00     0.345 HD
ENDBRANCH   1   2
BRANCH   1   6
ATOM      6  C   UNL     1     -11.885  -3.375 -20.576  1.00  0.00     0.099 C 
ATOM      7  O   UNL     1     -10.891  -4.090 -20.868  1.00  0.00    -0.544 OA
ATOM      8  O   UNL     1     -11.873  -2.640 -19.397  1.00  0.00    -0.544 OA
ENDBRANCH   1   6
BRANCH   1   9
ATOM      9  C   UNL     1     -13.106  -4.533 -22.498  1.00  0.00     0.047 C 
ATOM     10  C   UNL     1     -14.524  -5.100 -22.667  1.00  0.00     0.014 C 
ATOM     11  C   UNL     1     -12.512  -4.186 -23.874  1.00  0.00     0.014 C 
ENDBRANCH   1   9
TORSDOF 3
ENDMDL
MODEL 8
REMARK VINA RESULT:    -3.945     20.256     20.856
REMARK INTER + INTRA:          -4.570
REMARK INTER:                  -4.587
REMARK INTRA:                   0.017
REMARK UNBOUND:                -0.048
REMARK SMILES CC(C)[C@@H]([NH3+])C(=O)[O-]
REMARK SMILES IDX 4 1 5 2 6 6 7 7 8 8 2 9 1 10 3 11
REMARK H PARENT 5 3 5 4 5 5
REMARK Flexibility Score: inf
ROOT
ATOM      1  C   UNL     1     -13.776  -4.241 -22.011  1.00  0.00     0.230 C 
ENDROOT
BRANCH   1   2
ATOM      2  N   UNL     1     -13.907  -2.782 -21.879  1.00  0.00    -0.350 N 
ATOM      3  H   UNL     1     -14.895  -2.501 -22.079  1.00  0.00     0.345 HD
ATOM      4  H   UNL     1     -13.278  -2.279 -22.545  1.00  0.00     0.345 HD
ATOM      5  H   UNL     1     -13.677  -2.489 -20.902  1.00  0.00     0.345 HD
ENDBRANCH   1   2
BRANCH   1   6
ATOM      6  C   UNL     1     -14.898  -4.801 -22.854  1.00  0.00     0.099 C 
ATOM      7  O   UNL     1     -15.342  -5.956 -22.621  1.00  0.00    -0.544 OA
ATOM      8  O   UNL     1     -15.429  -4.066 -23.907  1.00  0.00    -0.544 OA
ENDBRANCH   1   6
BRANCH   1   9
ATOM      9  C   UNL     1     -12.367  -4.648 -22.538  1.00  0.00     0.047 C 
ATOM     10  C   UNL     1     -12.122  -4.103 -23.954  1.00  0.00     0.014 C 
ATOM     11  C   UNL     1     -11.216  -4.230 -21.607  1.00  0.00     0.014 C 
ENDBRANCH   1   9
TORSDOF 3
ENDMDL
MODEL 9
REMARK VINA RESULT:    -3.887     20.301     20.681
REMARK INTER + INTRA:          -4.504
REMARK INTER:                  -4.455
REMARK INTRA:                  -0.049
REMARK UNBOUND:                -0.048
REMARK SMILES CC(C)[C@@H]([NH3+])C(=O)[O-]
REMARK SMILES IDX 4 1 5 2 6 6 7 7 8 8 2 9 1 10 3 11
REMARK H PARENT 5 3 5 4 5 5
REMARK Flexibility Score: inf
ROOT
ATOM      1  C   UNL     1     -13.861  -3.956 -22.413  1.00  0.00     0.230 C 
ENDROOT
BRANCH   1   2
ATOM      2  N   UNL     1     -14.116  -4.138 -20.977  1.00  0.00    -0.350 N 
ATOM      3  H   UNL     1     -14.445  -5.116 -20.802  1.00  0.00     0.345 HD
ATOM      4  H   UNL     1     -14.847  -3.476 -20.631  1.00  0.00     0.345 HD
ATOM      5  H   UNL     1     -13.234  -3.990 -20.435  1.00  0.00     0.345 HD
ENDBRANCH   1   2
BRANCH   1   6
ATOM      6  C   UNL     1     -12.392  -4.134 -22.719  1.00  0.00     0.099 C 
ATOM      7  O   UNL     1     -12.005  -4.228 -23.913  1.00  0.00    -0.544 OA
ATOM      8  O   UNL     1     -11.459  -4.223 -21.692  1.00  0.00    -0.544 OA
ENDBRANCH   1   6
BRANCH   1   9
ATOM      9  C   UNL     1     -14.770  -4.877 -23.282  1.00  0.00     0.047 C 
ATOM     10  C   UNL     1     -15.577  -5.850 -22.408  1.00  0.00     0.014 C 
ATOM     11  C   UNL     1     -15.716  -4.104 -24.217  1.00  0.00     0.014 C 
ENDBRANCH   1   9
TORSDOF 3
ENDMDL
