MODEL 1
REMARK VINA RESULT:     1.395      0.000      0.000
REMARK INTER + INTRA:           1.991
REMARK INTER:                   2.619
REMARK INTRA:                  -0.627
REMARK UNBOUND:                -0.627
REMARK SMILES CCCCCCCCC=CCCCCCCCC(=O)[O-]
REMARK SMILES IDX 10 1 9 2 11 3 12 4 13 5 14 6 15 7 16 8 17 9 18 10 19 11
REMARK SMILES IDX 20 12 8 13 7 14 6 15 5 16 4 17 3 18 2 19 1 20
REMARK H PARENT
REMARK Flexibility Score: inf
ROOT
ATOM      1  C   UNL     1     100.195  71.461  76.957  1.00  0.00    -0.031 C 
ATOM      2  C   UNL     1     100.894  70.415  76.491  1.00  0.00    -0.031 C 
ENDROOT
BRANCH   1   3
ATOM      3  C   UNL     1      99.438  71.389  78.257  1.00  0.00     0.027 C 
BRANCH   3   4
ATOM      4  C   UNL     1      99.933  72.423  79.279  1.00  0.00     0.004 C 
BRANCH   4   5
ATOM      5  C   UNL     1      99.259  72.252  80.648  1.00  0.00     0.000 C 
BRANCH   5   6
ATOM      6  C   UNL     1     100.285  71.870  81.722  1.00  0.00     0.000 C 
BRANCH   6   7
ATOM      7  C   UNL     1      99.595  71.562  83.058  1.00  0.00     0.000 C 
BRANCH   7   8
ATOM      8  C   UNL     1      98.111  71.186  82.900  1.00  0.00     0.006 C 
BRANCH   8   9
ATOM      9  C   UNL     1      97.411  70.832  84.224  1.00  0.00     0.053 C 
BRANCH   9  10
ATOM     10  C   UNL     1      95.934  71.078  84.180  1.00  0.00     0.041 C 
ATOM     11  O   UNL     1      95.433  72.041  84.817  1.00  0.00    -0.550 OA
ATOM     12  O   UNL     1      95.113  70.266  83.408  1.00  0.00    -0.550 OA
ENDBRANCH   9  10
ENDBRANCH   8   9
ENDBRANCH   7   8
ENDBRANCH   6   7
ENDBRANCH   5   6
ENDBRANCH   4   5
ENDBRANCH   3   4
ENDBRANCH   1   3
BRANCH   2  13
ATOM     13  C   UNL     1     101.640  70.485  75.188  1.00  0.00     0.027 C 
BRANCH  13  14
ATOM     14  C   UNL     1     102.535  69.254  74.994  1.00  0.00     0.004 C 
BRANCH  14  15
ATOM     15  C   UNL     1     102.634  68.875  73.512  1.00  0.00     0.000 C 
BRANCH  15  16
ATOM     16  C   UNL     1     101.263  68.953  72.830  1.00  0.00     0.000 C 
BRANCH  16  17
ATOM     17  C   UNL     1     101.403  68.882  71.303  1.00  0.00    -0.000 C 
BRANCH  17  18
ATOM     18  C   UNL     1     100.047  68.893  70.574  1.00  0.00    -0.000 C 
BRANCH  18  19
ATOM     19  C   UNL     1     100.051  69.600  69.209  1.00  0.00    -0.003 C 
ATOM     20  C   UNL     1      99.517  71.030  69.274  1.00  0.00     0.004 C 
ENDBRANCH  18  19
ENDBRANCH  17  18
ENDBRANCH  16  17
ENDBRANCH  15  16
ENDBRANCH  14  15
ENDBRANCH  13  14
ENDBRANCH   2  13
TORSDOF 15
ENDMDL
MODEL 2
REMARK VINA RESULT:     1.764      4.903     10.537
REMARK INTER + INTRA:           2.684
REMARK INTER:                   3.445
REMARK INTRA:                  -0.761
REMARK UNBOUND:                -0.627
REMARK SMILES CCCCCCCCC=CCCCCCCCC(=O)[O-]
REMARK SMILES IDX 10 1 9 2 11 3 12 4 13 5 14 6 15 7 16 8 17 9 18 10 19 11
REMARK SMILES IDX 20 12 8 13 7 14 6 15 5 16 4 17 3 18 2 19 1 20
REMARK H PARENT
REMARK Flexibility Score: inf
ROOT
ATOM      1  C   UNL     1      99.477  72.325  80.582  1.00  0.00    -0.031 C 
ATOM      2  C   UNL     1     100.326  71.775  81.464  1.00  0.00    -0.031 C 
ENDROOT
BRANCH   1   3
ATOM      3  C   UNL     1      99.877  72.575  79.152  1.00  0.00     0.027 C 
BRANCH   3   4
ATOM      4  C   UNL     1      99.567  71.377  78.242  1.00  0.00     0.004 C 
BRANCH   4   5
ATOM      5  C   UNL     1     100.219  71.517  76.859  1.00  0.00     0.000 C 
BRANCH   5   6
ATOM      6  C   UNL     1     101.144  70.329  76.565  1.00  0.00     0.000 C 
BRANCH   6   7
ATOM      7  C   UNL     1     101.348  70.150  75.054  1.00  0.00     0.000 C 
BRANCH   7   8
ATOM      8  C   UNL     1     102.131  71.307  74.408  1.00  0.00     0.006 C 
BRANCH   8   9
ATOM      9  C   UNL     1     103.223  71.904  75.314  1.00  0.00     0.053 C 
BRANCH   9  10
ATOM     10  C   UNL     1     103.926  73.066  74.680  1.00  0.00     0.041 C 
ATOM     11  O   UNL     1     103.322  73.796  73.852  1.00  0.00    -0.550 OA
ATOM     12  O   UNL     1     105.237  73.364  75.029  1.00  0.00    -0.550 OA
ENDBRANCH   9  10
ENDBRANCH   8   9
ENDBRANCH   7   8
ENDBRANCH   6   7
ENDBRANCH   5   6
ENDBRANCH   4   5
ENDBRANCH   3   4
ENDBRANCH   1   3
BRANCH   2  13
ATOM     13  C   UNL     1      99.929  71.537  82.895  1.00  0.00     0.027 C 
BRANCH  13  14
ATOM     14  C   UNL     1      98.405  71.444  83.040  1.00  0.00     0.004 C 
BRANCH  14  15
ATOM     15  C   UNL     1      97.987  71.536  84.512  1.00  0.00     0.000 C 
BRANCH  15  16
ATOM     16  C   UNL     1      96.885  70.520  84.837  1.00  0.00     0.000 C 
BRANCH  16  17
ATOM     17  C   UNL     1      96.321  69.892  83.553  1.00  0.00    -0.000 C 
BRANCH  17  18
ATOM     18  C   UNL     1      94.826  69.540  83.665  1.00  0.00    -0.000 C 
BRANCH  18  19
ATOM     19  C   UNL     1      93.926  70.689  84.152  1.00  0.00    -0.003 C 
ATOM     20  C   UNL     1      94.086  71.965  83.327  1.00  0.00     0.004 C 
ENDBRANCH  18  19
ENDBRANCH  17  18
ENDBRANCH  16  17
ENDBRANCH  15  16
ENDBRANCH  14  15
ENDBRANCH  13  14
ENDBRANCH   2  13
TORSDOF 15
ENDMDL
MODEL 3
REMARK VINA RESULT:     1.785      6.035      7.734
REMARK INTER + INTRA:           2.723
REMARK INTER:                   2.720
REMARK INTRA:                   0.003
REMARK UNBOUND:                -0.627
REMARK SMILES CCCCCCCCC=CCCCCCCCC(=O)[O-]
REMARK SMILES IDX 10 1 9 2 11 3 12 4 13 5 14 6 15 7 16 8 17 9 18 10 19 11
REMARK SMILES IDX 20 12 8 13 7 14 6 15 5 16 4 17 3 18 2 19 1 20
REMARK H PARENT
REMARK Flexibility Score: inf
ROOT
ATOM      1  C   UNL     1     100.944  69.646  72.185  1.00  0.00    -0.031 C 
ATOM      2  C   UNL     1     101.247  68.898  71.113  1.00  0.00    -0.031 C 
ENDROOT
BRANCH   1   3
ATOM      3  C   UNL     1     101.045  69.098  73.584  1.00  0.00     0.027 C 
BRANCH   3   4
ATOM      4  C   UNL     1     102.500  68.875  74.021  1.00  0.00     0.004 C 
BRANCH   4   5
ATOM      5  C   UNL     1     102.835  69.618  75.322  1.00  0.00     0.000 C 
BRANCH   5   6
ATOM      6  C   UNL     1     101.588  69.776  76.202  1.00  0.00     0.000 C 
BRANCH   6   7
ATOM      7  C   UNL     1     101.118  71.236  76.235  1.00  0.00     0.000 C 
BRANCH   7   8
ATOM      8  C   UNL     1     101.881  72.139  75.249  1.00  0.00     0.006 C 
BRANCH   8   9
ATOM      9  C   UNL     1     103.283  72.548  75.732  1.00  0.00     0.053 C 
BRANCH   9  10
ATOM     10  C   UNL     1     104.125  73.125  74.636  1.00  0.00     0.041 C 
ATOM     11  O   UNL     1     103.606  73.425  73.529  1.00  0.00    -0.550 OA
ATOM     12  O   UNL     1     105.478  73.365  74.846  1.00  0.00    -0.550 OA
ENDBRANCH   9  10
ENDBRANCH   8   9
ENDBRANCH   7   8
ENDBRANCH   6   7
ENDBRANCH   5   6
ENDBRANCH   4   5
ENDBRANCH   3   4
ENDBRANCH   1   3
BRANCH   2  13
ATOM     13  C   UNL     1     101.136  69.443  69.716  1.00  0.00     0.027 C 
BRANCH  13  14
ATOM     14  C   UNL     1      99.906  68.875  68.995  1.00  0.00     0.004 C 
BRANCH  14  15
ATOM     15  C   UNL     1      98.629  69.131  69.803  1.00  0.00     0.000 C 
BRANCH  15  16
ATOM     16  C   UNL     1      97.957  70.440  69.370  1.00  0.00     0.000 C 
BRANCH  16  17
ATOM     17  C   UNL     1      98.930  71.320  68.572  1.00  0.00    -0.000 C 
BRANCH  17  18
ATOM     18  C   UNL     1      99.434  72.535  69.373  1.00  0.00    -0.000 C 
BRANCH  18  19
ATOM     19  C   UNL     1      98.578  73.805  69.228  1.00  0.00    -0.003 C 
ATOM     20  C   UNL     1      97.114  73.586  69.609  1.00  0.00     0.004 C 
ENDBRANCH  18  19
ENDBRANCH  17  18
ENDBRANCH  16  17
ENDBRANCH  15  16
ENDBRANCH  14  15
ENDBRANCH  13  14
ENDBRANCH   2  13
TORSDOF 15
ENDMDL
MODEL 4
REMARK VINA RESULT:     1.993      2.628      3.824
REMARK INTER + INTRA:           3.114
REMARK INTER:                   3.844
REMARK INTRA:                  -0.730
REMARK UNBOUND:                -0.627
REMARK SMILES CCCCCCCCC=CCCCCCCCC(=O)[O-]
REMARK SMILES IDX 10 1 9 2 11 3 12 4 13 5 14 6 15 7 16 8 17 9 18 10 19 11
REMARK SMILES IDX 20 12 8 13 7 14 6 15 5 16 4 17 3 18 2 19 1 20
REMARK H PARENT
REMARK Flexibility Score: inf
ROOT
ATOM      1  C   UNL     1      99.875  72.386  79.606  1.00  0.00    -0.031 C 
ATOM      2  C   UNL     1      99.504  71.530  78.642  1.00  0.00    -0.031 C 
ENDROOT
BRANCH   1   3
ATOM      3  C   UNL     1      99.351  72.266  81.013  1.00  0.00     0.027 C 
BRANCH   3   4
ATOM      4  C   UNL     1     100.379  71.642  81.968  1.00  0.00     0.004 C 
BRANCH   4   5
ATOM      5  C   UNL     1      99.830  71.497  83.395  1.00  0.00     0.000 C 
BRANCH   5   6
ATOM      6  C   UNL     1      98.346  71.113  83.377  1.00  0.00     0.000 C 
BRANCH   6   7
ATOM      7  C   UNL     1      97.688  71.394  84.735  1.00  0.00     0.000 C 
BRANCH   7   8
ATOM      8  C   UNL     1      96.219  71.840  84.614  1.00  0.00     0.006 C 
BRANCH   8   9
ATOM      9  C   UNL     1      95.202  70.722  84.906  1.00  0.00     0.053 C 
BRANCH   9  10
ATOM     10  C   UNL     1      94.375  70.369  83.707  1.00  0.00     0.041 C 
ATOM     11  O   UNL     1      93.878  71.277  82.991  1.00  0.00    -0.550 OA
ATOM     12  O   UNL     1      94.179  69.038  83.361  1.00  0.00    -0.550 OA
ENDBRANCH   9  10
ENDBRANCH   8   9
ENDBRANCH   7   8
ENDBRANCH   6   7
ENDBRANCH   5   6
ENDBRANCH   4   5
ENDBRANCH   3   4
ENDBRANCH   1   3
BRANCH   2  13
ATOM     13  C   UNL     1     100.019  71.657  77.235  1.00  0.00     0.027 C 
BRANCH  13  14
ATOM     14  C   UNL     1     100.698  70.361  76.774  1.00  0.00     0.004 C 
BRANCH  14  15
ATOM     15  C   UNL     1     100.967  70.389  75.265  1.00  0.00     0.000 C 
BRANCH  15  16
ATOM     16  C   UNL     1     102.342  69.794  74.939  1.00  0.00     0.000 C 
BRANCH  16  17
ATOM     17  C   UNL     1     103.430  70.877  74.968  1.00  0.00    -0.000 C 
BRANCH  17  18
ATOM     18  C   UNL     1     102.857  72.305  74.912  1.00  0.00    -0.000 C 
BRANCH  18  19
ATOM     19  C   UNL     1     103.791  73.353  74.284  1.00  0.00    -0.003 C 
ATOM     20  C   UNL     1     105.157  73.422  74.964  1.00  0.00     0.004 C 
ENDBRANCH  18  19
ENDBRANCH  17  18
ENDBRANCH  16  17
ENDBRANCH  15  16
ENDBRANCH  14  15
ENDBRANCH  13  14
ENDBRANCH   2  13
TORSDOF 15
ENDMDL
MODEL 5
REMARK VINA RESULT:     2.024      1.012      2.637
REMARK INTER + INTRA:           3.171
REMARK INTER:                   3.876
REMARK INTRA:                  -0.705
REMARK UNBOUND:                -0.627
REMARK SMILES CCCCCCCCC=CCCCCCCCC(=O)[O-]
REMARK SMILES IDX 10 1 9 2 11 3 12 4 13 5 14 6 15 7 16 8 17 9 18 10 19 11
REMARK SMILES IDX 20 12 8 13 7 14 6 15 5 16 4 17 3 18 2 19 1 20
REMARK H PARENT
REMARK Flexibility Score: inf
ROOT
ATOM      1  C   UNL     1      99.852  72.479  79.829  1.00  0.00    -0.031 C 
ATOM      2  C   UNL     1      99.637  71.566  78.870  1.00  0.00    -0.031 C 
ENDROOT
BRANCH   1   3
ATOM      3  C   UNL     1      99.418  72.246  81.252  1.00  0.00     0.027 C 
BRANCH   3   4
ATOM      4  C   UNL     1     100.485  71.511  82.076  1.00  0.00     0.004 C 
BRANCH   4   5
ATOM      5  C   UNL     1     100.286  71.703  83.586  1.00  0.00     0.000 C 
BRANCH   5   6
ATOM      6  C   UNL     1      98.806  71.930  83.921  1.00  0.00     0.000 C 
BRANCH   6   7
ATOM      7  C   UNL     1      98.050  70.597  84.008  1.00  0.00     0.000 C 
BRANCH   7   8
ATOM      8  C   UNL     1      96.865  70.510  83.029  1.00  0.00     0.006 C 
BRANCH   8   9
ATOM      9  C   UNL     1      95.708  69.626  83.527  1.00  0.00     0.053 C 
BRANCH   9  10
ATOM     10  C   UNL     1      94.679  70.400  84.293  1.00  0.00     0.041 C 
ATOM     11  O   UNL     1      93.900  69.808  85.085  1.00  0.00    -0.550 OA
ATOM     12  O   UNL     1      94.601  71.781  84.159  1.00  0.00    -0.550 OA
ENDBRANCH   9  10
ENDBRANCH   8   9
ENDBRANCH   7   8
ENDBRANCH   6   7
ENDBRANCH   5   6
ENDBRANCH   4   5
ENDBRANCH   3   4
ENDBRANCH   1   3
BRANCH   2  13
ATOM     13  C   UNL     1     100.061  71.804  77.447  1.00  0.00     0.027 C 
BRANCH  13  14
ATOM     14  C   UNL     1     100.565  70.510  76.795  1.00  0.00     0.004 C 
BRANCH  14  15
ATOM     15  C   UNL     1     101.202  70.795  75.430  1.00  0.00     0.000 C 
BRANCH  15  16
ATOM     16  C   UNL     1     102.418  69.892  75.191  1.00  0.00     0.000 C 
BRANCH  16  17
ATOM     17  C   UNL     1     102.424  69.347  73.755  1.00  0.00    -0.000 C 
BRANCH  17  18
ATOM     18  C   UNL     1     101.129  69.668  72.986  1.00  0.00    -0.000 C 
BRANCH  18  19
ATOM     19  C   UNL     1     100.938  68.875  71.682  1.00  0.00    -0.003 C 
ATOM     20  C   UNL     1     100.574  69.761  70.491  1.00  0.00     0.004 C 
ENDBRANCH  18  19
ENDBRANCH  17  18
ENDBRANCH  16  17
ENDBRANCH  15  16
ENDBRANCH  14  15
ENDBRANCH  13  14
ENDBRANCH   2  13
TORSDOF 15
ENDMDL
MODEL 6
REMARK VINA RESULT:     2.334      7.035     10.784
REMARK INTER + INTRA:           3.753
REMARK INTER:                   4.456
REMARK INTRA:                  -0.703
REMARK UNBOUND:                -0.627
REMARK SMILES CCCCCCCCC=CCCCCCCCC(=O)[O-]
REMARK SMILES IDX 10 1 9 2 11 3 12 4 13 5 14 6 15 7 16 8 17 9 18 10 19 11
REMARK SMILES IDX 20 12 8 13 7 14 6 15 5 16 4 17 3 18 2 19 1 20
REMARK H PARENT
REMARK Flexibility Score: inf
ROOT
ATOM      1  C   UNL     1     103.347  71.041  75.088  1.00  0.00    -0.031 C 
ATOM      2  C   UNL     1     102.653  72.169  74.870  1.00  0.00    -0.031 C 
ENDROOT
BRANCH   1   3
ATOM      3  C   UNL     1     102.663  69.750  75.448  1.00  0.00     0.027 C 
BRANCH   3   4
ATOM      4  C   UNL     1     101.489  69.429  74.511  1.00  0.00     0.004 C 
BRANCH   4   5
ATOM      5  C   UNL     1     101.961  69.061  73.097  1.00  0.00     0.000 C 
BRANCH   5   6
ATOM      6  C   UNL     1     100.770  68.880  72.148  1.00  0.00     0.000 C 
BRANCH   6   7
ATOM      7  C   UNL     1     101.226  68.879  70.683  1.00  0.00     0.000 C 
BRANCH   7   8
ATOM      8  C   UNL     1     100.108  69.272  69.701  1.00  0.00     0.006 C 
BRANCH   8   9
ATOM      9  C   UNL     1     100.011  70.785  69.438  1.00  0.00     0.053 C 
BRANCH   9  10
ATOM     10  C   UNL     1      98.595  71.267  69.356  1.00  0.00     0.041 C 
ATOM     11  O   UNL     1      97.643  70.443  69.382  1.00  0.00    -0.550 OA
ATOM     12  O   UNL     1      98.322  72.627  69.284  1.00  0.00    -0.550 OA
ENDBRANCH   9  10
ENDBRANCH   8   9
ENDBRANCH   7   8
ENDBRANCH   6   7
ENDBRANCH   5   6
ENDBRANCH   4   5
ENDBRANCH   3   4
ENDBRANCH   1   3
BRANCH   2  13
ATOM     13  C   UNL     1     103.339  73.461  74.520  1.00  0.00     0.027 C 
BRANCH  13  14
ATOM     14  C   UNL     1     104.837  73.398  74.843  1.00  0.00     0.004 C 
BRANCH  14  15
ATOM     15  C   UNL     1     105.213  74.436  75.906  1.00  0.00     0.000 C 
BRANCH  15  16
ATOM     16  C   UNL     1     105.950  75.625  75.279  1.00  0.00     0.000 C 
BRANCH  16  17
ATOM     17  C   UNL     1     106.038  76.800  76.265  1.00  0.00    -0.000 C 
BRANCH  17  18
ATOM     18  C   UNL     1     107.014  77.898  75.804  1.00  0.00    -0.000 C 
BRANCH  18  19
ATOM     19  C   UNL     1     106.951  79.202  76.618  1.00  0.00    -0.003 C 
ATOM     20  C   UNL     1     107.432  79.032  78.059  1.00  0.00     0.004 C 
ENDBRANCH  18  19
ENDBRANCH  17  18
ENDBRANCH  16  17
ENDBRANCH  15  16
ENDBRANCH  14  15
ENDBRANCH  13  14
ENDBRANCH   2  13
TORSDOF 15
ENDMDL
MODEL 7
REMARK VINA RESULT:     2.753      6.409     10.080
REMARK INTER + INTRA:           4.540
REMARK INTER:                   5.697
REMARK INTRA:                  -1.156
REMARK UNBOUND:                -0.627
REMARK SMILES CCCCCCCCC=CCCCCCCCC(=O)[O-]
REMARK SMILES IDX 10 1 9 2 11 3 12 4 13 5 14 6 15 7 16 8 17 9 18 10 19 11
REMARK SMILES IDX 20 12 8 13 7 14 6 15 5 16 4 17 3 18 2 19 1 20
REMARK H PARENT
REMARK Flexibility Score: inf
ROOT
ATOM      1  C   UNL     1     101.692  69.049  72.887  1.00  0.00    -0.031 C 
ATOM      2  C   UNL     1     101.174  69.929  73.758  1.00  0.00    -0.031 C 
ENDROOT
BRANCH   1   3
ATOM      3  C   UNL     1     101.241  69.000  71.451  1.00  0.00     0.027 C 
BRANCH   3   4
ATOM      4  C   UNL     1      99.716  68.875  71.322  1.00  0.00     0.004 C 
BRANCH   4   5
ATOM      5  C   UNL     1      99.256  68.878  69.857  1.00  0.00     0.000 C 
BRANCH   5   6
ATOM      6  C   UNL     1     100.451  69.017  68.906  1.00  0.00     0.000 C 
BRANCH   6   7
ATOM      7  C   UNL     1     100.389  70.340  68.132  1.00  0.00     0.000 C 
BRANCH   7   8
ATOM      8  C   UNL     1     100.153  71.561  69.041  1.00  0.00     0.006 C 
BRANCH   8   9
ATOM      9  C   UNL     1      99.118  72.558  68.490  1.00  0.00     0.053 C 
BRANCH   9  10
ATOM     10  C   UNL     1      97.844  72.561  69.280  1.00  0.00     0.041 C 
ATOM     11  O   UNL     1      97.184  71.499  69.421  1.00  0.00    -0.550 OA
ATOM     12  O   UNL     1      97.403  73.729  69.888  1.00  0.00    -0.550 OA
ENDBRANCH   9  10
ENDBRANCH   8   9
ENDBRANCH   7   8
ENDBRANCH   6   7
ENDBRANCH   5   6
ENDBRANCH   4   5
ENDBRANCH   3   4
ENDBRANCH   1   3
BRANCH   2  13
ATOM     13  C   UNL     1     101.618  69.970  75.194  1.00  0.00     0.027 C 
BRANCH  13  14
ATOM     14  C   UNL     1     101.229  71.298  75.857  1.00  0.00     0.004 C 
BRANCH  14  15
ATOM     15  C   UNL     1     102.413  72.271  75.873  1.00  0.00     0.000 C 
BRANCH  15  16
ATOM     16  C   UNL     1     103.498  71.834  74.880  1.00  0.00     0.000 C 
BRANCH  16  17
ATOM     17  C   UNL     1     103.858  72.978  73.921  1.00  0.00    -0.000 C 
BRANCH  17  18
ATOM     18  C   UNL     1     103.052  74.262  74.190  1.00  0.00    -0.000 C 
BRANCH  18  19
ATOM     19  C   UNL     1     102.746  75.107  72.941  1.00  0.00    -0.003 C 
ATOM     20  C   UNL     1     102.048  76.427  73.268  1.00  0.00     0.004 C 
ENDBRANCH  18  19
ENDBRANCH  17  18
ENDBRANCH  16  17
ENDBRANCH  15  16
ENDBRANCH  14  15
ENDBRANCH  13  14
ENDBRANCH   2  13
TORSDOF 15
ENDMDL
MODEL 8
REMARK VINA RESULT:     3.772      4.805     10.798
REMARK INTER + INTRA:           6.452
REMARK INTER:                   7.211
REMARK INTRA:                  -0.759
REMARK UNBOUND:                -0.627
REMARK SMILES CCCCCCCCC=CCCCCCCCC(=O)[O-]
REMARK SMILES IDX 10 1 9 2 11 3 12 4 13 5 14 6 15 7 16 8 17 9 18 10 19 11
REMARK SMILES IDX 20 12 8 13 7 14 6 15 5 16 4 17 3 18 2 19 1 20
REMARK H PARENT
REMARK Flexibility Score: inf
ROOT
ATOM      1  C   UNL     1     101.376  71.762  76.263  1.00  0.00    -0.031 C 
ATOM      2  C   UNL     1     100.314  71.084  76.724  1.00  0.00    -0.031 C 
ENDROOT
BRANCH   1   3
ATOM      3  C   UNL     1     102.270  71.195  75.191  1.00  0.00     0.027 C 
BRANCH   3   4
ATOM      4  C   UNL     1     102.548  69.699  75.393  1.00  0.00     0.004 C 
BRANCH   4   5
ATOM      5  C   UNL     1     102.231  68.875  74.137  1.00  0.00     0.000 C 
BRANCH   5   6
ATOM      6  C   UNL     1     101.276  69.635  73.208  1.00  0.00     0.000 C 
BRANCH   6   7
ATOM      7  C   UNL     1     101.282  69.029  71.798  1.00  0.00     0.000 C 
BRANCH   7   8
ATOM      8  C   UNL     1      99.967  69.267  71.033  1.00  0.00     0.006 C 
BRANCH   8   9
ATOM      9  C   UNL     1     100.155  69.948  69.665  1.00  0.00     0.053 C 
BRANCH   9  10
ATOM     10  C   UNL     1      99.124  71.003  69.401  1.00  0.00     0.041 C 
ATOM     11  O   UNL     1      99.473  72.199  69.222  1.00  0.00    -0.550 OA
ATOM     12  O   UNL     1      97.780  70.662  69.317  1.00  0.00    -0.550 OA
ENDBRANCH   9  10
ENDBRANCH   8   9
ENDBRANCH   7   8
ENDBRANCH   6   7
ENDBRANCH   5   6
ENDBRANCH   4   5
ENDBRANCH   3   4
ENDBRANCH   1   3
BRANCH   2  13
ATOM     13  C   UNL     1      99.429  71.646  77.801  1.00  0.00     0.027 C 
BRANCH  13  14
ATOM     14  C   UNL     1     100.257  72.186  78.974  1.00  0.00     0.004 C 
BRANCH  14  15
ATOM     15  C   UNL     1      99.493  72.049  80.296  1.00  0.00     0.000 C 
BRANCH  15  16
ATOM     16  C   UNL     1     100.424  72.263  81.495  1.00  0.00     0.000 C 
BRANCH  16  17
ATOM     17  C   UNL     1     100.339  71.083  82.474  1.00  0.00    -0.000 C 
BRANCH  17  18
ATOM     18  C   UNL     1      99.432  71.372  83.685  1.00  0.00    -0.000 C 
BRANCH  18  19
ATOM     19  C   UNL     1      97.928  71.428  83.367  1.00  0.00    -0.003 C 
ATOM     20  C   UNL     1      97.097  70.488  84.238  1.00  0.00     0.004 C 
ENDBRANCH  18  19
ENDBRANCH  17  18
ENDBRANCH  16  17
ENDBRANCH  15  16
ENDBRANCH  14  15
ENDBRANCH  13  14
ENDBRANCH   2  13
TORSDOF 15
ENDMDL
