MODEL 1
REMARK VINA RESULT:    -3.206      0.000      0.000
REMARK INTER + INTRA:          -3.206
REMARK INTER:                  -3.206
REMARK INTRA:                   0.000
REMARK UNBOUND:                 0.000
REMARK SMILES CC1=CC(=O)[C@H]2C[C@@H]1C2(C)C
REMARK SMILES IDX 1 1 2 2 3 3 4 4 5 5 6 6 7 7 8 8 9 9 10 10 11 11
REMARK H PARENT
REMARK Flexibility Score: inf
ROOT
ATOM      1  C   UNL     1       8.506 -32.467  17.242  1.00  0.00     0.040 C 
ATOM      2  C   UNL     1       8.419 -32.587  15.754  1.00  0.00    -0.066 C 
ATOM      3  C   UNL     1       7.270 -32.290  15.085  1.00  0.00     0.047 C 
ATOM      4  C   UNL     1       7.300 -32.481  13.599  1.00  0.00     0.159 C 
ATOM      5  O   UNL     1       6.290 -32.277  12.875  1.00  0.00    -0.295 OA
ATOM      6  C   UNL     1       8.640 -32.939  13.024  1.00  0.00     0.067 C 
ATOM      7  C   UNL     1       9.680 -32.035  13.723  1.00  0.00     0.021 C 
ATOM      8  C   UNL     1       9.626 -33.034  14.902  1.00  0.00     0.022 C 
ATOM      9  C   UNL     1       9.170 -34.120  13.886  1.00  0.00    -0.019 C 
ATOM     10  C   UNL     1      10.366 -34.845  13.220  1.00  0.00     0.012 C 
ATOM     11  C   UNL     1       8.155 -35.196  14.367  1.00  0.00     0.012 C 
ENDROOT
TORSDOF 0
ENDMDL
MODEL 2
REMARK VINA RESULT:    -3.144      1.693      2.989
REMARK INTER + INTRA:          -3.144
REMARK INTER:                  -3.144
REMARK INTRA:                   0.000
REMARK UNBOUND:                 0.000
REMARK SMILES CC1=CC(=O)[C@H]2C[C@@H]1C2(C)C
REMARK SMILES IDX 1 1 2 2 3 3 4 4 5 5 6 6 7 7 8 8 9 9 10 10 11 11
REMARK H PARENT
REMARK Flexibility Score: inf
ROOT
ATOM      1  C   UNL     1      10.681 -33.365  12.931  1.00  0.00     0.040 C 
ATOM      2  C   UNL     1       9.358 -33.173  13.603  1.00  0.00    -0.066 C 
ATOM      3  C   UNL     1       9.274 -32.721  14.885  1.00  0.00     0.047 C 
ATOM      4  C   UNL     1       7.893 -32.600  15.456  1.00  0.00     0.159 C 
ATOM      5  O   UNL     1       7.687 -32.230  16.642  1.00  0.00    -0.295 OA
ATOM      6  C   UNL     1       6.756 -32.955  14.500  1.00  0.00     0.067 C 
ATOM      7  C   UNL     1       7.129 -32.237  13.184  1.00  0.00     0.021 C 
ATOM      8  C   UNL     1       8.027 -33.457  12.875  1.00  0.00     0.022 C 
ATOM      9  C   UNL     1       7.101 -34.300  13.799  1.00  0.00    -0.019 C 
ATOM     10  C   UNL     1       5.891 -34.894  13.036  1.00  0.00     0.012 C 
ATOM     11  C   UNL     1       7.745 -35.432  14.649  1.00  0.00     0.012 C 
ENDROOT
TORSDOF 0
ENDMDL
MODEL 3
REMARK VINA RESULT:    -3.066      1.814      2.735
REMARK INTER + INTRA:          -3.066
REMARK INTER:                  -3.066
REMARK INTRA:                   0.000
REMARK UNBOUND:                 0.000
REMARK SMILES CC1=CC(=O)[C@H]2C[C@@H]1C2(C)C
REMARK SMILES IDX 1 1 2 2 3 3 4 4 5 5 6 6 7 7 8 8 9 9 10 10 11 11
REMARK H PARENT
REMARK Flexibility Score: inf
ROOT
ATOM      1  C   UNL     1       8.910 -32.000  17.864  1.00  0.00     0.040 C 
ATOM      2  C   UNL     1       8.314 -32.785  16.740  1.00  0.00    -0.066 C 
ATOM      3  C   UNL     1       8.113 -34.129  16.843  1.00  0.00     0.047 C 
ATOM      4  C   UNL     1       7.537 -34.807  15.636  1.00  0.00     0.159 C 
ATOM      5  O   UNL     1       7.341 -36.049  15.593  1.00  0.00    -0.295 OA
ATOM      6  C   UNL     1       7.205 -33.885  14.463  1.00  0.00     0.067 C 
ATOM      7  C   UNL     1       6.478 -32.688  15.116  1.00  0.00     0.021 C 
ATOM      8  C   UNL     1       7.881 -32.114  15.419  1.00  0.00     0.022 C 
ATOM      9  C   UNL     1       8.417 -32.942  14.216  1.00  0.00    -0.019 C 
ATOM     10  C   UNL     1       8.304 -32.175  12.875  1.00  0.00     0.012 C 
ATOM     11  C   UNL     1       9.850 -33.539  14.317  1.00  0.00     0.012 C 
ENDROOT
TORSDOF 0
ENDMDL
MODEL 4
REMARK VINA RESULT:    -3.002      1.128      2.621
REMARK INTER + INTRA:          -3.002
REMARK INTER:                  -3.002
REMARK INTRA:                   0.000
REMARK UNBOUND:                 0.000
REMARK SMILES CC1=CC(=O)[C@H]2C[C@@H]1C2(C)C
REMARK SMILES IDX 1 1 2 2 3 3 4 4 5 5 6 6 7 7 8 8 9 9 10 10 11 11
REMARK H PARENT
REMARK Flexibility Score: inf
ROOT
ATOM      1  C   UNL     1      11.179 -31.860  13.890  1.00  0.00     0.040 C 
ATOM      2  C   UNL     1       9.826 -32.495  13.943  1.00  0.00    -0.066 C 
ATOM      3  C   UNL     1       8.769 -31.966  13.265  1.00  0.00     0.047 C 
ATOM      4  C   UNL     1       7.459 -32.677  13.423  1.00  0.00     0.159 C 
ATOM      5  O   UNL     1       6.401 -32.265  12.879  1.00  0.00    -0.295 OA
ATOM      6  C   UNL     1       7.496 -33.937  14.288  1.00  0.00     0.067 C 
ATOM      7  C   UNL     1       8.750 -34.695  13.798  1.00  0.00     0.021 C 
ATOM      8  C   UNL     1       9.564 -33.786  14.747  1.00  0.00     0.022 C 
ATOM      9  C   UNL     1       8.272 -33.613  15.597  1.00  0.00    -0.019 C 
ATOM     10  C   UNL     1       8.115 -34.725  16.664  1.00  0.00     0.012 C 
ATOM     11  C   UNL     1       8.022 -32.241  16.284  1.00  0.00     0.012 C 
ENDROOT
TORSDOF 0
ENDMDL
MODEL 5
REMARK VINA RESULT:    -2.943      1.925      3.543
REMARK INTER + INTRA:          -2.943
REMARK INTER:                  -2.943
REMARK INTRA:                   0.000
REMARK UNBOUND:                 0.000
REMARK SMILES CC1=CC(=O)[C@H]2C[C@@H]1C2(C)C
REMARK SMILES IDX 1 1 2 2 3 3 4 4 5 5 6 6 7 7 8 8 9 9 10 10 11 11
REMARK H PARENT
REMARK Flexibility Score: inf
ROOT
ATOM      1  C   UNL     1       9.473 -35.948  12.875  1.00  0.00     0.040 C 
ATOM      2  C   UNL     1       9.423 -34.521  13.323  1.00  0.00    -0.066 C 
ATOM      3  C   UNL     1      10.562 -33.797  13.506  1.00  0.00     0.047 C 
ATOM      4  C   UNL     1      10.381 -32.388  13.986  1.00  0.00     0.159 C 
ATOM      5  O   UNL     1      11.357 -31.631  14.230  1.00  0.00    -0.295 OA
ATOM      6  C   UNL     1       8.931 -31.937  14.159  1.00  0.00     0.067 C 
ATOM      7  C   UNL     1       8.226 -32.427  12.875  1.00  0.00     0.021 C 
ATOM      8  C   UNL     1       8.086 -33.796  13.580  1.00  0.00     0.022 C 
ATOM      9  C   UNL     1       8.159 -33.040  14.938  1.00  0.00    -0.019 C 
ATOM     10  C   UNL     1       6.768 -32.557  15.420  1.00  0.00     0.012 C 
ATOM     11  C   UNL     1       8.872 -33.739  16.130  1.00  0.00     0.012 C 
ENDROOT
TORSDOF 0
ENDMDL
MODEL 6
REMARK VINA RESULT:    -2.938      1.707      3.278
REMARK INTER + INTRA:          -2.938
REMARK INTER:                  -2.938
REMARK INTRA:                   0.000
REMARK UNBOUND:                 0.000
REMARK SMILES CC1=CC(=O)[C@H]2C[C@@H]1C2(C)C
REMARK SMILES IDX 1 1 2 2 3 3 4 4 5 5 6 6 7 7 8 8 9 9 10 10 11 11
REMARK H PARENT
REMARK Flexibility Score: inf
ROOT
ATOM      1  C   UNL     1      10.920 -31.596  14.359  1.00  0.00     0.040 C 
ATOM      2  C   UNL     1       9.897 -32.688  14.353  1.00  0.00    -0.066 C 
ATOM      3  C   UNL     1      10.062 -33.808  13.594  1.00  0.00     0.047 C 
ATOM      4  C   UNL     1       8.953 -34.815  13.650  1.00  0.00     0.159 C 
ATOM      5  O   UNL     1       8.969 -35.871  12.966  1.00  0.00    -0.295 OA
ATOM      6  C   UNL     1       7.802 -34.470  14.595  1.00  0.00     0.067 C 
ATOM      7  C   UNL     1       8.502 -33.998  15.888  1.00  0.00     0.021 C 
ATOM      8  C   UNL     1       8.620 -32.611  15.215  1.00  0.00     0.022 C 
ATOM      9  C   UNL     1       7.385 -32.991  14.347  1.00  0.00    -0.019 C 
ATOM     10  C   UNL     1       6.046 -32.633  15.038  1.00  0.00     0.012 C 
ATOM     11  C   UNL     1       7.330 -32.475  12.882  1.00  0.00     0.012 C 
ENDROOT
TORSDOF 0
ENDMDL
MODEL 7
REMARK VINA RESULT:    -2.887      1.515      2.394
REMARK INTER + INTRA:          -2.887
REMARK INTER:                  -2.887
REMARK INTRA:                   0.000
REMARK UNBOUND:                 0.000
REMARK SMILES CC1=CC(=O)[C@H]2C[C@@H]1C2(C)C
REMARK SMILES IDX 1 1 2 2 3 3 4 4 5 5 6 6 7 7 8 8 9 9 10 10 11 11
REMARK H PARENT
REMARK Flexibility Score: inf
ROOT
ATOM      1  C   UNL     1       8.487 -33.193  17.212  1.00  0.00     0.040 C 
ATOM      2  C   UNL     1       8.685 -33.224  15.729  1.00  0.00    -0.066 C 
ATOM      3  C   UNL     1       9.334 -32.217  15.080  1.00  0.00     0.047 C 
ATOM      4  C   UNL     1       9.441 -32.350  13.591  1.00  0.00     0.159 C 
ATOM      5  O   UNL     1       9.983 -31.468  12.875  1.00  0.00    -0.295 OA
ATOM      6  C   UNL     1       8.848 -33.630  13.003  1.00  0.00     0.067 C 
ATOM      7  C   UNL     1       9.367 -34.749  13.933  1.00  0.00     0.021 C 
ATOM      8  C   UNL     1       8.185 -34.402  14.866  1.00  0.00     0.022 C 
ATOM      9  C   UNL     1       7.436 -33.849  13.619  1.00  0.00    -0.019 C 
ATOM     10  C   UNL     1       6.634 -34.948  12.878  1.00  0.00     0.012 C 
ATOM     11  C   UNL     1       6.512 -32.613  13.805  1.00  0.00     0.012 C 
ENDROOT
TORSDOF 0
ENDMDL
MODEL 8
REMARK VINA RESULT:    -2.794      1.625      2.996
REMARK INTER + INTRA:          -2.794
REMARK INTER:                  -2.794
REMARK INTRA:                   0.000
REMARK UNBOUND:                 0.000
REMARK SMILES CC1=CC(=O)[C@H]2C[C@@H]1C2(C)C
REMARK SMILES IDX 1 1 2 2 3 3 4 4 5 5 6 6 7 7 8 8 9 9 10 10 11 11
REMARK H PARENT
REMARK Flexibility Score: inf
ROOT
ATOM      1  C   UNL     1       5.900 -32.753  12.882  1.00  0.00     0.040 C 
ATOM      2  C   UNL     1       6.982 -33.059  13.869  1.00  0.00    -0.066 C 
ATOM      3  C   UNL     1       7.026 -32.445  15.084  1.00  0.00     0.047 C 
ATOM      4  C   UNL     1       8.177 -32.815  15.972  1.00  0.00     0.159 C 
ATOM      5  O   UNL     1       8.350 -32.288  17.101  1.00  0.00    -0.295 OA
ATOM      6  C   UNL     1       9.123 -33.876  15.410  1.00  0.00     0.067 C 
ATOM      7  C   UNL     1       8.181 -34.963  14.847  1.00  0.00     0.021 C 
ATOM      8  C   UNL     1       8.085 -34.096  13.571  1.00  0.00     0.022 C 
ATOM      9  C   UNL     1       9.472 -33.498  13.942  1.00  0.00    -0.019 C 
ATOM     10  C   UNL     1      10.646 -34.339  13.381  1.00  0.00     0.012 C 
ATOM     11  C   UNL     1       9.741 -32.003  13.607  1.00  0.00     0.012 C 
ENDROOT
TORSDOF 0
ENDMDL
