MODEL 1
REMARK VINA RESULT:    -4.058      0.000      0.000
REMARK INTER + INTRA:          -5.409
REMARK INTER:                  -5.245
REMARK INTRA:                  -0.164
REMARK UNBOUND:                -0.164
REMARK SMILES CCCCCCC=O
REMARK SMILES IDX 4 1 3 2 2 3 1 4 5 5 6 6 7 7 8 8
REMARK H PARENT
REMARK Flexibility Score: inf
ROOT
ATOM      1  C   UNL     1      15.965  36.008  12.206  1.00  0.00     0.000 C 
ENDROOT
BRANCH   1   2
ATOM      2  C   UNL     1      17.024  34.987  12.639  1.00  0.00    -0.000 C 
BRANCH   2   3
ATOM      3  C   UNL     1      16.396  33.861  13.470  1.00  0.00    -0.003 C 
ATOM      4  C   UNL     1      15.635  34.420  14.669  1.00  0.00     0.004 C 
ENDBRANCH   2   3
ENDBRANCH   1   2
BRANCH   1   5
ATOM      5  C   UNL     1      16.293  36.591  10.827  1.00  0.00     0.008 C 
BRANCH   5   6
ATOM      6  C   UNL     1      17.515  35.900  10.214  1.00  0.00     0.072 C 
BRANCH   6   7
ATOM      7  C   UNL     1      17.451  35.923   8.716  1.00  0.00     0.224 C 
ATOM      8  O   UNL     1      18.360  36.413   8.065  1.00  0.00    -0.303 OA
ENDBRANCH   6   7
ENDBRANCH   5   6
ENDBRANCH   1   5
TORSDOF 5
ENDMDL
MODEL 2
REMARK VINA RESULT:    -3.877      2.614      4.788
REMARK INTER + INTRA:          -5.174
REMARK INTER:                  -5.037
REMARK INTRA:                  -0.137
REMARK UNBOUND:                -0.164
REMARK SMILES CCCCCCC=O
REMARK SMILES IDX 4 1 3 2 2 3 1 4 5 5 6 6 7 7 8 8
REMARK H PARENT
REMARK Flexibility Score: inf
ROOT
ATOM      1  C   UNL     1      16.409  36.665  10.724  1.00  0.00     0.000 C 
ENDROOT
BRANCH   1   2
ATOM      2  C   UNL     1      17.504  35.793  10.100  1.00  0.00    -0.000 C 
BRANCH   2   3
ATOM      3  C   UNL     1      17.790  36.218   8.654  1.00  0.00    -0.003 C 
ATOM      4  C   UNL     1      18.809  35.291   7.998  1.00  0.00     0.004 C 
ENDBRANCH   2   3
ENDBRANCH   1   2
BRANCH   1   5
ATOM      5  C   UNL     1      15.992  36.129  12.098  1.00  0.00     0.008 C 
BRANCH   5   6
ATOM      6  C   UNL     1      17.063  35.194  12.671  1.00  0.00     0.072 C 
BRANCH   6   7
ATOM      7  C   UNL     1      16.439  34.094  13.476  1.00  0.00     0.224 C 
ATOM      8  O   UNL     1      15.681  34.353  14.397  1.00  0.00    -0.303 OA
ENDBRANCH   6   7
ENDBRANCH   5   6
ENDBRANCH   1   5
TORSDOF 5
ENDMDL
MODEL 3
REMARK VINA RESULT:    -3.844      2.384      2.695
REMARK INTER + INTRA:          -5.131
REMARK INTER:                  -5.028
REMARK INTRA:                  -0.104
REMARK UNBOUND:                -0.164
REMARK SMILES CCCCCCC=O
REMARK SMILES IDX 4 1 3 2 2 3 1 4 5 5 6 6 7 7 8 8
REMARK H PARENT
REMARK Flexibility Score: inf
ROOT
ATOM      1  C   UNL     1      18.241  34.693  11.903  1.00  0.00     0.000 C 
ENDROOT
BRANCH   1   2
ATOM      2  C   UNL     1      16.931  35.043  12.619  1.00  0.00    -0.000 C 
BRANCH   2   3
ATOM      3  C   UNL     1      16.471  33.890  13.520  1.00  0.00    -0.003 C 
ATOM      4  C   UNL     1      15.629  34.404  14.685  1.00  0.00     0.004 C 
ENDBRANCH   2   3
ENDBRANCH   1   2
BRANCH   1   5
ATOM      5  C   UNL     1      18.196  35.116  10.431  1.00  0.00     0.008 C 
BRANCH   5   6
ATOM      6  C   UNL     1      19.118  34.239   9.578  1.00  0.00     0.072 C 
BRANCH   6   7
ATOM      7  C   UNL     1      20.410  33.968  10.290  1.00  0.00     0.224 C 
ATOM      8  O   UNL     1      20.840  32.830  10.380  1.00  0.00    -0.303 OA
ENDBRANCH   6   7
ENDBRANCH   5   6
ENDBRANCH   1   5
TORSDOF 5
ENDMDL
MODEL 4
REMARK VINA RESULT:    -3.799      1.940      2.352
REMARK INTER + INTRA:          -5.074
REMARK INTER:                  -4.833
REMARK INTRA:                  -0.241
REMARK UNBOUND:                -0.164
REMARK SMILES CCCCCCC=O
REMARK SMILES IDX 4 1 3 2 2 3 1 4 5 5 6 6 7 7 8 8
REMARK H PARENT
REMARK Flexibility Score: inf
ROOT
ATOM      1  C   UNL     1      17.782  35.137  12.255  1.00  0.00     0.000 C 
ENDROOT
BRANCH   1   2
ATOM      2  C   UNL     1      17.771  33.682  12.739  1.00  0.00    -0.000 C 
BRANCH   2   3
ATOM      3  C   UNL     1      16.486  33.370  13.517  1.00  0.00    -0.003 C 
ATOM      4  C   UNL     1      15.915  34.628  14.164  1.00  0.00     0.004 C 
ENDBRANCH   2   3
ENDBRANCH   1   2
BRANCH   1   5
ATOM      5  C   UNL     1      17.828  35.208  10.724  1.00  0.00     0.008 C 
BRANCH   5   6
ATOM      6  C   UNL     1      16.939  36.340  10.200  1.00  0.00     0.072 C 
BRANCH   6   7
ATOM      7  C   UNL     1      16.316  37.101  11.332  1.00  0.00     0.224 C 
ATOM      8  O   UNL     1      15.115  37.029  11.540  1.00  0.00    -0.303 OA
ENDBRANCH   6   7
ENDBRANCH   5   6
ENDBRANCH   1   5
TORSDOF 5
ENDMDL
MODEL 5
REMARK VINA RESULT:    -3.749      3.094      3.896
REMARK INTER + INTRA:          -5.009
REMARK INTER:                  -4.839
REMARK INTRA:                  -0.170
REMARK UNBOUND:                -0.164
REMARK SMILES CCCCCCC=O
REMARK SMILES IDX 4 1 3 2 2 3 1 4 5 5 6 6 7 7 8 8
REMARK H PARENT
REMARK Flexibility Score: inf
ROOT
ATOM      1  C   UNL     1      18.837  34.678  11.664  1.00  0.00     0.000 C 
ENDROOT
BRANCH   1   2
ATOM      2  C   UNL     1      17.468  35.274  12.012  1.00  0.00    -0.000 C 
BRANCH   2   3
ATOM      3  C   UNL     1      16.967  36.193  10.891  1.00  0.00    -0.003 C 
ATOM      4  C   UNL     1      15.859  37.117  11.389  1.00  0.00     0.004 C 
ENDBRANCH   2   3
ENDBRANCH   1   2
BRANCH   1   5
ATOM      5  C   UNL     1      18.962  34.423  10.158  1.00  0.00     0.008 C 
BRANCH   5   6
ATOM      6  C   UNL     1      20.423  34.199   9.757  1.00  0.00     0.072 C 
BRANCH   6   7
ATOM      7  C   UNL     1      20.792  32.749   9.864  1.00  0.00     0.224 C 
ATOM      8  O   UNL     1      21.403  32.336  10.837  1.00  0.00    -0.303 OA
ENDBRANCH   6   7
ENDBRANCH   5   6
ENDBRANCH   1   5
TORSDOF 5
ENDMDL
MODEL 6
REMARK VINA RESULT:    -3.629      3.416      4.966
REMARK INTER + INTRA:          -4.854
REMARK INTER:                  -4.697
REMARK INTRA:                  -0.157
REMARK UNBOUND:                -0.164
REMARK SMILES CCCCCCC=O
REMARK SMILES IDX 4 1 3 2 2 3 1 4 5 5 6 6 7 7 8 8
REMARK H PARENT
REMARK Flexibility Score: inf
ROOT
ATOM      1  C   UNL     1      18.253  34.973   9.999  1.00  0.00     0.000 C 
ENDROOT
BRANCH   1   2
ATOM      2  C   UNL     1      19.509  34.623   9.192  1.00  0.00    -0.000 C 
BRANCH   2   3
ATOM      3  C   UNL     1      20.585  34.000  10.091  1.00  0.00    -0.003 C 
ATOM      4  C   UNL     1      20.913  32.576   9.652  1.00  0.00     0.004 C 
ENDBRANCH   2   3
ENDBRANCH   1   2
BRANCH   1   5
ATOM      5  C   UNL     1      18.503  34.818  11.503  1.00  0.00     0.008 C 
BRANCH   5   6
ATOM      6  C   UNL     1      17.287  35.281  12.312  1.00  0.00     0.072 C 
BRANCH   6   7
ATOM      7  C   UNL     1      16.770  34.176  13.184  1.00  0.00     0.224 C 
ATOM      8  O   UNL     1      15.947  34.408  14.055  1.00  0.00    -0.303 OA
ENDBRANCH   6   7
ENDBRANCH   5   6
ENDBRANCH   1   5
TORSDOF 5
ENDMDL
MODEL 7
REMARK VINA RESULT:    -3.625     13.422     15.454
REMARK INTER + INTRA:          -4.849
REMARK INTER:                  -4.678
REMARK INTRA:                  -0.171
REMARK UNBOUND:                -0.164
REMARK SMILES CCCCCCC=O
REMARK SMILES IDX 4 1 3 2 2 3 1 4 5 5 6 6 7 7 8 8
REMARK H PARENT
REMARK Flexibility Score: inf
ROOT
ATOM      1  C   UNL     1      17.272  34.027  25.813  1.00  0.00     0.000 C 
ENDROOT
BRANCH   1   2
ATOM      2  C   UNL     1      16.187  34.750  25.006  1.00  0.00    -0.000 C 
BRANCH   2   3
ATOM      3  C   UNL     1      16.802  35.549  23.850  1.00  0.00    -0.003 C 
ATOM      4  C   UNL     1      18.281  35.831  24.100  1.00  0.00     0.004 C 
ENDBRANCH   2   3
ENDBRANCH   1   2
BRANCH   1   5
ATOM      5  C   UNL     1      16.871  33.903  27.287  1.00  0.00     0.008 C 
BRANCH   5   6
ATOM      6  C   UNL     1      17.964  33.199  28.097  1.00  0.00     0.072 C 
BRANCH   6   7
ATOM      7  C   UNL     1      18.773  32.286  27.226  1.00  0.00     0.224 C 
ATOM      8  O   UNL     1      19.979  32.181  27.390  1.00  0.00    -0.303 OA
ENDBRANCH   6   7
ENDBRANCH   5   6
ENDBRANCH   1   5
TORSDOF 5
ENDMDL
MODEL 8
REMARK VINA RESULT:    -3.610      2.731      4.439
REMARK INTER + INTRA:          -4.829
REMARK INTER:                  -4.651
REMARK INTRA:                  -0.178
REMARK UNBOUND:                -0.164
REMARK SMILES CCCCCCC=O
REMARK SMILES IDX 4 1 3 2 2 3 1 4 5 5 6 6 7 7 8 8
REMARK H PARENT
REMARK Flexibility Score: inf
ROOT
ATOM      1  C   UNL     1      18.216  35.129   9.815  1.00  0.00     0.000 C 
ENDROOT
BRANCH   1   2
ATOM      2  C   UNL     1      19.087  35.009   8.559  1.00  0.00    -0.000 C 
BRANCH   2   3
ATOM      3  C   UNL     1      20.319  34.136   8.824  1.00  0.00    -0.003 C 
ATOM      4  C   UNL     1      20.532  33.923  10.321  1.00  0.00     0.004 C 
ENDBRANCH   2   3
ENDBRANCH   1   2
BRANCH   1   5
ATOM      5  C   UNL     1      17.204  36.273   9.677  1.00  0.00     0.008 C 
BRANCH   5   6
ATOM      6  C   UNL     1      16.550  36.592  11.025  1.00  0.00     0.072 C 
BRANCH   6   7
ATOM      7  C   UNL     1      17.074  35.692  12.103  1.00  0.00     0.224 C 
ATOM      8  O   UNL     1      16.308  35.150  12.884  1.00  0.00    -0.303 OA
ENDBRANCH   6   7
ENDBRANCH   5   6
ENDBRANCH   1   5
TORSDOF 5
ENDMDL
MODEL 9
REMARK VINA RESULT:    -3.475     12.334     14.539
REMARK INTER + INTRA:          -4.655
REMARK INTER:                  -4.538
REMARK INTRA:                  -0.117
REMARK UNBOUND:                -0.164
REMARK SMILES CCCCCCC=O
REMARK SMILES IDX 4 1 3 2 2 3 1 4 5 5 6 6 7 7 8 8
REMARK H PARENT
REMARK Flexibility Score: inf
ROOT
ATOM      1  C   UNL     1      18.010  33.250  26.005  1.00  0.00     0.000 C 
ENDROOT
BRANCH   1   2
ATOM      2  C   UNL     1      17.875  33.169  27.530  1.00  0.00    -0.000 C 
BRANCH   2   3
ATOM      3  C   UNL     1      18.892  32.184  28.121  1.00  0.00    -0.003 C 
ATOM      4  C   UNL     1      20.151  32.110  27.261  1.00  0.00     0.004 C 
ENDBRANCH   2   3
ENDBRANCH   1   2
BRANCH   1   5
ATOM      5  C   UNL     1      17.043  34.287  25.421  1.00  0.00     0.008 C 
BRANCH   5   6
ATOM      6  C   UNL     1      17.753  35.191  24.408  1.00  0.00     0.072 C 
BRANCH   6   7
ATOM      7  C   UNL     1      16.760  35.950  23.578  1.00  0.00     0.224 C 
ATOM      8  O   UNL     1      17.126  36.585  22.602  1.00  0.00    -0.303 OA
ENDBRANCH   6   7
ENDBRANCH   5   6
ENDBRANCH   1   5
TORSDOF 5
ENDMDL
