MODEL 1
REMARK VINA RESULT:    -4.351      0.000      0.000
REMARK INTER + INTRA:          -7.052
REMARK INTER:                  -6.640
REMARK INTRA:                  -0.412
REMARK UNBOUND:                -0.412
REMARK SMILES CC1=CCC[C@@H](C)C(=O)C[C@H](C(C)C)C(=O)C1
REMARK SMILES IDX 8 1 9 2 6 3 7 4 5 5 4 6 3 7 2 8 1 9 10 11 11 12 15 13 16 14
REMARK SMILES IDX 17 15 12 17 13 18 14 19
REMARK H PARENT
REMARK Flexibility Score: 70.00
ROOT
ATOM      1  C   UNL     1      24.073  53.785   8.615  1.00  0.00     0.136 C 
ATOM      2  O   UNL     1      22.911  53.820   8.999  1.00  0.00    -0.299 OA
ENDROOT
BRANCH   1   3
ATOM      3  C   UNL     1      24.544  54.881   7.665  1.00  0.00     0.053 C 
ATOM      4  C   UNL     1      25.443  54.319   6.547  1.00  0.00     0.016 C 
BRANCH   3   5
ATOM      5  C   UNL     1      25.145  56.163   8.299  1.00  0.00     0.015 C 
BRANCH   5   6
ATOM      6  C   UNL     1      24.568  56.679   9.631  1.00  0.00     0.028 C 
BRANCH   6   7
ATOM      7  C   UNL     1      25.542  56.783  10.779  1.00  0.00    -0.028 C 
ATOM      8  C   UNL     1      25.618  56.000  11.891  1.00  0.00    -0.070 CG0
ATOM      9  C   UNL     1      26.634  56.410  12.930  1.00  0.00     0.039 C 
ATOM     10  G   UNL     1      24.909  54.663  12.112  1.00  0.00     0.000 G0
ENDBRANCH   6   7
ENDBRANCH   5   6
ENDBRANCH   3   5
ENDBRANCH   1   3
BRANCH   1  11
ATOM     11  C   UNL     1      24.972  52.734   9.234  1.00  0.00     0.087 C 
BRANCH  11  12
ATOM     12  C   UNL     1      26.074  53.357  10.142  1.00  0.00     0.066 C 
BRANCH  12  13
ATOM     13  C   UNL     1      25.597  53.434  11.593  1.00  0.00     0.140 C 
ATOM     14  O   UNL     1      25.804  52.507  12.365  1.00  0.00    -0.299 OA
BRANCH  13  15
ATOM     15  C   UNL     1      24.903  54.665  12.109  1.00  0.00     0.106 CG0
ATOM     16  G   UNL     1      25.635  55.993  11.909  1.00  0.00     0.000 G0
ENDBRANCH  13  15
ENDBRANCH  12  13
BRANCH  12  17
ATOM     17  C   UNL     1      27.454  52.622  10.030  1.00  0.00    -0.006 C 
ATOM     18  C   UNL     1      27.835  52.270   8.579  1.00  0.00     0.008 C 
ATOM     19  C   UNL     1      28.585  53.479  10.633  1.00  0.00     0.008 C 
ENDBRANCH  12  17
ENDBRANCH  11  12
ENDBRANCH   1  11
TORSDOF 1
ENDMDL
MODEL 2
REMARK VINA RESULT:    -4.307      2.609      5.081
REMARK INTER + INTRA:          -6.986
REMARK INTER:                  -6.378
REMARK INTRA:                  -0.607
REMARK UNBOUND:                -0.412
REMARK SMILES CC1=CCC[C@@H](C)C(=O)C[C@H](C(C)C)C(=O)C1
REMARK SMILES IDX 8 1 9 2 6 3 7 4 5 5 4 6 3 7 2 8 1 9 10 11 11 12 15 13 16 14
REMARK SMILES IDX 17 15 12 17 13 18 14 19
REMARK H PARENT
REMARK Flexibility Score: 70.00
ROOT
ATOM      1  C   UNL     1      28.986  54.716  12.725  1.00  0.00     0.136 C 
ATOM      2  O   UNL     1      29.899  54.943  13.508  1.00  0.00    -0.299 OA
ENDROOT
BRANCH   1   3
ATOM      3  C   UNL     1      28.901  53.323  12.111  1.00  0.00     0.053 C 
ATOM      4  C   UNL     1      29.894  53.152  10.944  1.00  0.00     0.016 C 
BRANCH   3   5
ATOM      5  C   UNL     1      27.491  52.786  11.752  1.00  0.00     0.015 C 
BRANCH   5   6
ATOM      6  C   UNL     1      26.999  52.893  10.295  1.00  0.00     0.028 C 
BRANCH   6   7
ATOM      7  C   UNL     1      25.571  53.346  10.109  1.00  0.00    -0.028 C 
ATOM      8  C   UNL     1      25.112  54.608   9.886  1.00  0.00    -0.070 CG0
ATOM      9  C   UNL     1      23.612  54.777   9.846  1.00  0.00     0.039 C 
ATOM     10  G   UNL     1      25.952  55.827   9.502  1.00  0.00     0.000 G0
ENDBRANCH   6   7
ENDBRANCH   5   6
ENDBRANCH   3   5
ENDBRANCH   1   3
BRANCH   1  11
ATOM     11  C   UNL     1      27.942  55.800  12.551  1.00  0.00     0.087 C 
BRANCH  11  12
ATOM     12  C   UNL     1      27.952  56.408  11.116  1.00  0.00     0.066 C 
BRANCH  12  13
ATOM     13  C   UNL     1      26.525  56.654  10.626  1.00  0.00     0.140 C 
ATOM     14  O   UNL     1      25.841  57.541  11.121  1.00  0.00    -0.299 OA
BRANCH  13  15
ATOM     15  C   UNL     1      25.949  55.842   9.497  1.00  0.00     0.106 CG0
ATOM     16  G   UNL     1      25.122  54.618   9.892  1.00  0.00     0.000 G0
ENDBRANCH  13  15
ENDBRANCH  12  13
BRANCH  12  17
ATOM     17  C   UNL     1      28.830  57.701  11.000  1.00  0.00    -0.006 C 
ATOM     18  C   UNL     1      28.897  58.506  12.312  1.00  0.00     0.008 C 
ATOM     19  C   UNL     1      30.269  57.352  10.572  1.00  0.00     0.008 C 
ENDBRANCH  12  17
ENDBRANCH  11  12
ENDBRANCH   1  11
TORSDOF 1
ENDMDL
MODEL 3
REMARK VINA RESULT:    -4.249      1.838      2.330
REMARK INTER + INTRA:          -6.897
REMARK INTER:                  -6.566
REMARK INTRA:                  -0.331
REMARK UNBOUND:                -0.412
REMARK SMILES CC1=CCC[C@@H](C)C(=O)C[C@H](C(C)C)C(=O)C1
REMARK SMILES IDX 8 1 9 2 6 3 7 4 5 5 4 6 3 7 2 8 1 9 10 11 11 12 15 13 16 14
REMARK SMILES IDX 17 15 12 17 13 18 14 19
REMARK H PARENT
REMARK Flexibility Score: 70.00
ROOT
ATOM      1  C   UNL     1      26.479  52.926   8.923  1.00  0.00     0.136 C 
ATOM      2  O   UNL     1      27.264  52.411   8.138  1.00  0.00    -0.299 OA
ENDROOT
BRANCH   1   3
ATOM      3  C   UNL     1      25.163  53.463   8.369  1.00  0.00     0.053 C 
ATOM      4  C   UNL     1      25.252  53.740   6.855  1.00  0.00     0.016 C 
BRANCH   3   5
ATOM      5  C   UNL     1      24.495  54.636   9.132  1.00  0.00     0.015 C 
BRANCH   5   6
ATOM      6  C   UNL     1      25.040  56.063   8.933  1.00  0.00     0.028 C 
BRANCH   6   7
ATOM      7  C   UNL     1      25.055  56.944  10.159  1.00  0.00    -0.028 C 
ATOM      8  C   UNL     1      25.984  56.985  11.153  1.00  0.00    -0.070 CG0
ATOM      9  C   UNL     1      25.680  57.897  12.318  1.00  0.00     0.039 C 
ATOM     10  G   UNL     1      27.371  56.340  11.129  1.00  0.00     0.000 G0
ENDBRANCH   6   7
ENDBRANCH   5   6
ENDBRANCH   3   5
ENDBRANCH   1   3
BRANCH   1  11
ATOM     11  C   UNL     1      26.828  52.851  10.396  1.00  0.00     0.087 C 
BRANCH  11  12
ATOM     12  C   UNL     1      27.995  53.811  10.778  1.00  0.00     0.066 C 
BRANCH  12  13
ATOM     13  C   UNL     1      27.489  54.945  11.670  1.00  0.00     0.140 C 
ATOM     14  O   UNL     1      27.202  54.735  12.840  1.00  0.00    -0.299 OA
BRANCH  13  15
ATOM     15  C   UNL     1      27.378  56.348  11.138  1.00  0.00     0.106 CG0
ATOM     16  G   UNL     1      25.982  56.973  11.153  1.00  0.00     0.000 G0
ENDBRANCH  13  15
ENDBRANCH  12  13
BRANCH  12  17
ATOM     17  C   UNL     1      29.215  53.071  11.427  1.00  0.00    -0.006 C 
ATOM     18  C   UNL     1      29.742  51.906  10.567  1.00  0.00     0.008 C 
ATOM     19  C   UNL     1      30.378  54.049  11.685  1.00  0.00     0.008 C 
ENDBRANCH  12  17
ENDBRANCH  11  12
ENDBRANCH   1  11
TORSDOF 1
ENDMDL
MODEL 4
REMARK VINA RESULT:    -4.215      2.680      4.629
REMARK INTER + INTRA:          -6.844
REMARK INTER:                  -6.691
REMARK INTRA:                  -0.153
REMARK UNBOUND:                -0.412
REMARK SMILES CC1=CCC[C@@H](C)C(=O)C[C@H](C(C)C)C(=O)C1
REMARK SMILES IDX 8 1 9 2 6 3 7 4 5 5 4 6 3 7 2 8 1 9 10 11 11 12 15 13 16 14
REMARK SMILES IDX 17 15 12 17 13 18 14 19
REMARK H PARENT
REMARK Flexibility Score: 70.00
ROOT
ATOM      1  C   UNL     1      26.182  56.722  10.673  1.00  0.00     0.136 C 
ATOM      2  O   UNL     1      25.222  57.119  11.321  1.00  0.00    -0.299 OA
ENDROOT
BRANCH   1   3
ATOM      3  C   UNL     1      25.914  55.785   9.500  1.00  0.00     0.053 C 
ATOM      4  C   UNL     1      24.544  56.062   8.850  1.00  0.00     0.016 C 
BRANCH   3   5
ATOM      5  C   UNL     1      26.147  54.269   9.732  1.00  0.00     0.015 C 
BRANCH   5   6
ATOM      6  C   UNL     1      27.580  53.765   9.991  1.00  0.00     0.028 C 
BRANCH   6   7
ATOM      7  C   UNL     1      27.813  53.082  11.317  1.00  0.00    -0.028 C 
ATOM      8  C   UNL     1      28.476  53.563  12.405  1.00  0.00    -0.070 CG0
ATOM      9  C   UNL     1      28.644  52.607  13.562  1.00  0.00     0.039 C 
ATOM     10  G   UNL     1      28.912  55.010  12.638  1.00  0.00     0.000 G0
ENDBRANCH   6   7
ENDBRANCH   5   6
ENDBRANCH   3   5
ENDBRANCH   1   3
BRANCH   1  11
ATOM     11  C   UNL     1      27.534  57.316  11.012  1.00  0.00     0.087 C 
BRANCH  11  12
ATOM     12  C   UNL     1      27.782  57.388  12.548  1.00  0.00     0.066 C 
BRANCH  12  13
ATOM     13  C   UNL     1      27.891  55.984  13.143  1.00  0.00     0.140 C 
ATOM     14  O   UNL     1      27.106  55.611  14.005  1.00  0.00    -0.299 OA
BRANCH  13  15
ATOM     15  C   UNL     1      28.936  55.020  12.649  1.00  0.00     0.106 CG0
ATOM     16  G   UNL     1      28.474  53.583  12.403  1.00  0.00     0.000 G0
ENDBRANCH  13  15
ENDBRANCH  12  13
BRANCH  12  17
ATOM     17  C   UNL     1      29.018  58.272  12.933  1.00  0.00    -0.006 C 
ATOM     18  C   UNL     1      29.770  58.826  11.707  1.00  0.00     0.008 C 
ATOM     19  C   UNL     1      28.592  59.460  13.818  1.00  0.00     0.008 C 
ENDBRANCH  12  17
ENDBRANCH  11  12
ENDBRANCH   1  11
TORSDOF 1
ENDMDL
MODEL 5
REMARK VINA RESULT:    -4.198      2.938      5.068
REMARK INTER + INTRA:          -6.819
REMARK INTER:                  -6.493
REMARK INTRA:                  -0.326
REMARK UNBOUND:                -0.412
REMARK SMILES CC1=CCC[C@@H](C)C(=O)C[C@H](C(C)C)C(=O)C1
REMARK SMILES IDX 8 1 9 2 6 3 7 4 5 5 4 6 3 7 2 8 1 9 10 11 11 12 15 13 16 14
REMARK SMILES IDX 17 15 12 17 13 18 14 19
REMARK H PARENT
REMARK Flexibility Score: 70.00
ROOT
ATOM      1  C   UNL     1      26.804  57.494  12.578  1.00  0.00     0.136 C 
ATOM      2  O   UNL     1      25.886  58.291  12.726  1.00  0.00    -0.299 OA
ENDROOT
BRANCH   1   3
ATOM      3  C   UNL     1      28.232  58.022  12.677  1.00  0.00     0.053 C 
ATOM      4  C   UNL     1      28.314  59.281  13.562  1.00  0.00     0.016 C 
BRANCH   3   5
ATOM      5  C   UNL     1      29.021  58.194  11.354  1.00  0.00     0.015 C 
BRANCH   5   6
ATOM      6  C   UNL     1      30.319  57.389  11.147  1.00  0.00     0.028 C 
BRANCH   6   7
ATOM      7  C   UNL     1      30.565  56.266  12.126  1.00  0.00    -0.028 C 
ATOM      8  C   UNL     1      30.015  55.021  12.132  1.00  0.00    -0.070 CG0
ATOM      9  C   UNL     1      30.370  54.138  13.305  1.00  0.00     0.039 C 
ATOM     10  G   UNL     1      29.223  54.371  10.997  1.00  0.00     0.000 G0
ENDBRANCH   6   7
ENDBRANCH   5   6
ENDBRANCH   3   5
ENDBRANCH   1   3
BRANCH   1  11
ATOM     11  C   UNL     1      26.432  56.031  12.451  1.00  0.00     0.087 C 
BRANCH  11  12
ATOM     12  C   UNL     1      26.807  55.442  11.059  1.00  0.00     0.066 C 
BRANCH  12  13
ATOM     13  C   UNL     1      27.730  54.233  11.216  1.00  0.00     0.140 C 
ATOM     14  O   UNL     1      27.271  53.131  11.485  1.00  0.00    -0.299 OA
BRANCH  13  15
ATOM     15  C   UNL     1      29.213  54.366  11.001  1.00  0.00     0.106 CG0
ATOM     16  G   UNL     1      30.012  55.005  12.138  1.00  0.00     0.000 G0
ENDBRANCH  13  15
ENDBRANCH  12  13
BRANCH  12  17
ATOM     17  C   UNL     1      25.557  55.099  10.177  1.00  0.00    -0.006 C 
ATOM     18  C   UNL     1      24.680  56.327   9.868  1.00  0.00     0.008 C 
ATOM     19  C   UNL     1      25.985  54.461   8.840  1.00  0.00     0.008 C 
ENDBRANCH  12  17
ENDBRANCH  11  12
ENDBRANCH   1  11
TORSDOF 1
ENDMDL
MODEL 6
REMARK VINA RESULT:    -4.193      2.144      4.091
REMARK INTER + INTRA:          -6.811
REMARK INTER:                  -6.397
REMARK INTRA:                  -0.414
REMARK UNBOUND:                -0.412
REMARK SMILES CC1=CCC[C@@H](C)C(=O)C[C@H](C(C)C)C(=O)C1
REMARK SMILES IDX 8 1 9 2 6 3 7 4 5 5 4 6 3 7 2 8 1 9 10 11 11 12 15 13 16 14
REMARK SMILES IDX 17 15 12 17 13 18 14 19
REMARK H PARENT
REMARK Flexibility Score: 70.00
ROOT
ATOM      1  C   UNL     1      25.352  56.183  10.478  1.00  0.00     0.136 C 
ATOM      2  O   UNL     1      25.040  57.041   9.663  1.00  0.00    -0.299 OA
ENDROOT
BRANCH   1   3
ATOM      3  C   UNL     1      25.915  56.642  11.819  1.00  0.00     0.053 C 
ATOM      4  C   UNL     1      25.274  57.964  12.285  1.00  0.00     0.016 C 
BRANCH   3   5
ATOM      5  C   UNL     1      27.458  56.663  11.974  1.00  0.00     0.015 C 
BRANCH   5   6
ATOM      6  C   UNL     1      28.335  56.239  10.780  1.00  0.00     0.028 C 
BRANCH   6   7
ATOM      7  C   UNL     1      29.175  55.001  10.982  1.00  0.00    -0.028 C 
ATOM      8  C   UNL     1      28.755  53.711  11.102  1.00  0.00    -0.070 CG0
ATOM      9  C   UNL     1      29.822  52.686  11.405  1.00  0.00     0.039 C 
ATOM     10  G   UNL     1      27.356  53.177  10.793  1.00  0.00     0.000 G0
ENDBRANCH   6   7
ENDBRANCH   5   6
ENDBRANCH   3   5
ENDBRANCH   1   3
BRANCH   1  11
ATOM     11  C   UNL     1      25.014  54.747  10.130  1.00  0.00     0.087 C 
BRANCH  11  12
ATOM     12  C   UNL     1      25.837  54.222   8.916  1.00  0.00     0.066 C 
BRANCH  12  13
ATOM     13  C   UNL     1      26.894  53.218   9.377  1.00  0.00     0.140 C 
ATOM     14  O   UNL     1      27.417  52.455   8.575  1.00  0.00    -0.299 OA
BRANCH  13  15
ATOM     15  C   UNL     1      27.342  53.178  10.812  1.00  0.00     0.106 CG0
ATOM     16  G   UNL     1      28.752  53.696  11.101  1.00  0.00     0.000 G0
ENDBRANCH  13  15
ENDBRANCH  12  13
BRANCH  12  17
ATOM     17  C   UNL     1      24.941  53.630   7.774  1.00  0.00    -0.006 C 
ATOM     18  C   UNL     1      23.433  53.783   8.048  1.00  0.00     0.008 C 
ATOM     19  C   UNL     1      25.259  54.300   6.422  1.00  0.00     0.008 C 
ENDBRANCH  12  17
ENDBRANCH  11  12
ENDBRANCH   1  11
TORSDOF 1
ENDMDL
MODEL 7
REMARK VINA RESULT:    -4.166      6.621      7.874
REMARK INTER + INTRA:          -6.769
REMARK INTER:                  -6.477
REMARK INTRA:                  -0.293
REMARK UNBOUND:                -0.412
REMARK SMILES CC1=CCC[C@@H](C)C(=O)C[C@H](C(C)C)C(=O)C1
REMARK SMILES IDX 8 1 9 2 6 3 7 4 5 5 4 6 3 7 2 8 1 9 10 11 11 12 15 13 16 14
REMARK SMILES IDX 17 15 12 17 13 18 14 19
REMARK H PARENT
REMARK Flexibility Score: 70.00
ROOT
ATOM      1  C   UNL     1      26.548  50.250  16.795  1.00  0.00     0.136 C 
ATOM      2  O   UNL     1      25.669  49.789  16.078  1.00  0.00    -0.299 OA
ENDROOT
BRANCH   1   3
ATOM      3  C   UNL     1      26.171  51.373  17.756  1.00  0.00     0.053 C 
ATOM      4  C   UNL     1      25.070  50.934  18.742  1.00  0.00     0.016 C 
BRANCH   3   5
ATOM      5  C   UNL     1      25.874  52.766  17.143  1.00  0.00     0.015 C 
BRANCH   5   6
ATOM      6  C   UNL     1      26.717  53.251  15.948  1.00  0.00     0.028 C 
BRANCH   6   7
ATOM      7  C   UNL     1      27.986  53.993  16.290  1.00  0.00    -0.028 C 
ATOM      8  C   UNL     1      29.273  53.589  16.102  1.00  0.00    -0.070 CG0
ATOM      9  C   UNL     1      30.347  54.501  16.644  1.00  0.00     0.039 C 
ATOM     10  G   UNL     1      29.739  52.403  15.256  1.00  0.00     0.000 G0
ENDBRANCH   6   7
ENDBRANCH   5   6
ENDBRANCH   3   5
ENDBRANCH   1   3
BRANCH   1  11
ATOM     11  C   UNL     1      27.898  49.562  16.759  1.00  0.00     0.087 C 
BRANCH  11  12
ATOM     12  C   UNL     1      28.750  49.992  15.528  1.00  0.00     0.066 C 
BRANCH  12  13
ATOM     13  C   UNL     1      29.769  51.061  15.925  1.00  0.00     0.140 C 
ATOM     14  O   UNL     1      30.627  50.821  16.764  1.00  0.00    -0.299 OA
BRANCH  13  15
ATOM     15  C   UNL     1      29.764  52.410  15.260  1.00  0.00     0.106 CG0
ATOM     16  G   UNL     1      29.273  53.585  16.108  1.00  0.00     0.000 G0
ENDBRANCH  13  15
ENDBRANCH  12  13
BRANCH  12  17
ATOM     17  C   UNL     1      29.438  48.784  14.802  1.00  0.00    -0.006 C 
ATOM     18  C   UNL     1      30.073  47.775  15.778  1.00  0.00     0.008 C 
ATOM     19  C   UNL     1      28.429  48.030  13.913  1.00  0.00     0.008 C 
ENDBRANCH  12  17
ENDBRANCH  11  12
ENDBRANCH   1  11
TORSDOF 1
ENDMDL
MODEL 8
REMARK VINA RESULT:    -4.120      2.358      4.101
REMARK INTER + INTRA:          -6.700
REMARK INTER:                  -6.372
REMARK INTRA:                  -0.328
REMARK UNBOUND:                -0.412
REMARK SMILES CC1=CCC[C@@H](C)C(=O)C[C@H](C(C)C)C(=O)C1
REMARK SMILES IDX 8 1 9 2 6 3 7 4 5 5 4 6 3 7 2 8 1 9 10 11 11 12 15 13 16 14
REMARK SMILES IDX 17 15 12 17 13 18 14 19
REMARK H PARENT
REMARK Flexibility Score: 70.00
ROOT
ATOM      1  C   UNL     1      26.961  55.490  11.139  1.00  0.00     0.136 C 
ATOM      2  O   UNL     1      26.833  55.169  12.313  1.00  0.00    -0.299 OA
ENDROOT
BRANCH   1   3
ATOM      3  C   UNL     1      26.339  56.807  10.686  1.00  0.00     0.053 C 
ATOM      4  C   UNL     1      26.392  57.875  11.796  1.00  0.00     0.016 C 
BRANCH   3   5
ATOM      5  C   UNL     1      24.943  56.742  10.015  1.00  0.00     0.015 C 
BRANCH   5   6
ATOM      6  C   UNL     1      24.398  55.376   9.554  1.00  0.00     0.028 C 
BRANCH   6   7
ATOM      7  C   UNL     1      24.652  55.014   8.110  1.00  0.00    -0.028 C 
ATOM      8  C   UNL     1      25.304  53.924   7.619  1.00  0.00    -0.070 CG0
ATOM      9  C   UNL     1      25.501  53.880   6.122  1.00  0.00     0.039 C 
ATOM     10  G   UNL     1      25.700  52.672   8.402  1.00  0.00     0.000 G0
ENDBRANCH   6   7
ENDBRANCH   5   6
ENDBRANCH   3   5
ENDBRANCH   1   3
BRANCH   1  11
ATOM     11  C   UNL     1      27.850  54.614  10.278  1.00  0.00     0.087 C 
BRANCH  11  12
ATOM     12  C   UNL     1      27.435  53.114  10.333  1.00  0.00     0.066 C 
BRANCH  12  13
ATOM     13  C   UNL     1      27.098  52.597   8.934  1.00  0.00     0.140 C 
ATOM     14  O   UNL     1      27.964  52.091   8.233  1.00  0.00    -0.299 OA
BRANCH  13  15
ATOM     15  C   UNL     1      25.689  52.659   8.412  1.00  0.00     0.106 CG0
ATOM     16  G   UNL     1      25.311  53.911   7.619  1.00  0.00     0.000 G0
ENDBRANCH  13  15
ENDBRANCH  12  13
BRANCH  12  17
ATOM     17  C   UNL     1      28.500  52.206  11.040  1.00  0.00    -0.006 C 
ATOM     18  C   UNL     1      29.947  52.680  10.809  1.00  0.00     0.008 C 
ATOM     19  C   UNL     1      28.247  52.141  12.559  1.00  0.00     0.008 C 
ENDBRANCH  12  17
ENDBRANCH  11  12
ENDBRANCH   1  11
TORSDOF 1
ENDMDL
MODEL 9
REMARK VINA RESULT:    -3.993      1.848      4.230
REMARK INTER + INTRA:          -6.507
REMARK INTER:                  -6.409
REMARK INTRA:                  -0.098
REMARK UNBOUND:                -0.412
REMARK SMILES CC1=CCC[C@@H](C)C(=O)C[C@H](C(C)C)C(=O)C1
REMARK SMILES IDX 8 1 9 2 6 3 7 4 5 5 4 6 3 7 2 8 1 9 10 11 11 12 15 13 16 14
REMARK SMILES IDX 17 15 12 17 13 18 14 19
REMARK H PARENT
REMARK Flexibility Score: 70.00
ROOT
ATOM      1  C   UNL     1      26.033  56.235  10.642  1.00  0.00     0.136 C 
ATOM      2  O   UNL     1      25.492  56.797  11.586  1.00  0.00    -0.299 OA
ENDROOT
BRANCH   1   3
ATOM      3  C   UNL     1      27.131  55.222  10.948  1.00  0.00     0.053 C 
ATOM      4  C   UNL     1      28.519  55.889  11.019  1.00  0.00     0.016 C 
BRANCH   3   5
ATOM      5  C   UNL     1      27.158  53.924  10.100  1.00  0.00     0.015 C 
BRANCH   5   6
ATOM      6  C   UNL     1      26.599  52.623  10.708  1.00  0.00     0.028 C 
BRANCH   6   7
ATOM      7  C   UNL     1      25.390  52.774  11.599  1.00  0.00    -0.028 C 
ATOM      8  C   UNL     1      24.138  53.186  11.255  1.00  0.00    -0.070 CG0
ATOM      9  C   UNL     1      23.151  53.343  12.387  1.00  0.00     0.039 C 
ATOM     10  G   UNL     1      23.588  53.338   9.836  1.00  0.00     0.000 G0
ENDBRANCH   6   7
ENDBRANCH   5   6
ENDBRANCH   3   5
ENDBRANCH   1   3
BRANCH   1  11
ATOM     11  C   UNL     1      25.459  56.497   9.264  1.00  0.00     0.087 C 
BRANCH  11  12
ATOM     12  C   UNL     1      24.961  55.193   8.573  1.00  0.00     0.066 C 
BRANCH  12  13
ATOM     13  C   UNL     1      23.660  54.707   9.213  1.00  0.00     0.140 C 
ATOM     14  O   UNL     1      22.659  55.411   9.200  1.00  0.00    -0.299 OA
BRANCH  13  15
ATOM     15  C   UNL     1      23.575  53.339   9.833  1.00  0.00     0.106 CG0
ATOM     16  G   UNL     1      24.138  53.195  11.247  1.00  0.00     0.000 G0
ENDBRANCH  13  15
ENDBRANCH  12  13
BRANCH  12  17
ATOM     17  C   UNL     1      24.816  55.336   7.018  1.00  0.00    -0.006 C 
ATOM     18  C   UNL     1      25.245  56.721   6.496  1.00  0.00     0.008 C 
ATOM     19  C   UNL     1      25.649  54.264   6.287  1.00  0.00     0.008 C 
ENDBRANCH  12  17
ENDBRANCH  11  12
ENDBRANCH   1  11
TORSDOF 1
ENDMDL
