MODEL 1
REMARK VINA RESULT:    -2.441      0.000      0.000
REMARK INTER + INTRA:          -2.441
REMARK INTER:                  -2.441
REMARK INTRA:                   0.000
REMARK UNBOUND:                 0.000
REMARK SMILES CC(=O)[O-]
REMARK SMILES IDX 1 1 2 2 3 3 4 4
REMARK H PARENT
REMARK Flexibility Score: inf
ROOT
ATOM      1  C   UNL     1      60.890  37.655  30.967  1.00  0.00     0.063 C 
ATOM      2  C   UNL     1      61.692  38.904  30.823  1.00  0.00     0.038 C 
ATOM      3  O   UNL     1      61.359  39.776  29.980  1.00  0.00    -0.550 OA
ATOM      4  O   UNL     1      62.842  39.084  31.583  1.00  0.00    -0.550 OA
ENDROOT
TORSDOF 0
ENDMDL
MODEL 2
REMARK VINA RESULT:    -2.434      1.579      2.149
REMARK INTER + INTRA:          -2.434
REMARK INTER:                  -2.434
REMARK INTRA:                   0.000
REMARK UNBOUND:                 0.000
REMARK SMILES CC(=O)[O-]
REMARK SMILES IDX 1 1 2 2 3 3 4 4
REMARK H PARENT
REMARK Flexibility Score: inf
ROOT
ATOM      1  C   UNL     1      61.711  39.022  29.238  1.00  0.00     0.063 C 
ATOM      2  C   UNL     1      61.448  38.483  30.603  1.00  0.00     0.038 C 
ATOM      3  O   UNL     1      62.126  38.885  31.584  1.00  0.00    -0.550 OA
ATOM      4  O   UNL     1      60.488  37.495  30.789  1.00  0.00    -0.550 OA
ENDROOT
TORSDOF 0
ENDMDL
MODEL 3
REMARK VINA RESULT:    -2.297      1.732      2.174
REMARK INTER + INTRA:          -2.297
REMARK INTER:                  -2.297
REMARK INTRA:                   0.000
REMARK UNBOUND:                 0.000
REMARK SMILES CC(=O)[O-]
REMARK SMILES IDX 1 1 2 2 3 3 4 4
REMARK H PARENT
REMARK Flexibility Score: inf
ROOT
ATOM      1  C   UNL     1      62.146  38.962  31.407  1.00  0.00     0.063 C 
ATOM      2  C   UNL     1      61.299  38.440  30.296  1.00  0.00     0.038 C 
ATOM      3  O   UNL     1      60.482  37.508  30.508  1.00  0.00    -0.550 OA
ATOM      4  O   UNL     1      61.449  38.946  29.010  1.00  0.00    -0.550 OA
ENDROOT
TORSDOF 0
ENDMDL
MODEL 4
REMARK VINA RESULT:    -2.245      8.806      8.996
REMARK INTER + INTRA:          -2.245
REMARK INTER:                  -2.245
REMARK INTRA:                   0.000
REMARK UNBOUND:                 0.000
REMARK SMILES CC(=O)[O-]
REMARK SMILES IDX 1 1 2 2 3 3 4 4
REMARK H PARENT
REMARK Flexibility Score: inf
ROOT
ATOM      1  C   UNL     1      64.126  32.738  26.312  1.00  0.00     0.063 C 
ATOM      2  C   UNL     1      63.375  31.453  26.410  1.00  0.00     0.038 C 
ATOM      3  O   UNL     1      63.740  30.455  25.735  1.00  0.00    -0.550 OA
ATOM      4  O   UNL     1      62.239  31.370  27.205  1.00  0.00    -0.550 OA
ENDROOT
TORSDOF 0
ENDMDL
MODEL 5
REMARK VINA RESULT:    -2.063     13.187     13.476
REMARK INTER + INTRA:          -2.063
REMARK INTER:                  -2.063
REMARK INTRA:                   0.000
REMARK UNBOUND:                 0.000
REMARK SMILES CC(=O)[O-]
REMARK SMILES IDX 1 1 2 2 3 3 4 4
REMARK H PARENT
REMARK Flexibility Score: inf
ROOT
ATOM      1  C   UNL     1      52.134  39.423  38.649  1.00  0.00     0.063 C 
ATOM      2  C   UNL     1      50.702  39.096  38.387  1.00  0.00     0.038 C 
ATOM      3  O   UNL     1      50.339  37.897  38.271  1.00  0.00    -0.550 OA
ATOM      4  O   UNL     1      49.775  40.117  38.217  1.00  0.00    -0.550 OA
ENDROOT
TORSDOF 0
ENDMDL
MODEL 6
REMARK VINA RESULT:    -2.023     17.983     18.354
REMARK INTER + INTRA:          -2.023
REMARK INTER:                  -2.023
REMARK INTRA:                   0.000
REMARK UNBOUND:                 0.000
REMARK SMILES CC(=O)[O-]
REMARK SMILES IDX 1 1 2 2 3 3 4 4
REMARK H PARENT
REMARK Flexibility Score: inf
ROOT
ATOM      1  C   UNL     1      48.516  24.837  34.340  1.00  0.00     0.063 C 
ATOM      2  C   UNL     1      49.118  26.146  34.724  1.00  0.00     0.038 C 
ATOM      3  O   UNL     1      49.484  26.958  33.836  1.00  0.00    -0.550 OA
ATOM      4  O   UNL     1      49.326  26.450  36.064  1.00  0.00    -0.550 OA
ENDROOT
TORSDOF 0
ENDMDL
MODEL 7
REMARK VINA RESULT:    -2.020     18.135     18.507
REMARK INTER + INTRA:          -2.020
REMARK INTER:                  -2.020
REMARK INTRA:                   0.000
REMARK UNBOUND:                 0.000
REMARK SMILES CC(=O)[O-]
REMARK SMILES IDX 1 1 2 2 3 3 4 4
REMARK H PARENT
REMARK Flexibility Score: inf
ROOT
ATOM      1  C   UNL     1      49.659  26.696  33.585  1.00  0.00     0.063 C 
ATOM      2  C   UNL     1      49.073  25.950  34.736  1.00  0.00     0.038 C 
ATOM      3  O   UNL     1      48.338  24.949  34.532  1.00  0.00    -0.550 OA
ATOM      4  O   UNL     1      49.294  26.389  36.036  1.00  0.00    -0.550 OA
ENDROOT
TORSDOF 0
ENDMDL
MODEL 8
REMARK VINA RESULT:    -2.014     18.080     18.512
REMARK INTER + INTRA:          -2.014
REMARK INTER:                  -2.014
REMARK INTRA:                   0.000
REMARK UNBOUND:                 0.000
REMARK SMILES CC(=O)[O-]
REMARK SMILES IDX 1 1 2 2 3 3 4 4
REMARK H PARENT
REMARK Flexibility Score: inf
ROOT
ATOM      1  C   UNL     1      49.511  26.289  35.875  1.00  0.00     0.063 C 
ATOM      2  C   UNL     1      49.016  25.958  34.507  1.00  0.00     0.038 C 
ATOM      3  O   UNL     1      48.306  24.936  34.322  1.00  0.00    -0.550 OA
ATOM      4  O   UNL     1      49.380  26.749  33.425  1.00  0.00    -0.550 OA
ENDROOT
TORSDOF 0
ENDMDL
MODEL 9
REMARK VINA RESULT:    -1.972     17.953     18.320
REMARK INTER + INTRA:          -1.972
REMARK INTER:                  -1.972
REMARK INTRA:                   0.000
REMARK UNBOUND:                 0.000
REMARK SMILES CC(=O)[O-]
REMARK SMILES IDX 1 1 2 2 3 3 4 4
REMARK H PARENT
REMARK Flexibility Score: inf
ROOT
ATOM      1  C   UNL     1      49.458  26.650  33.858  1.00  0.00     0.063 C 
ATOM      2  C   UNL     1      49.455  26.076  35.234  1.00  0.00     0.038 C 
ATOM      3  O   UNL     1      49.592  26.829  36.233  1.00  0.00    -0.550 OA
ATOM      4  O   UNL     1      49.353  24.702  35.415  1.00  0.00    -0.550 OA
ENDROOT
TORSDOF 0
ENDMDL
