MODEL 1
REMARK VINA RESULT:    -3.348      0.000      0.000
REMARK INTER + INTRA:          -4.045
REMARK INTER:                  -3.935
REMARK INTRA:                  -0.110
REMARK UNBOUND:                -0.110
REMARK SMILES O=C([O-])CCC(=O)[O-]
REMARK SMILES IDX 4 1 2 2 1 3 3 4 5 5 6 6 7 7 8 8
REMARK H PARENT
REMARK Flexibility Score: inf
ROOT
ATOM      1  C   UNL     1     -11.669   3.228   6.825  1.00  0.00     0.059 C 
ENDROOT
BRANCH   1   2
ATOM      2  C   UNL     1     -10.906   4.394   7.376  1.00  0.00     0.042 C 
ATOM      3  O   UNL     1     -10.090   5.018   6.648  1.00  0.00    -0.550 OA
ATOM      4  O   UNL     1     -11.127   4.815   8.681  1.00  0.00    -0.550 OA
ENDBRANCH   1   2
BRANCH   1   5
ATOM      5  C   UNL     1     -12.901   3.683   6.036  1.00  0.00     0.059 C 
BRANCH   5   6
ATOM      6  C   UNL     1     -12.618   3.756   4.567  1.00  0.00     0.042 C 
ATOM      7  O   UNL     1     -11.553   3.271   4.101  1.00  0.00    -0.550 OA
ATOM      8  O   UNL     1     -13.548   4.324   3.707  1.00  0.00    -0.550 OA
ENDBRANCH   5   6
ENDBRANCH   1   5
TORSDOF 3
ENDMDL
MODEL 2
REMARK VINA RESULT:    -3.346      0.162      3.745
REMARK INTER + INTRA:          -4.042
REMARK INTER:                  -3.928
REMARK INTRA:                  -0.114
REMARK UNBOUND:                -0.110
REMARK SMILES O=C([O-])CCC(=O)[O-]
REMARK SMILES IDX 4 1 2 2 1 3 3 4 5 5 6 6 7 7 8 8
REMARK H PARENT
REMARK Flexibility Score: inf
ROOT
ATOM      1  C   UNL     1     -12.950   3.701   6.146  1.00  0.00     0.059 C 
ENDROOT
BRANCH   1   2
ATOM      2  C   UNL     1     -12.734   3.826   4.669  1.00  0.00     0.042 C 
ATOM      3  O   UNL     1     -11.713   3.320   4.132  1.00  0.00    -0.550 OA
ATOM      4  O   UNL     1     -13.680   4.468   3.879  1.00  0.00    -0.550 OA
ENDBRANCH   1   2
BRANCH   1   5
ATOM      5  C   UNL     1     -11.676   3.248   6.865  1.00  0.00     0.059 C 
BRANCH   5   6
ATOM      6  C   UNL     1     -10.878   4.415   7.360  1.00  0.00     0.042 C 
ATOM      7  O   UNL     1     -10.996   4.803   8.552  1.00  0.00    -0.550 OA
ATOM      8  O   UNL     1      -9.974   5.047   6.517  1.00  0.00    -0.550 OA
ENDBRANCH   5   6
ENDBRANCH   1   5
TORSDOF 3
ENDMDL
MODEL 3
REMARK VINA RESULT:    -3.342      0.119      1.152
REMARK INTER + INTRA:          -4.038
REMARK INTER:                  -3.926
REMARK INTRA:                  -0.112
REMARK UNBOUND:                -0.110
REMARK SMILES O=C([O-])CCC(=O)[O-]
REMARK SMILES IDX 4 1 2 2 1 3 3 4 5 5 6 6 7 7 8 8
REMARK H PARENT
REMARK Flexibility Score: inf
ROOT
ATOM      1  C   UNL     1     -11.653   3.209   6.850  1.00  0.00     0.059 C 
ENDROOT
BRANCH   1   2
ATOM      2  C   UNL     1     -10.864   4.376   7.358  1.00  0.00     0.042 C 
ATOM      3  O   UNL     1     -11.016   4.777   8.542  1.00  0.00    -0.550 OA
ATOM      4  O   UNL     1      -9.933   4.997   6.535  1.00  0.00    -0.550 OA
ENDBRANCH   1   2
BRANCH   1   5
ATOM      5  C   UNL     1     -12.914   3.662   6.106  1.00  0.00     0.059 C 
BRANCH   5   6
ATOM      6  C   UNL     1     -12.675   3.767   4.631  1.00  0.00     0.042 C 
ATOM      7  O   UNL     1     -11.621   3.301   4.124  1.00  0.00    -0.550 OA
ATOM      8  O   UNL     1     -13.636   4.343   3.811  1.00  0.00    -0.550 OA
ENDBRANCH   5   6
ENDBRANCH   1   5
TORSDOF 3
ENDMDL
MODEL 4
REMARK VINA RESULT:    -3.333      0.133      3.768
REMARK INTER + INTRA:          -4.028
REMARK INTER:                  -3.912
REMARK INTRA:                  -0.116
REMARK UNBOUND:                -0.110
REMARK SMILES O=C([O-])CCC(=O)[O-]
REMARK SMILES IDX 4 1 2 2 1 3 3 4 5 5 6 6 7 7 8 8
REMARK H PARENT
REMARK Flexibility Score: inf
ROOT
ATOM      1  C   UNL     1     -12.957   3.806   6.120  1.00  0.00     0.059 C 
ENDROOT
BRANCH   1   2
ATOM      2  C   UNL     1     -12.722   3.843   4.641  1.00  0.00     0.042 C 
ATOM      3  O   UNL     1     -11.687   3.319   4.149  1.00  0.00    -0.550 OA
ATOM      4  O   UNL     1     -13.665   4.423   3.802  1.00  0.00    -0.550 OA
ENDBRANCH   1   2
BRANCH   1   5
ATOM      5  C   UNL     1     -11.733   3.273   6.871  1.00  0.00     0.059 C 
BRANCH   5   6
ATOM      6  C   UNL     1     -10.909   4.387   7.442  1.00  0.00     0.042 C 
ATOM      7  O   UNL     1     -10.113   5.028   6.707  1.00  0.00    -0.550 OA
ATOM      8  O   UNL     1     -11.049   4.741   8.777  1.00  0.00    -0.550 OA
ENDBRANCH   5   6
ENDBRANCH   1   5
TORSDOF 3
ENDMDL
MODEL 5
REMARK VINA RESULT:    -3.324      1.863      3.203
REMARK INTER + INTRA:          -4.017
REMARK INTER:                  -3.829
REMARK INTRA:                  -0.189
REMARK UNBOUND:                -0.110
REMARK SMILES O=C([O-])CCC(=O)[O-]
REMARK SMILES IDX 4 1 2 2 1 3 3 4 5 5 6 6 7 7 8 8
REMARK H PARENT
REMARK Flexibility Score: inf
ROOT
ATOM      1  C   UNL     1     -11.294   3.217   7.514  1.00  0.00     0.059 C 
ENDROOT
BRANCH   1   2
ATOM      2  C   UNL     1     -12.319   2.995   6.445  1.00  0.00     0.042 C 
ATOM      3  O   UNL     1     -13.493   3.428   6.591  1.00  0.00    -0.550 OA
ATOM      4  O   UNL     1     -11.967   2.344   5.269  1.00  0.00    -0.550 OA
ENDBRANCH   1   2
BRANCH   1   5
ATOM      5  C   UNL     1     -11.079   4.709   7.787  1.00  0.00     0.059 C 
BRANCH   5   6
ATOM      6  C   UNL     1     -10.590   5.428   6.567  1.00  0.00     0.042 C 
ATOM      7  O   UNL     1      -9.472   5.137   6.066  1.00  0.00    -0.550 OA
ATOM      8  O   UNL     1     -11.386   6.390   5.961  1.00  0.00    -0.550 OA
ENDBRANCH   5   6
ENDBRANCH   1   5
TORSDOF 3
ENDMDL
MODEL 6
REMARK VINA RESULT:    -3.323     15.594     15.854
REMARK INTER + INTRA:          -4.016
REMARK INTER:                  -3.973
REMARK INTRA:                  -0.043
REMARK UNBOUND:                -0.110
REMARK SMILES O=C([O-])CCC(=O)[O-]
REMARK SMILES IDX 4 1 2 2 1 3 3 4 5 5 6 6 7 7 8 8
REMARK H PARENT
REMARK Flexibility Score: inf
ROOT
ATOM      1  C   UNL     1     -13.618   1.899  -9.465  1.00  0.00     0.059 C 
ENDROOT
BRANCH   1   2
ATOM      2  C   UNL     1     -12.166   2.241  -9.594  1.00  0.00     0.042 C 
ATOM      3  O   UNL     1     -11.804   3.443  -9.705  1.00  0.00    -0.550 OA
ATOM      4  O   UNL     1     -11.208   1.235  -9.553  1.00  0.00    -0.550 OA
ENDBRANCH   1   2
BRANCH   1   5
ATOM      5  C   UNL     1     -13.873   0.412  -9.727  1.00  0.00     0.059 C 
BRANCH   5   6
ATOM      6  C   UNL     1     -15.045  -0.093  -8.943  1.00  0.00     0.042 C 
ATOM      7  O   UNL     1     -15.281  -1.329  -8.880  1.00  0.00    -0.550 OA
ATOM      8  O   UNL     1     -15.853   0.797  -8.249  1.00  0.00    -0.550 OA
ENDBRANCH   5   6
ENDBRANCH   1   5
TORSDOF 3
ENDMDL
MODEL 7
REMARK VINA RESULT:    -3.310      1.915      2.398
REMARK INTER + INTRA:          -4.001
REMARK INTER:                  -3.820
REMARK INTRA:                  -0.180
REMARK UNBOUND:                -0.110
REMARK SMILES O=C([O-])CCC(=O)[O-]
REMARK SMILES IDX 4 1 2 2 1 3 3 4 5 5 6 6 7 7 8 8
REMARK H PARENT
REMARK Flexibility Score: inf
ROOT
ATOM      1  C   UNL     1     -11.051   4.792   7.683  1.00  0.00     0.059 C 
ENDROOT
BRANCH   1   2
ATOM      2  C   UNL     1     -10.644   5.430   6.390  1.00  0.00     0.042 C 
ATOM      3  O   UNL     1      -9.545   5.130   5.854  1.00  0.00    -0.550 OA
ATOM      4  O   UNL     1     -11.497   6.325   5.758  1.00  0.00    -0.550 OA
ENDBRANCH   1   2
BRANCH   1   5
ATOM      5  C   UNL     1     -11.287   3.287   7.520  1.00  0.00     0.059 C 
BRANCH   5   6
ATOM      6  C   UNL     1     -12.313   3.002   6.466  1.00  0.00     0.042 C 
ATOM      7  O   UNL     1     -13.496   3.408   6.607  1.00  0.00    -0.550 OA
ATOM      8  O   UNL     1     -11.952   2.321   5.311  1.00  0.00    -0.550 OA
ENDBRANCH   5   6
ENDBRANCH   1   5
TORSDOF 3
ENDMDL
MODEL 8
REMARK VINA RESULT:    -3.263      1.662      3.856
REMARK INTER + INTRA:          -3.945
REMARK INTER:                  -3.903
REMARK INTRA:                  -0.043
REMARK UNBOUND:                -0.110
REMARK SMILES O=C([O-])CCC(=O)[O-]
REMARK SMILES IDX 4 1 2 2 1 3 3 4 5 5 6 6 7 7 8 8
REMARK H PARENT
REMARK Flexibility Score: inf
ROOT
ATOM      1  C   UNL     1     -10.495   4.792   6.698  1.00  0.00     0.059 C 
ENDROOT
BRANCH   1   2
ATOM      2  C   UNL     1     -10.703   4.887   5.218  1.00  0.00     0.042 C 
ATOM      3  O   UNL     1      -9.762   5.261   4.468  1.00  0.00    -0.550 OA
ATOM      4  O   UNL     1     -11.923   4.525   4.662  1.00  0.00    -0.550 OA
ENDBRANCH   1   2
BRANCH   1   5
ATOM      5  C   UNL     1     -11.235   3.592   7.295  1.00  0.00     0.059 C 
BRANCH   5   6
ATOM      6  C   UNL     1     -11.594   3.824   8.732  1.00  0.00     0.042 C 
ATOM      7  O   UNL     1     -12.091   2.893   9.419  1.00  0.00    -0.550 OA
ATOM      8  O   UNL     1     -11.341   5.055   9.321  1.00  0.00    -0.550 OA
ENDBRANCH   5   6
ENDBRANCH   1   5
TORSDOF 3
ENDMDL
MODEL 9
REMARK VINA RESULT:    -3.247      1.871      2.637
REMARK INTER + INTRA:          -3.927
REMARK INTER:                  -3.886
REMARK INTRA:                  -0.040
REMARK UNBOUND:                -0.110
REMARK SMILES O=C([O-])CCC(=O)[O-]
REMARK SMILES IDX 4 1 2 2 1 3 3 4 5 5 6 6 7 7 8 8
REMARK H PARENT
REMARK Flexibility Score: inf
ROOT
ATOM      1  C   UNL     1     -11.247   3.730   7.125  1.00  0.00     0.059 C 
ENDROOT
BRANCH   1   2
ATOM      2  C   UNL     1     -11.562   3.694   8.588  1.00  0.00     0.042 C 
ATOM      3  O   UNL     1     -11.337   4.701   9.311  1.00  0.00    -0.550 OA
ATOM      4  O   UNL     1     -12.141   2.561   9.147  1.00  0.00    -0.550 OA
ENDBRANCH   1   2
BRANCH   1   5
ATOM      5  C   UNL     1     -10.404   4.956   6.760  1.00  0.00     0.059 C 
BRANCH   5   6
ATOM      6  C   UNL     1     -10.326   5.150   5.276  1.00  0.00     0.042 C 
ATOM      7  O   UNL     1     -10.878   4.326   4.500  1.00  0.00    -0.550 OA
ATOM      8  O   UNL     1      -9.679   6.261   4.754  1.00  0.00    -0.550 OA
ENDBRANCH   5   6
ENDBRANCH   1   5
TORSDOF 3
ENDMDL
