MODEL 1
REMARK VINA RESULT:    -1.007      0.000      0.000
REMARK INTER + INTRA:          -3.087
REMARK INTER:                  -2.185
REMARK INTRA:                  -0.901
REMARK UNBOUND:                -0.901
REMARK SMILES CCCCCCCCCCCCCCCCCCCCCC(=O)[O-]
REMARK SMILES IDX 12 1 11 2 10 3 9 4 8 5 7 6 6 7 5 8 4 9 3 10 2 11 1 12 13 13
REMARK SMILES IDX 14 14 15 15 16 16 17 17 18 18 19 19 20 20 21 21 22 22 23 23
REMARK SMILES IDX 24 24
REMARK H PARENT
REMARK Flexibility Score: inf
ROOT
ATOM      1  C   UNL     1      45.510  12.168 -30.110  1.00  0.00     0.000 C 
ENDROOT
BRANCH   1   2
ATOM      2  C   UNL     1      46.542  11.247 -29.429  1.00  0.00     0.000 C 
BRANCH   2   3
ATOM      3  C   UNL     1      46.226  10.878 -27.966  1.00  0.00     0.000 C 
BRANCH   3   4
ATOM      4  C   UNL     1      45.142  11.745 -27.298  1.00  0.00    -0.000 C 
BRANCH   4   5
ATOM      5  C   UNL     1      44.650  11.233 -25.931  1.00  0.00    -0.000 C 
BRANCH   5   6
ATOM      6  C   UNL     1      44.207  12.333 -24.945  1.00  0.00    -0.000 C 
BRANCH   6   7
ATOM      7  C   UNL     1      45.185  12.598 -23.782  1.00  0.00    -0.000 C 
BRANCH   7   8
ATOM      8  C   UNL     1      46.359  11.603 -23.681  1.00  0.00    -0.000 C 
BRANCH   8   9
ATOM      9  C   UNL     1      46.567  10.985 -22.284  1.00  0.00    -0.000 C 
BRANCH   9  10
ATOM     10  C   UNL     1      48.037  10.876 -21.832  1.00  0.00    -0.000 C 
BRANCH  10  11
ATOM     11  C   UNL     1      48.290  11.240 -20.359  1.00  0.00    -0.003 C 
ATOM     12  C   UNL     1      49.698  10.875 -19.888  1.00  0.00     0.004 C 
ENDBRANCH  10  11
ENDBRANCH   9  10
ENDBRANCH   8   9
ENDBRANCH   7   8
ENDBRANCH   6   7
ENDBRANCH   5   6
ENDBRANCH   4   5
ENDBRANCH   3   4
ENDBRANCH   2   3
ENDBRANCH   1   2
BRANCH   1  13
ATOM     13  C   UNL     1      45.184  11.815 -31.573  1.00  0.00     0.000 C 
BRANCH  13  14
ATOM     14  C   UNL     1      45.712  12.855 -32.573  1.00  0.00     0.000 C 
BRANCH  14  15
ATOM     15  C   UNL     1      45.166  12.649 -33.997  1.00  0.00     0.000 C 
BRANCH  15  16
ATOM     16  C   UNL     1      43.773  11.987 -34.037  1.00  0.00     0.000 C 
BRANCH  16  17
ATOM     17  C   UNL     1      43.118  12.104 -35.426  1.00  0.00     0.000 C 
BRANCH  17  18
ATOM     18  C   UNL     1      41.604  12.349 -35.349  1.00  0.00     0.000 C 
BRANCH  18  19
ATOM     19  C   UNL     1      41.129  13.426 -36.334  1.00  0.00     0.000 C 
BRANCH  19  20
ATOM     20  C   UNL     1      40.361  14.539 -35.604  1.00  0.00     0.006 C 
BRANCH  20  21
ATOM     21  C   UNL     1      38.948  14.740 -36.170  1.00  0.00     0.053 C 
BRANCH  21  22
ATOM     22  C   UNL     1      37.998  13.692 -35.677  1.00  0.00     0.041 C 
ATOM     23  O   UNL     1      37.906  13.451 -34.444  1.00  0.00    -0.550 OA
ATOM     24  O   UNL     1      37.238  12.960 -36.581  1.00  0.00    -0.550 OA
ENDBRANCH  21  22
ENDBRANCH  20  21
ENDBRANCH  19  20
ENDBRANCH  18  19
ENDBRANCH  17  18
ENDBRANCH  16  17
ENDBRANCH  15  16
ENDBRANCH  14  15
ENDBRANCH  13  14
ENDBRANCH   1  13
TORSDOF 20
ENDMDL
MODEL 2
REMARK VINA RESULT:    -0.314      1.126      2.455
REMARK INTER + INTRA:          -1.584
REMARK INTER:                  -0.785
REMARK INTRA:                  -0.798
REMARK UNBOUND:                -0.901
REMARK SMILES CCCCCCCCCCCCCCCCCCCCCC(=O)[O-]
REMARK SMILES IDX 12 1 11 2 10 3 9 4 8 5 7 6 6 7 5 8 4 9 3 10 2 11 1 12 13 13
REMARK SMILES IDX 14 14 15 15 16 16 17 17 18 18 19 19 20 20 21 21 22 22 23 23
REMARK SMILES IDX 24 24
REMARK H PARENT
REMARK Flexibility Score: inf
ROOT
ATOM      1  C   UNL     1      44.762  12.651 -32.070  1.00  0.00     0.000 C 
ENDROOT
BRANCH   1   2
ATOM      2  C   UNL     1      46.290  12.443 -32.075  1.00  0.00     0.000 C 
BRANCH   2   3
ATOM      3  C   UNL     1      46.881  11.888 -30.765  1.00  0.00     0.000 C 
BRANCH   3   4
ATOM      4  C   UNL     1      45.973  10.897 -30.012  1.00  0.00    -0.000 C 
BRANCH   4   5
ATOM      5  C   UNL     1      46.159  10.877 -28.483  1.00  0.00    -0.000 C 
BRANCH   5   6
ATOM      6  C   UNL     1      45.063  11.611 -27.685  1.00  0.00    -0.000 C 
BRANCH   6   7
ATOM      7  C   UNL     1      45.001  11.255 -26.185  1.00  0.00    -0.000 C 
BRANCH   7   8
ATOM      8  C   UNL     1      44.463  12.377 -25.273  1.00  0.00    -0.000 C 
BRANCH   8   9
ATOM      9  C   UNL     1      44.664  12.139 -23.763  1.00  0.00    -0.000 C 
BRANCH   9  10
ATOM     10  C   UNL     1      46.127  12.201 -23.282  1.00  0.00    -0.000 C 
BRANCH  10  11
ATOM     11  C   UNL     1      46.585  10.993 -22.447  1.00  0.00    -0.003 C 
ATOM     12  C   UNL     1      47.840  11.281 -21.623  1.00  0.00     0.004 C 
ENDBRANCH  10  11
ENDBRANCH   9  10
ENDBRANCH   8   9
ENDBRANCH   7   8
ENDBRANCH   6   7
ENDBRANCH   5   6
ENDBRANCH   4   5
ENDBRANCH   3   4
ENDBRANCH   2   3
ENDBRANCH   1   2
BRANCH   1  13
ATOM     13  C   UNL     1      44.004  11.961 -33.218  1.00  0.00     0.000 C 
BRANCH  13  14
ATOM     14  C   UNL     1      44.649  12.200 -34.591  1.00  0.00     0.000 C 
BRANCH  14  15
ATOM     15  C   UNL     1      43.621  12.255 -35.735  1.00  0.00     0.000 C 
BRANCH  15  16
ATOM     16  C   UNL     1      42.243  11.669 -35.360  1.00  0.00     0.000 C 
BRANCH  16  17
ATOM     17  C   UNL     1      41.088  12.439 -36.026  1.00  0.00     0.000 C 
BRANCH  17  18
ATOM     18  C   UNL     1      41.131  13.946 -35.729  1.00  0.00     0.000 C 
BRANCH  18  19
ATOM     19  C   UNL     1      39.754  14.613 -35.857  1.00  0.00     0.000 C 
BRANCH  19  20
ATOM     20  C   UNL     1      38.779  13.716 -36.635  1.00  0.00     0.006 C 
BRANCH  20  21
ATOM     21  C   UNL     1      37.435  13.551 -35.911  1.00  0.00     0.053 C 
BRANCH  21  22
ATOM     22  C   UNL     1      37.483  14.104 -34.520  1.00  0.00     0.041 C 
ATOM     23  O   UNL     1      37.572  13.327 -33.532  1.00  0.00    -0.550 OA
ATOM     24  O   UNL     1      37.396  15.475 -34.312  1.00  0.00    -0.550 OA
ENDBRANCH  21  22
ENDBRANCH  20  21
ENDBRANCH  19  20
ENDBRANCH  18  19
ENDBRANCH  17  18
ENDBRANCH  16  17
ENDBRANCH  15  16
ENDBRANCH  14  15
ENDBRANCH  13  14
ENDBRANCH   1  13
TORSDOF 20
ENDMDL
MODEL 3
REMARK VINA RESULT:    -0.306      4.268     10.967
REMARK INTER + INTRA:          -1.565
REMARK INTER:                  -0.393
REMARK INTRA:                  -1.172
REMARK UNBOUND:                -0.901
REMARK SMILES CCCCCCCCCCCCCCCCCCCCCC(=O)[O-]
REMARK SMILES IDX 12 1 11 2 10 3 9 4 8 5 7 6 6 7 5 8 4 9 3 10 2 11 1 12 13 13
REMARK SMILES IDX 14 14 15 15 16 16 17 17 18 18 19 19 20 20 21 21 22 22 23 23
REMARK SMILES IDX 24 24
REMARK H PARENT
REMARK Flexibility Score: inf
ROOT
ATOM      1  C   UNL     1      44.447  12.597 -35.147  1.00  0.00     0.000 C 
ENDROOT
BRANCH   1   2
ATOM      2  C   UNL     1      43.433  11.843 -36.030  1.00  0.00     0.000 C 
BRANCH   2   3
ATOM      3  C   UNL     1      41.987  11.821 -35.497  1.00  0.00     0.000 C 
BRANCH   3   4
ATOM      4  C   UNL     1      41.046  12.863 -36.132  1.00  0.00    -0.000 C 
BRANCH   4   5
ATOM      5  C   UNL     1      41.079  14.255 -35.474  1.00  0.00    -0.000 C 
BRANCH   5   6
ATOM      6  C   UNL     1      39.737  15.015 -35.490  1.00  0.00    -0.000 C 
BRANCH   6   7
ATOM      7  C   UNL     1      38.484  14.122 -35.598  1.00  0.00    -0.000 C 
BRANCH   7   8
ATOM      8  C   UNL     1      37.261  14.620 -34.801  1.00  0.00    -0.000 C 
BRANCH   8   9
ATOM      9  C   UNL     1      37.361  14.435 -33.275  1.00  0.00    -0.000 C 
BRANCH   9  10
ATOM     10  C   UNL     1      37.014  13.022 -32.764  1.00  0.00    -0.000 C 
BRANCH  10  11
ATOM     11  C   UNL     1      37.254  12.800 -31.260  1.00  0.00    -0.003 C 
ATOM     12  C   UNL     1      37.054  14.069 -30.432  1.00  0.00     0.004 C 
ENDBRANCH  10  11
ENDBRANCH   9  10
ENDBRANCH   8   9
ENDBRANCH   7   8
ENDBRANCH   6   7
ENDBRANCH   5   6
ENDBRANCH   4   5
ENDBRANCH   3   4
ENDBRANCH   2   3
ENDBRANCH   1   2
BRANCH   1  13
ATOM     13  C   UNL     1      44.623  12.033 -33.725  1.00  0.00     0.000 C 
BRANCH  13  14
ATOM     14  C   UNL     1      44.655  13.126 -32.646  1.00  0.00     0.000 C 
BRANCH  14  15
ATOM     15  C   UNL     1      45.610  12.793 -31.486  1.00  0.00     0.000 C 
BRANCH  15  16
ATOM     16  C   UNL     1      46.419  11.497 -31.699  1.00  0.00     0.000 C 
BRANCH  16  17
ATOM     17  C   UNL     1      46.878  10.876 -30.367  1.00  0.00     0.000 C 
BRANCH  17  18
ATOM     18  C   UNL     1      46.548  11.762 -29.156  1.00  0.00     0.000 C 
BRANCH  18  19
ATOM     19  C   UNL     1      45.900  10.976 -28.007  1.00  0.00     0.000 C 
BRANCH  19  20
ATOM     20  C   UNL     1      45.096  11.908 -27.088  1.00  0.00     0.006 C 
BRANCH  20  21
ATOM     21  C   UNL     1      44.724  11.236 -25.759  1.00  0.00     0.053 C 
BRANCH  21  22
ATOM     22  C   UNL     1      44.425  12.244 -24.691  1.00  0.00     0.041 C 
ATOM     23  O   UNL     1      45.156  12.318 -23.668  1.00  0.00    -0.550 OA
ATOM     24  O   UNL     1      43.322  13.080 -24.812  1.00  0.00    -0.550 OA
ENDBRANCH  21  22
ENDBRANCH  20  21
ENDBRANCH  19  20
ENDBRANCH  18  19
ENDBRANCH  17  18
ENDBRANCH  16  17
ENDBRANCH  15  16
ENDBRANCH  14  15
ENDBRANCH  13  14
ENDBRANCH   1  13
TORSDOF 20
ENDMDL
MODEL 4
REMARK VINA RESULT:     0.408      5.176     10.418
REMARK INTER + INTRA:          -0.016
REMARK INTER:                   0.416
REMARK INTRA:                  -0.433
REMARK UNBOUND:                -0.901
REMARK SMILES CCCCCCCCCCCCCCCCCCCCCC(=O)[O-]
REMARK SMILES IDX 12 1 11 2 10 3 9 4 8 5 7 6 6 7 5 8 4 9 3 10 2 11 1 12 13 13
REMARK SMILES IDX 14 14 15 15 16 16 17 17 18 18 19 19 20 20 21 21 22 22 23 23
REMARK SMILES IDX 24 24
REMARK H PARENT
REMARK Flexibility Score: inf
ROOT
ATOM      1  C   UNL     1      40.957  14.605 -35.521  1.00  0.00     0.000 C 
ENDROOT
BRANCH   1   2
ATOM      2  C   UNL     1      39.421  14.680 -35.644  1.00  0.00     0.000 C 
BRANCH   2   3
ATOM      3  C   UNL     1      38.865  14.434 -37.060  1.00  0.00     0.000 C 
BRANCH   3   4
ATOM      4  C   UNL     1      38.174  13.070 -37.258  1.00  0.00    -0.000 C 
BRANCH   4   5
ATOM      5  C   UNL     1      37.099  12.728 -36.210  1.00  0.00    -0.000 C 
BRANCH   5   6
ATOM      6  C   UNL     1      37.102  13.626 -34.957  1.00  0.00    -0.000 C 
BRANCH   6   7
ATOM      7  C   UNL     1      36.876  12.884 -33.623  1.00  0.00    -0.000 C 
BRANCH   7   8
ATOM      8  C   UNL     1      38.011  13.043 -32.591  1.00  0.00    -0.000 C 
BRANCH   8   9
ATOM      9  C   UNL     1      37.643  12.629 -31.152  1.00  0.00    -0.000 C 
BRANCH   9  10
ATOM     10  C   UNL     1      36.893  13.701 -30.337  1.00  0.00    -0.000 C 
BRANCH  10  11
ATOM     11  C   UNL     1      37.796  14.644 -29.522  1.00  0.00    -0.003 C 
ATOM     12  C   UNL     1      38.163  15.920 -30.280  1.00  0.00     0.004 C 
ENDBRANCH  10  11
ENDBRANCH   9  10
ENDBRANCH   8   9
ENDBRANCH   7   8
ENDBRANCH   6   7
ENDBRANCH   5   6
ENDBRANCH   4   5
ENDBRANCH   3   4
ENDBRANCH   2   3
ENDBRANCH   1   2
BRANCH   1  13
ATOM     13  C   UNL     1      41.549  13.185 -35.578  1.00  0.00     0.000 C 
BRANCH  13  14
ATOM     14  C   UNL     1      42.735  13.070 -36.547  1.00  0.00     0.000 C 
BRANCH  14  15
ATOM     15  C   UNL     1      43.807  12.075 -36.066  1.00  0.00     0.000 C 
BRANCH  15  16
ATOM     16  C   UNL     1      43.645  11.654 -34.590  1.00  0.00     0.000 C 
BRANCH  16  17
ATOM     17  C   UNL     1      44.289  12.668 -33.627  1.00  0.00     0.000 C 
BRANCH  17  18
ATOM     18  C   UNL     1      45.819  12.717 -33.753  1.00  0.00     0.000 C 
BRANCH  18  19
ATOM     19  C   UNL     1      46.531  12.023 -32.584  1.00  0.00     0.000 C 
BRANCH  19  20
ATOM     20  C   UNL     1      45.739  12.195 -31.279  1.00  0.00     0.006 C 
BRANCH  20  21
ATOM     21  C   UNL     1      45.775  10.932 -30.405  1.00  0.00     0.053 C 
BRANCH  21  22
ATOM     22  C   UNL     1      46.369  11.207 -29.057  1.00  0.00     0.041 C 
ATOM     23  O   UNL     1      47.578  11.545 -28.956  1.00  0.00    -0.550 OA
ATOM     24  O   UNL     1      45.597  11.058 -27.912  1.00  0.00    -0.550 OA
ENDBRANCH  21  22
ENDBRANCH  20  21
ENDBRANCH  19  20
ENDBRANCH  18  19
ENDBRANCH  17  18
ENDBRANCH  16  17
ENDBRANCH  15  16
ENDBRANCH  14  15
ENDBRANCH  13  14
ENDBRANCH   1  13
TORSDOF 20
ENDMDL
MODEL 5
REMARK VINA RESULT:     0.503      4.333     11.063
REMARK INTER + INTRA:           0.189
REMARK INTER:                   1.191
REMARK INTRA:                  -1.002
REMARK UNBOUND:                -0.901
REMARK SMILES CCCCCCCCCCCCCCCCCCCCCC(=O)[O-]
REMARK SMILES IDX 12 1 11 2 10 3 9 4 8 5 7 6 6 7 5 8 4 9 3 10 2 11 1 12 13 13
REMARK SMILES IDX 14 14 15 15 16 16 17 17 18 18 19 19 20 20 21 21 22 22 23 23
REMARK SMILES IDX 24 24
REMARK H PARENT
REMARK Flexibility Score: inf
ROOT
ATOM      1  C   UNL     1      44.389  12.233 -34.305  1.00  0.00     0.000 C 
ENDROOT
BRANCH   1   2
ATOM      2  C   UNL     1      42.934  11.808 -34.588  1.00  0.00     0.000 C 
BRANCH   2   3
ATOM      3  C   UNL     1      42.350  12.313 -35.922  1.00  0.00     0.000 C 
BRANCH   3   4
ATOM      4  C   UNL     1      42.142  13.837 -36.003  1.00  0.00    -0.000 C 
BRANCH   4   5
ATOM      5  C   UNL     1      40.703  14.313 -35.729  1.00  0.00    -0.000 C 
BRANCH   5   6
ATOM      6  C   UNL     1      39.604  13.282 -36.056  1.00  0.00    -0.000 C 
BRANCH   6   7
ATOM      7  C   UNL     1      38.179  13.864 -36.170  1.00  0.00    -0.000 C 
BRANCH   7   8
ATOM      8  C   UNL     1      37.638  14.514 -34.880  1.00  0.00    -0.000 C 
BRANCH   8   9
ATOM      9  C   UNL     1      37.091  13.524 -33.833  1.00  0.00    -0.000 C 
BRANCH   9  10
ATOM     10  C   UNL     1      36.887  14.112 -32.423  1.00  0.00    -0.000 C 
BRANCH  10  11
ATOM     11  C   UNL     1      36.981  13.090 -31.276  1.00  0.00    -0.003 C 
ATOM     12  C   UNL     1      36.907  13.739 -29.894  1.00  0.00     0.004 C 
ENDBRANCH  10  11
ENDBRANCH   9  10
ENDBRANCH   8   9
ENDBRANCH   7   8
ENDBRANCH   6   7
ENDBRANCH   5   6
ENDBRANCH   4   5
ENDBRANCH   3   4
ENDBRANCH   2   3
ENDBRANCH   1   2
BRANCH   1  13
ATOM     13  C   UNL     1      44.630  12.858 -32.918  1.00  0.00     0.000 C 
BRANCH  13  14
ATOM     14  C   UNL     1      46.014  12.524 -32.343  1.00  0.00     0.000 C 
BRANCH  14  15
ATOM     15  C   UNL     1      46.102  11.091 -31.787  1.00  0.00     0.000 C 
BRANCH  15  16
ATOM     16  C   UNL     1      46.995  10.965 -30.535  1.00  0.00     0.000 C 
BRANCH  16  17
ATOM     17  C   UNL     1      46.756  12.113 -29.538  1.00  0.00     0.000 C 
BRANCH  17  18
ATOM     18  C   UNL     1      45.467  11.931 -28.721  1.00  0.00     0.000 C 
BRANCH  18  19
ATOM     19  C   UNL     1      45.700  11.163 -27.413  1.00  0.00     0.000 C 
BRANCH  19  20
ATOM     20  C   UNL     1      44.503  11.320 -26.463  1.00  0.00     0.006 C 
BRANCH  20  21
ATOM     21  C   UNL     1      44.936  11.691 -25.037  1.00  0.00     0.053 C 
BRANCH  21  22
ATOM     22  C   UNL     1      44.289  12.960 -24.573  1.00  0.00     0.041 C 
ATOM     23  O   UNL     1      43.077  12.963 -24.229  1.00  0.00    -0.550 OA
ATOM     24  O   UNL     1      45.015  14.144 -24.551  1.00  0.00    -0.550 OA
ENDBRANCH  21  22
ENDBRANCH  20  21
ENDBRANCH  19  20
ENDBRANCH  18  19
ENDBRANCH  17  18
ENDBRANCH  16  17
ENDBRANCH  15  16
ENDBRANCH  14  15
ENDBRANCH  13  14
ENDBRANCH   1  13
TORSDOF 20
ENDMDL
MODEL 6
REMARK VINA RESULT:     0.670      2.660      5.109
REMARK INTER + INTRA:           0.553
REMARK INTER:                   1.402
REMARK INTRA:                  -0.849
REMARK UNBOUND:                -0.901
REMARK SMILES CCCCCCCCCCCCCCCCCCCCCC(=O)[O-]
REMARK SMILES IDX 12 1 11 2 10 3 9 4 8 5 7 6 6 7 5 8 4 9 3 10 2 11 1 12 13 13
REMARK SMILES IDX 14 14 15 15 16 16 17 17 18 18 19 19 20 20 21 21 22 22 23 23
REMARK SMILES IDX 24 24
REMARK H PARENT
REMARK Flexibility Score: inf
ROOT
ATOM      1  C   UNL     1      42.878  11.729 -34.245  1.00  0.00     0.000 C 
ENDROOT
BRANCH   1   2
ATOM      2  C   UNL     1      43.629  11.964 -32.919  1.00  0.00     0.000 C 
BRANCH   2   3
ATOM      3  C   UNL     1      44.755  13.015 -32.980  1.00  0.00     0.000 C 
BRANCH   3   4
ATOM      4  C   UNL     1      46.154  12.489 -32.605  1.00  0.00    -0.000 C 
BRANCH   4   5
ATOM      5  C   UNL     1      46.172  11.419 -31.498  1.00  0.00    -0.000 C 
BRANCH   5   6
ATOM      6  C   UNL     1      46.681  11.908 -30.128  1.00  0.00    -0.000 C 
BRANCH   6   7
ATOM      7  C   UNL     1      46.572  10.875 -28.987  1.00  0.00    -0.000 C 
BRANCH   7   8
ATOM      8  C   UNL     1      45.296  10.988 -28.128  1.00  0.00    -0.000 C 
BRANCH   8   9
ATOM      9  C   UNL     1      45.542  11.212 -26.623  1.00  0.00    -0.000 C 
BRANCH   9  10
ATOM     10  C   UNL     1      44.300  11.633 -25.814  1.00  0.00    -0.000 C 
BRANCH  10  11
ATOM     11  C   UNL     1      44.600  12.455 -24.549  1.00  0.00    -0.003 C 
ATOM     12  C   UNL     1      43.498  13.462 -24.218  1.00  0.00     0.004 C 
ENDBRANCH  10  11
ENDBRANCH   9  10
ENDBRANCH   8   9
ENDBRANCH   7   8
ENDBRANCH   6   7
ENDBRANCH   5   6
ENDBRANCH   4   5
ENDBRANCH   3   4
ENDBRANCH   2   3
ENDBRANCH   1   2
BRANCH   1  13
ATOM     13  C   UNL     1      43.478  12.440 -35.471  1.00  0.00     0.000 C 
BRANCH  13  14
ATOM     14  C   UNL     1      42.435  12.742 -36.558  1.00  0.00     0.000 C 
BRANCH  14  15
ATOM     15  C   UNL     1      41.001  12.383 -36.128  1.00  0.00     0.000 C 
BRANCH  15  16
ATOM     16  C   UNL     1      40.054  13.598 -36.048  1.00  0.00     0.000 C 
BRANCH  16  17
ATOM     17  C   UNL     1      38.740  13.357 -36.813  1.00  0.00     0.000 C 
BRANCH  17  18
ATOM     18  C   UNL     1      37.497  13.547 -35.930  1.00  0.00     0.000 C 
BRANCH  18  19
ATOM     19  C   UNL     1      37.823  13.498 -34.431  1.00  0.00     0.000 C 
BRANCH  19  20
ATOM     20  C   UNL     1      36.896  14.431 -33.637  1.00  0.00     0.006 C 
BRANCH  20  21
ATOM     21  C   UNL     1      37.442  14.737 -32.234  1.00  0.00     0.053 C 
BRANCH  21  22
ATOM     22  C   UNL     1      37.088  13.661 -31.254  1.00  0.00     0.041 C 
ATOM     23  O   UNL     1      36.884  12.484 -31.653  1.00  0.00    -0.550 OA
ATOM     24  O   UNL     1      36.953  13.965 -29.905  1.00  0.00    -0.550 OA
ENDBRANCH  21  22
ENDBRANCH  20  21
ENDBRANCH  19  20
ENDBRANCH  18  19
ENDBRANCH  17  18
ENDBRANCH  16  17
ENDBRANCH  15  16
ENDBRANCH  14  15
ENDBRANCH  13  14
ENDBRANCH   1  13
TORSDOF 20
ENDMDL
MODEL 7
REMARK VINA RESULT:     0.697      1.271      2.151
REMARK INTER + INTRA:           0.611
REMARK INTER:                   0.440
REMARK INTRA:                   0.171
REMARK UNBOUND:                -0.901
REMARK SMILES CCCCCCCCCCCCCCCCCCCCCC(=O)[O-]
REMARK SMILES IDX 12 1 11 2 10 3 9 4 8 5 7 6 6 7 5 8 4 9 3 10 2 11 1 12 13 13
REMARK SMILES IDX 14 14 15 15 16 16 17 17 18 18 19 19 20 20 21 21 22 22 23 23
REMARK SMILES IDX 24 24
REMARK H PARENT
REMARK Flexibility Score: inf
ROOT
ATOM      1  C   UNL     1      46.352  11.074 -29.914  1.00  0.00     0.000 C 
ENDROOT
BRANCH   1   2
ATOM      2  C   UNL     1      46.560  11.114 -28.386  1.00  0.00     0.000 C 
BRANCH   2   3
ATOM      3  C   UNL     1      45.277  10.968 -27.545  1.00  0.00     0.000 C 
BRANCH   3   4
ATOM      4  C   UNL     1      45.435  11.322 -26.054  1.00  0.00    -0.000 C 
BRANCH   4   5
ATOM      5  C   UNL     1      44.171  11.894 -25.384  1.00  0.00    -0.000 C 
BRANCH   5   6
ATOM      6  C   UNL     1      44.437  12.905 -24.250  1.00  0.00    -0.000 C 
BRANCH   6   7
ATOM      7  C   UNL     1      45.680  12.604 -23.387  1.00  0.00    -0.000 C 
BRANCH   7   8
ATOM      8  C   UNL     1      46.282  11.197 -23.584  1.00  0.00    -0.000 C 
BRANCH   8   9
ATOM      9  C   UNL     1      47.491  10.876 -22.683  1.00  0.00    -0.000 C 
BRANCH   9  10
ATOM     10  C   UNL     1      47.547  11.666 -21.361  1.00  0.00    -0.000 C 
BRANCH  10  11
ATOM     11  C   UNL     1      48.777  11.372 -20.483  1.00  0.00    -0.003 C 
ATOM     12  C   UNL     1      48.450  11.348 -18.990  1.00  0.00     0.004 C 
ENDBRANCH  10  11
ENDBRANCH   9  10
ENDBRANCH   8   9
ENDBRANCH   7   8
ENDBRANCH   6   7
ENDBRANCH   5   6
ENDBRANCH   4   5
ENDBRANCH   3   4
ENDBRANCH   2   3
ENDBRANCH   1   2
BRANCH   1  13
ATOM     13  C   UNL     1      45.091  11.797 -30.421  1.00  0.00     0.000 C 
BRANCH  13  14
ATOM     14  C   UNL     1      45.315  13.299 -30.655  1.00  0.00     0.000 C 
BRANCH  14  15
ATOM     15  C   UNL     1      45.888  13.608 -32.050  1.00  0.00     0.000 C 
BRANCH  15  16
ATOM     16  C   UNL     1      46.122  12.353 -32.917  1.00  0.00     0.000 C 
BRANCH  16  17
ATOM     17  C   UNL     1      45.634  12.552 -34.364  1.00  0.00     0.000 C 
BRANCH  17  18
ATOM     18  C   UNL     1      44.240  11.954 -34.607  1.00  0.00     0.000 C 
BRANCH  18  19
ATOM     19  C   UNL     1      43.832  11.988 -36.086  1.00  0.00     0.000 C 
BRANCH  19  20
ATOM     20  C   UNL     1      42.304  12.040 -36.234  1.00  0.00     0.006 C 
BRANCH  20  21
ATOM     21  C   UNL     1      41.639  12.868 -35.125  1.00  0.00     0.053 C 
BRANCH  21  22
ATOM     22  C   UNL     1      40.910  14.054 -35.679  1.00  0.00     0.041 C 
ATOM     23  O   UNL     1      41.514  15.147 -35.845  1.00  0.00    -0.550 OA
ATOM     24  O   UNL     1      39.557  13.961 -35.981  1.00  0.00    -0.550 OA
ENDBRANCH  21  22
ENDBRANCH  20  21
ENDBRANCH  19  20
ENDBRANCH  18  19
ENDBRANCH  17  18
ENDBRANCH  16  17
ENDBRANCH  15  16
ENDBRANCH  14  15
ENDBRANCH  13  14
ENDBRANCH   1  13
TORSDOF 20
ENDMDL
MODEL 8
REMARK VINA RESULT:     1.316      5.285     12.692
REMARK INTER + INTRA:           1.953
REMARK INTER:                   2.912
REMARK INTRA:                  -0.959
REMARK UNBOUND:                -0.901
REMARK SMILES CCCCCCCCCCCCCCCCCCCCCC(=O)[O-]
REMARK SMILES IDX 12 1 11 2 10 3 9 4 8 5 7 6 6 7 5 8 4 9 3 10 2 11 1 12 13 13
REMARK SMILES IDX 14 14 15 15 16 16 17 17 18 18 19 19 20 20 21 21 22 22 23 23
REMARK SMILES IDX 24 24
REMARK H PARENT
REMARK Flexibility Score: inf
ROOT
ATOM      1  C   UNL     1      45.433  11.234 -31.019  1.00  0.00     0.000 C 
ENDROOT
BRANCH   1   2
ATOM      2  C   UNL     1      44.589  12.458 -31.430  1.00  0.00     0.000 C 
BRANCH   2   3
ATOM      3  C   UNL     1      44.859  12.993 -32.850  1.00  0.00     0.000 C 
BRANCH   3   4
ATOM      4  C   UNL     1      45.172  11.913 -33.903  1.00  0.00    -0.000 C 
BRANCH   4   5
ATOM      5  C   UNL     1      44.352  12.014 -35.203  1.00  0.00    -0.000 C 
BRANCH   5   6
ATOM      6  C   UNL     1      42.822  12.029 -35.008  1.00  0.00    -0.000 C 
BRANCH   6   7
ATOM      7  C   UNL     1      42.065  13.056 -35.875  1.00  0.00    -0.000 C 
BRANCH   7   8
ATOM      8  C   UNL     1      40.530  13.020 -35.733  1.00  0.00    -0.000 C 
BRANCH   8   9
ATOM      9  C   UNL     1      39.854  14.401 -35.625  1.00  0.00    -0.000 C 
BRANCH   9  10
ATOM     10  C   UNL     1      38.433  14.480 -36.217  1.00  0.00    -0.000 C 
BRANCH  10  11
ATOM     11  C   UNL     1      37.505  13.316 -35.829  1.00  0.00    -0.003 C 
ATOM     12  C   UNL     1      37.353  12.279 -36.942  1.00  0.00     0.004 C 
ENDBRANCH  10  11
ENDBRANCH   9  10
ENDBRANCH   8   9
ENDBRANCH   7   8
ENDBRANCH   6   7
ENDBRANCH   5   6
ENDBRANCH   4   5
ENDBRANCH   3   4
ENDBRANCH   2   3
ENDBRANCH   1   2
BRANCH   1  13
ATOM     13  C   UNL     1      46.798  11.564 -30.387  1.00  0.00     0.000 C 
BRANCH  13  14
ATOM     14  C   UNL     1      46.869  11.206 -28.895  1.00  0.00     0.000 C 
BRANCH  14  15
ATOM     15  C   UNL     1      45.485  10.939 -28.276  1.00  0.00     0.000 C 
BRANCH  15  16
ATOM     16  C   UNL     1      45.496  10.875 -26.735  1.00  0.00     0.000 C 
BRANCH  16  17
ATOM     17  C   UNL     1      44.371  11.723 -26.114  1.00  0.00     0.000 C 
BRANCH  17  18
ATOM     18  C   UNL     1      44.896  12.772 -25.123  1.00  0.00     0.000 C 
BRANCH  18  19
ATOM     19  C   UNL     1      44.838  12.292 -23.666  1.00  0.00     0.000 C 
BRANCH  19  20
ATOM     20  C   UNL     1      46.211  12.423 -22.989  1.00  0.00     0.006 C 
BRANCH  20  21
ATOM     21  C   UNL     1      46.928  11.071 -22.860  1.00  0.00     0.053 C 
BRANCH  21  22
ATOM     22  C   UNL     1      47.714  10.979 -21.587  1.00  0.00     0.041 C 
ATOM     23  O   UNL     1      47.118  10.875 -20.482  1.00  0.00    -0.550 OA
ATOM     24  O   UNL     1      49.101  11.041 -21.618  1.00  0.00    -0.550 OA
ENDBRANCH  21  22
ENDBRANCH  20  21
ENDBRANCH  19  20
ENDBRANCH  18  19
ENDBRANCH  17  18
ENDBRANCH  16  17
ENDBRANCH  15  16
ENDBRANCH  14  15
ENDBRANCH  13  14
ENDBRANCH   1  13
TORSDOF 20
ENDMDL
MODEL 9
REMARK VINA RESULT:     1.439      4.726     11.767
REMARK INTER + INTRA:           2.220
REMARK INTER:                   3.285
REMARK INTRA:                  -1.065
REMARK UNBOUND:                -0.901
REMARK SMILES CCCCCCCCCCCCCCCCCCCCCC(=O)[O-]
REMARK SMILES IDX 12 1 11 2 10 3 9 4 8 5 7 6 6 7 5 8 4 9 3 10 2 11 1 12 13 13
REMARK SMILES IDX 14 14 15 15 16 16 17 17 18 18 19 19 20 20 21 21 22 22 23 23
REMARK SMILES IDX 24 24
REMARK H PARENT
REMARK Flexibility Score: inf
ROOT
ATOM      1  C   UNL     1      45.139  12.772 -33.211  1.00  0.00     0.000 C 
ENDROOT
BRANCH   1   2
ATOM      2  C   UNL     1      43.802  12.044 -32.964  1.00  0.00     0.000 C 
BRANCH   2   3
ATOM      3  C   UNL     1      42.955  11.782 -34.224  1.00  0.00     0.000 C 
BRANCH   3   4
ATOM      4  C   UNL     1      43.409  12.548 -35.482  1.00  0.00    -0.000 C 
BRANCH   4   5
ATOM      5  C   UNL     1      42.301  12.809 -36.519  1.00  0.00    -0.000 C 
BRANCH   5   6
ATOM      6  C   UNL     1      40.866  12.560 -36.015  1.00  0.00    -0.000 C 
BRANCH   6   7
ATOM      7  C   UNL     1      40.020  13.832 -35.800  1.00  0.00    -0.000 C 
BRANCH   7   8
ATOM      8  C   UNL     1      38.667  13.846 -36.540  1.00  0.00    -0.000 C 
BRANCH   8   9
ATOM      9  C   UNL     1      37.436  14.059 -35.639  1.00  0.00    -0.000 C 
BRANCH   9  10
ATOM     10  C   UNL     1      37.736  14.124 -34.128  1.00  0.00    -0.000 C 
BRANCH  10  11
ATOM     11  C   UNL     1      37.112  12.990 -33.295  1.00  0.00    -0.003 C 
ATOM     12  C   UNL     1      36.978  13.344 -31.814  1.00  0.00     0.004 C 
ENDBRANCH  10  11
ENDBRANCH   9  10
ENDBRANCH   8   9
ENDBRANCH   7   8
ENDBRANCH   6   7
ENDBRANCH   5   6
ENDBRANCH   4   5
ENDBRANCH   3   4
ENDBRANCH   2   3
ENDBRANCH   1   2
BRANCH   1  13
ATOM     13  C   UNL     1      46.130  12.739 -32.033  1.00  0.00     0.000 C 
BRANCH  13  14
ATOM     14  C   UNL     1      45.602  11.945 -30.828  1.00  0.00     0.000 C 
BRANCH  14  15
ATOM     15  C   UNL     1      46.600  10.889 -30.322  1.00  0.00     0.000 C 
BRANCH  15  16
ATOM     16  C   UNL     1      46.843  10.944 -28.799  1.00  0.00     0.000 C 
BRANCH  16  17
ATOM     17  C   UNL     1      45.528  10.875 -28.002  1.00  0.00     0.000 C 
BRANCH  17  18
ATOM     18  C   UNL     1      45.521  11.816 -26.787  1.00  0.00     0.000 C 
BRANCH  18  19
ATOM     19  C   UNL     1      44.328  11.567 -25.854  1.00  0.00     0.000 C 
BRANCH  19  20
ATOM     20  C   UNL     1      44.124  12.751 -24.896  1.00  0.00     0.006 C 
BRANCH  20  21
ATOM     21  C   UNL     1      44.432  12.380 -23.438  1.00  0.00     0.053 C 
BRANCH  21  22
ATOM     22  C   UNL     1      45.862  12.655 -23.086  1.00  0.00     0.041 C 
ATOM     23  O   UNL     1      46.632  11.706 -22.782  1.00  0.00    -0.550 OA
ATOM     24  O   UNL     1      46.335  13.961 -23.062  1.00  0.00    -0.550 OA
ENDBRANCH  21  22
ENDBRANCH  20  21
ENDBRANCH  19  20
ENDBRANCH  18  19
ENDBRANCH  17  18
ENDBRANCH  16  17
ENDBRANCH  15  16
ENDBRANCH  14  15
ENDBRANCH  13  14
ENDBRANCH   1  13
TORSDOF 20
ENDMDL
