MODEL 1
REMARK VINA RESULT:    -2.344      0.000      0.000
REMARK INTER + INTRA:          -2.344
REMARK INTER:                  -2.344
REMARK INTRA:                   0.000
REMARK UNBOUND:                 0.000
REMARK SMILES CC1=CC(=O)[C@@H]2C[C@H]1C2(C)C
REMARK SMILES IDX 1 1 2 2 3 3 4 4 5 5 6 6 7 7 8 8 9 9 10 10 11 11
REMARK H PARENT
REMARK Flexibility Score: inf
ROOT
ATOM      1  C   UNL     1      31.439  57.190  13.623  1.00  0.00     0.040 C 
ATOM      2  C   UNL     1      30.735  57.280  12.306  1.00  0.00    -0.066 C 
ATOM      3  C   UNL     1      29.495  57.833  12.181  1.00  0.00     0.047 C 
ATOM      4  C   UNL     1      28.918  57.855  10.797  1.00  0.00     0.159 C 
ATOM      5  O   UNL     1      27.800  58.375  10.545  1.00  0.00    -0.295 OA
ATOM      6  C   UNL     1      29.781  57.202   9.717  1.00  0.00     0.067 C 
ATOM      7  C   UNL     1      30.245  55.875  10.357  1.00  0.00     0.021 C 
ATOM      8  C   UNL     1      31.370  56.695  11.029  1.00  0.00     0.022 C 
ATOM      9  C   UNL     1      31.239  57.721   9.867  1.00  0.00    -0.019 C 
ATOM     10  C   UNL     1      31.457  59.227  10.189  1.00  0.00     0.012 C 
ATOM     11  C   UNL     1      32.124  57.351   8.651  1.00  0.00     0.012 C 
ENDROOT
TORSDOF 0
ENDMDL
MODEL 2
REMARK VINA RESULT:    -2.278      1.904      3.394
REMARK INTER + INTRA:          -2.278
REMARK INTER:                  -2.278
REMARK INTRA:                   0.000
REMARK UNBOUND:                 0.000
REMARK SMILES CC1=CC(=O)[C@@H]2C[C@H]1C2(C)C
REMARK SMILES IDX 1 1 2 2 3 3 4 4 5 5 6 6 7 7 8 8 9 9 10 10 11 11
REMARK H PARENT
REMARK Flexibility Score: inf
ROOT
ATOM      1  C   UNL     1      31.220  60.285  10.621  1.00  0.00     0.040 C 
ATOM      2  C   UNL     1      30.953  58.853  10.275  1.00  0.00    -0.066 C 
ATOM      3  C   UNL     1      31.803  58.123   9.499  1.00  0.00     0.047 C 
ATOM      4  C   UNL     1      31.404  56.701   9.240  1.00  0.00     0.159 C 
ATOM      5  O   UNL     1      32.124  55.913   8.573  1.00  0.00    -0.295 OA
ATOM      6  C   UNL     1      30.062  56.277   9.839  1.00  0.00     0.067 C 
ATOM      7  C   UNL     1      29.109  57.441   9.490  1.00  0.00     0.021 C 
ATOM      8  C   UNL     1      29.661  58.155  10.744  1.00  0.00     0.022 C 
ATOM      9  C   UNL     1      30.010  56.752  11.319  1.00  0.00    -0.019 C 
ATOM     10  C   UNL     1      31.294  56.612  12.186  1.00  0.00     0.012 C 
ATOM     11  C   UNL     1      28.827  56.123  12.098  1.00  0.00     0.012 C 
ENDROOT
TORSDOF 0
ENDMDL
MODEL 3
REMARK VINA RESULT:    -2.258      1.435      1.723
REMARK INTER + INTRA:          -2.258
REMARK INTER:                  -2.258
REMARK INTRA:                   0.000
REMARK UNBOUND:                 0.000
REMARK SMILES CC1=CC(=O)[C@@H]2C[C@H]1C2(C)C
REMARK SMILES IDX 1 1 2 2 3 3 4 4 5 5 6 6 7 7 8 8 9 9 10 10 11 11
REMARK H PARENT
REMARK Flexibility Score: inf
ROOT
ATOM      1  C   UNL     1      30.888  59.682  12.068  1.00  0.00     0.040 C 
ATOM      2  C   UNL     1      30.349  58.380  11.563  1.00  0.00    -0.066 C 
ATOM      3  C   UNL     1      29.033  58.044  11.681  1.00  0.00     0.047 C 
ATOM      4  C   UNL     1      28.640  56.707  11.126  1.00  0.00     0.159 C 
ATOM      5  O   UNL     1      27.450  56.300  11.137  1.00  0.00    -0.295 OA
ATOM      6  C   UNL     1      29.786  55.875  10.549  1.00  0.00     0.067 C 
ATOM      7  C   UNL     1      30.907  55.992  11.605  1.00  0.00     0.021 C 
ATOM      8  C   UNL     1      31.284  57.330  10.929  1.00  0.00     0.022 C 
ATOM      9  C   UNL     1      30.640  56.785   9.622  1.00  0.00    -0.019 C 
ATOM     10  C   UNL     1      29.904  57.791   8.692  1.00  0.00     0.012 C 
ATOM     11  C   UNL     1      31.645  55.976   8.764  1.00  0.00     0.012 C 
ENDROOT
TORSDOF 0
ENDMDL
MODEL 4
REMARK VINA RESULT:    -2.212      2.001      3.087
REMARK INTER + INTRA:          -2.212
REMARK INTER:                  -2.212
REMARK INTRA:                   0.000
REMARK UNBOUND:                 0.000
REMARK SMILES CC1=CC(=O)[C@@H]2C[C@H]1C2(C)C
REMARK SMILES IDX 1 1 2 2 3 3 4 4 5 5 6 6 7 7 8 8 9 9 10 10 11 11
REMARK H PARENT
REMARK Flexibility Score: inf
ROOT
ATOM      1  C   UNL     1      27.461  56.324  10.667  1.00  0.00     0.040 C 
ATOM      2  C   UNL     1      28.835  56.663  11.152  1.00  0.00    -0.066 C 
ATOM      3  C   UNL     1      29.429  55.991  12.178  1.00  0.00     0.047 C 
ATOM      4  C   UNL     1      30.810  56.443  12.552  1.00  0.00     0.159 C 
ATOM      5  O   UNL     1      31.480  55.877  13.454  1.00  0.00    -0.295 OA
ATOM      6  C   UNL     1      31.344  57.638  11.762  1.00  0.00     0.067 C 
ATOM      7  C   UNL     1      30.165  58.636  11.745  1.00  0.00     0.021 C 
ATOM      8  C   UNL     1      29.622  57.838  10.538  1.00  0.00     0.022 C 
ATOM      9  C   UNL     1      31.083  57.388  10.250  1.00  0.00    -0.019 C 
ATOM     10  C   UNL     1      31.314  55.957   9.687  1.00  0.00     0.012 C 
ATOM     11  C   UNL     1      31.842  58.393   9.347  1.00  0.00     0.012 C 
ENDROOT
TORSDOF 0
ENDMDL
MODEL 5
REMARK VINA RESULT:    -2.174      1.688      3.538
REMARK INTER + INTRA:          -2.174
REMARK INTER:                  -2.174
REMARK INTRA:                   0.000
REMARK UNBOUND:                 0.000
REMARK SMILES CC1=CC(=O)[C@@H]2C[C@H]1C2(C)C
REMARK SMILES IDX 1 1 2 2 3 3 4 4 5 5 6 6 7 7 8 8 9 9 10 10 11 11
REMARK H PARENT
REMARK Flexibility Score: inf
ROOT
ATOM      1  C   UNL     1      31.346  56.518   9.732  1.00  0.00     0.040 C 
ATOM      2  C   UNL     1      30.591  56.778  10.997  1.00  0.00    -0.066 C 
ATOM      3  C   UNL     1      29.457  56.094  11.320  1.00  0.00     0.047 C 
ATOM      4  C   UNL     1      28.811  56.463  12.622  1.00  0.00     0.159 C 
ATOM      5  O   UNL     1      27.785  55.875  13.052  1.00  0.00    -0.295 OA
ATOM      6  C   UNL     1      29.485  57.602  13.389  1.00  0.00     0.067 C 
ATOM      7  C   UNL     1      29.755  58.674  12.310  1.00  0.00     0.021 C 
ATOM      8  C   UNL     1      31.041  57.885  11.972  1.00  0.00     0.022 C 
ATOM      9  C   UNL     1      31.016  57.334  13.427  1.00  0.00    -0.019 C 
ATOM     10  C   UNL     1      31.506  55.878  13.669  1.00  0.00     0.012 C 
ATOM     11  C   UNL     1      31.753  58.265  14.423  1.00  0.00     0.012 C 
ENDROOT
TORSDOF 0
ENDMDL
MODEL 6
REMARK VINA RESULT:    -2.136      1.620      2.862
REMARK INTER + INTRA:          -2.136
REMARK INTER:                  -2.136
REMARK INTRA:                   0.000
REMARK UNBOUND:                 0.000
REMARK SMILES CC1=CC(=O)[C@@H]2C[C@H]1C2(C)C
REMARK SMILES IDX 1 1 2 2 3 3 4 4 5 5 6 6 7 7 8 8 9 9 10 10 11 11
REMARK H PARENT
REMARK Flexibility Score: inf
ROOT
ATOM      1  C   UNL     1      31.486  55.988  13.129  1.00  0.00     0.040 C 
ATOM      2  C   UNL     1      31.022  56.593  11.841  1.00  0.00    -0.066 C 
ATOM      3  C   UNL     1      30.959  55.876  10.683  1.00  0.00     0.047 C 
ATOM      4  C   UNL     1      30.473  56.616   9.473  1.00  0.00     0.159 C 
ATOM      5  O   UNL     1      30.331  56.055   8.356  1.00  0.00    -0.295 OA
ATOM      6  C   UNL     1      30.165  58.098   9.691  1.00  0.00     0.067 C 
ATOM      7  C   UNL     1      31.372  58.618  10.503  1.00  0.00     0.021 C 
ATOM      8  C   UNL     1      30.645  58.086  11.759  1.00  0.00     0.022 C 
ATOM      9  C   UNL     1      29.307  58.240  10.980  1.00  0.00    -0.019 C 
ATOM     10  C   UNL     1      28.183  57.197  11.238  1.00  0.00     0.012 C 
ATOM     11  C   UNL     1      28.698  59.657  11.130  1.00  0.00     0.012 C 
ENDROOT
TORSDOF 0
ENDMDL
MODEL 7
REMARK VINA RESULT:     0.000      8.062      9.824
REMARK INTER + INTRA:           0.000
REMARK INTER:                   0.000
REMARK INTRA:                   0.000
REMARK UNBOUND:                 0.000
REMARK SMILES CC1=CC(=O)[C@@H]2C[C@H]1C2(C)C
REMARK SMILES IDX 1 1 2 2 3 3 4 4 5 5 6 6 7 7 8 8 9 9 10 10 11 11
REMARK H PARENT
REMARK Flexibility Score: inf
ROOT
ATOM      1  C   UNL     1      21.328  63.335  11.797  1.00  0.00     0.040 C 
ATOM      2  C   UNL     1      22.300  62.851  12.826  1.00  0.00    -0.066 C 
ATOM      3  C   UNL     1      22.858  63.686  13.748  1.00  0.00     0.047 C 
ATOM      4  C   UNL     1      23.814  63.056  14.717  1.00  0.00     0.159 C 
ATOM      5  O   UNL     1      24.362  63.711  15.641  1.00  0.00    -0.295 OA
ATOM      6  C   UNL     1      24.076  61.565  14.504  1.00  0.00     0.067 C 
ATOM      7  C   UNL     1      24.297  61.435  12.980  1.00  0.00     0.021 C 
ATOM      8  C   UNL     1      22.758  61.379  12.850  1.00  0.00     0.022 C 
ATOM      9  C   UNL     1      22.711  60.845  14.311  1.00  0.00    -0.019 C 
ATOM     10  C   UNL     1      21.517  61.273  15.211  1.00  0.00     0.012 C 
ATOM     11  C   UNL     1      22.842  59.303  14.380  1.00  0.00     0.012 C 
ENDROOT
TORSDOF 0
ENDMDL
