MODEL 1
REMARK VINA RESULT:    -4.226      0.000      0.000
REMARK INTER + INTRA:         -15.750
REMARK INTER:                 -11.142
REMARK INTRA:                  -4.608
REMARK UNBOUND:                -4.608
REMARK SMILES CCCCCCCCCCCCCCCCCCCCCCCCCCCCCC(=O)[O-]
REMARK SMILES IDX 16 1 17 2 18 3 19 4 20 5 21 6 22 7 23 8 24 9 25 10 26 11
REMARK SMILES IDX 27 12 28 13 29 14 30 15 31 16 32 17 15 18 14 19 13 20 12 21
REMARK SMILES IDX 11 22 10 23 9 24 8 25 7 26 6 27 5 28 4 29 3 30 2 31 1 32
REMARK H PARENT
REMARK Flexibility Score: inf
ROOT
ATOM      1  C   UNL     1      47.421  -7.946 -55.699  1.00  0.00     0.000 C 
ENDROOT
BRANCH   1   2
ATOM      2  C   UNL     1      47.025  -7.996 -57.184  1.00  0.00     0.000 C 
BRANCH   2   3
ATOM      3  C   UNL     1      48.103  -8.644 -58.069  1.00  0.00     0.000 C 
BRANCH   3   4
ATOM      4  C   UNL     1      47.505  -9.588 -59.125  1.00  0.00     0.000 C 
BRANCH   4   5
ATOM      5  C   UNL     1      48.069 -11.014 -59.027  1.00  0.00     0.000 C 
BRANCH   5   6
ATOM      6  C   UNL     1      47.178 -11.957 -58.200  1.00  0.00     0.000 C 
BRANCH   6   7
ATOM      7  C   UNL     1      47.395 -11.842 -56.675  1.00  0.00     0.000 C 
BRANCH   7   8
ATOM      8  C   UNL     1      48.660 -12.576 -56.182  1.00  0.00     0.000 C 
BRANCH   8   9
ATOM      9  C   UNL     1      48.500 -14.104 -56.057  1.00  0.00     0.000 C 
BRANCH   9  10
ATOM     10  C   UNL     1      47.243 -14.548 -55.283  1.00  0.00     0.000 C 
BRANCH  10  11
ATOM     11  C   UNL     1      46.250 -15.326 -56.164  1.00  0.00     0.000 C 
BRANCH  11  12
ATOM     12  C   UNL     1      46.894 -15.891 -57.440  1.00  0.00     0.000 C 
BRANCH  12  13
ATOM     13  C   UNL     1      47.488 -17.305 -57.306  1.00  0.00     0.006 C 
BRANCH  13  14
ATOM     14  C   UNL     1      46.553 -18.315 -56.613  1.00  0.00     0.053 C 
BRANCH  14  15
ATOM     15  C   UNL     1      45.503 -18.857 -57.534  1.00  0.00     0.041 C 
ATOM     16  O   UNL     1      44.361 -18.329 -57.580  1.00  0.00    -0.550 OA
ATOM     17  O   UNL     1      45.800 -19.918 -58.379  1.00  0.00    -0.550 OA
ENDBRANCH  14  15
ENDBRANCH  13  14
ENDBRANCH  12  13
ENDBRANCH  11  12
ENDBRANCH  10  11
ENDBRANCH   9  10
ENDBRANCH   8   9
ENDBRANCH   7   8
ENDBRANCH   6   7
ENDBRANCH   5   6
ENDBRANCH   4   5
ENDBRANCH   3   4
ENDBRANCH   2   3
ENDBRANCH   1   2
BRANCH   1  18
ATOM     18  C   UNL     1      48.717  -8.722 -55.407  1.00  0.00     0.000 C 
BRANCH  18  19
ATOM     19  C   UNL     1      49.526  -8.118 -54.247  1.00  0.00     0.000 C 
BRANCH  19  20
ATOM     20  C   UNL     1      49.113  -6.670 -53.931  1.00  0.00     0.000 C 
BRANCH  20  21
ATOM     21  C   UNL     1      50.029  -5.627 -54.588  1.00  0.00     0.000 C 
BRANCH  21  22
ATOM     22  C   UNL     1      51.444  -6.154 -54.902  1.00  0.00     0.000 C 
BRANCH  22  23
ATOM     23  C   UNL     1      51.780  -6.065 -56.400  1.00  0.00     0.000 C 
BRANCH  23  24
ATOM     24  C   UNL     1      50.979  -4.973 -57.125  1.00  0.00    -0.000 C 
BRANCH  24  25
ATOM     25  C   UNL     1      49.936  -5.550 -58.101  1.00  0.00    -0.000 C 
BRANCH  25  26
ATOM     26  C   UNL     1      48.687  -4.653 -58.240  1.00  0.00    -0.000 C 
BRANCH  26  27
ATOM     27  C   UNL     1      48.751  -3.361 -57.403  1.00  0.00    -0.000 C 
BRANCH  27  28
ATOM     28  C   UNL     1      47.630  -3.201 -56.358  1.00  0.00    -0.000 C 
BRANCH  28  29
ATOM     29  C   UNL     1      46.755  -4.454 -56.143  1.00  0.00    -0.000 C 
BRANCH  29  30
ATOM     30  C   UNL     1      45.979  -4.491 -54.811  1.00  0.00    -0.000 C 
BRANCH  30  31
ATOM     31  C   UNL     1      46.691  -3.806 -53.631  1.00  0.00    -0.003 C 
ATOM     32  C   UNL     1      45.858  -3.811 -52.349  1.00  0.00     0.004 C 
ENDBRANCH  30  31
ENDBRANCH  29  30
ENDBRANCH  28  29
ENDBRANCH  27  28
ENDBRANCH  26  27
ENDBRANCH  25  26
ENDBRANCH  24  25
ENDBRANCH  23  24
ENDBRANCH  22  23
ENDBRANCH  21  22
ENDBRANCH  20  21
ENDBRANCH  19  20
ENDBRANCH  18  19
ENDBRANCH   1  18
TORSDOF 28
ENDMDL
MODEL 2
REMARK VINA RESULT:    -4.178      1.632      4.325
REMARK INTER + INTRA:         -15.624
REMARK INTER:                 -10.813
REMARK INTRA:                  -4.811
REMARK UNBOUND:                -4.608
REMARK SMILES CCCCCCCCCCCCCCCCCCCCCCCCCCCCCC(=O)[O-]
REMARK SMILES IDX 16 1 17 2 18 3 19 4 20 5 21 6 22 7 23 8 24 9 25 10 26 11
REMARK SMILES IDX 27 12 28 13 29 14 30 15 31 16 32 17 15 18 14 19 13 20 12 21
REMARK SMILES IDX 11 22 10 23 9 24 8 25 7 26 6 27 5 28 4 29 3 30 2 31 1 32
REMARK H PARENT
REMARK Flexibility Score: inf
ROOT
ATOM      1  C   UNL     1      51.697  -4.728 -57.277  1.00  0.00     0.000 C 
ENDROOT
BRANCH   1   2
ATOM      2  C   UNL     1      51.889  -5.936 -56.346  1.00  0.00     0.000 C 
BRANCH   2   3
ATOM      3  C   UNL     1      51.096  -5.814 -55.035  1.00  0.00     0.000 C 
BRANCH   3   4
ATOM      4  C   UNL     1      50.482  -7.153 -54.595  1.00  0.00     0.000 C 
BRANCH   4   5
ATOM      5  C   UNL     1      49.099  -6.981 -53.945  1.00  0.00     0.000 C 
BRANCH   5   6
ATOM      6  C   UNL     1      48.020  -7.871 -54.587  1.00  0.00     0.000 C 
BRANCH   6   7
ATOM      7  C   UNL     1      48.580  -8.913 -55.579  1.00  0.00     0.000 C 
BRANCH   7   8
ATOM      8  C   UNL     1      47.488  -9.583 -56.440  1.00  0.00     0.000 C 
BRANCH   8   9
ATOM      9  C   UNL     1      47.783 -11.051 -56.808  1.00  0.00     0.000 C 
BRANCH   9  10
ATOM     10  C   UNL     1      48.677 -11.792 -55.794  1.00  0.00     0.000 C 
BRANCH  10  11
ATOM     11  C   UNL     1      48.883 -13.272 -56.158  1.00  0.00     0.000 C 
BRANCH  11  12
ATOM     12  C   UNL     1      47.687 -14.157 -55.774  1.00  0.00     0.000 C 
BRANCH  12  13
ATOM     13  C   UNL     1      47.975 -15.669 -55.734  1.00  0.00     0.006 C 
BRANCH  13  14
ATOM     14  C   UNL     1      47.573 -16.419 -57.018  1.00  0.00     0.053 C 
BRANCH  14  15
ATOM     15  C   UNL     1      46.087 -16.526 -57.185  1.00  0.00     0.041 C 
ATOM     16  O   UNL     1      45.446 -17.443 -56.608  1.00  0.00    -0.550 OA
ATOM     17  O   UNL     1      45.403 -15.584 -57.940  1.00  0.00    -0.550 OA
ENDBRANCH  14  15
ENDBRANCH  13  14
ENDBRANCH  12  13
ENDBRANCH  11  12
ENDBRANCH  10  11
ENDBRANCH   9  10
ENDBRANCH   8   9
ENDBRANCH   7   8
ENDBRANCH   6   7
ENDBRANCH   5   6
ENDBRANCH   4   5
ENDBRANCH   3   4
ENDBRANCH   2   3
ENDBRANCH   1   2
BRANCH   1  18
ATOM     18  C   UNL     1      51.058  -5.115 -58.622  1.00  0.00     0.000 C 
BRANCH  18  19
ATOM     19  C   UNL     1      50.795  -6.625 -58.746  1.00  0.00     0.000 C 
BRANCH  19  20
ATOM     20  C   UNL     1      49.294  -6.961 -58.772  1.00  0.00     0.000 C 
BRANCH  20  21
ATOM     21  C   UNL     1      48.398  -5.727 -58.589  1.00  0.00     0.000 C 
BRANCH  21  22
ATOM     22  C   UNL     1      47.716  -5.655 -57.207  1.00  0.00     0.000 C 
BRANCH  22  23
ATOM     23  C   UNL     1      47.458  -4.206 -56.760  1.00  0.00     0.000 C 
BRANCH  23  24
ATOM     24  C   UNL     1      48.387  -3.761 -55.620  1.00  0.00    -0.000 C 
BRANCH  24  25
ATOM     25  C   UNL     1      47.616  -3.338 -54.356  1.00  0.00    -0.000 C 
BRANCH  25  26
ATOM     26  C   UNL     1      46.084  -3.371 -54.551  1.00  0.00    -0.000 C 
BRANCH  26  27
ATOM     27  C   UNL     1      45.322  -4.035 -53.388  1.00  0.00    -0.000 C 
BRANCH  27  28
ATOM     28  C   UNL     1      45.650  -5.522 -53.154  1.00  0.00    -0.000 C 
BRANCH  28  29
ATOM     29  C   UNL     1      44.646  -6.516 -53.774  1.00  0.00    -0.000 C 
BRANCH  29  30
ATOM     30  C   UNL     1      44.692  -6.620 -55.312  1.00  0.00    -0.000 C 
BRANCH  30  31
ATOM     31  C   UNL     1      43.593  -5.831 -56.045  1.00  0.00    -0.003 C 
ATOM     32  C   UNL     1      42.313  -5.687 -55.222  1.00  0.00     0.004 C 
ENDBRANCH  30  31
ENDBRANCH  29  30
ENDBRANCH  28  29
ENDBRANCH  27  28
ENDBRANCH  26  27
ENDBRANCH  25  26
ENDBRANCH  24  25
ENDBRANCH  23  24
ENDBRANCH  22  23
ENDBRANCH  21  22
ENDBRANCH  20  21
ENDBRANCH  19  20
ENDBRANCH  18  19
ENDBRANCH   1  18
TORSDOF 28
ENDMDL
MODEL 3
REMARK VINA RESULT:    -4.100      3.426      9.327
REMARK INTER + INTRA:         -15.419
REMARK INTER:                 -10.982
REMARK INTRA:                  -4.437
REMARK UNBOUND:                -4.608
REMARK SMILES CCCCCCCCCCCCCCCCCCCCCCCCCCCCCC(=O)[O-]
REMARK SMILES IDX 16 1 17 2 18 3 19 4 20 5 21 6 22 7 23 8 24 9 25 10 26 11
REMARK SMILES IDX 27 12 28 13 29 14 30 15 31 16 32 17 15 18 14 19 13 20 12 21
REMARK SMILES IDX 11 22 10 23 9 24 8 25 7 26 6 27 5 28 4 29 3 30 2 31 1 32
REMARK H PARENT
REMARK Flexibility Score: inf
ROOT
ATOM      1  C   UNL     1      51.695  -6.244 -55.002  1.00  0.00     0.000 C 
ENDROOT
BRANCH   1   2
ATOM      2  C   UNL     1      52.109  -6.077 -56.473  1.00  0.00     0.000 C 
BRANCH   2   3
ATOM      3  C   UNL     1      50.926  -5.729 -57.392  1.00  0.00     0.000 C 
BRANCH   3   4
ATOM      4  C   UNL     1      50.607  -6.855 -58.389  1.00  0.00     0.000 C 
BRANCH   4   5
ATOM      5  C   UNL     1      49.108  -6.941 -58.720  1.00  0.00     0.000 C 
BRANCH   5   6
ATOM      6  C   UNL     1      48.425  -5.562 -58.769  1.00  0.00     0.000 C 
BRANCH   6   7
ATOM      7  C   UNL     1      47.380  -5.345 -57.654  1.00  0.00     0.000 C 
BRANCH   7   8
ATOM      8  C   UNL     1      47.638  -4.075 -56.814  1.00  0.00     0.000 C 
BRANCH   8   9
ATOM      9  C   UNL     1      46.730  -3.938 -55.576  1.00  0.00     0.000 C 
BRANCH   9  10
ATOM     10  C   UNL     1      47.451  -3.420 -54.315  1.00  0.00     0.000 C 
BRANCH  10  11
ATOM     11  C   UNL     1      46.493  -3.215 -53.129  1.00  0.00     0.000 C 
BRANCH  11  12
ATOM     12  C   UNL     1      45.248  -4.112 -53.200  1.00  0.00     0.000 C 
BRANCH  12  13
ATOM     13  C   UNL     1      45.388  -5.484 -52.515  1.00  0.00     0.006 C 
BRANCH  13  14
ATOM     14  C   UNL     1      44.563  -6.603 -53.177  1.00  0.00     0.053 C 
BRANCH  14  15
ATOM     15  C   UNL     1      43.425  -7.069 -52.320  1.00  0.00     0.041 C 
ATOM     16  O   UNL     1      42.752  -6.243 -51.649  1.00  0.00    -0.550 OA
ATOM     17  O   UNL     1      43.075  -8.412 -52.299  1.00  0.00    -0.550 OA
ENDBRANCH  14  15
ENDBRANCH  13  14
ENDBRANCH  12  13
ENDBRANCH  11  12
ENDBRANCH  10  11
ENDBRANCH   9  10
ENDBRANCH   8   9
ENDBRANCH   7   8
ENDBRANCH   6   7
ENDBRANCH   5   6
ENDBRANCH   4   5
ENDBRANCH   3   4
ENDBRANCH   2   3
ENDBRANCH   1   2
BRANCH   1  18
ATOM     18  C   UNL     1      50.210  -5.919 -54.765  1.00  0.00     0.000 C 
BRANCH  18  19
ATOM     19  C   UNL     1      49.487  -6.996 -53.939  1.00  0.00     0.000 C 
BRANCH  19  20
ATOM     20  C   UNL     1      48.046  -7.241 -54.422  1.00  0.00     0.000 C 
BRANCH  20  21
ATOM     21  C   UNL     1      47.945  -8.363 -55.467  1.00  0.00     0.000 C 
BRANCH  21  22
ATOM     22  C   UNL     1      46.544  -8.498 -56.098  1.00  0.00     0.000 C 
BRANCH  22  23
ATOM     23  C   UNL     1      46.551  -9.395 -57.347  1.00  0.00     0.000 C 
BRANCH  23  24
ATOM     24  C   UNL     1      47.817 -10.260 -57.449  1.00  0.00    -0.000 C 
BRANCH  24  25
ATOM     25  C   UNL     1      47.561 -11.607 -58.150  1.00  0.00    -0.000 C 
BRANCH  25  26
ATOM     26  C   UNL     1      46.980 -12.675 -57.199  1.00  0.00    -0.000 C 
BRANCH  26  27
ATOM     27  C   UNL     1      47.957 -13.126 -56.096  1.00  0.00    -0.000 C 
BRANCH  27  28
ATOM     28  C   UNL     1      47.570 -14.429 -55.371  1.00  0.00    -0.000 C 
BRANCH  28  29
ATOM     29  C   UNL     1      48.270 -15.700 -55.897  1.00  0.00    -0.000 C 
BRANCH  29  30
ATOM     30  C   UNL     1      47.513 -16.451 -57.011  1.00  0.00    -0.000 C 
BRANCH  30  31
ATOM     31  C   UNL     1      46.039 -16.760 -56.694  1.00  0.00    -0.003 C 
ATOM     32  C   UNL     1      45.125 -16.612 -57.910  1.00  0.00     0.004 C 
ENDBRANCH  30  31
ENDBRANCH  29  30
ENDBRANCH  28  29
ENDBRANCH  27  28
ENDBRANCH  26  27
ENDBRANCH  25  26
ENDBRANCH  24  25
ENDBRANCH  23  24
ENDBRANCH  22  23
ENDBRANCH  21  22
ENDBRANCH  20  21
ENDBRANCH  19  20
ENDBRANCH  18  19
ENDBRANCH   1  18
TORSDOF 28
ENDMDL
MODEL 4
REMARK VINA RESULT:    -4.057      3.752     10.105
REMARK INTER + INTRA:         -15.304
REMARK INTER:                 -11.081
REMARK INTRA:                  -4.223
REMARK UNBOUND:                -4.608
REMARK SMILES CCCCCCCCCCCCCCCCCCCCCCCCCCCCCC(=O)[O-]
REMARK SMILES IDX 16 1 17 2 18 3 19 4 20 5 21 6 22 7 23 8 24 9 25 10 26 11
REMARK SMILES IDX 27 12 28 13 29 14 30 15 31 16 32 17 15 18 14 19 13 20 12 21
REMARK SMILES IDX 11 22 10 23 9 24 8 25 7 26 6 27 5 28 4 29 3 30 2 31 1 32
REMARK H PARENT
REMARK Flexibility Score: inf
ROOT
ATOM      1  C   UNL     1      48.770  -8.768 -55.133  1.00  0.00     0.000 C 
ENDROOT
BRANCH   1   2
ATOM      2  C   UNL     1      49.807  -7.951 -54.345  1.00  0.00     0.000 C 
BRANCH   2   3
ATOM      3  C   UNL     1      49.402  -6.478 -54.169  1.00  0.00     0.000 C 
BRANCH   3   4
ATOM      4  C   UNL     1      50.531  -5.509 -54.556  1.00  0.00     0.000 C 
BRANCH   4   5
ATOM      5  C   UNL     1      51.766  -6.236 -55.113  1.00  0.00     0.000 C 
BRANCH   5   6
ATOM      6  C   UNL     1      52.102  -5.827 -56.558  1.00  0.00     0.000 C 
BRANCH   6   7
ATOM      7  C   UNL     1      50.867  -5.719 -57.479  1.00  0.00     0.000 C 
BRANCH   7   8
ATOM      8  C   UNL     1      50.762  -4.360 -58.202  1.00  0.00     0.000 C 
BRANCH   8   9
ATOM      9  C   UNL     1      49.618  -3.458 -57.694  1.00  0.00     0.000 C 
BRANCH   9  10
ATOM     10  C   UNL     1      48.391  -4.227 -57.166  1.00  0.00     0.000 C 
BRANCH  10  11
ATOM     11  C   UNL     1      47.759  -3.557 -55.935  1.00  0.00     0.000 C 
BRANCH  11  12
ATOM     12  C   UNL     1      46.597  -4.368 -55.340  1.00  0.00     0.000 C 
BRANCH  12  13
ATOM     13  C   UNL     1      46.395  -4.209 -53.821  1.00  0.00     0.006 C 
BRANCH  13  14
ATOM     14  C   UNL     1      46.017  -5.516 -53.099  1.00  0.00     0.053 C 
BRANCH  14  15
ATOM     15  C   UNL     1      44.554  -5.602 -52.785  1.00  0.00     0.041 C 
ATOM     16  O   UNL     1      44.167  -5.864 -51.616  1.00  0.00    -0.550 OA
ATOM     17  O   UNL     1      43.615  -5.345 -53.775  1.00  0.00    -0.550 OA
ENDBRANCH  14  15
ENDBRANCH  13  14
ENDBRANCH  12  13
ENDBRANCH  11  12
ENDBRANCH  10  11
ENDBRANCH   9  10
ENDBRANCH   8   9
ENDBRANCH   7   8
ENDBRANCH   6   7
ENDBRANCH   5   6
ENDBRANCH   4   5
ENDBRANCH   3   4
ENDBRANCH   2   3
ENDBRANCH   1   2
BRANCH   1  18
ATOM     18  C   UNL     1      47.509  -7.952 -55.470  1.00  0.00     0.000 C 
BRANCH  18  19
ATOM     19  C   UNL     1      47.138  -8.016 -56.961  1.00  0.00     0.000 C 
BRANCH  19  20
ATOM     20  C   UNL     1      48.365  -7.884 -57.880  1.00  0.00     0.000 C 
BRANCH  20  21
ATOM     21  C   UNL     1      48.390  -8.932 -59.003  1.00  0.00     0.000 C 
BRANCH  21  22
ATOM     22  C   UNL     1      47.210  -9.924 -58.952  1.00  0.00     0.000 C 
BRANCH  22  23
ATOM     23  C   UNL     1      47.676 -11.371 -58.718  1.00  0.00     0.000 C 
BRANCH  23  24
ATOM     24  C   UNL     1      47.771 -11.732 -57.228  1.00  0.00    -0.000 C 
BRANCH  24  25
ATOM     25  C   UNL     1      47.063 -13.057 -56.890  1.00  0.00    -0.000 C 
BRANCH  25  26
ATOM     26  C   UNL     1      47.761 -13.835 -55.754  1.00  0.00    -0.000 C 
BRANCH  26  27
ATOM     27  C   UNL     1      48.579 -15.046 -56.239  1.00  0.00    -0.000 C 
BRANCH  27  28
ATOM     28  C   UNL     1      47.870 -16.408 -56.115  1.00  0.00    -0.000 C 
BRANCH  28  29
ATOM     29  C   UNL     1      47.538 -17.095 -57.457  1.00  0.00    -0.000 C 
BRANCH  29  30
ATOM     30  C   UNL     1      46.378 -16.460 -58.249  1.00  0.00    -0.000 C 
BRANCH  30  31
ATOM     31  C   UNL     1      44.973 -16.880 -57.783  1.00  0.00    -0.003 C 
ATOM     32  C   UNL     1      44.348 -17.955 -58.671  1.00  0.00     0.004 C 
ENDBRANCH  30  31
ENDBRANCH  29  30
ENDBRANCH  28  29
ENDBRANCH  27  28
ENDBRANCH  26  27
ENDBRANCH  25  26
ENDBRANCH  24  25
ENDBRANCH  23  24
ENDBRANCH  22  23
ENDBRANCH  21  22
ENDBRANCH  20  21
ENDBRANCH  19  20
ENDBRANCH  18  19
ENDBRANCH   1  18
TORSDOF 28
ENDMDL
MODEL 5
REMARK VINA RESULT:    -3.987      1.380      2.051
REMARK INTER + INTRA:         -15.120
REMARK INTER:                 -11.228
REMARK INTRA:                  -3.893
REMARK UNBOUND:                -4.608
REMARK SMILES CCCCCCCCCCCCCCCCCCCCCCCCCCCCCC(=O)[O-]
REMARK SMILES IDX 16 1 17 2 18 3 19 4 20 5 21 6 22 7 23 8 24 9 25 10 26 11
REMARK SMILES IDX 27 12 28 13 29 14 30 15 31 16 32 17 15 18 14 19 13 20 12 21
REMARK SMILES IDX 11 22 10 23 9 24 8 25 7 26 6 27 5 28 4 29 3 30 2 31 1 32
REMARK H PARENT
REMARK Flexibility Score: inf
ROOT
ATOM      1  C   UNL     1      47.438  -8.083 -55.290  1.00  0.00     0.000 C 
ENDROOT
BRANCH   1   2
ATOM      2  C   UNL     1      46.723  -8.196 -56.646  1.00  0.00     0.000 C 
BRANCH   2   3
ATOM      3  C   UNL     1      47.647  -8.691 -57.771  1.00  0.00     0.000 C 
BRANCH   3   4
ATOM      4  C   UNL     1      46.965  -9.731 -58.675  1.00  0.00     0.000 C 
BRANCH   4   5
ATOM      5  C   UNL     1      47.617 -11.119 -58.572  1.00  0.00     0.000 C 
BRANCH   5   6
ATOM      6  C   UNL     1      47.211 -11.879 -57.297  1.00  0.00     0.000 C 
BRANCH   6   7
ATOM      7  C   UNL     1      48.357 -12.037 -56.273  1.00  0.00     0.000 C 
BRANCH   7   8
ATOM      8  C   UNL     1      48.795 -13.503 -56.069  1.00  0.00     0.000 C 
BRANCH   8   9
ATOM      9  C   UNL     1      47.645 -14.466 -55.714  1.00  0.00     0.000 C 
BRANCH   9  10
ATOM     10  C   UNL     1      48.050 -15.954 -55.689  1.00  0.00     0.000 C 
BRANCH  10  11
ATOM     11  C   UNL     1      47.786 -16.661 -57.029  1.00  0.00     0.000 C 
BRANCH  11  12
ATOM     12  C   UNL     1      46.388 -16.371 -57.596  1.00  0.00     0.000 C 
BRANCH  12  13
ATOM     13  C   UNL     1      45.465 -17.597 -57.726  1.00  0.00     0.006 C 
BRANCH  13  14
ATOM     14  C   UNL     1      45.542 -18.570 -56.534  1.00  0.00     0.053 C 
BRANCH  14  15
ATOM     15  C   UNL     1      45.842 -19.977 -56.954  1.00  0.00     0.041 C 
ATOM     16  O   UNL     1      45.722 -20.926 -56.134  1.00  0.00    -0.550 OA
ATOM     17  O   UNL     1      46.206 -20.249 -58.265  1.00  0.00    -0.550 OA
ENDBRANCH  14  15
ENDBRANCH  13  14
ENDBRANCH  12  13
ENDBRANCH  11  12
ENDBRANCH  10  11
ENDBRANCH   9  10
ENDBRANCH   8   9
ENDBRANCH   7   8
ENDBRANCH   6   7
ENDBRANCH   5   6
ENDBRANCH   4   5
ENDBRANCH   3   4
ENDBRANCH   2   3
ENDBRANCH   1   2
BRANCH   1  18
ATOM     18  C   UNL     1      48.910  -8.525 -55.360  1.00  0.00     0.000 C 
BRANCH  18  19
ATOM     19  C   UNL     1      49.751  -7.992 -54.187  1.00  0.00     0.000 C 
BRANCH  19  20
ATOM     20  C   UNL     1      50.082  -6.497 -54.332  1.00  0.00     0.000 C 
BRANCH  20  21
ATOM     21  C   UNL     1      51.426  -6.244 -55.033  1.00  0.00     0.000 C 
BRANCH  21  22
ATOM     22  C   UNL     1      51.298  -6.010 -56.553  1.00  0.00     0.000 C 
BRANCH  22  23
ATOM     23  C   UNL     1      50.358  -4.839 -56.884  1.00  0.00     0.000 C 
BRANCH  23  24
ATOM     24  C   UNL     1      48.975  -5.305 -57.365  1.00  0.00    -0.000 C 
BRANCH  24  25
ATOM     25  C   UNL     1      47.823  -4.523 -56.708  1.00  0.00    -0.000 C 
BRANCH  25  26
ATOM     26  C   UNL     1      48.318  -3.463 -55.701  1.00  0.00    -0.000 C 
BRANCH  26  27
ATOM     27  C   UNL     1      47.758  -3.646 -54.277  1.00  0.00    -0.000 C 
BRANCH  27  28
ATOM     28  C   UNL     1      46.798  -4.837 -54.099  1.00  0.00    -0.000 C 
BRANCH  28  29
ATOM     29  C   UNL     1      45.672  -4.619 -53.066  1.00  0.00    -0.000 C 
BRANCH  29  30
ATOM     30  C   UNL     1      44.317  -5.259 -53.428  1.00  0.00    -0.000 C 
BRANCH  30  31
ATOM     31  C   UNL     1      44.025  -6.594 -52.719  1.00  0.00    -0.003 C 
ATOM     32  C   UNL     1      43.726  -7.732 -53.694  1.00  0.00     0.004 C 
ENDBRANCH  30  31
ENDBRANCH  29  30
ENDBRANCH  28  29
ENDBRANCH  27  28
ENDBRANCH  26  27
ENDBRANCH  25  26
ENDBRANCH  24  25
ENDBRANCH  23  24
ENDBRANCH  22  23
ENDBRANCH  21  22
ENDBRANCH  20  21
ENDBRANCH  19  20
ENDBRANCH  18  19
ENDBRANCH   1  18
TORSDOF 28
ENDMDL
MODEL 6
REMARK VINA RESULT:    -3.982      3.737     10.427
REMARK INTER + INTRA:         -15.107
REMARK INTER:                 -11.137
REMARK INTRA:                  -3.970
REMARK UNBOUND:                -4.608
REMARK SMILES CCCCCCCCCCCCCCCCCCCCCCCCCCCCCC(=O)[O-]
REMARK SMILES IDX 16 1 17 2 18 3 19 4 20 5 21 6 22 7 23 8 24 9 25 10 26 11
REMARK SMILES IDX 27 12 28 13 29 14 30 15 31 16 32 17 15 18 14 19 13 20 12 21
REMARK SMILES IDX 11 22 10 23 9 24 8 25 7 26 6 27 5 28 4 29 3 30 2 31 1 32
REMARK H PARENT
REMARK Flexibility Score: inf
ROOT
ATOM      1  C   UNL     1      48.497  -7.782 -56.790  1.00  0.00     0.000 C 
ENDROOT
BRANCH   1   2
ATOM      2  C   UNL     1      47.604  -7.746 -55.539  1.00  0.00     0.000 C 
BRANCH   2   3
ATOM      3  C   UNL     1      48.360  -7.296 -54.277  1.00  0.00     0.000 C 
BRANCH   3   4
ATOM      4  C   UNL     1      49.826  -7.758 -54.276  1.00  0.00     0.000 C 
BRANCH   4   5
ATOM      5  C   UNL     1      50.810  -6.595 -54.474  1.00  0.00     0.000 C 
BRANCH   5   6
ATOM      6  C   UNL     1      50.107  -5.234 -54.628  1.00  0.00     0.000 C 
BRANCH   6   7
ATOM      7  C   UNL     1      50.392  -4.534 -55.974  1.00  0.00     0.000 C 
BRANCH   7   8
ATOM      8  C   UNL     1      49.116  -4.240 -56.791  1.00  0.00     0.000 C 
BRANCH   8   9
ATOM      9  C   UNL     1      48.039  -3.448 -56.024  1.00  0.00     0.000 C 
BRANCH   9  10
ATOM     10  C   UNL     1      46.623  -4.054 -56.112  1.00  0.00     0.000 C 
BRANCH  10  11
ATOM     11  C   UNL     1      46.068  -4.460 -54.736  1.00  0.00     0.000 C 
BRANCH  11  12
ATOM     12  C   UNL     1      46.734  -3.708 -53.573  1.00  0.00     0.000 C 
BRANCH  12  13
ATOM     13  C   UNL     1      45.803  -3.358 -52.398  1.00  0.00     0.006 C 
BRANCH  13  14
ATOM     14  C   UNL     1      44.527  -4.216 -52.331  1.00  0.00     0.053 C 
BRANCH  14  15
ATOM     15  C   UNL     1      44.695  -5.440 -51.482  1.00  0.00     0.041 C 
ATOM     16  O   UNL     1      43.943  -6.437 -51.644  1.00  0.00    -0.550 OA
ATOM     17  O   UNL     1      45.716  -5.500 -50.544  1.00  0.00    -0.550 OA
ENDBRANCH  14  15
ENDBRANCH  13  14
ENDBRANCH  12  13
ENDBRANCH  11  12
ENDBRANCH  10  11
ENDBRANCH   9  10
ENDBRANCH   8   9
ENDBRANCH   7   8
ENDBRANCH   6   7
ENDBRANCH   5   6
ENDBRANCH   4   5
ENDBRANCH   3   4
ENDBRANCH   2   3
ENDBRANCH   1   2
BRANCH   1  18
ATOM     18  C   UNL     1      47.694  -7.618 -58.093  1.00  0.00     0.000 C 
BRANCH  18  19
ATOM     19  C   UNL     1      46.279  -7.063 -57.856  1.00  0.00     0.000 C 
BRANCH  19  20
ATOM     20  C   UNL     1      45.184  -7.975 -58.438  1.00  0.00     0.000 C 
BRANCH  20  21
ATOM     21  C   UNL     1      45.134  -9.357 -57.768  1.00  0.00     0.000 C 
BRANCH  21  22
ATOM     22  C   UNL     1      45.471 -10.521 -58.722  1.00  0.00     0.000 C 
BRANCH  22  23
ATOM     23  C   UNL     1      46.159 -11.689 -57.996  1.00  0.00     0.000 C 
BRANCH  23  24
ATOM     24  C   UNL     1      47.477 -11.276 -57.323  1.00  0.00    -0.000 C 
BRANCH  24  25
ATOM     25  C   UNL     1      48.082 -12.401 -56.462  1.00  0.00    -0.000 C 
BRANCH  25  26
ATOM     26  C   UNL     1      47.233 -13.690 -56.480  1.00  0.00    -0.000 C 
BRANCH  26  27
ATOM     27  C   UNL     1      47.668 -14.738 -55.437  1.00  0.00    -0.000 C 
BRANCH  27  28
ATOM     28  C   UNL     1      48.366 -15.984 -56.013  1.00  0.00    -0.000 C 
BRANCH  28  29
ATOM     29  C   UNL     1      47.530 -16.791 -57.028  1.00  0.00    -0.000 C 
BRANCH  29  30
ATOM     30  C   UNL     1      46.911 -18.093 -56.479  1.00  0.00    -0.000 C 
BRANCH  30  31
ATOM     31  C   UNL     1      45.996 -18.838 -57.467  1.00  0.00    -0.003 C 
ATOM     32  C   UNL     1      45.176 -17.895 -58.347  1.00  0.00     0.004 C 
ENDBRANCH  30  31
ENDBRANCH  29  30
ENDBRANCH  28  29
ENDBRANCH  27  28
ENDBRANCH  26  27
ENDBRANCH  25  26
ENDBRANCH  24  25
ENDBRANCH  23  24
ENDBRANCH  22  23
ENDBRANCH  21  22
ENDBRANCH  20  21
ENDBRANCH  19  20
ENDBRANCH  18  19
ENDBRANCH   1  18
TORSDOF 28
ENDMDL
MODEL 7
REMARK VINA RESULT:    -3.929      1.982      5.038
REMARK INTER + INTRA:         -14.968
REMARK INTER:                 -10.064
REMARK INTRA:                  -4.904
REMARK UNBOUND:                -4.608
REMARK SMILES CCCCCCCCCCCCCCCCCCCCCCCCCCCCCC(=O)[O-]
REMARK SMILES IDX 16 1 17 2 18 3 19 4 20 5 21 6 22 7 23 8 24 9 25 10 26 11
REMARK SMILES IDX 27 12 28 13 29 14 30 15 31 16 32 17 15 18 14 19 13 20 12 21
REMARK SMILES IDX 11 22 10 23 9 24 8 25 7 26 6 27 5 28 4 29 3 30 2 31 1 32
REMARK H PARENT
REMARK Flexibility Score: inf
ROOT
ATOM      1  C   UNL     1      51.311  -5.520 -55.413  1.00  0.00     0.000 C 
ENDROOT
BRANCH   1   2
ATOM      2  C   UNL     1      51.952  -5.898 -56.759  1.00  0.00     0.000 C 
BRANCH   2   3
ATOM      3  C   UNL     1      51.302  -5.181 -57.954  1.00  0.00     0.000 C 
BRANCH   3   4
ATOM      4  C   UNL     1      50.018  -4.434 -57.562  1.00  0.00     0.000 C 
BRANCH   4   5
ATOM      5  C   UNL     1      48.828  -4.791 -58.467  1.00  0.00     0.000 C 
BRANCH   5   6
ATOM      6  C   UNL     1      48.580  -6.307 -58.561  1.00  0.00     0.000 C 
BRANCH   6   7
ATOM      7  C   UNL     1      47.112  -6.681 -58.860  1.00  0.00     0.000 C 
BRANCH   7   8
ATOM      8  C   UNL     1      46.642  -7.951 -58.119  1.00  0.00     0.000 C 
BRANCH   8   9
ATOM      9  C   UNL     1      47.747  -9.004 -57.900  1.00  0.00     0.000 C 
BRANCH   9  10
ATOM     10  C   UNL     1      47.588  -9.830 -56.608  1.00  0.00     0.000 C 
BRANCH  10  11
ATOM     11  C   UNL     1      47.616 -11.345 -56.869  1.00  0.00     0.000 C 
BRANCH  11  12
ATOM     12  C   UNL     1      48.558 -12.102 -55.920  1.00  0.00     0.000 C 
BRANCH  12  13
ATOM     13  C   UNL     1      48.678 -13.615 -56.181  1.00  0.00     0.006 C 
BRANCH  13  14
ATOM     14  C   UNL     1      47.607 -14.461 -55.469  1.00  0.00     0.053 C 
BRANCH  14  15
ATOM     15  C   UNL     1      46.752 -15.237 -56.425  1.00  0.00     0.041 C 
ATOM     16  O   UNL     1      46.282 -14.682 -57.454  1.00  0.00    -0.550 OA
ATOM     17  O   UNL     1      46.513 -16.586 -56.207  1.00  0.00    -0.550 OA
ENDBRANCH  14  15
ENDBRANCH  13  14
ENDBRANCH  12  13
ENDBRANCH  11  12
ENDBRANCH  10  11
ENDBRANCH   9  10
ENDBRANCH   8   9
ENDBRANCH   7   8
ENDBRANCH   6   7
ENDBRANCH   5   6
ENDBRANCH   4   5
ENDBRANCH   3   4
ENDBRANCH   2   3
ENDBRANCH   1   2
BRANCH   1  18
ATOM     18  C   UNL     1      50.848  -6.751 -54.614  1.00  0.00     0.000 C 
BRANCH  18  19
ATOM     19  C   UNL     1      49.484  -7.288 -55.080  1.00  0.00     0.000 C 
BRANCH  19  20
ATOM     20  C   UNL     1      48.469  -7.395 -53.929  1.00  0.00     0.000 C 
BRANCH  20  21
ATOM     21  C   UNL     1      47.110  -6.761 -54.265  1.00  0.00     0.000 C 
BRANCH  21  22
ATOM     22  C   UNL     1      47.202  -5.595 -55.272  1.00  0.00     0.000 C 
BRANCH  22  23
ATOM     23  C   UNL     1      46.119  -4.530 -55.031  1.00  0.00     0.000 C 
BRANCH  23  24
ATOM     24  C   UNL     1      46.632  -3.336 -54.210  1.00  0.00    -0.000 C 
BRANCH  24  25
ATOM     25  C   UNL     1      46.148  -3.368 -52.749  1.00  0.00    -0.000 C 
BRANCH  25  26
ATOM     26  C   UNL     1      44.699  -3.886 -52.610  1.00  0.00    -0.000 C 
BRANCH  26  27
ATOM     27  C   UNL     1      44.553  -5.078 -51.645  1.00  0.00    -0.000 C 
BRANCH  27  28
ATOM     28  C   UNL     1      44.068  -6.389 -52.291  1.00  0.00    -0.000 C 
BRANCH  28  29
ATOM     29  C   UNL     1      43.197  -6.211 -53.553  1.00  0.00    -0.000 C 
BRANCH  29  30
ATOM     30  C   UNL     1      42.968  -7.494 -54.377  1.00  0.00    -0.000 C 
BRANCH  30  31
ATOM     31  C   UNL     1      43.894  -7.652 -55.596  1.00  0.00    -0.003 C 
ATOM     32  C   UNL     1      43.510  -6.739 -56.759  1.00  0.00     0.004 C 
ENDBRANCH  30  31
ENDBRANCH  29  30
ENDBRANCH  28  29
ENDBRANCH  27  28
ENDBRANCH  26  27
ENDBRANCH  25  26
ENDBRANCH  24  25
ENDBRANCH  23  24
ENDBRANCH  22  23
ENDBRANCH  21  22
ENDBRANCH  20  21
ENDBRANCH  19  20
ENDBRANCH  18  19
ENDBRANCH   1  18
TORSDOF 28
ENDMDL
MODEL 8
REMARK VINA RESULT:    -3.890      1.526      3.123
REMARK INTER + INTRA:         -14.865
REMARK INTER:                 -11.119
REMARK INTRA:                  -3.746
REMARK UNBOUND:                -4.608
REMARK SMILES CCCCCCCCCCCCCCCCCCCCCCCCCCCCCC(=O)[O-]
REMARK SMILES IDX 16 1 17 2 18 3 19 4 20 5 21 6 22 7 23 8 24 9 25 10 26 11
REMARK SMILES IDX 27 12 28 13 29 14 30 15 31 16 32 17 15 18 14 19 13 20 12 21
REMARK SMILES IDX 11 22 10 23 9 24 8 25 7 26 6 27 5 28 4 29 3 30 2 31 1 32
REMARK H PARENT
REMARK Flexibility Score: inf
ROOT
ATOM      1  C   UNL     1      48.024 -10.199 -56.124  1.00  0.00     0.000 C 
ENDROOT
BRANCH   1   2
ATOM      2  C   UNL     1      47.362 -10.850 -57.349  1.00  0.00     0.000 C 
BRANCH   2   3
ATOM      3  C   UNL     1      47.268 -12.381 -57.236  1.00  0.00     0.000 C 
BRANCH   3   4
ATOM      4  C   UNL     1      48.158 -12.942 -56.115  1.00  0.00     0.000 C 
BRANCH   4   5
ATOM      5  C   UNL     1      47.618 -14.261 -55.539  1.00  0.00     0.000 C 
BRANCH   5   6
ATOM      6  C   UNL     1      48.390 -15.494 -56.041  1.00  0.00     0.000 C 
BRANCH   6   7
ATOM      7  C   UNL     1      47.486 -16.693 -56.400  1.00  0.00     0.000 C 
BRANCH   7   8
ATOM      8  C   UNL     1      47.183 -16.799 -57.909  1.00  0.00     0.000 C 
BRANCH   8   9
ATOM      9  C   UNL     1      45.825 -16.200 -58.328  1.00  0.00     0.000 C 
BRANCH   9  10
ATOM     10  C   UNL     1      44.613 -16.802 -57.591  1.00  0.00     0.000 C 
BRANCH  10  11
ATOM     11  C   UNL     1      43.840 -17.815 -58.453  1.00  0.00     0.000 C 
BRANCH  11  12
ATOM     12  C   UNL     1      43.943 -19.255 -57.926  1.00  0.00     0.000 C 
BRANCH  12  13
ATOM     13  C   UNL     1      45.253 -19.988 -58.269  1.00  0.00     0.006 C 
BRANCH  13  14
ATOM     14  C   UNL     1      46.147 -20.280 -57.049  1.00  0.00     0.053 C 
BRANCH  14  15
ATOM     15  C   UNL     1      45.369 -20.371 -55.770  1.00  0.00     0.041 C 
ATOM     16  O   UNL     1      44.793 -21.444 -55.450  1.00  0.00    -0.550 OA
ATOM     17  O   UNL     1      45.322 -19.285 -54.907  1.00  0.00    -0.550 OA
ENDBRANCH  14  15
ENDBRANCH  13  14
ENDBRANCH  12  13
ENDBRANCH  11  12
ENDBRANCH  10  11
ENDBRANCH   9  10
ENDBRANCH   8   9
ENDBRANCH   7   8
ENDBRANCH   6   7
ENDBRANCH   5   6
ENDBRANCH   4   5
ENDBRANCH   3   4
ENDBRANCH   2   3
ENDBRANCH   1   2
BRANCH   1  18
ATOM     18  C   UNL     1      48.108  -8.666 -56.243  1.00  0.00     0.000 C 
BRANCH  18  19
ATOM     19  C   UNL     1      47.411  -7.938 -55.082  1.00  0.00     0.000 C 
BRANCH  19  20
ATOM     20  C   UNL     1      48.409  -7.377 -54.054  1.00  0.00     0.000 C 
BRANCH  20  21
ATOM     21  C   UNL     1      49.874  -7.660 -54.422  1.00  0.00     0.000 C 
BRANCH  21  22
ATOM     22  C   UNL     1      50.714  -6.385 -54.645  1.00  0.00     0.000 C 
BRANCH  22  23
ATOM     23  C   UNL     1      51.029  -6.148 -56.131  1.00  0.00     0.000 C 
BRANCH  23  24
ATOM     24  C   UNL     1      50.353  -4.885 -56.687  1.00  0.00    -0.000 C 
BRANCH  24  25
ATOM     25  C   UNL     1      49.003  -5.183 -57.365  1.00  0.00    -0.000 C 
BRANCH  25  26
ATOM     26  C   UNL     1      47.801  -4.626 -56.571  1.00  0.00    -0.000 C 
BRANCH  26  27
ATOM     27  C   UNL     1      48.170  -3.496 -55.591  1.00  0.00    -0.000 C 
BRANCH  27  28
ATOM     28  C   UNL     1      47.806  -3.762 -54.118  1.00  0.00    -0.000 C 
BRANCH  28  29
ATOM     29  C   UNL     1      46.600  -2.957 -53.589  1.00  0.00    -0.000 C 
BRANCH  29  30
ATOM     30  C   UNL     1      45.687  -3.715 -52.604  1.00  0.00    -0.000 C 
BRANCH  30  31
ATOM     31  C   UNL     1      45.795  -5.249 -52.675  1.00  0.00    -0.003 C 
ATOM     32  C   UNL     1      44.516  -5.912 -53.187  1.00  0.00     0.004 C 
ENDBRANCH  30  31
ENDBRANCH  29  30
ENDBRANCH  28  29
ENDBRANCH  27  28
ENDBRANCH  26  27
ENDBRANCH  25  26
ENDBRANCH  24  25
ENDBRANCH  23  24
ENDBRANCH  22  23
ENDBRANCH  21  22
ENDBRANCH  20  21
ENDBRANCH  19  20
ENDBRANCH  18  19
ENDBRANCH   1  18
TORSDOF 28
ENDMDL
MODEL 9
REMARK VINA RESULT:    -3.854      3.371      6.642
REMARK INTER + INTRA:         -14.769
REMARK INTER:                  -9.346
REMARK INTRA:                  -5.423
REMARK UNBOUND:                -4.608
REMARK SMILES CCCCCCCCCCCCCCCCCCCCCCCCCCCCCC(=O)[O-]
REMARK SMILES IDX 16 1 17 2 18 3 19 4 20 5 21 6 22 7 23 8 24 9 25 10 26 11
REMARK SMILES IDX 27 12 28 13 29 14 30 15 31 16 32 17 15 18 14 19 13 20 12 21
REMARK SMILES IDX 11 22 10 23 9 24 8 25 7 26 6 27 5 28 4 29 3 30 2 31 1 32
REMARK H PARENT
REMARK Flexibility Score: inf
ROOT
ATOM      1  C   UNL     1      50.917  -6.074 -54.624  1.00  0.00     0.000 C 
ENDROOT
BRANCH   1   2
ATOM      2  C   UNL     1      52.006  -6.212 -55.702  1.00  0.00     0.000 C 
BRANCH   2   3
ATOM      3  C   UNL     1      51.627  -5.527 -57.026  1.00  0.00     0.000 C 
BRANCH   3   4
ATOM      4  C   UNL     1      50.584  -4.415 -56.833  1.00  0.00     0.000 C 
BRANCH   4   5
ATOM      5  C   UNL     1      49.324  -4.636 -57.686  1.00  0.00     0.000 C 
BRANCH   5   6
ATOM      6  C   UNL     1      49.157  -6.096 -58.143  1.00  0.00     0.000 C 
BRANCH   6   7
ATOM      7  C   UNL     1      47.698  -6.487 -58.460  1.00  0.00     0.000 C 
BRANCH   7   8
ATOM      8  C   UNL     1      46.709  -5.309 -58.333  1.00  0.00     0.000 C 
BRANCH   8   9
ATOM      9  C   UNL     1      45.226  -5.729 -58.284  1.00  0.00     0.000 C 
BRANCH   9  10
ATOM     10  C   UNL     1      44.726  -6.128 -56.880  1.00  0.00     0.000 C 
BRANCH  10  11
ATOM     11  C   UNL     1      44.324  -7.610 -56.796  1.00  0.00     0.000 C 
BRANCH  11  12
ATOM     12  C   UNL     1      45.458  -8.513 -56.286  1.00  0.00     0.000 C 
BRANCH  12  13
ATOM     13  C   UNL     1      46.067  -9.459 -57.337  1.00  0.00     0.006 C 
BRANCH  13  14
ATOM     14  C   UNL     1      47.421 -10.067 -56.925  1.00  0.00     0.053 C 
BRANCH  14  15
ATOM     15  C   UNL     1      47.681 -11.394 -57.572  1.00  0.00     0.041 C 
ATOM     16  O   UNL     1      47.516 -12.462 -56.925  1.00  0.00    -0.550 OA
ATOM     17  O   UNL     1      48.059 -11.455 -58.906  1.00  0.00    -0.550 OA
ENDBRANCH  14  15
ENDBRANCH  13  14
ENDBRANCH  12  13
ENDBRANCH  11  12
ENDBRANCH  10  11
ENDBRANCH   9  10
ENDBRANCH   8   9
ENDBRANCH   7   8
ENDBRANCH   6   7
ENDBRANCH   5   6
ENDBRANCH   4   5
ENDBRANCH   3   4
ENDBRANCH   2   3
ENDBRANCH   1   2
BRANCH   1  18
ATOM     18  C   UNL     1      50.257  -7.420 -54.277  1.00  0.00     0.000 C 
BRANCH  18  19
ATOM     19  C   UNL     1      48.813  -7.528 -54.797  1.00  0.00     0.000 C 
BRANCH  19  20
ATOM     20  C   UNL     1      47.822  -6.702 -53.959  1.00  0.00     0.000 C 
BRANCH  20  21
ATOM     21  C   UNL     1      47.270  -5.481 -54.711  1.00  0.00     0.000 C 
BRANCH  21  22
ATOM     22  C   UNL     1      47.875  -4.141 -54.245  1.00  0.00     0.000 C 
BRANCH  22  23
ATOM     23  C   UNL     1      46.795  -3.114 -53.866  1.00  0.00     0.000 C 
BRANCH  23  24
ATOM     24  C   UNL     1      45.435  -3.765 -53.568  1.00  0.00    -0.000 C 
BRANCH  24  25
ATOM     25  C   UNL     1      45.089  -3.757 -52.067  1.00  0.00    -0.000 C 
BRANCH  25  26
ATOM     26  C   UNL     1      44.261  -4.987 -51.638  1.00  0.00    -0.000 C 
BRANCH  26  27
ATOM     27  C   UNL     1      44.551  -6.254 -52.466  1.00  0.00    -0.000 C 
BRANCH  27  28
ATOM     28  C   UNL     1      43.378  -6.755 -53.329  1.00  0.00    -0.000 C 
BRANCH  28  29
ATOM     29  C   UNL     1      42.795  -8.120 -52.907  1.00  0.00    -0.000 C 
BRANCH  29  30
ATOM     30  C   UNL     1      42.407  -8.236 -51.419  1.00  0.00    -0.000 C 
BRANCH  30  31
ATOM     31  C   UNL     1      43.222  -9.266 -50.618  1.00  0.00    -0.003 C 
ATOM     32  C   UNL     1      42.777 -10.705 -50.872  1.00  0.00     0.004 C 
ENDBRANCH  30  31
ENDBRANCH  29  30
ENDBRANCH  28  29
ENDBRANCH  27  28
ENDBRANCH  26  27
ENDBRANCH  25  26
ENDBRANCH  24  25
ENDBRANCH  23  24
ENDBRANCH  22  23
ENDBRANCH  21  22
ENDBRANCH  20  21
ENDBRANCH  19  20
ENDBRANCH  18  19
ENDBRANCH   1  18
TORSDOF 28
ENDMDL
