MODEL 1
REMARK VINA RESULT:    -4.351      0.000      0.000
REMARK INTER + INTRA:         -10.376
REMARK INTER:                  -8.420
REMARK INTRA:                  -1.955
REMARK UNBOUND:                -1.955
REMARK SMILES CCCCCCCCCCCCCCCCCC(=O)[O-]
REMARK SMILES IDX 10 1 11 2 12 3 13 4 14 5 15 6 16 7 17 8 18 9 19 10 20 11
REMARK SMILES IDX 9 12 8 13 7 14 6 15 5 16 4 17 3 18 2 19 1 20
REMARK H PARENT
REMARK Flexibility Score: inf
ROOT
ATOM      1  C   UNL     1      59.075  34.681  80.059  1.00  0.00     0.000 C 
ENDROOT
BRANCH   1   2
ATOM      2  C   UNL     1      57.965  33.624  80.001  1.00  0.00     0.000 C 
BRANCH   2   3
ATOM      3  C   UNL     1      57.822  33.057  78.580  1.00  0.00     0.000 C 
BRANCH   3   4
ATOM      4  C   UNL     1      57.949  34.145  77.500  1.00  0.00     0.000 C 
BRANCH   4   5
ATOM      5  C   UNL     1      57.566  33.656  76.084  1.00  0.00     0.000 C 
BRANCH   5   6
ATOM      6  C   UNL     1      58.747  33.057  75.297  1.00  0.00     0.000 C 
BRANCH   6   7
ATOM      7  C   UNL     1      58.351  31.989  74.259  1.00  0.00     0.006 C 
BRANCH   7   8
ATOM      8  C   UNL     1      57.558  30.806  74.839  1.00  0.00     0.053 C 
BRANCH   8   9
ATOM      9  C   UNL     1      56.306  30.535  74.062  1.00  0.00     0.041 C 
ATOM     10  O   UNL     1      55.513  29.631  74.433  1.00  0.00    -0.550 OA
ATOM     11  O   UNL     1      56.032  31.263  72.910  1.00  0.00    -0.550 OA
ENDBRANCH   8   9
ENDBRANCH   7   8
ENDBRANCH   6   7
ENDBRANCH   5   6
ENDBRANCH   4   5
ENDBRANCH   3   4
ENDBRANCH   2   3
ENDBRANCH   1   2
BRANCH   1  12
ATOM     12  C   UNL     1      58.747  35.769  81.088  1.00  0.00     0.000 C 
BRANCH  12  13
ATOM     13  C   UNL     1      58.346  37.079  80.394  1.00  0.00    -0.000 C 
BRANCH  13  14
ATOM     14  C   UNL     1      56.837  37.162  80.113  1.00  0.00    -0.000 C 
BRANCH  14  15
ATOM     15  C   UNL     1      56.524  37.342  78.617  1.00  0.00    -0.000 C 
BRANCH  15  16
ATOM     16  C   UNL     1      57.510  38.292  77.919  1.00  0.00    -0.000 C 
BRANCH  16  17
ATOM     17  C   UNL     1      57.487  38.145  76.388  1.00  0.00    -0.000 C 
BRANCH  17  18
ATOM     18  C   UNL     1      56.400  37.171  75.899  1.00  0.00    -0.000 C 
BRANCH  18  19
ATOM     19  C   UNL     1      56.086  37.257  74.395  1.00  0.00    -0.003 C 
ATOM     20  C   UNL     1      55.807  35.893  73.764  1.00  0.00     0.004 C 
ENDBRANCH  18  19
ENDBRANCH  17  18
ENDBRANCH  16  17
ENDBRANCH  15  16
ENDBRANCH  14  15
ENDBRANCH  13  14
ENDBRANCH  12  13
ENDBRANCH   1  12
TORSDOF 16
ENDMDL
MODEL 2
REMARK VINA RESULT:    -4.334      1.191      2.656
REMARK INTER + INTRA:         -10.342
REMARK INTER:                  -8.395
REMARK INTRA:                  -1.947
REMARK UNBOUND:                -1.955
REMARK SMILES CCCCCCCCCCCCCCCCCC(=O)[O-]
REMARK SMILES IDX 10 1 11 2 12 3 13 4 14 5 15 6 16 7 17 8 18 9 19 10 20 11
REMARK SMILES IDX 9 12 8 13 7 14 6 15 5 16 4 17 3 18 2 19 1 20
REMARK H PARENT
REMARK Flexibility Score: inf
ROOT
ATOM      1  C   UNL     1      58.007  32.740  78.443  1.00  0.00     0.000 C 
ENDROOT
BRANCH   1   2
ATOM      2  C   UNL     1      57.889  33.039  76.943  1.00  0.00     0.000 C 
BRANCH   2   3
ATOM      3  C   UNL     1      57.704  34.544  76.697  1.00  0.00     0.000 C 
BRANCH   3   4
ATOM      4  C   UNL     1      57.714  34.897  75.199  1.00  0.00     0.000 C 
BRANCH   4   5
ATOM      5  C   UNL     1      56.301  35.081  74.600  1.00  0.00     0.000 C 
BRANCH   5   6
ATOM      6  C   UNL     1      55.977  34.089  73.466  1.00  0.00     0.000 C 
BRANCH   6   7
ATOM      7  C   UNL     1      56.932  32.882  73.375  1.00  0.00     0.006 C 
BRANCH   7   8
ATOM      8  C   UNL     1      56.244  31.558  73.002  1.00  0.00     0.053 C 
BRANCH   8   9
ATOM      9  C   UNL     1      56.390  30.528  74.079  1.00  0.00     0.041 C 
ATOM     10  O   UNL     1      57.488  30.388  74.678  1.00  0.00    -0.550 OA
ATOM     11  O   UNL     1      55.320  29.700  74.399  1.00  0.00    -0.550 OA
ENDBRANCH   8   9
ENDBRANCH   7   8
ENDBRANCH   6   7
ENDBRANCH   5   6
ENDBRANCH   4   5
ENDBRANCH   3   4
ENDBRANCH   2   3
ENDBRANCH   1   2
BRANCH   1  12
ATOM     12  C   UNL     1      58.868  33.794  79.149  1.00  0.00     0.000 C 
BRANCH  12  13
ATOM     13  C   UNL     1      58.150  34.349  80.388  1.00  0.00    -0.000 C 
BRANCH  13  14
ATOM     14  C   UNL     1      58.890  35.541  81.016  1.00  0.00    -0.000 C 
BRANCH  14  15
ATOM     15  C   UNL     1      58.465  36.888  80.405  1.00  0.00    -0.000 C 
BRANCH  15  16
ATOM     16  C   UNL     1      56.984  36.908  79.998  1.00  0.00    -0.000 C 
BRANCH  16  17
ATOM     17  C   UNL     1      56.758  37.571  78.628  1.00  0.00    -0.000 C 
BRANCH  17  18
ATOM     18  C   UNL     1      58.069  38.026  77.962  1.00  0.00    -0.000 C 
BRANCH  18  19
ATOM     19  C   UNL     1      57.899  39.086  76.860  1.00  0.00    -0.003 C 
ATOM     20  C   UNL     1      57.171  38.553  75.626  1.00  0.00     0.004 C 
ENDBRANCH  18  19
ENDBRANCH  17  18
ENDBRANCH  16  17
ENDBRANCH  15  16
ENDBRANCH  14  15
ENDBRANCH  13  14
ENDBRANCH  12  13
ENDBRANCH   1  12
TORSDOF 16
ENDMDL
MODEL 3
REMARK VINA RESULT:    -4.332      1.560      2.558
REMARK INTER + INTRA:         -10.339
REMARK INTER:                  -8.460
REMARK INTRA:                  -1.878
REMARK UNBOUND:                -1.955
REMARK SMILES CCCCCCCCCCCCCCCCCC(=O)[O-]
REMARK SMILES IDX 10 1 11 2 12 3 13 4 14 5 15 6 16 7 17 8 18 9 19 10 20 11
REMARK SMILES IDX 9 12 8 13 7 14 6 15 5 16 4 17 3 18 2 19 1 20
REMARK H PARENT
REMARK Flexibility Score: inf
ROOT
ATOM      1  C   UNL     1      57.896  33.414  79.248  1.00  0.00     0.000 C 
ENDROOT
BRANCH   1   2
ATOM      2  C   UNL     1      57.939  33.280  77.721  1.00  0.00     0.000 C 
BRANCH   2   3
ATOM      3  C   UNL     1      58.293  31.844  77.306  1.00  0.00     0.000 C 
BRANCH   3   4
ATOM      4  C   UNL     1      59.356  31.801  76.195  1.00  0.00     0.000 C 
BRANCH   4   5
ATOM      5  C   UNL     1      60.287  30.570  76.279  1.00  0.00     0.000 C 
BRANCH   5   6
ATOM      6  C   UNL     1      59.534  29.226  76.310  1.00  0.00     0.000 C 
BRANCH   6   7
ATOM      7  C   UNL     1      58.630  28.968  75.089  1.00  0.00     0.006 C 
BRANCH   7   8
ATOM      8  C   UNL     1      57.150  28.732  75.435  1.00  0.00     0.053 C 
BRANCH   8   9
ATOM      9  C   UNL     1      56.240  29.615  74.638  1.00  0.00     0.041 C 
ATOM     10  O   UNL     1      55.008  29.364  74.575  1.00  0.00    -0.550 OA
ATOM     11  O   UNL     1      56.759  30.698  73.938  1.00  0.00    -0.550 OA
ENDBRANCH   8   9
ENDBRANCH   7   8
ENDBRANCH   6   7
ENDBRANCH   5   6
ENDBRANCH   4   5
ENDBRANCH   3   4
ENDBRANCH   2   3
ENDBRANCH   1   2
BRANCH   1  12
ATOM     12  C   UNL     1      59.149  34.123  79.776  1.00  0.00     0.000 C 
BRANCH  12  13
ATOM     13  C   UNL     1      58.781  35.180  80.828  1.00  0.00    -0.000 C 
BRANCH  13  14
ATOM     14  C   UNL     1      58.543  36.569  80.212  1.00  0.00    -0.000 C 
BRANCH  14  15
ATOM     15  C   UNL     1      57.165  37.149  80.578  1.00  0.00    -0.000 C 
BRANCH  15  16
ATOM     16  C   UNL     1      56.347  37.548  79.340  1.00  0.00    -0.000 C 
BRANCH  16  17
ATOM     17  C   UNL     1      56.807  36.814  78.068  1.00  0.00    -0.000 C 
BRANCH  17  18
ATOM     18  C   UNL     1      57.058  37.768  76.887  1.00  0.00    -0.000 C 
BRANCH  18  19
ATOM     19  C   UNL     1      58.528  37.876  76.445  1.00  0.00    -0.003 C 
ATOM     20  C   UNL     1      59.290  36.558  76.581  1.00  0.00     0.004 C 
ENDBRANCH  18  19
ENDBRANCH  17  18
ENDBRANCH  16  17
ENDBRANCH  15  16
ENDBRANCH  14  15
ENDBRANCH  13  14
ENDBRANCH  12  13
ENDBRANCH   1  12
TORSDOF 16
ENDMDL
MODEL 4
REMARK VINA RESULT:    -4.272      1.654      2.302
REMARK INTER + INTRA:         -10.223
REMARK INTER:                  -7.811
REMARK INTRA:                  -2.412
REMARK UNBOUND:                -1.955
REMARK SMILES CCCCCCCCCCCCCCCCCC(=O)[O-]
REMARK SMILES IDX 10 1 11 2 12 3 13 4 14 5 15 6 16 7 17 8 18 9 19 10 20 11
REMARK SMILES IDX 9 12 8 13 7 14 6 15 5 16 4 17 3 18 2 19 1 20
REMARK H PARENT
REMARK Flexibility Score: inf
ROOT
ATOM      1  C   UNL     1      59.036  35.607  80.606  1.00  0.00     0.000 C 
ENDROOT
BRANCH   1   2
ATOM      2  C   UNL     1      58.234  34.365  80.199  1.00  0.00     0.000 C 
BRANCH   2   3
ATOM      3  C   UNL     1      58.992  33.545  79.144  1.00  0.00     0.000 C 
BRANCH   3   4
ATOM      4  C   UNL     1      58.043  32.800  78.189  1.00  0.00     0.000 C 
BRANCH   4   5
ATOM      5  C   UNL     1      58.768  31.819  77.240  1.00  0.00     0.000 C 
BRANCH   5   6
ATOM      6  C   UNL     1      57.874  31.284  76.104  1.00  0.00     0.000 C 
BRANCH   6   7
ATOM      7  C   UNL     1      58.320  31.695  74.687  1.00  0.00     0.006 C 
BRANCH   7   8
ATOM      8  C   UNL     1      57.382  32.698  73.994  1.00  0.00     0.053 C 
BRANCH   8   9
ATOM      9  C   UNL     1      56.847  32.164  72.701  1.00  0.00     0.041 C 
ATOM     10  O   UNL     1      55.957  31.274  72.702  1.00  0.00    -0.550 OA
ATOM     11  O   UNL     1      57.355  32.628  71.493  1.00  0.00    -0.550 OA
ENDBRANCH   8   9
ENDBRANCH   7   8
ENDBRANCH   6   7
ENDBRANCH   5   6
ENDBRANCH   4   5
ENDBRANCH   3   4
ENDBRANCH   2   3
ENDBRANCH   1   2
BRANCH   1  12
ATOM     12  C   UNL     1      58.160  36.866  80.566  1.00  0.00     0.000 C 
BRANCH  12  13
ATOM     13  C   UNL     1      58.675  37.860  79.514  1.00  0.00    -0.000 C 
BRANCH  13  14
ATOM     14  C   UNL     1      59.722  37.238  78.576  1.00  0.00    -0.000 C 
BRANCH  14  15
ATOM     15  C   UNL     1      59.798  37.957  77.217  1.00  0.00    -0.000 C 
BRANCH  15  16
ATOM     16  C   UNL     1      59.959  36.979  76.042  1.00  0.00    -0.000 C 
BRANCH  16  17
ATOM     17  C   UNL     1      58.954  35.816  76.102  1.00  0.00    -0.000 C 
BRANCH  17  18
ATOM     18  C   UNL     1      57.632  36.132  75.379  1.00  0.00    -0.000 C 
BRANCH  18  19
ATOM     19  C   UNL     1      56.363  35.712  76.140  1.00  0.00    -0.003 C 
ATOM     20  C   UNL     1      56.159  36.493  77.438  1.00  0.00     0.004 C 
ENDBRANCH  18  19
ENDBRANCH  17  18
ENDBRANCH  16  17
ENDBRANCH  15  16
ENDBRANCH  14  15
ENDBRANCH  13  14
ENDBRANCH  12  13
ENDBRANCH   1  12
TORSDOF 16
ENDMDL
MODEL 5
REMARK VINA RESULT:    -4.259      1.233      2.054
REMARK INTER + INTRA:         -10.198
REMARK INTER:                  -8.077
REMARK INTRA:                  -2.121
REMARK UNBOUND:                -1.955
REMARK SMILES CCCCCCCCCCCCCCCCCC(=O)[O-]
REMARK SMILES IDX 10 1 11 2 12 3 13 4 14 5 15 6 16 7 17 8 18 9 19 10 20 11
REMARK SMILES IDX 9 12 8 13 7 14 6 15 5 16 4 17 3 18 2 19 1 20
REMARK H PARENT
REMARK Flexibility Score: inf
ROOT
ATOM      1  C   UNL     1      58.770  36.441  80.221  1.00  0.00     0.000 C 
ENDROOT
BRANCH   1   2
ATOM      2  C   UNL     1      58.899  35.201  81.113  1.00  0.00     0.000 C 
BRANCH   2   3
ATOM      3  C   UNL     1      58.980  33.921  80.267  1.00  0.00     0.000 C 
BRANCH   3   4
ATOM      4  C   UNL     1      58.288  34.079  78.902  1.00  0.00     0.000 C 
BRANCH   4   5
ATOM      5  C   UNL     1      57.910  32.733  78.243  1.00  0.00     0.000 C 
BRANCH   5   6
ATOM      6  C   UNL     1      58.687  32.441  76.944  1.00  0.00     0.000 C 
BRANCH   6   7
ATOM      7  C   UNL     1      58.373  31.076  76.300  1.00  0.00     0.006 C 
BRANCH   7   8
ATOM      8  C   UNL     1      57.389  31.145  75.120  1.00  0.00     0.053 C 
BRANCH   8   9
ATOM      9  C   UNL     1      56.581  29.890  74.990  1.00  0.00     0.041 C 
ATOM     10  O   UNL     1      55.747  29.768  74.056  1.00  0.00    -0.550 OA
ATOM     11  O   UNL     1      56.728  28.869  75.922  1.00  0.00    -0.550 OA
ENDBRANCH   8   9
ENDBRANCH   7   8
ENDBRANCH   6   7
ENDBRANCH   5   6
ENDBRANCH   4   5
ENDBRANCH   3   4
ENDBRANCH   2   3
ENDBRANCH   1   2
BRANCH   1  12
ATOM     12  C   UNL     1      57.594  37.319  80.663  1.00  0.00     0.000 C 
BRANCH  12  13
ATOM     13  C   UNL     1      56.503  37.362  79.583  1.00  0.00    -0.000 C 
BRANCH  13  14
ATOM     14  C   UNL     1      56.998  37.980  78.266  1.00  0.00    -0.000 C 
BRANCH  14  15
ATOM     15  C   UNL     1      56.835  37.027  77.068  1.00  0.00    -0.000 C 
BRANCH  15  16
ATOM     16  C   UNL     1      58.177  36.682  76.404  1.00  0.00    -0.000 C 
BRANCH  16  17
ATOM     17  C   UNL     1      58.022  35.675  75.251  1.00  0.00    -0.000 C 
BRANCH  17  18
ATOM     18  C   UNL     1      56.662  34.956  75.267  1.00  0.00    -0.000 C 
BRANCH  18  19
ATOM     19  C   UNL     1      55.870  35.044  73.950  1.00  0.00    -0.003 C 
ATOM     20  C   UNL     1      55.582  36.482  73.522  1.00  0.00     0.004 C 
ENDBRANCH  18  19
ENDBRANCH  17  18
ENDBRANCH  16  17
ENDBRANCH  15  16
ENDBRANCH  14  15
ENDBRANCH  13  14
ENDBRANCH  12  13
ENDBRANCH   1  12
TORSDOF 16
ENDMDL
MODEL 6
REMARK VINA RESULT:    -4.235      3.101      7.289
REMARK INTER + INTRA:         -10.151
REMARK INTER:                  -8.163
REMARK INTRA:                  -1.988
REMARK UNBOUND:                -1.955
REMARK SMILES CCCCCCCCCCCCCCCCCC(=O)[O-]
REMARK SMILES IDX 10 1 11 2 12 3 13 4 14 5 15 6 16 7 17 8 18 9 19 10 20 11
REMARK SMILES IDX 9 12 8 13 7 14 6 15 5 16 4 17 3 18 2 19 1 20
REMARK H PARENT
REMARK Flexibility Score: inf
ROOT
ATOM      1  C   UNL     1      58.383  33.485  75.577  1.00  0.00     0.000 C 
ENDROOT
BRANCH   1   2
ATOM      2  C   UNL     1      57.630  33.725  76.891  1.00  0.00     0.000 C 
BRANCH   2   3
ATOM      3  C   UNL     1      57.994  32.657  77.934  1.00  0.00     0.000 C 
BRANCH   3   4
ATOM      4  C   UNL     1      57.851  33.175  79.376  1.00  0.00     0.000 C 
BRANCH   4   5
ATOM      5  C   UNL     1      58.949  34.185  79.779  1.00  0.00     0.000 C 
BRANCH   5   6
ATOM      6  C   UNL     1      58.401  35.571  80.169  1.00  0.00     0.000 C 
BRANCH   6   7
ATOM      7  C   UNL     1      59.094  36.757  79.469  1.00  0.00     0.006 C 
BRANCH   7   8
ATOM      8  C   UNL     1      58.640  36.989  78.018  1.00  0.00     0.053 C 
BRANCH   8   9
ATOM      9  C   UNL     1      57.277  37.607  77.949  1.00  0.00     0.041 C 
ATOM     10  O   UNL     1      57.129  38.839  78.157  1.00  0.00    -0.550 OA
ATOM     11  O   UNL     1      56.167  36.814  77.686  1.00  0.00    -0.550 OA
ENDBRANCH   8   9
ENDBRANCH   7   8
ENDBRANCH   6   7
ENDBRANCH   5   6
ENDBRANCH   4   5
ENDBRANCH   3   4
ENDBRANCH   2   3
ENDBRANCH   1   2
BRANCH   1  12
ATOM     12  C   UNL     1      57.406  33.264  74.415  1.00  0.00     0.000 C 
BRANCH  12  13
ATOM     13  C   UNL     1      57.588  31.867  73.802  1.00  0.00    -0.000 C 
BRANCH  13  14
ATOM     14  C   UNL     1      56.260  31.107  73.658  1.00  0.00    -0.000 C 
BRANCH  14  15
ATOM     15  C   UNL     1      56.219  29.823  74.504  1.00  0.00    -0.000 C 
BRANCH  15  16
ATOM     16  C   UNL     1      57.290  29.810  75.606  1.00  0.00    -0.000 C 
BRANCH  16  17
ATOM     17  C   UNL     1      58.195  28.568  75.534  1.00  0.00    -0.000 C 
BRANCH  17  18
ATOM     18  C   UNL     1      59.641  28.857  75.978  1.00  0.00    -0.000 C 
BRANCH  18  19
ATOM     19  C   UNL     1      60.027  30.346  75.986  1.00  0.00    -0.003 C 
ATOM     20  C   UNL     1      61.516  30.575  76.247  1.00  0.00     0.004 C 
ENDBRANCH  18  19
ENDBRANCH  17  18
ENDBRANCH  16  17
ENDBRANCH  15  16
ENDBRANCH  14  15
ENDBRANCH  13  14
ENDBRANCH  12  13
ENDBRANCH   1  12
TORSDOF 16
ENDMDL
MODEL 7
REMARK VINA RESULT:    -4.187      1.654      2.304
REMARK INTER + INTRA:         -10.058
REMARK INTER:                  -7.837
REMARK INTRA:                  -2.221
REMARK UNBOUND:                -1.955
REMARK SMILES CCCCCCCCCCCCCCCCCC(=O)[O-]
REMARK SMILES IDX 10 1 11 2 12 3 13 4 14 5 15 6 16 7 17 8 18 9 19 10 20 11
REMARK SMILES IDX 9 12 8 13 7 14 6 15 5 16 4 17 3 18 2 19 1 20
REMARK H PARENT
REMARK Flexibility Score: inf
ROOT
ATOM      1  C   UNL     1      59.036  35.574  80.974  1.00  0.00     0.000 C 
ENDROOT
BRANCH   1   2
ATOM      2  C   UNL     1      58.389  34.240  80.581  1.00  0.00     0.000 C 
BRANCH   2   3
ATOM      3  C   UNL     1      59.009  33.691  79.286  1.00  0.00     0.000 C 
BRANCH   3   4
ATOM      4  C   UNL     1      58.051  33.799  78.088  1.00  0.00     0.000 C 
BRANCH   4   5
ATOM      5  C   UNL     1      58.093  32.570  77.151  1.00  0.00     0.000 C 
BRANCH   5   6
ATOM      6  C   UNL     1      57.721  32.892  75.691  1.00  0.00     0.000 C 
BRANCH   6   7
ATOM      7  C   UNL     1      58.142  31.819  74.668  1.00  0.00     0.006 C 
BRANCH   7   8
ATOM      8  C   UNL     1      57.277  30.547  74.693  1.00  0.00     0.053 C 
BRANCH   8   9
ATOM      9  C   UNL     1      58.017  29.376  75.264  1.00  0.00     0.041 C 
ATOM     10  O   UNL     1      59.273  29.331  75.204  1.00  0.00    -0.550 OA
ATOM     11  O   UNL     1      57.315  28.321  75.836  1.00  0.00    -0.550 OA
ENDBRANCH   8   9
ENDBRANCH   7   8
ENDBRANCH   6   7
ENDBRANCH   5   6
ENDBRANCH   4   5
ENDBRANCH   3   4
ENDBRANCH   2   3
ENDBRANCH   1   2
BRANCH   1  12
ATOM     12  C   UNL     1      58.121  36.754  80.624  1.00  0.00     0.000 C 
BRANCH  12  13
ATOM     13  C   UNL     1      58.594  37.454  79.341  1.00  0.00    -0.000 C 
BRANCH  13  14
ATOM     14  C   UNL     1      57.426  37.943  78.469  1.00  0.00    -0.000 C 
BRANCH  14  15
ATOM     15  C   UNL     1      56.418  36.824  78.151  1.00  0.00    -0.000 C 
BRANCH  15  16
ATOM     16  C   UNL     1      56.109  36.719  76.650  1.00  0.00    -0.000 C 
BRANCH  16  17
ATOM     17  C   UNL     1      57.165  37.425  75.780  1.00  0.00    -0.000 C 
BRANCH  17  18
ATOM     18  C   UNL     1      57.995  36.442  74.935  1.00  0.00    -0.000 C 
BRANCH  18  19
ATOM     19  C   UNL     1      59.428  36.204  75.443  1.00  0.00    -0.003 C 
ATOM     20  C   UNL     1      60.110  37.484  75.926  1.00  0.00     0.004 C 
ENDBRANCH  18  19
ENDBRANCH  17  18
ENDBRANCH  16  17
ENDBRANCH  15  16
ENDBRANCH  14  15
ENDBRANCH  13  14
ENDBRANCH  12  13
ENDBRANCH   1  12
TORSDOF 16
ENDMDL
MODEL 8
REMARK VINA RESULT:    -4.152      2.702      4.736
REMARK INTER + INTRA:          -9.991
REMARK INTER:                  -8.193
REMARK INTRA:                  -1.798
REMARK UNBOUND:                -1.955
REMARK SMILES CCCCCCCCCCCCCCCCCC(=O)[O-]
REMARK SMILES IDX 10 1 11 2 12 3 13 4 14 5 15 6 16 7 17 8 18 9 19 10 20 11
REMARK SMILES IDX 9 12 8 13 7 14 6 15 5 16 4 17 3 18 2 19 1 20
REMARK H PARENT
REMARK Flexibility Score: inf
ROOT
ATOM      1  C   UNL     1      58.325  34.043  75.820  1.00  0.00     0.000 C 
ENDROOT
BRANCH   1   2
ATOM      2  C   UNL     1      57.359  33.509  74.757  1.00  0.00     0.000 C 
BRANCH   2   3
ATOM      3  C   UNL     1      57.914  32.236  74.099  1.00  0.00     0.000 C 
BRANCH   3   4
ATOM      4  C   UNL     1      57.011  31.013  74.337  1.00  0.00     0.000 C 
BRANCH   4   5
ATOM      5  C   UNL     1      57.302  30.282  75.668  1.00  0.00     0.000 C 
BRANCH   5   6
ATOM      6  C   UNL     1      57.790  28.832  75.482  1.00  0.00     0.000 C 
BRANCH   6   7
ATOM      7  C   UNL     1      59.323  28.670  75.442  1.00  0.00     0.006 C 
BRANCH   7   8
ATOM      8  C   UNL     1      60.102  29.893  75.954  1.00  0.00     0.053 C 
BRANCH   8   9
ATOM      9  C   UNL     1      61.455  29.518  76.476  1.00  0.00     0.041 C 
ATOM     10  O   UNL     1      61.708  28.324  76.781  1.00  0.00    -0.550 OA
ATOM     11  O   UNL     1      62.428  30.495  76.653  1.00  0.00    -0.550 OA
ENDBRANCH   8   9
ENDBRANCH   7   8
ENDBRANCH   6   7
ENDBRANCH   5   6
ENDBRANCH   4   5
ENDBRANCH   3   4
ENDBRANCH   2   3
ENDBRANCH   1   2
BRANCH   1  12
ATOM     12  C   UNL     1      57.629  34.181  77.179  1.00  0.00     0.000 C 
BRANCH  12  13
ATOM     13  C   UNL     1      58.057  33.056  78.133  1.00  0.00    -0.000 C 
BRANCH  13  14
ATOM     14  C   UNL     1      57.929  33.455  79.613  1.00  0.00    -0.000 C 
BRANCH  14  15
ATOM     15  C   UNL     1      59.189  34.160  80.145  1.00  0.00    -0.000 C 
BRANCH  15  16
ATOM     16  C   UNL     1      58.855  35.387  81.008  1.00  0.00    -0.000 C 
BRANCH  16  17
ATOM     17  C   UNL     1      58.587  36.646  80.164  1.00  0.00    -0.000 C 
BRANCH  17  18
ATOM     18  C   UNL     1      57.090  36.994  80.072  1.00  0.00    -0.000 C 
BRANCH  18  19
ATOM     19  C   UNL     1      56.651  37.603  78.729  1.00  0.00    -0.003 C 
ATOM     20  C   UNL     1      57.814  37.816  77.761  1.00  0.00     0.004 C 
ENDBRANCH  18  19
ENDBRANCH  17  18
ENDBRANCH  16  17
ENDBRANCH  15  16
ENDBRANCH  14  15
ENDBRANCH  13  14
ENDBRANCH  12  13
ENDBRANCH   1  12
TORSDOF 16
ENDMDL
MODEL 9
REMARK VINA RESULT:    -4.137      3.465      7.423
REMARK INTER + INTRA:          -9.961
REMARK INTER:                  -7.738
REMARK INTRA:                  -2.223
REMARK UNBOUND:                -1.955
REMARK SMILES CCCCCCCCCCCCCCCCCC(=O)[O-]
REMARK SMILES IDX 10 1 11 2 12 3 13 4 14 5 15 6 16 7 17 8 18 9 19 10 20 11
REMARK SMILES IDX 9 12 8 13 7 14 6 15 5 16 4 17 3 18 2 19 1 20
REMARK H PARENT
REMARK Flexibility Score: inf
ROOT
ATOM      1  C   UNL     1      57.128  33.882  72.751  1.00  0.00     0.000 C 
ENDROOT
BRANCH   1   2
ATOM      2  C   UNL     1      57.918  34.503  73.909  1.00  0.00     0.000 C 
BRANCH   2   3
ATOM      3  C   UNL     1      57.168  34.331  75.239  1.00  0.00     0.000 C 
BRANCH   3   4
ATOM      4  C   UNL     1      58.121  34.288  76.446  1.00  0.00     0.000 C 
BRANCH   4   5
ATOM      5  C   UNL     1      57.659  33.323  77.562  1.00  0.00     0.000 C 
BRANCH   5   6
ATOM      6  C   UNL     1      58.697  33.136  78.686  1.00  0.00     0.000 C 
BRANCH   6   7
ATOM      7  C   UNL     1      58.426  33.967  79.955  1.00  0.00     0.006 C 
BRANCH   7   8
ATOM      8  C   UNL     1      57.621  35.254  79.710  1.00  0.00     0.053 C 
BRANCH   8   9
ATOM      9  C   UNL     1      58.447  36.484  79.930  1.00  0.00     0.041 C 
ATOM     10  O   UNL     1      58.234  37.220  80.928  1.00  0.00    -0.550 OA
ATOM     11  O   UNL     1      59.433  36.833  79.014  1.00  0.00    -0.550 OA
ENDBRANCH   8   9
ENDBRANCH   7   8
ENDBRANCH   6   7
ENDBRANCH   5   6
ENDBRANCH   4   5
ENDBRANCH   3   4
ENDBRANCH   2   3
ENDBRANCH   1   2
BRANCH   1  12
ATOM     12  C   UNL     1      57.337  32.364  72.693  1.00  0.00     0.000 C 
BRANCH  12  13
ATOM     13  C   UNL     1      56.025  31.618  72.980  1.00  0.00    -0.000 C 
BRANCH  13  14
ATOM     14  C   UNL     1      56.207  30.466  73.982  1.00  0.00    -0.000 C 
BRANCH  14  15
ATOM     15  C   UNL     1      57.434  30.662  74.890  1.00  0.00    -0.000 C 
BRANCH  15  16
ATOM     16  C   UNL     1      57.977  29.333  75.439  1.00  0.00    -0.000 C 
BRANCH  16  17
ATOM     17  C   UNL     1      59.407  29.464  75.992  1.00  0.00    -0.000 C 
BRANCH  17  18
ATOM     18  C   UNL     1      59.903  30.921  76.021  1.00  0.00    -0.000 C 
BRANCH  18  19
ATOM     19  C   UNL     1      61.131  31.203  75.138  1.00  0.00    -0.003 C 
ATOM     20  C   UNL     1      60.775  31.900  73.825  1.00  0.00     0.004 C 
ENDBRANCH  18  19
ENDBRANCH  17  18
ENDBRANCH  16  17
ENDBRANCH  15  16
ENDBRANCH  14  15
ENDBRANCH  13  14
ENDBRANCH  12  13
ENDBRANCH   1  12
TORSDOF 16
ENDMDL
