MODEL 1
REMARK VINA RESULT:    -1.928      0.000      0.000
REMARK INTER + INTRA:          -2.428
REMARK INTER:                  -2.717
REMARK INTRA:                   0.289
REMARK UNBOUND:                 0.289
REMARK SMILES CC1=CCC(=C(C)C)C(=O)CC(C)=CCC1
REMARK SMILES IDX 12 1 14 2 13 3 15 4 16 5 2 6 1 7 3 8 11 10 9 11 10 12 5 13
REMARK SMILES IDX 6 14 7 15 8 16 4 17
REMARK H PARENT
REMARK Flexibility Score: 60.00
ROOT
ATOM      1  C   UNL     1     124.381  83.924  57.493  1.00  0.00    -0.070 C 
ATOM      2  C   UNL     1     123.578  84.226  58.539  1.00  0.00    -0.027 C 
ATOM      3  C   UNL     1     125.020  82.558  57.454  1.00  0.00     0.039 C 
ENDROOT
BRANCH   2   4
ATOM      4  C   UNL     1     122.760  85.487  58.683  1.00  0.00     0.032 C 
BRANCH   4   5
ATOM      5  C   UNL     1     121.389  85.462  57.990  1.00  0.00     0.034 C 
BRANCH   5   6
ATOM      6  C   UNL     1     121.149  86.632  57.054  1.00  0.00    -0.077 C 
ATOM      7  C   UNL     1     120.747  87.950  57.667  1.00  0.00     0.039 C 
ATOM      8  C   UNL     1     121.202  86.561  55.699  1.00  0.00    -0.023 CG0
ATOM      9  G   UNL     1     121.707  85.423  54.833  1.00  0.00     0.000 G0
ENDBRANCH   5   6
ENDBRANCH   4   5
ENDBRANCH   2   4
BRANCH   1  10
ATOM     10  C   UNL     1     124.739  84.913  56.405  1.00  0.00     0.111 C 
BRANCH  10  11
ATOM     11  C   UNL     1     124.089  84.541  55.097  1.00  0.00     0.163 C 
ATOM     12  O   UNL     1     124.362  83.426  54.575  1.00  0.00    -0.294 OA
BRANCH  11  13
ATOM     13  C   UNL     1     123.143  85.449  54.395  1.00  0.00    -0.002 C 
ATOM     14  C   UNL     1     123.608  86.378  53.515  1.00  0.00    -0.069 C 
ATOM     15  C   UNL     1     125.066  86.399  53.116  1.00  0.00     0.039 C 
ATOM     16  C   UNL     1     122.690  87.400  52.886  1.00  0.00     0.039 C 
BRANCH  13  17
ATOM     17  C   UNL     1     121.693  85.406  54.839  1.00  0.00     0.066 CG0
ATOM     18  G   UNL     1     121.188  86.570  55.670  1.00  0.00     0.000 G0
ENDBRANCH  13  17
ENDBRANCH  11  13
ENDBRANCH  10  11
ENDBRANCH   1  10
TORSDOF 0
ENDMDL
MODEL 2
REMARK VINA RESULT:    -1.702      2.138      5.358
REMARK INTER + INTRA:          -2.110
REMARK INTER:                  -1.994
REMARK INTRA:                  -0.116
REMARK UNBOUND:                 0.289
REMARK SMILES CC1=CCC(=C(C)C)C(=O)CC(C)=CCC1
REMARK SMILES IDX 12 1 14 2 13 3 15 4 16 5 2 6 1 7 3 8 11 10 9 11 10 12 5 13
REMARK SMILES IDX 6 14 7 15 8 16 4 17
REMARK H PARENT
REMARK Flexibility Score: 60.00
ROOT
ATOM      1  C   UNL     1     120.773  87.455  54.163  1.00  0.00    -0.070 C 
ATOM      2  C   UNL     1     121.299  86.744  53.139  1.00  0.00    -0.027 C 
ATOM      3  C   UNL     1     120.440  88.907  53.927  1.00  0.00     0.039 C 
ENDROOT
BRANCH   2   4
ATOM      4  C   UNL     1     121.576  85.259  53.151  1.00  0.00     0.032 C 
BRANCH   4   5
ATOM      5  C   UNL     1     123.061  84.870  53.121  1.00  0.00     0.034 C 
BRANCH   5   6
ATOM      6  C   UNL     1     123.443  83.810  54.138  1.00  0.00    -0.077 C 
ATOM      7  C   UNL     1     123.541  82.382  53.662  1.00  0.00     0.039 C 
ATOM      8  C   UNL     1     123.636  84.044  55.461  1.00  0.00    -0.023 CG0
ATOM      9  G   UNL     1     123.738  85.376  56.179  1.00  0.00     0.000 G0
ENDBRANCH   5   6
ENDBRANCH   4   5
ENDBRANCH   2   4
BRANCH   1  10
ATOM     10  C   UNL     1     120.580  86.893  55.555  1.00  0.00     0.111 C 
BRANCH  10  11
ATOM     11  C   UNL     1     121.833  87.042  56.379  1.00  0.00     0.163 C 
ATOM     12  O   UNL     1     122.299  88.196  56.578  1.00  0.00    -0.294 OA
BRANCH  11  13
ATOM     13  C   UNL     1     122.545  85.872  56.958  1.00  0.00    -0.002 C 
ATOM     14  C   UNL     1     122.200  85.394  58.185  1.00  0.00    -0.069 C 
ATOM     15  C   UNL     1     120.990  85.939  58.910  1.00  0.00     0.039 C 
ATOM     16  C   UNL     1     122.988  84.293  58.855  1.00  0.00     0.039 C 
BRANCH  13  17
ATOM     17  C   UNL     1     123.764  85.369  56.205  1.00  0.00     0.066 CG0
ATOM     18  G   UNL     1     123.625  84.051  55.467  1.00  0.00     0.000 G0
ENDBRANCH  13  17
ENDBRANCH  11  13
ENDBRANCH  10  11
ENDBRANCH   1  10
TORSDOF 0
ENDMDL
MODEL 3
REMARK VINA RESULT:    -1.693      2.029      4.502
REMARK INTER + INTRA:          -2.097
REMARK INTER:                  -2.017
REMARK INTRA:                  -0.080
REMARK UNBOUND:                 0.289
REMARK SMILES CC1=CCC(=C(C)C)C(=O)CC(C)=CCC1
REMARK SMILES IDX 12 1 14 2 13 3 15 4 16 5 2 6 1 7 3 8 11 10 9 11 10 12 5 13
REMARK SMILES IDX 6 14 7 15 8 16 4 17
REMARK H PARENT
REMARK Flexibility Score: 60.00
ROOT
ATOM      1  C   UNL     1     121.489  84.001  55.149  1.00  0.00    -0.070 C 
ATOM      2  C   UNL     1     122.738  83.490  55.223  1.00  0.00    -0.027 C 
ATOM      3  C   UNL     1     120.337  83.146  55.615  1.00  0.00     0.039 C 
ENDROOT
BRANCH   2   4
ATOM      4  C   UNL     1     124.014  84.239  54.922  1.00  0.00     0.032 C 
BRANCH   4   5
ATOM      5  C   UNL     1     124.687  84.900  56.134  1.00  0.00     0.034 C 
BRANCH   5   6
ATOM      6  C   UNL     1     124.146  84.432  57.473  1.00  0.00    -0.077 C 
ATOM      7  C   UNL     1     124.723  83.169  58.062  1.00  0.00     0.039 C 
ATOM      8  C   UNL     1     123.129  85.030  58.146  1.00  0.00    -0.023 CG0
ATOM      9  G   UNL     1     122.469  86.366  57.865  1.00  0.00     0.000 G0
ENDBRANCH   5   6
ENDBRANCH   4   5
ENDBRANCH   2   4
BRANCH   1  10
ATOM     10  C   UNL     1     121.177  85.354  54.546  1.00  0.00     0.111 C 
BRANCH  10  11
ATOM     11  C   UNL     1     121.557  86.469  55.486  1.00  0.00     0.163 C 
ATOM     12  O   UNL     1     122.150  87.481  55.025  1.00  0.00    -0.294 OA
BRANCH  11  13
ATOM     13  C   UNL     1     121.265  86.411  56.943  1.00  0.00    -0.002 C 
ATOM     14  C   UNL     1     119.988  86.540  57.395  1.00  0.00    -0.069 C 
ATOM     15  C   UNL     1     118.829  86.584  56.424  1.00  0.00     0.039 C 
ATOM     16  C   UNL     1     119.674  86.616  58.870  1.00  0.00     0.039 C 
BRANCH  13  17
ATOM     17  C   UNL     1     122.458  86.384  57.881  1.00  0.00     0.066 CG0
ATOM     18  G   UNL     1     123.118  85.039  58.122  1.00  0.00     0.000 G0
ENDBRANCH  13  17
ENDBRANCH  11  13
ENDBRANCH  10  11
ENDBRANCH   1  10
TORSDOF 0
ENDMDL
MODEL 4
REMARK VINA RESULT:    -1.663     12.912     14.771
REMARK INTER + INTRA:          -2.054
REMARK INTER:                  -2.000
REMARK INTRA:                  -0.055
REMARK UNBOUND:                 0.289
REMARK SMILES CC1=CCC(=C(C)C)C(=O)CC(C)=CCC1
REMARK SMILES IDX 12 1 14 2 13 3 15 4 16 5 2 6 1 7 3 8 11 10 9 11 10 12 5 13
REMARK SMILES IDX 6 14 7 15 8 16 4 17
REMARK H PARENT
REMARK Flexibility Score: 60.00
ROOT
ATOM      1  C   UNL     1     110.818  85.847  57.830  1.00  0.00    -0.070 C 
ATOM      2  C   UNL     1     111.491  86.433  56.814  1.00  0.00    -0.027 C 
ATOM      3  C   UNL     1     111.609  85.101  58.875  1.00  0.00     0.039 C 
ENDROOT
BRANCH   2   4
ATOM      4  C   UNL     1     110.884  87.321  55.754  1.00  0.00     0.032 C 
BRANCH   4   5
ATOM      5  C   UNL     1     110.190  86.584  54.600  1.00  0.00     0.034 C 
BRANCH   5   6
ATOM      6  C   UNL     1     108.787  87.081  54.303  1.00  0.00    -0.077 C 
ATOM      7  C   UNL     1     108.640  88.472  53.738  1.00  0.00     0.039 C 
ATOM      8  C   UNL     1     107.649  86.392  54.575  1.00  0.00    -0.023 CG0
ATOM      9  G   UNL     1     107.503  84.945  55.006  1.00  0.00     0.000 G0
ENDBRANCH   5   6
ENDBRANCH   4   5
ENDBRANCH   2   4
BRANCH   1  10
ATOM     10  C   UNL     1     109.308  85.831  57.929  1.00  0.00     0.111 C 
BRANCH  10  11
ATOM     11  C   UNL     1     108.730  84.627  57.230  1.00  0.00     0.163 C 
ATOM     12  O   UNL     1     109.375  83.544  57.246  1.00  0.00    -0.294 OA
BRANCH  11  13
ATOM     13  C   UNL     1     107.429  84.676  56.512  1.00  0.00    -0.002 C 
ATOM     14  C   UNL     1     106.278  84.330  57.150  1.00  0.00    -0.069 C 
ATOM     15  C   UNL     1     106.277  84.045  58.635  1.00  0.00     0.039 C 
ATOM     16  C   UNL     1     104.961  84.243  56.415  1.00  0.00     0.039 C 
BRANCH  13  17
ATOM     17  C   UNL     1     107.479  84.949  55.020  1.00  0.00     0.066 CG0
ATOM     18  G   UNL     1     107.637  86.394  54.586  1.00  0.00     0.000 G0
ENDBRANCH  13  17
ENDBRANCH  11  13
ENDBRANCH  10  11
ENDBRANCH   1  10
TORSDOF 0
ENDMDL
MODEL 5
REMARK VINA RESULT:    -1.619      2.562      3.828
REMARK INTER + INTRA:          -1.993
REMARK INTER:                  -1.928
REMARK INTRA:                  -0.065
REMARK UNBOUND:                 0.289
REMARK SMILES CC1=CCC(=C(C)C)C(=O)CC(C)=CCC1
REMARK SMILES IDX 12 1 14 2 13 3 15 4 16 5 2 6 1 7 3 8 11 10 9 11 10 12 5 13
REMARK SMILES IDX 6 14 7 15 8 16 4 17
REMARK H PARENT
REMARK Flexibility Score: 60.00
ROOT
ATOM      1  C   UNL     1     120.408  84.561  55.727  1.00  0.00    -0.070 C 
ATOM      2  C   UNL     1     119.172  84.419  56.258  1.00  0.00    -0.027 C 
ATOM      3  C   UNL     1     120.526  84.769  54.238  1.00  0.00     0.039 C 
ENDROOT
BRANCH   2   4
ATOM      4  C   UNL     1     118.853  84.329  57.731  1.00  0.00     0.032 C 
BRANCH   4   5
ATOM      5  C   UNL     1     118.239  85.594  58.347  1.00  0.00     0.034 C 
BRANCH   5   6
ATOM      6  C   UNL     1     118.071  86.740  57.366  1.00  0.00    -0.077 C 
ATOM      7  C   UNL     1     116.734  86.892  56.685  1.00  0.00     0.039 C 
ATOM      8  C   UNL     1     119.060  87.598  57.003  1.00  0.00    -0.023 CG0
ATOM      9  G   UNL     1     120.437  87.764  57.617  1.00  0.00     0.000 G0
ENDBRANCH   5   6
ENDBRANCH   4   5
ENDBRANCH   2   4
BRANCH   1  10
ATOM     10  C   UNL     1     121.681  84.439  56.536  1.00  0.00     0.111 C 
BRANCH  10  11
ATOM     11  C   UNL     1     121.886  85.648  57.412  1.00  0.00     0.163 C 
ATOM     12  O   UNL     1     122.300  85.484  58.591  1.00  0.00    -0.294 OA
BRANCH  11  13
ATOM     13  C   UNL     1     121.607  87.029  56.935  1.00  0.00    -0.002 C 
ATOM     14  C   UNL     1     122.452  87.639  56.060  1.00  0.00    -0.069 C 
ATOM     15  C   UNL     1     123.598  86.874  55.437  1.00  0.00     0.039 C 
ATOM     16  C   UNL     1     122.268  89.083  55.659  1.00  0.00     0.039 C 
BRANCH  13  17
ATOM     17  C   UNL     1     120.458  87.764  57.600  1.00  0.00     0.066 CG0
ATOM     18  G   UNL     1     119.079  87.586  56.994  1.00  0.00     0.000 G0
ENDBRANCH  13  17
ENDBRANCH  11  13
ENDBRANCH  10  11
ENDBRANCH   1  10
TORSDOF 0
ENDMDL
MODEL 6
REMARK VINA RESULT:    -1.590      2.507      4.020
REMARK INTER + INTRA:          -1.952
REMARK INTER:                  -1.933
REMARK INTRA:                  -0.018
REMARK UNBOUND:                 0.289
REMARK SMILES CC1=CCC(=C(C)C)C(=O)CC(C)=CCC1
REMARK SMILES IDX 12 1 14 2 13 3 15 4 16 5 2 6 1 7 3 8 11 10 9 11 10 12 5 13
REMARK SMILES IDX 6 14 7 15 8 16 4 17
REMARK H PARENT
REMARK Flexibility Score: 60.00
ROOT
ATOM      1  C   UNL     1     120.290  84.171  55.439  1.00  0.00    -0.070 C 
ATOM      2  C   UNL     1     119.494  85.233  55.705  1.00  0.00    -0.027 C 
ATOM      3  C   UNL     1     121.056  84.160  54.141  1.00  0.00     0.039 C 
ENDROOT
BRANCH   2   4
ATOM      4  C   UNL     1     118.755  85.475  56.999  1.00  0.00     0.032 C 
BRANCH   4   5
ATOM      5  C   UNL     1     119.538  86.255  58.065  1.00  0.00     0.034 C 
BRANCH   5   6
ATOM      6  C   UNL     1     120.727  87.023  57.519  1.00  0.00    -0.077 C 
ATOM      7  C   UNL     1     120.463  88.360  56.873  1.00  0.00     0.039 C 
ATOM      8  C   UNL     1     122.005  86.563  57.508  1.00  0.00    -0.023 CG0
ATOM      9  G   UNL     1     122.573  85.339  58.200  1.00  0.00     0.000 G0
ENDBRANCH   5   6
ENDBRANCH   4   5
ENDBRANCH   2   4
BRANCH   1  10
ATOM     10  C   UNL     1     120.385  82.957  56.337  1.00  0.00     0.111 C 
BRANCH  10  11
ATOM     11  C   UNL     1     121.251  83.236  57.539  1.00  0.00     0.163 C 
ATOM     12  O   UNL     1     120.893  82.796  58.664  1.00  0.00    -0.294 OA
BRANCH  11  13
ATOM     13  C   UNL     1     122.509  84.024  57.443  1.00  0.00    -0.002 C 
ATOM     14  C   UNL     1     123.603  83.500  56.826  1.00  0.00    -0.069 C 
ATOM     15  C   UNL     1     123.515  82.182  56.090  1.00  0.00     0.039 C 
ATOM     16  C   UNL     1     124.931  84.220  56.827  1.00  0.00     0.039 C 
BRANCH  13  17
ATOM     17  C   UNL     1     122.558  85.332  58.211  1.00  0.00     0.066 CG0
ATOM     18  G   UNL     1     122.024  86.566  57.509  1.00  0.00     0.000 G0
ENDBRANCH  13  17
ENDBRANCH  11  13
ENDBRANCH  10  11
ENDBRANCH   1  10
TORSDOF 0
ENDMDL
MODEL 7
REMARK VINA RESULT:    -1.535     10.026     11.888
REMARK INTER + INTRA:          -1.875
REMARK INTER:                  -1.810
REMARK INTRA:                  -0.064
REMARK UNBOUND:                 0.289
REMARK SMILES CC1=CCC(=C(C)C)C(=O)CC(C)=CCC1
REMARK SMILES IDX 12 1 14 2 13 3 15 4 16 5 2 6 1 7 3 8 11 10 9 11 10 12 5 13
REMARK SMILES IDX 6 14 7 15 8 16 4 17
REMARK H PARENT
REMARK Flexibility Score: 60.00
ROOT
ATOM      1  C   UNL     1     111.769  83.854  55.378  1.00  0.00    -0.070 C 
ATOM      2  C   UNL     1     110.417  83.811  55.363  1.00  0.00    -0.027 C 
ATOM      3  C   UNL     1     112.528  82.576  55.127  1.00  0.00     0.039 C 
ENDROOT
BRANCH   2   4
ATOM      4  C   UNL     1     109.498  85.005  55.469  1.00  0.00     0.032 C 
BRANCH   4   5
ATOM      5  C   UNL     1     109.163  85.449  56.900  1.00  0.00     0.034 C 
BRANCH   5   6
ATOM      6  C   UNL     1     109.244  86.949  57.117  1.00  0.00    -0.077 C 
ATOM      7  C   UNL     1     108.166  87.807  56.502  1.00  0.00     0.039 C 
ATOM      8  C   UNL     1     110.255  87.582  57.765  1.00  0.00    -0.023 CG0
ATOM      9  G   UNL     1     111.376  86.974  58.587  1.00  0.00     0.000 G0
ENDBRANCH   5   6
ENDBRANCH   4   5
ENDBRANCH   2   4
BRANCH   1  10
ATOM     10  C   UNL     1     112.559  85.100  55.717  1.00  0.00     0.111 C 
BRANCH  10  11
ATOM     11  C   UNL     1     112.685  85.274  57.209  1.00  0.00     0.163 C 
ATOM     12  O   UNL     1     112.810  84.251  57.935  1.00  0.00    -0.294 OA
BRANCH  11  13
ATOM     13  C   UNL     1     112.656  86.613  57.856  1.00  0.00    -0.002 C 
ATOM     14  C   UNL     1     113.782  87.376  57.908  1.00  0.00    -0.069 C 
ATOM     15  C   UNL     1     115.035  86.951  57.175  1.00  0.00     0.039 C 
ATOM     16  C   UNL     1     113.820  88.680  58.670  1.00  0.00     0.039 C 
BRANCH  13  17
ATOM     17  C   UNL     1     111.385  86.991  58.594  1.00  0.00     0.066 CG0
ATOM     18  G   UNL     1     110.253  87.573  57.768  1.00  0.00     0.000 G0
ENDBRANCH  13  17
ENDBRANCH  11  13
ENDBRANCH  10  11
ENDBRANCH   1  10
TORSDOF 0
ENDMDL
MODEL 8
REMARK VINA RESULT:    -1.530      2.469      5.050
REMARK INTER + INTRA:          -1.867
REMARK INTER:                  -1.720
REMARK INTRA:                  -0.147
REMARK UNBOUND:                 0.289
REMARK SMILES CC1=CCC(=C(C)C)C(=O)CC(C)=CCC1
REMARK SMILES IDX 12 1 14 2 13 3 15 4 16 5 2 6 1 7 3 8 11 10 9 11 10 12 5 13
REMARK SMILES IDX 6 14 7 15 8 16 4 17
REMARK H PARENT
REMARK Flexibility Score: 60.00
ROOT
ATOM      1  C   UNL     1     120.980  85.168  53.547  1.00  0.00    -0.070 C 
ATOM      2  C   UNL     1     122.245  84.890  53.938  1.00  0.00    -0.027 C 
ATOM      3  C   UNL     1     120.726  85.431  52.085  1.00  0.00     0.039 C 
ENDROOT
BRANCH   2   4
ATOM      4  C   UNL     1     122.665  84.480  55.330  1.00  0.00     0.032 C 
BRANCH   4   5
ATOM      5  C   UNL     1     123.112  85.630  56.244  1.00  0.00     0.034 C 
BRANCH   5   6
ATOM      6  C   UNL     1     122.569  85.541  57.659  1.00  0.00    -0.077 C 
ATOM      7  C   UNL     1     123.249  84.592  58.613  1.00  0.00     0.039 C 
ATOM      8  C   UNL     1     121.472  86.202  58.108  1.00  0.00    -0.023 CG0
ATOM      9  G   UNL     1     120.689  87.306  57.424  1.00  0.00     0.000 G0
ENDBRANCH   5   6
ENDBRANCH   4   5
ENDBRANCH   2   4
BRANCH   1  10
ATOM     10  C   UNL     1     119.824  85.313  54.513  1.00  0.00     0.111 C 
BRANCH  10  11
ATOM     11  C   UNL     1     119.785  86.696  55.111  1.00  0.00     0.163 C 
ATOM     12  O   UNL     1     120.002  87.689  54.366  1.00  0.00    -0.294 OA
BRANCH  11  13
ATOM     13  C   UNL     1     119.509  86.928  56.554  1.00  0.00    -0.002 C 
ATOM     14  C   UNL     1     118.229  86.936  57.017  1.00  0.00    -0.069 C 
ATOM     15  C   UNL     1     117.080  86.554  56.110  1.00  0.00     0.039 C 
ATOM     16  C   UNL     1     117.908  87.297  58.448  1.00  0.00     0.039 C 
BRANCH  13  17
ATOM     17  C   UNL     1     120.688  87.325  57.422  1.00  0.00     0.066 CG0
ATOM     18  G   UNL     1     121.460  86.205  58.095  1.00  0.00     0.000 G0
ENDBRANCH  13  17
ENDBRANCH  11  13
ENDBRANCH  10  11
ENDBRANCH   1  10
TORSDOF 0
ENDMDL
MODEL 9
REMARK VINA RESULT:    -1.524      2.692      4.615
REMARK INTER + INTRA:          -1.859
REMARK INTER:                  -1.706
REMARK INTRA:                  -0.154
REMARK UNBOUND:                 0.289
REMARK SMILES CC1=CCC(=C(C)C)C(=O)CC(C)=CCC1
REMARK SMILES IDX 12 1 14 2 13 3 15 4 16 5 2 6 1 7 3 8 11 10 9 11 10 12 5 13
REMARK SMILES IDX 6 14 7 15 8 16 4 17
REMARK H PARENT
REMARK Flexibility Score: 60.00
ROOT
ATOM      1  C   UNL     1     121.023  86.605  57.390  1.00  0.00    -0.070 C 
ATOM      2  C   UNL     1     119.731  86.398  57.048  1.00  0.00    -0.027 C 
ATOM      3  C   UNL     1     121.598  87.986  57.207  1.00  0.00     0.039 C 
ENDROOT
BRANCH   2   4
ATOM      4  C   UNL     1     118.954  85.123  57.276  1.00  0.00     0.032 C 
BRANCH   4   5
ATOM      5  C   UNL     1     118.743  84.252  56.030  1.00  0.00     0.034 C 
BRANCH   5   6
ATOM      6  C   UNL     1     119.026  82.777  56.252  1.00  0.00    -0.077 C 
ATOM      7  C   UNL     1     117.884  81.904  56.709  1.00  0.00     0.039 C 
ATOM      8  C   UNL     1     120.249  82.199  56.135  1.00  0.00    -0.023 CG0
ATOM      9  G   UNL     1     121.523  82.793  55.567  1.00  0.00     0.000 G0
ENDBRANCH   5   6
ENDBRANCH   4   5
ENDBRANCH   2   4
BRANCH   1  10
ATOM     10  C   UNL     1     121.944  85.503  57.867  1.00  0.00     0.111 C 
BRANCH  10  11
ATOM     11  C   UNL     1     122.603  84.804  56.706  1.00  0.00     0.163 C 
ATOM     12  O   UNL     1     123.208  85.495  55.842  1.00  0.00    -0.294 OA
BRANCH  11  13
ATOM     13  C   UNL     1     122.555  83.327  56.538  1.00  0.00    -0.002 C 
ATOM     14  C   UNL     1     123.495  82.537  57.125  1.00  0.00    -0.069 C 
ATOM     15  C   UNL     1     124.506  83.126  58.083  1.00  0.00     0.039 C 
ATOM     16  C   UNL     1     123.550  81.050  56.869  1.00  0.00     0.039 C 
BRANCH  13  17
ATOM     17  C   UNL     1     121.536  82.782  55.555  1.00  0.00     0.066 CG0
ATOM     18  G   UNL     1     120.251  82.218  56.132  1.00  0.00     0.000 G0
ENDBRANCH  13  17
ENDBRANCH  11  13
ENDBRANCH  10  11
ENDBRANCH   1  10
TORSDOF 0
ENDMDL
