MODEL 1
REMARK VINA RESULT:    -4.099      0.000      0.000
REMARK INTER + INTRA:          -5.837
REMARK INTER:                  -5.537
REMARK INTRA:                  -0.300
REMARK UNBOUND:                -0.300
REMARK SMILES C=C1CCC=C(C)CC[C@@H]2[C@@H]1CC2(C)C
REMARK SMILES IDX 11 1 12 2 13 3 10 4 14 5 15 6 9 7 8 8 6 9 7 10 5 11 2 13
REMARK SMILES IDX 1 14 3 15 4 16
REMARK H PARENT
REMARK Flexibility Score: 70.00
ROOT
ATOM      1  C   UNL     1       2.730  -1.245  16.648  1.00  0.00     0.018 C 
ATOM      2  C   UNL     1       2.320  -0.443  15.407  1.00  0.00     0.015 C 
ATOM      3  C   UNL     1       1.007  -1.246  15.325  1.00  0.00    -0.031 C 
ATOM      4  C   UNL     1       1.502  -2.149  16.487  1.00  0.00     0.002 C 
ATOM      5  C   UNL     1      -0.226  -0.366  15.624  1.00  0.00     0.011 C 
ATOM      6  C   UNL     1       0.833  -2.004  13.997  1.00  0.00     0.011 C 
ENDROOT
BRANCH   4   7
ATOM      7  C   UNL     1       0.619  -2.254  17.747  1.00  0.00     0.009 C 
BRANCH   7   8
ATOM      8  C   UNL     1       0.828  -3.589  18.489  1.00  0.00     0.030 C 
BRANCH   8   9
ATOM      9  C   UNL     1       1.775  -3.445  19.670  1.00  0.00    -0.077 C 
ATOM     10  C   UNL     1       1.173  -3.158  21.023  1.00  0.00     0.039 C 
ATOM     11  C   UNL     1       3.125  -3.529  19.589  1.00  0.00    -0.028 CG0
ATOM     12  G   UNL     1       3.950  -3.768  18.346  1.00  0.00     0.000 G0
ENDBRANCH   8   9
ENDBRANCH   7   8
ENDBRANCH   4   7
BRANCH   1  13
ATOM     13  C   UNL     1       4.061  -1.979  16.588  1.00  0.00    -0.074 C 
ATOM     14  C   UNL     1       4.671  -2.270  15.423  1.00  0.00     0.008 C 
BRANCH  13  15
ATOM     15  C   UNL     1       4.655  -2.492  17.880  1.00  0.00     0.035 C 
BRANCH  15  16
ATOM     16  C   UNL     1       3.953  -3.776  18.350  1.00  0.00     0.032 CG0
ATOM     17  G   UNL     1       3.119  -3.533  19.587  1.00  0.00     0.000 G0
ENDBRANCH  15  16
ENDBRANCH  13  15
ENDBRANCH   1  13
TORSDOF 0
ENDMDL
MODEL 2
REMARK VINA RESULT:    -4.034      1.825      4.147
REMARK INTER + INTRA:          -5.748
REMARK INTER:                  -5.468
REMARK INTRA:                  -0.281
REMARK UNBOUND:                -0.300
REMARK SMILES C=C1CCC=C(C)CC[C@@H]2[C@@H]1CC2(C)C
REMARK SMILES IDX 11 1 12 2 13 3 10 4 14 5 15 6 9 7 8 8 6 9 7 10 5 11 2 13
REMARK SMILES IDX 1 14 3 15 4 16
REMARK H PARENT
REMARK Flexibility Score: 70.00
ROOT
ATOM      1  C   UNL     1       2.591  -4.201  18.707  1.00  0.00     0.018 C 
ATOM      2  C   UNL     1       1.132  -4.258  18.241  1.00  0.00     0.015 C 
ATOM      3  C   UNL     1       1.152  -2.736  17.999  1.00  0.00    -0.031 C 
ATOM      4  C   UNL     1       2.575  -2.670  18.615  1.00  0.00     0.002 C 
ATOM      5  C   UNL     1       1.043  -2.389  16.498  1.00  0.00     0.011 C 
ATOM      6  C   UNL     1       0.098  -1.970  18.818  1.00  0.00     0.011 C 
ENDROOT
BRANCH   4   7
ATOM      7  C   UNL     1       3.709  -2.073  17.756  1.00  0.00     0.009 C 
BRANCH   7   8
ATOM      8  C   UNL     1       4.899  -1.604  18.615  1.00  0.00     0.030 C 
BRANCH   8   9
ATOM      9  C   UNL     1       6.023  -2.628  18.642  1.00  0.00    -0.077 C 
ATOM     10  C   UNL     1       7.068  -2.553  17.557  1.00  0.00     0.039 C 
ATOM     11  C   UNL     1       6.138  -3.621  19.556  1.00  0.00    -0.028 CG0
ATOM     12  G   UNL     1       5.199  -3.917  20.702  1.00  0.00     0.000 G0
ENDBRANCH   8   9
ENDBRANCH   7   8
ENDBRANCH   4   7
BRANCH   1  13
ATOM     13  C   UNL     1       2.894  -4.742  20.096  1.00  0.00    -0.074 C 
ATOM     14  C   UNL     1       1.965  -4.786  21.070  1.00  0.00     0.008 C 
BRANCH  13  15
ATOM     15  C   UNL     1       4.317  -5.137  20.416  1.00  0.00     0.035 C 
BRANCH  15  16
ATOM     16  C   UNL     1       5.194  -3.905  20.692  1.00  0.00     0.032 CG0
ATOM     17  G   UNL     1       6.146  -3.633  19.550  1.00  0.00     0.000 G0
ENDBRANCH  15  16
ENDBRANCH  13  15
ENDBRANCH   1  13
TORSDOF 0
ENDMDL
MODEL 3
REMARK VINA RESULT:    -3.991      1.903      4.458
REMARK INTER + INTRA:          -5.690
REMARK INTER:                  -5.357
REMARK INTRA:                  -0.334
REMARK UNBOUND:                -0.300
REMARK SMILES C=C1CCC=C(C)CC[C@@H]2[C@@H]1CC2(C)C
REMARK SMILES IDX 11 1 12 2 13 3 10 4 14 5 15 6 9 7 8 8 6 9 7 10 5 11 2 13
REMARK SMILES IDX 1 14 3 15 4 16
REMARK H PARENT
REMARK Flexibility Score: 70.00
ROOT
ATOM      1  C   UNL     1       2.890  -3.456  17.162  1.00  0.00     0.018 C 
ATOM      2  C   UNL     1       3.070  -4.476  18.292  1.00  0.00     0.015 C 
ATOM      3  C   UNL     1       1.917  -3.814  19.071  1.00  0.00    -0.031 C 
ATOM      4  C   UNL     1       1.847  -2.699  17.994  1.00  0.00     0.002 C 
ATOM      5  C   UNL     1       0.686  -4.739  19.174  1.00  0.00     0.011 C 
ATOM      6  C   UNL     1       2.332  -3.295  20.459  1.00  0.00     0.011 C 
ENDROOT
BRANCH   4   7
ATOM      7  C   UNL     1       0.503  -2.472  17.273  1.00  0.00     0.009 C 
BRANCH   7   8
ATOM      8  C   UNL     1       0.435  -1.089  16.597  1.00  0.00     0.030 C 
BRANCH   8   9
ATOM      9  C   UNL     1       0.740  -1.165  15.109  1.00  0.00    -0.077 C 
ATOM     10  C   UNL     1      -0.406  -1.455  14.171  1.00  0.00     0.039 C 
ATOM     11  C   UNL     1       1.972  -1.017  14.566  1.00  0.00    -0.028 CG0
ATOM     12  G   UNL     1       3.266  -0.762  15.303  1.00  0.00     0.000 G0
ENDBRANCH   8   9
ENDBRANCH   7   8
ENDBRANCH   4   7
BRANCH   1  13
ATOM     13  C   UNL     1       4.108  -2.627  16.779  1.00  0.00    -0.074 C 
ATOM     14  C   UNL     1       5.085  -2.334  17.659  1.00  0.00     0.008 C 
BRANCH  13  15
ATOM     15  C   UNL     1       4.157  -2.025  15.394  1.00  0.00     0.035 C 
BRANCH  15  16
ATOM     16  C   UNL     1       3.291  -0.758  15.301  1.00  0.00     0.032 CG0
ATOM     17  G   UNL     1       1.994  -1.023  14.573  1.00  0.00     0.000 G0
ENDBRANCH  15  16
ENDBRANCH  13  15
ENDBRANCH   1  13
TORSDOF 0
ENDMDL
MODEL 4
REMARK VINA RESULT:    -3.909      3.263      6.099
REMARK INTER + INTRA:          -5.581
REMARK INTER:                  -5.268
REMARK INTRA:                  -0.313
REMARK UNBOUND:                -0.300
REMARK SMILES C=C1CCC=C(C)CC[C@@H]2[C@@H]1CC2(C)C
REMARK SMILES IDX 11 1 12 2 13 3 10 4 14 5 15 6 9 7 8 8 6 9 7 10 5 11 2 13
REMARK SMILES IDX 1 14 3 15 4 16
REMARK H PARENT
REMARK Flexibility Score: 70.00
ROOT
ATOM      1  C   UNL     1       1.564  -0.947  14.632  1.00  0.00     0.018 C 
ATOM      2  C   UNL     1       2.644  -0.502  15.624  1.00  0.00     0.015 C 
ATOM      3  C   UNL     1       3.290  -1.899  15.544  1.00  0.00    -0.031 C 
ATOM      4  C   UNL     1       2.107  -2.381  14.662  1.00  0.00     0.002 C 
ATOM      5  C   UNL     1       4.674  -1.856  14.863  1.00  0.00     0.011 C 
ATOM      6  C   UNL     1       3.368  -2.618  16.902  1.00  0.00     0.011 C 
ENDROOT
BRANCH   4   7
ATOM      7  C   UNL     1       2.433  -2.967  13.273  1.00  0.00     0.009 C 
BRANCH   7   8
ATOM      8  C   UNL     1       1.341  -3.939  12.785  1.00  0.00     0.030 C 
BRANCH   8   9
ATOM      9  C   UNL     1       0.382  -3.278  11.808  1.00  0.00    -0.077 C 
ATOM     10  C   UNL     1       0.699  -3.377  10.336  1.00  0.00     0.039 C 
ATOM     11  C   UNL     1      -0.724  -2.583  12.165  1.00  0.00    -0.028 CG0
ATOM     12  G   UNL     1      -1.219  -2.318  13.568  1.00  0.00     0.000 G0
ENDBRANCH   8   9
ENDBRANCH   7   8
ENDBRANCH   4   7
BRANCH   1  13
ATOM     13  C   UNL     1       0.116  -0.816  15.082  1.00  0.00    -0.074 C 
ATOM     14  C   UNL     1      -0.230  -0.743  16.381  1.00  0.00     0.008 C 
BRANCH  13  15
ATOM     15  C   UNL     1      -0.969  -0.884  14.032  1.00  0.00     0.035 C 
BRANCH  15  16
ATOM     16  C   UNL     1      -1.230  -2.332  13.586  1.00  0.00     0.032 CG0
ATOM     17  G   UNL     1      -0.730  -2.579  12.181  1.00  0.00     0.000 G0
ENDBRANCH  15  16
ENDBRANCH  13  15
ENDBRANCH   1  13
TORSDOF 0
ENDMDL
MODEL 5
REMARK VINA RESULT:    -3.855      1.970      4.404
REMARK INTER + INTRA:          -5.507
REMARK INTER:                  -5.380
REMARK INTRA:                  -0.127
REMARK UNBOUND:                -0.300
REMARK SMILES C=C1CCC=C(C)CC[C@@H]2[C@@H]1CC2(C)C
REMARK SMILES IDX 11 1 12 2 13 3 10 4 14 5 15 6 9 7 8 8 6 9 7 10 5 11 2 13
REMARK SMILES IDX 1 14 3 15 4 16
REMARK H PARENT
REMARK Flexibility Score: 70.00
ROOT
ATOM      1  C   UNL     1       1.969  -2.970  19.358  1.00  0.00     0.018 C 
ATOM      2  C   UNL     1       0.545  -3.152  19.898  1.00  0.00     0.015 C 
ATOM      3  C   UNL     1       0.939  -4.530  20.463  1.00  0.00    -0.031 C 
ATOM      4  C   UNL     1       2.327  -4.400  19.782  1.00  0.00     0.002 C 
ATOM      5  C   UNL     1       0.936  -4.541  22.007  1.00  0.00     0.011 C 
ATOM      6  C   UNL     1       0.093  -5.687  19.904  1.00  0.00     0.011 C 
ENDROOT
BRANCH   4   7
ATOM      7  C   UNL     1       3.582  -4.503  20.672  1.00  0.00     0.009 C 
BRANCH   7   8
ATOM      8  C   UNL     1       4.879  -4.546  19.840  1.00  0.00     0.030 C 
BRANCH   8   9
ATOM      9  C   UNL     1       5.523  -3.174  19.715  1.00  0.00    -0.077 C 
ATOM     10  C   UNL     1       6.345  -2.675  20.877  1.00  0.00     0.039 C 
ATOM     11  C   UNL     1       5.390  -2.355  18.644  1.00  0.00    -0.028 CG0
ATOM     12  G   UNL     1       4.590  -2.621  17.389  1.00  0.00     0.000 G0
ENDBRANCH   8   9
ENDBRANCH   7   8
ENDBRANCH   4   7
BRANCH   1  13
ATOM     13  C   UNL     1       2.113  -2.704  17.867  1.00  0.00    -0.074 C 
ATOM     14  C   UNL     1       1.321  -3.292  16.950  1.00  0.00     0.008 C 
BRANCH  13  15
ATOM     15  C   UNL     1       3.260  -1.835  17.402  1.00  0.00     0.035 C 
BRANCH  15  16
ATOM     16  C   UNL     1       4.586  -2.612  17.394  1.00  0.00     0.032 CG0
ATOM     17  G   UNL     1       5.381  -2.370  18.656  1.00  0.00     0.000 G0
ENDBRANCH  15  16
ENDBRANCH  13  15
ENDBRANCH   1  13
TORSDOF 0
ENDMDL
MODEL 6
REMARK VINA RESULT:    -3.780      1.825      4.773
REMARK INTER + INTRA:          -5.406
REMARK INTER:                  -5.079
REMARK INTRA:                  -0.327
REMARK UNBOUND:                -0.300
REMARK SMILES C=C1CCC=C(C)CC[C@@H]2[C@@H]1CC2(C)C
REMARK SMILES IDX 11 1 12 2 13 3 10 4 14 5 15 6 9 7 8 8 6 9 7 10 5 11 2 13
REMARK SMILES IDX 1 14 3 15 4 16
REMARK H PARENT
REMARK Flexibility Score: 70.00
ROOT
ATOM      1  C   UNL     1       3.849  -4.391  19.646  1.00  0.00     0.018 C 
ATOM      2  C   UNL     1       3.384  -5.126  20.909  1.00  0.00     0.015 C 
ATOM      3  C   UNL     1       2.054  -4.348  20.869  1.00  0.00    -0.031 C 
ATOM      4  C   UNL     1       2.598  -3.505  19.684  1.00  0.00     0.002 C 
ATOM      5  C   UNL     1       0.856  -5.271  20.555  1.00  0.00     0.011 C 
ATOM      6  C   UNL     1       1.790  -3.517  22.137  1.00  0.00     0.011 C 
ENDROOT
BRANCH   4   7
ATOM      7  C   UNL     1       1.786  -3.495  18.372  1.00  0.00     0.009 C 
BRANCH   7   8
ATOM      8  C   UNL     1       2.077  -2.241  17.524  1.00  0.00     0.030 C 
BRANCH   8   9
ATOM      9  C   UNL     1       3.077  -2.523  16.413  1.00  0.00    -0.077 C 
ATOM     10  C   UNL     1       2.536  -2.970  15.077  1.00  0.00     0.039 C 
ATOM     11  C   UNL     1       4.422  -2.426  16.545  1.00  0.00    -0.028 CG0
ATOM     12  G   UNL     1       5.190  -2.039  17.788  1.00  0.00     0.000 G0
ENDBRANCH   8   9
ENDBRANCH   7   8
ENDBRANCH   4   7
BRANCH   1  13
ATOM     13  C   UNL     1       5.161  -3.626  19.736  1.00  0.00    -0.074 C 
ATOM     14  C   UNL     1       5.659  -3.185  20.907  1.00  0.00     0.008 C 
BRANCH  13  15
ATOM     15  C   UNL     1       5.864  -3.256  18.450  1.00  0.00     0.035 C 
BRANCH  15  16
ATOM     16  C   UNL     1       5.206  -2.040  17.779  1.00  0.00     0.032 CG0
ATOM     17  G   UNL     1       4.420  -2.440  16.552  1.00  0.00     0.000 G0
ENDBRANCH  15  16
ENDBRANCH  13  15
ENDBRANCH   1  13
TORSDOF 0
ENDMDL
MODEL 7
REMARK VINA RESULT:    -3.744      1.444      3.419
REMARK INTER + INTRA:          -5.357
REMARK INTER:                  -5.293
REMARK INTRA:                  -0.064
REMARK UNBOUND:                -0.300
REMARK SMILES C=C1CCC=C(C)CC[C@@H]2[C@@H]1CC2(C)C
REMARK SMILES IDX 11 1 12 2 13 3 10 4 14 5 15 6 9 7 8 8 6 9 7 10 5 11 2 13
REMARK SMILES IDX 1 14 3 15 4 16
REMARK H PARENT
REMARK Flexibility Score: 70.00
ROOT
ATOM      1  C   UNL     1       1.405  -3.041  17.699  1.00  0.00     0.018 C 
ATOM      2  C   UNL     1       0.962  -2.736  16.263  1.00  0.00     0.015 C 
ATOM      3  C   UNL     1       2.241  -1.904  16.047  1.00  0.00    -0.031 C 
ATOM      4  C   UNL     1       2.602  -2.093  17.545  1.00  0.00     0.002 C 
ATOM      5  C   UNL     1       3.194  -2.565  15.028  1.00  0.00     0.011 C 
ATOM      6  C   UNL     1       1.963  -0.439  15.669  1.00  0.00     0.011 C 
ENDROOT
BRANCH   4   7
ATOM      7  C   UNL     1       3.965  -2.730  17.886  1.00  0.00     0.009 C 
BRANCH   7   8
ATOM      8  C   UNL     1       4.228  -2.753  19.404  1.00  0.00     0.030 C 
BRANCH   8   9
ATOM      9  C   UNL     1       3.840  -4.082  20.031  1.00  0.00    -0.077 C 
ATOM     10  C   UNL     1       4.789  -5.243  19.860  1.00  0.00     0.039 C 
ATOM     11  C   UNL     1       2.691  -4.307  20.712  1.00  0.00    -0.028 CG0
ATOM     12  G   UNL     1       1.580  -3.316  20.975  1.00  0.00     0.000 G0
ENDBRANCH   8   9
ENDBRANCH   7   8
ENDBRANCH   4   7
BRANCH   1  13
ATOM     13  C   UNL     1       0.443  -2.660  18.815  1.00  0.00    -0.074 C 
ATOM     14  C   UNL     1      -0.266  -1.515  18.794  1.00  0.00     0.008 C 
BRANCH  13  15
ATOM     15  C   UNL     1       0.374  -3.549  20.035  1.00  0.00     0.035 C 
BRANCH  15  16
ATOM     16  C   UNL     1       1.571  -3.315  20.970  1.00  0.00     0.032 CG0
ATOM     17  G   UNL     1       2.681  -4.308  20.711  1.00  0.00     0.000 G0
ENDBRANCH  15  16
ENDBRANCH  13  15
ENDBRANCH   1  13
TORSDOF 0
ENDMDL
MODEL 8
REMARK VINA RESULT:    -3.635      1.805      4.080
REMARK INTER + INTRA:          -5.210
REMARK INTER:                  -5.342
REMARK INTRA:                   0.132
REMARK UNBOUND:                -0.300
REMARK SMILES C=C1CCC=C(C)CC[C@@H]2[C@@H]1CC2(C)C
REMARK SMILES IDX 11 1 12 2 13 3 10 4 14 5 15 6 9 7 8 8 6 9 7 10 5 11 2 13
REMARK SMILES IDX 1 14 3 15 4 16
REMARK H PARENT
REMARK Flexibility Score: 70.00
ROOT
ATOM      1  C   UNL     1       4.395  -2.830  17.119  1.00  0.00     0.018 C 
ATOM      2  C   UNL     1       5.847  -2.627  17.567  1.00  0.00     0.015 C 
ATOM      3  C   UNL     1       5.368  -2.409  19.015  1.00  0.00    -0.031 C 
ATOM      4  C   UNL     1       3.897  -2.465  18.523  1.00  0.00     0.002 C 
ATOM      5  C   UNL     1       5.818  -3.552  19.950  1.00  0.00     0.011 C 
ATOM      6  C   UNL     1       5.765  -1.039  19.593  1.00  0.00     0.011 C 
ENDROOT
BRANCH   4   7
ATOM      7  C   UNL     1       2.962  -3.514  19.159  1.00  0.00     0.009 C 
BRANCH   7   8
ATOM      8  C   UNL     1       1.730  -3.798  18.277  1.00  0.00     0.030 C 
BRANCH   8   9
ATOM      9  C   UNL     1       0.721  -2.662  18.322  1.00  0.00    -0.077 C 
ATOM     10  C   UNL     1      -0.217  -2.600  19.503  1.00  0.00     0.039 C 
ATOM     11  C   UNL     1       0.585  -1.714  17.364  1.00  0.00    -0.028 CG0
ATOM     12  G   UNL     1       1.377  -1.595  16.082  1.00  0.00     0.000 G0
ENDBRANCH   8   9
ENDBRANCH   7   8
ENDBRANCH   4   7
BRANCH   1  13
ATOM     13  C   UNL     1       3.879  -1.920  16.015  1.00  0.00    -0.074 C 
ATOM     14  C   UNL     1       4.447  -1.875  14.795  1.00  0.00     0.008 C 
BRANCH  13  15
ATOM     15  C   UNL     1       2.761  -0.958  16.344  1.00  0.00     0.035 C 
BRANCH  15  16
ATOM     16  C   UNL     1       1.383  -1.587  16.086  1.00  0.00     0.032 CG0
ATOM     17  G   UNL     1       0.582  -1.715  17.362  1.00  0.00     0.000 G0
ENDBRANCH  15  16
ENDBRANCH  13  15
ENDBRANCH   1  13
TORSDOF 0
ENDMDL
MODEL 9
REMARK VINA RESULT:    -3.552      1.244      1.730
REMARK INTER + INTRA:          -5.098
REMARK INTER:                  -5.390
REMARK INTRA:                   0.292
REMARK UNBOUND:                -0.300
REMARK SMILES C=C1CCC=C(C)CC[C@@H]2[C@@H]1CC2(C)C
REMARK SMILES IDX 11 1 12 2 13 3 10 4 14 5 15 6 9 7 8 8 6 9 7 10 5 11 2 13
REMARK SMILES IDX 1 14 3 15 4 16
REMARK H PARENT
REMARK Flexibility Score: 70.00
ROOT
ATOM      1  C   UNL     1       3.224  -2.013  17.763  1.00  0.00     0.018 C 
ATOM      2  C   UNL     1       3.306  -1.308  16.403  1.00  0.00     0.015 C 
ATOM      3  C   UNL     1       2.063  -2.086  15.929  1.00  0.00    -0.031 C 
ATOM      4  C   UNL     1       2.083  -2.900  17.250  1.00  0.00     0.002 C 
ATOM      5  C   UNL     1       0.847  -1.158  15.719  1.00  0.00     0.011 C 
ATOM      6  C   UNL     1       2.318  -2.947  14.679  1.00  0.00     0.011 C 
ENDROOT
BRANCH   4   7
ATOM      7  C   UNL     1       0.817  -2.881  18.130  1.00  0.00     0.009 C 
BRANCH   7   8
ATOM      8  C   UNL     1       1.160  -2.881  19.633  1.00  0.00     0.030 C 
BRANCH   8   9
ATOM      9  C   UNL     1       1.354  -4.289  20.175  1.00  0.00    -0.077 C 
ATOM     10  C   UNL     1       0.120  -5.092  20.505  1.00  0.00     0.039 C 
ATOM     11  C   UNL     1       2.558  -4.866  20.407  1.00  0.00    -0.028 CG0
ATOM     12  G   UNL     1       3.920  -4.247  20.192  1.00  0.00     0.000 G0
ENDBRANCH   8   9
ENDBRANCH   7   8
ENDBRANCH   4   7
BRANCH   1  13
ATOM     13  C   UNL     1       4.457  -2.778  18.219  1.00  0.00    -0.074 C 
ATOM     14  C   UNL     1       5.699  -2.268  18.119  1.00  0.00     0.008 C 
BRANCH  13  15
ATOM     15  C   UNL     1       4.280  -4.202  18.695  1.00  0.00     0.035 C 
BRANCH  15  16
ATOM     16  C   UNL     1       3.921  -4.255  20.189  1.00  0.00     0.032 CG0
ATOM     17  G   UNL     1       2.560  -4.871  20.412  1.00  0.00     0.000 G0
ENDBRANCH  15  16
ENDBRANCH  13  15
ENDBRANCH   1  13
TORSDOF 0
ENDMDL
