MODEL 1
REMARK VINA RESULT:    -4.399      0.000      0.000
REMARK INTER + INTRA:          -5.663
REMARK INTER:                  -5.427
REMARK INTRA:                  -0.236
REMARK UNBOUND:                -0.236
REMARK SMILES CCCCCC(=O)[O-]
REMARK SMILES IDX 4 1 5 2 6 3 7 4 8 5 3 6 2 7 1 8
REMARK H PARENT
REMARK Flexibility Score: inf
ROOT
ATOM      1  C   UNL     1      18.490  -1.610  -2.940  1.00  0.00     0.006 C 
ENDROOT
BRANCH   1   2
ATOM      2  C   UNL     1      16.977  -1.421  -2.776  1.00  0.00     0.053 C 
BRANCH   2   3
ATOM      3  C   UNL     1      16.396  -0.598  -3.887  1.00  0.00     0.041 C 
ATOM      4  O   UNL     1      15.165  -0.658  -4.144  1.00  0.00    -0.550 OA
ATOM      5  O   UNL     1      17.212   0.258  -4.616  1.00  0.00    -0.550 OA
ENDBRANCH   2   3
ENDBRANCH   1   2
BRANCH   1   6
ATOM      6  C   UNL     1      18.831  -2.796  -3.854  1.00  0.00     0.000 C 
BRANCH   6   7
ATOM      7  C   UNL     1      19.758  -2.360  -4.996  1.00  0.00    -0.003 C 
ATOM      8  C   UNL     1      19.019  -2.347  -6.331  1.00  0.00     0.004 C 
ENDBRANCH   6   7
ENDBRANCH   1   6
TORSDOF 4
ENDMDL
MODEL 2
REMARK VINA RESULT:    -4.269     10.813     12.091
REMARK INTER + INTRA:          -5.503
REMARK INTER:                  -5.252
REMARK INTRA:                  -0.251
REMARK UNBOUND:                -0.236
REMARK SMILES CCCCCC(=O)[O-]
REMARK SMILES IDX 4 1 5 2 6 3 7 4 8 5 3 6 2 7 1 8
REMARK H PARENT
REMARK Flexibility Score: inf
ROOT
ATOM      1  C   UNL     1      26.590  -7.125  -6.171  1.00  0.00     0.006 C 
ENDROOT
BRANCH   1   2
ATOM      2  C   UNL     1      27.911  -7.570  -6.811  1.00  0.00     0.053 C 
BRANCH   2   3
ATOM      3  C   UNL     1      28.918  -7.981  -5.779  1.00  0.00     0.041 C 
ATOM      4  O   UNL     1      29.309  -9.176  -5.715  1.00  0.00    -0.550 OA
ATOM      5  O   UNL     1      29.446  -7.035  -4.910  1.00  0.00    -0.550 OA
ENDBRANCH   2   3
ENDBRANCH   1   2
BRANCH   1   6
ATOM      6  C   UNL     1      26.450  -5.597  -6.130  1.00  0.00     0.000 C 
BRANCH   6   7
ATOM      7  C   UNL     1      26.433  -5.087  -4.683  1.00  0.00    -0.003 C 
ATOM      8  C   UNL     1      26.189  -6.227  -3.699  1.00  0.00     0.004 C 
ENDBRANCH   6   7
ENDBRANCH   1   6
TORSDOF 4
ENDMDL
MODEL 3
REMARK VINA RESULT:    -4.217      1.127      1.578
REMARK INTER + INTRA:          -5.439
REMARK INTER:                  -5.207
REMARK INTRA:                  -0.232
REMARK UNBOUND:                -0.236
REMARK SMILES CCCCCC(=O)[O-]
REMARK SMILES IDX 4 1 5 2 6 3 7 4 8 5 3 6 2 7 1 8
REMARK H PARENT
REMARK Flexibility Score: inf
ROOT
ATOM      1  C   UNL     1      18.717  -2.777  -3.781  1.00  0.00     0.006 C 
ENDROOT
BRANCH   1   2
ATOM      2  C   UNL     1      18.394  -1.562  -2.902  1.00  0.00     0.053 C 
BRANCH   2   3
ATOM      3  C   UNL     1      16.959  -1.150  -3.028  1.00  0.00     0.041 C 
ATOM      4  O   UNL     1      16.249  -1.000  -1.999  1.00  0.00    -0.550 OA
ATOM      5  O   UNL     1      16.415  -0.901  -4.282  1.00  0.00    -0.550 OA
ENDBRANCH   2   3
ENDBRANCH   1   2
BRANCH   1   6
ATOM      6  C   UNL     1      19.753  -2.452  -4.866  1.00  0.00     0.000 C 
BRANCH   6   7
ATOM      7  C   UNL     1      19.082  -2.292  -6.236  1.00  0.00    -0.003 C 
ATOM      8  C   UNL     1      19.093  -0.836  -6.690  1.00  0.00     0.004 C 
ENDBRANCH   6   7
ENDBRANCH   1   6
TORSDOF 4
ENDMDL
MODEL 4
REMARK VINA RESULT:    -4.160      1.281      2.094
REMARK INTER + INTRA:          -5.369
REMARK INTER:                  -5.224
REMARK INTRA:                  -0.145
REMARK UNBOUND:                -0.236
REMARK SMILES CCCCCC(=O)[O-]
REMARK SMILES IDX 4 1 5 2 6 3 7 4 8 5 3 6 2 7 1 8
REMARK H PARENT
REMARK Flexibility Score: inf
ROOT
ATOM      1  C   UNL     1      17.499  -1.113  -5.965  1.00  0.00     0.006 C 
ENDROOT
BRANCH   1   2
ATOM      2  C   UNL     1      17.349  -0.200  -4.741  1.00  0.00     0.053 C 
BRANCH   2   3
ATOM      3  C   UNL     1      16.180  -0.597  -3.891  1.00  0.00     0.041 C 
ATOM      4  O   UNL     1      15.012  -0.548  -4.357  1.00  0.00    -0.550 OA
ATOM      5  O   UNL     1      16.388  -1.053  -2.595  1.00  0.00    -0.550 OA
ENDBRANCH   2   3
ENDBRANCH   1   2
BRANCH   1   6
ATOM      6  C   UNL     1      18.863  -1.817  -6.002  1.00  0.00     0.000 C 
BRANCH   6   7
ATOM      7  C   UNL     1      19.465  -1.920  -4.595  1.00  0.00    -0.003 C 
ATOM      8  C   UNL     1      19.070  -3.229  -3.920  1.00  0.00     0.004 C 
ENDBRANCH   6   7
ENDBRANCH   1   6
TORSDOF 4
ENDMDL
MODEL 5
REMARK VINA RESULT:    -4.104      1.852      2.649
REMARK INTER + INTRA:          -5.299
REMARK INTER:                  -5.107
REMARK INTRA:                  -0.192
REMARK UNBOUND:                -0.236
REMARK SMILES CCCCCC(=O)[O-]
REMARK SMILES IDX 4 1 5 2 6 3 7 4 8 5 3 6 2 7 1 8
REMARK H PARENT
REMARK Flexibility Score: inf
ROOT
ATOM      1  C   UNL     1      16.662   0.121  -5.212  1.00  0.00     0.006 C 
ENDROOT
BRANCH   1   2
ATOM      2  C   UNL     1      15.807  -0.716  -4.252  1.00  0.00     0.053 C 
BRANCH   2   3
ATOM      3  C   UNL     1      16.603  -1.203  -3.080  1.00  0.00     0.041 C 
ATOM      4  O   UNL     1      17.648  -1.883  -3.260  1.00  0.00    -0.550 OA
ATOM      5  O   UNL     1      16.208  -0.877  -1.788  1.00  0.00    -0.550 OA
ENDBRANCH   2   3
ENDBRANCH   1   2
BRANCH   1   6
ATOM      6  C   UNL     1      17.052  -0.662  -6.475  1.00  0.00     0.000 C 
BRANCH   6   7
ATOM      7  C   UNL     1      18.574  -0.831  -6.567  1.00  0.00    -0.003 C 
ATOM      8  C   UNL     1      18.975  -2.296  -6.433  1.00  0.00     0.004 C 
ENDBRANCH   6   7
ENDBRANCH   1   6
TORSDOF 4
ENDMDL
MODEL 6
REMARK VINA RESULT:    -4.083      1.509      1.864
REMARK INTER + INTRA:          -5.274
REMARK INTER:                  -5.150
REMARK INTRA:                  -0.125
REMARK UNBOUND:                -0.236
REMARK SMILES CCCCCC(=O)[O-]
REMARK SMILES IDX 4 1 5 2 6 3 7 4 8 5 3 6 2 7 1 8
REMARK H PARENT
REMARK Flexibility Score: inf
ROOT
ATOM      1  C   UNL     1      18.474  -2.266  -3.833  1.00  0.00     0.006 C 
ENDROOT
BRANCH   1   2
ATOM      2  C   UNL     1      17.471  -1.328  -4.516  1.00  0.00     0.053 C 
BRANCH   2   3
ATOM      3  C   UNL     1      16.359  -0.933  -3.591  1.00  0.00     0.041 C 
ATOM      4  O   UNL     1      15.242  -0.583  -4.055  1.00  0.00    -0.550 OA
ATOM      5  O   UNL     1      16.549  -0.985  -2.216  1.00  0.00    -0.550 OA
ENDBRANCH   2   3
ENDBRANCH   1   2
BRANCH   1   6
ATOM      6  C   UNL     1      19.885  -2.139  -4.425  1.00  0.00     0.000 C 
BRANCH   6   7
ATOM      7  C   UNL     1      19.978  -0.933  -5.367  1.00  0.00    -0.003 C 
ATOM      8  C   UNL     1      21.280  -0.167  -5.156  1.00  0.00     0.004 C 
ENDBRANCH   6   7
ENDBRANCH   1   6
TORSDOF 4
ENDMDL
MODEL 7
REMARK VINA RESULT:    -4.060     10.371     11.815
REMARK INTER + INTRA:          -5.246
REMARK INTER:                  -5.100
REMARK INTRA:                  -0.146
REMARK UNBOUND:                -0.236
REMARK SMILES CCCCCC(=O)[O-]
REMARK SMILES IDX 4 1 5 2 6 3 7 4 8 5 3 6 2 7 1 8
REMARK H PARENT
REMARK Flexibility Score: inf
ROOT
ATOM      1  C   UNL     1      27.751  -6.872  -4.008  1.00  0.00     0.006 C 
ENDROOT
BRANCH   1   2
ATOM      2  C   UNL     1      28.501  -6.628  -5.323  1.00  0.00     0.053 C 
BRANCH   2   3
ATOM      3  C   UNL     1      28.473  -7.835  -6.211  1.00  0.00     0.041 C 
ATOM      4  O   UNL     1      27.802  -7.823  -7.276  1.00  0.00    -0.550 OA
ATOM      5  O   UNL     1      29.215  -8.961  -5.877  1.00  0.00    -0.550 OA
ENDBRANCH   2   3
ENDBRANCH   1   2
BRANCH   1   6
ATOM      6  C   UNL     1      26.424  -6.102  -3.945  1.00  0.00     0.000 C 
BRANCH   6   7
ATOM      7  C   UNL     1      26.347  -5.049  -5.057  1.00  0.00    -0.003 C 
ATOM      8  C   UNL     1      26.522  -3.641  -4.497  1.00  0.00     0.004 C 
ENDBRANCH   6   7
ENDBRANCH   1   6
TORSDOF 4
ENDMDL
MODEL 8
REMARK VINA RESULT:    -4.020      9.772     11.204
REMARK INTER + INTRA:          -5.196
REMARK INTER:                  -4.952
REMARK INTRA:                  -0.244
REMARK UNBOUND:                -0.236
REMARK SMILES CCCCCC(=O)[O-]
REMARK SMILES IDX 4 1 5 2 6 3 7 4 8 5 3 6 2 7 1 8
REMARK H PARENT
REMARK Flexibility Score: inf
ROOT
ATOM      1  C   UNL     1      26.722  -7.260  -6.317  1.00  0.00     0.006 C 
ENDROOT
BRANCH   1   2
ATOM      2  C   UNL     1      26.530  -5.744  -6.191  1.00  0.00     0.053 C 
BRANCH   2   3
ATOM      3  C   UNL     1      26.466  -5.309  -4.758  1.00  0.00     0.041 C 
ATOM      4  O   UNL     1      26.432  -4.084  -4.468  1.00  0.00    -0.550 OA
ATOM      5  O   UNL     1      26.410  -6.258  -3.746  1.00  0.00    -0.550 OA
ENDBRANCH   2   3
ENDBRANCH   1   2
BRANCH   1   6
ATOM      6  C   UNL     1      28.139  -7.631  -6.777  1.00  0.00     0.000 C 
BRANCH   6   7
ATOM      7  C   UNL     1      28.882  -8.414  -5.687  1.00  0.00    -0.003 C 
ATOM      8  C   UNL     1      29.642  -7.475  -4.755  1.00  0.00     0.004 C 
ENDBRANCH   6   7
ENDBRANCH   1   6
TORSDOF 4
ENDMDL
MODEL 9
REMARK VINA RESULT:    -3.968     10.791     11.847
REMARK INTER + INTRA:          -5.132
REMARK INTER:                  -4.913
REMARK INTRA:                  -0.219
REMARK UNBOUND:                -0.236
REMARK SMILES CCCCCC(=O)[O-]
REMARK SMILES IDX 4 1 5 2 6 3 7 4 8 5 3 6 2 7 1 8
REMARK H PARENT
REMARK Flexibility Score: inf
ROOT
ATOM      1  C   UNL     1      26.857  -5.915  -5.260  1.00  0.00     0.006 C 
ENDROOT
BRANCH   1   2
ATOM      2  C   UNL     1      26.466  -7.041  -6.226  1.00  0.00     0.053 C 
BRANCH   2   3
ATOM      3  C   UNL     1      27.432  -7.156  -7.367  1.00  0.00     0.041 C 
ATOM      4  O   UNL     1      27.361  -6.360  -8.340  1.00  0.00    -0.550 OA
ATOM      5  O   UNL     1      28.430  -8.121  -7.336  1.00  0.00    -0.550 OA
ENDBRANCH   2   3
ENDBRANCH   1   2
BRANCH   1   6
ATOM      6  C   UNL     1      27.115  -6.433  -3.838  1.00  0.00     0.000 C 
BRANCH   6   7
ATOM      7  C   UNL     1      28.352  -7.341  -3.801  1.00  0.00    -0.003 C 
ATOM      8  C   UNL     1      29.599  -6.592  -4.260  1.00  0.00     0.004 C 
ENDBRANCH   6   7
ENDBRANCH   1   6
TORSDOF 4
ENDMDL
