MODEL 1
REMARK VINA RESULT:    -4.885      0.000      0.000
REMARK INTER + INTRA:          -4.885
REMARK INTER:                  -4.885
REMARK INTRA:                   0.000
REMARK UNBOUND:                 0.000
REMARK SMILES CC1=CC[C@@]2(C)CCCC(C)(C)[C@]23C[C@H]13
REMARK SMILES IDX 1 1 2 2 3 3 4 4 5 5 7 6 8 7 9 8 10 9 13 10 15 11 14 12 11 13
REMARK SMILES IDX 12 14 6 15
REMARK H PARENT
REMARK Flexibility Score: inf
ROOT
ATOM      1  C   UNL     1      11.977   6.126  21.660  1.00  0.00     0.039 C 
ATOM      2  C   UNL     1      11.994   6.242  20.159  1.00  0.00    -0.074 C 
ATOM      3  C   UNL     1      11.630   7.400  19.601  1.00  0.00    -0.027 C 
ATOM      4  C   UNL     1      11.428   7.532  18.132  1.00  0.00     0.034 C 
ATOM      5  C   UNL     1      12.471   6.765  17.257  1.00  0.00    -0.022 C 
ATOM      6  C   UNL     1      13.761   7.630  17.071  1.00  0.00     0.008 C 
ATOM      7  C   UNL     1      14.897   7.214  18.011  1.00  0.00     0.001 C 
ATOM      8  C   UNL     1      15.395   5.781  17.727  1.00  0.00     0.007 C 
ATOM      9  C   UNL     1      14.266   4.740  17.405  1.00  0.00    -0.029 C 
ATOM     10  C   UNL     1      12.865   5.347  17.851  1.00  0.00    -0.012 C 
ATOM     11  C   UNL     1      12.560   5.099  19.349  1.00  0.00     0.022 C 
ATOM     12  C   UNL     1      11.680   4.463  18.277  1.00  0.00     0.017 C 
ATOM     13  C   UNL     1      14.653   3.388  18.081  1.00  0.00     0.012 C 
ATOM     14  C   UNL     1      14.251   4.452  15.882  1.00  0.00     0.012 C 
ATOM     15  C   UNL     1      11.780   6.596  15.875  1.00  0.00     0.012 C 
ENDROOT
TORSDOF 0
ENDMDL
MODEL 2
REMARK VINA RESULT:    -4.841      1.441      3.552
REMARK INTER + INTRA:          -4.841
REMARK INTER:                  -4.841
REMARK INTRA:                   0.000
REMARK UNBOUND:                 0.000
REMARK SMILES CC1=CC[C@@]2(C)CCCC(C)(C)[C@]23C[C@H]13
REMARK SMILES IDX 1 1 2 2 3 3 4 4 5 5 7 6 8 7 9 8 10 9 13 10 15 11 14 12 11 13
REMARK SMILES IDX 12 14 6 15
REMARK H PARENT
REMARK Flexibility Score: inf
ROOT
ATOM      1  C   UNL     1      10.875   7.468  15.960  1.00  0.00     0.039 C 
ATOM      2  C   UNL     1      11.718   6.610  16.865  1.00  0.00    -0.074 C 
ATOM      3  C   UNL     1      11.322   5.358  17.113  1.00  0.00    -0.027 C 
ATOM      4  C   UNL     1      11.986   4.517  18.147  1.00  0.00     0.034 C 
ATOM      5  C   UNL     1      13.540   4.661  18.207  1.00  0.00    -0.022 C 
ATOM      6  C   UNL     1      14.210   3.729  17.143  1.00  0.00     0.008 C 
ATOM      7  C   UNL     1      14.629   4.480  15.875  1.00  0.00     0.001 C 
ATOM      8  C   UNL     1      15.722   5.533  16.153  1.00  0.00     0.007 C 
ATOM      9  C   UNL     1      15.533   6.348  17.481  1.00  0.00    -0.029 C 
ATOM     10  C   UNL     1      14.040   6.152  17.997  1.00  0.00    -0.012 C 
ATOM     11  C   UNL     1      13.050   7.143  17.338  1.00  0.00     0.022 C 
ATOM     12  C   UNL     1      13.312   7.213  18.840  1.00  0.00     0.017 C 
ATOM     13  C   UNL     1      15.954   7.824  17.203  1.00  0.00     0.012 C 
ATOM     14  C   UNL     1      16.529   5.828  18.549  1.00  0.00     0.012 C 
ATOM     15  C   UNL     1      13.929   4.159  19.626  1.00  0.00     0.012 C 
ENDROOT
TORSDOF 0
ENDMDL
MODEL 3
REMARK VINA RESULT:    -4.809      1.347      3.113
REMARK INTER + INTRA:          -4.809
REMARK INTER:                  -4.809
REMARK INTRA:                   0.000
REMARK UNBOUND:                 0.000
REMARK SMILES CC1=CC[C@@]2(C)CCCC(C)(C)[C@]23C[C@H]13
REMARK SMILES IDX 1 1 2 2 3 3 4 4 5 5 7 6 8 7 9 8 10 9 13 10 15 11 14 12 11 13
REMARK SMILES IDX 12 14 6 15
REMARK H PARENT
REMARK Flexibility Score: inf
ROOT
ATOM      1  C   UNL     1      14.119   3.539  19.304  1.00  0.00     0.039 C 
ATOM      2  C   UNL     1      13.304   4.471  18.448  1.00  0.00    -0.074 C 
ATOM      3  C   UNL     1      11.972   4.446  18.562  1.00  0.00    -0.027 C 
ATOM      4  C   UNL     1      11.092   5.185  17.617  1.00  0.00     0.034 C 
ATOM      5  C   UNL     1      11.617   6.598  17.203  1.00  0.00    -0.022 C 
ATOM      6  C   UNL     1      11.211   7.661  18.277  1.00  0.00     0.008 C 
ATOM      7  C   UNL     1      12.354   8.000  19.239  1.00  0.00     0.001 C 
ATOM      8  C   UNL     1      13.543   8.670  18.519  1.00  0.00     0.007 C 
ATOM      9  C   UNL     1      13.897   8.060  17.117  1.00  0.00    -0.029 C 
ATOM     10  C   UNL     1      13.187   6.643  16.980  1.00  0.00    -0.012 C 
ATOM     11  C   UNL     1      14.022   5.497  17.603  1.00  0.00     0.022 C 
ATOM     12  C   UNL     1      13.757   5.516  16.101  1.00  0.00     0.017 C 
ATOM     13  C   UNL     1      15.451   8.043  16.979  1.00  0.00     0.012 C 
ATOM     14  C   UNL     1      13.392   9.009  16.002  1.00  0.00     0.012 C 
ATOM     15  C   UNL     1      10.876   6.922  15.875  1.00  0.00     0.012 C 
ENDROOT
TORSDOF 0
ENDMDL
MODEL 4
REMARK VINA RESULT:    -4.741      1.084      3.911
REMARK INTER + INTRA:          -4.741
REMARK INTER:                  -4.741
REMARK INTRA:                   0.000
REMARK UNBOUND:                 0.000
REMARK SMILES CC1=CC[C@@]2(C)CCCC(C)(C)[C@]23C[C@H]13
REMARK SMILES IDX 1 1 2 2 3 3 4 4 5 5 7 6 8 7 9 8 10 9 13 10 15 11 14 12 11 13
REMARK SMILES IDX 12 14 6 15
REMARK H PARENT
REMARK Flexibility Score: inf
ROOT
ATOM      1  C   UNL     1      15.138   2.886  18.325  1.00  0.00     0.039 C 
ATOM      2  C   UNL     1      14.667   4.214  17.796  1.00  0.00    -0.074 C 
ATOM      3  C   UNL     1      14.611   4.394  16.473  1.00  0.00    -0.027 C 
ATOM      4  C   UNL     1      14.350   5.733  15.876  1.00  0.00     0.034 C 
ATOM      5  C   UNL     1      13.278   6.586  16.626  1.00  0.00    -0.022 C 
ATOM      6  C   UNL     1      11.841   6.187  16.150  1.00  0.00     0.008 C 
ATOM      7  C   UNL     1      11.133   5.240  17.124  1.00  0.00     0.001 C 
ATOM      8  C   UNL     1      10.875   5.897  18.496  1.00  0.00     0.007 C 
ATOM      9  C   UNL     1      12.050   6.788  19.034  1.00  0.00    -0.029 C 
ATOM     10  C   UNL     1      13.367   6.456  18.205  1.00  0.00    -0.012 C 
ATOM     11  C   UNL     1      14.134   5.237  18.772  1.00  0.00     0.022 C 
ATOM     12  C   UNL     1      14.778   6.621  18.797  1.00  0.00     0.017 C 
ATOM     13  C   UNL     1      12.156   6.562  20.574  1.00  0.00     0.012 C 
ATOM     14  C   UNL     1      11.683   8.284  18.859  1.00  0.00     0.012 C 
ATOM     15  C   UNL     1      13.560   8.051  16.190  1.00  0.00     0.012 C 
ENDROOT
TORSDOF 0
ENDMDL
MODEL 5
REMARK VINA RESULT:    -4.622      1.317      2.215
REMARK INTER + INTRA:          -4.622
REMARK INTER:                  -4.622
REMARK INTRA:                   0.000
REMARK UNBOUND:                 0.000
REMARK SMILES CC1=CC[C@@]2(C)CCCC(C)(C)[C@]23C[C@H]13
REMARK SMILES IDX 1 1 2 2 3 3 4 4 5 5 7 6 8 7 9 8 10 9 13 10 15 11 14 12 11 13
REMARK SMILES IDX 12 14 6 15
REMARK H PARENT
REMARK Flexibility Score: inf
ROOT
ATOM      1  C   UNL     1      13.802   2.800  20.969  1.00  0.00     0.039 C 
ATOM      2  C   UNL     1      13.184   4.014  20.330  1.00  0.00    -0.074 C 
ATOM      3  C   UNL     1      12.810   5.031  21.112  1.00  0.00    -0.027 C 
ATOM      4  C   UNL     1      12.015   6.174  20.585  1.00  0.00     0.034 C 
ATOM      5  C   UNL     1      12.433   6.658  19.159  1.00  0.00    -0.022 C 
ATOM      6  C   UNL     1      13.637   7.652  19.257  1.00  0.00     0.008 C 
ATOM      7  C   UNL     1      14.983   6.988  18.947  1.00  0.00     0.001 C 
ATOM      8  C   UNL     1      15.065   6.485  17.491  1.00  0.00     0.007 C 
ATOM      9  C   UNL     1      13.754   5.815  16.947  1.00  0.00    -0.029 C 
ATOM     10  C   UNL     1      12.806   5.468  18.178  1.00  0.00    -0.012 C 
ATOM     11  C   UNL     1      13.146   4.101  18.822  1.00  0.00     0.022 C 
ATOM     12  C   UNL     1      11.796   4.308  18.140  1.00  0.00     0.017 C 
ATOM     13  C   UNL     1      14.168   4.600  16.061  1.00  0.00     0.012 C 
ATOM     14  C   UNL     1      13.032   6.799  15.992  1.00  0.00     0.012 C 
ATOM     15  C   UNL     1      11.192   7.427  18.623  1.00  0.00     0.012 C 
ENDROOT
TORSDOF 0
ENDMDL
MODEL 6
REMARK VINA RESULT:    -4.607      1.184      3.270
REMARK INTER + INTRA:          -4.607
REMARK INTER:                  -4.607
REMARK INTRA:                   0.000
REMARK UNBOUND:                 0.000
REMARK SMILES CC1=CC[C@@]2(C)CCCC(C)(C)[C@]23C[C@H]13
REMARK SMILES IDX 1 1 2 2 3 3 4 4 5 5 7 6 8 7 9 8 10 9 13 10 15 11 14 12 11 13
REMARK SMILES IDX 12 14 6 15
REMARK H PARENT
REMARK Flexibility Score: inf
ROOT
ATOM      1  C   UNL     1      11.277   9.113  20.494  1.00  0.00     0.039 C 
ATOM      2  C   UNL     1      11.955   7.861  20.006  1.00  0.00    -0.074 C 
ATOM      3  C   UNL     1      11.636   6.695  20.575  1.00  0.00    -0.027 C 
ATOM      4  C   UNL     1      12.400   5.450  20.290  1.00  0.00     0.034 C 
ATOM      5  C   UNL     1      12.830   5.273  18.798  1.00  0.00    -0.022 C 
ATOM      6  C   UNL     1      11.661   4.643  17.971  1.00  0.00     0.008 C 
ATOM      7  C   UNL     1      10.875   5.682  17.164  1.00  0.00     0.001 C 
ATOM      8  C   UNL     1      11.742   6.359  16.082  1.00  0.00     0.007 C 
ATOM      9  C   UNL     1      13.207   6.704  16.527  1.00  0.00    -0.029 C 
ATOM     10  C   UNL     1      13.292   6.628  18.115  1.00  0.00    -0.012 C 
ATOM     11  C   UNL     1      12.857   7.948  18.796  1.00  0.00     0.022 C 
ATOM     12  C   UNL     1      14.297   7.463  18.927  1.00  0.00     0.017 C 
ATOM     13  C   UNL     1      13.586   8.082  15.904  1.00  0.00     0.012 C 
ATOM     14  C   UNL     1      14.189   5.681  15.901  1.00  0.00     0.012 C 
ATOM     15  C   UNL     1      14.011   4.263  18.844  1.00  0.00     0.012 C 
ENDROOT
TORSDOF 0
ENDMDL
MODEL 7
REMARK VINA RESULT:    -4.465      1.270      4.046
REMARK INTER + INTRA:          -4.465
REMARK INTER:                  -4.465
REMARK INTRA:                   0.000
REMARK UNBOUND:                 0.000
REMARK SMILES CC1=CC[C@@]2(C)CCCC(C)(C)[C@]23C[C@H]13
REMARK SMILES IDX 1 1 2 2 3 3 4 4 5 5 7 6 8 7 9 8 10 9 13 10 15 11 14 12 11 13
REMARK SMILES IDX 12 14 6 15
REMARK H PARENT
REMARK Flexibility Score: inf
ROOT
ATOM      1  C   UNL     1      16.797   5.994  16.528  1.00  0.00     0.039 C 
ATOM      2  C   UNL     1      15.316   6.153  16.746  1.00  0.00    -0.074 C 
ATOM      3  C   UNL     1      14.474   5.558  15.895  1.00  0.00    -0.027 C 
ATOM      4  C   UNL     1      13.011   5.830  15.923  1.00  0.00     0.034 C 
ATOM      5  C   UNL     1      12.398   5.963  17.355  1.00  0.00    -0.022 C 
ATOM      6  C   UNL     1      12.059   4.548  17.930  1.00  0.00     0.008 C 
ATOM      7  C   UNL     1      13.120   4.035  18.909  1.00  0.00     0.001 C 
ATOM      8  C   UNL     1      13.220   4.910  20.175  1.00  0.00     0.007 C 
ATOM      9  C   UNL     1      13.117   6.456  19.921  1.00  0.00    -0.029 C 
ATOM     10  C   UNL     1      13.339   6.737  18.370  1.00  0.00    -0.012 C 
ATOM     11  C   UNL     1      14.838   6.853  17.997  1.00  0.00     0.022 C 
ATOM     12  C   UNL     1      13.919   8.062  17.847  1.00  0.00     0.017 C 
ATOM     13  C   UNL     1      14.122   7.168  20.879  1.00  0.00     0.012 C 
ATOM     14  C   UNL     1      11.713   6.954  20.347  1.00  0.00     0.012 C 
ATOM     15  C   UNL     1      11.072   6.748  17.146  1.00  0.00     0.012 C 
ENDROOT
TORSDOF 0
ENDMDL
MODEL 8
REMARK VINA RESULT:    -4.270      1.392      3.660
REMARK INTER + INTRA:          -4.270
REMARK INTER:                  -4.270
REMARK INTRA:                   0.000
REMARK UNBOUND:                 0.000
REMARK SMILES CC1=CC[C@@]2(C)CCCC(C)(C)[C@]23C[C@H]13
REMARK SMILES IDX 1 1 2 2 3 3 4 4 5 5 7 6 8 7 9 8 10 9 13 10 15 11 14 12 11 13
REMARK SMILES IDX 12 14 6 15
REMARK H PARENT
REMARK Flexibility Score: inf
ROOT
ATOM      1  C   UNL     1      15.479   9.906  16.712  1.00  0.00     0.039 C 
ATOM      2  C   UNL     1      14.469   9.129  17.513  1.00  0.00    -0.074 C 
ATOM      3  C   UNL     1      13.533   9.801  18.190  1.00  0.00    -0.027 C 
ATOM      4  C   UNL     1      12.628   9.123  19.158  1.00  0.00     0.034 C 
ATOM      5  C   UNL     1      12.124   7.715  18.706  1.00  0.00    -0.022 C 
ATOM      6  C   UNL     1      10.875   7.863  17.775  1.00  0.00     0.008 C 
ATOM      7  C   UNL     1      11.223   7.731  16.288  1.00  0.00     0.001 C 
ATOM      8  C   UNL     1      11.756   6.327  15.935  1.00  0.00     0.007 C 
ATOM      9  C   UNL     1      12.734   5.705  16.994  1.00  0.00    -0.029 C 
ATOM     10  C   UNL     1      13.236   6.858  17.969  1.00  0.00    -0.012 C 
ATOM     11  C   UNL     1      14.459   7.622  17.403  1.00  0.00     0.022 C 
ATOM     12  C   UNL     1      14.599   6.800  18.681  1.00  0.00     0.017 C 
ATOM     13  C   UNL     1      13.858   4.947  16.222  1.00  0.00     0.012 C 
ATOM     14  C   UNL     1      11.985   4.619  17.808  1.00  0.00     0.012 C 
ATOM     15  C   UNL     1      11.685   7.011  20.021  1.00  0.00     0.012 C 
ENDROOT
TORSDOF 0
ENDMDL
MODEL 9
REMARK VINA RESULT:    -3.868      1.277      3.983
REMARK INTER + INTRA:          -3.868
REMARK INTER:                  -3.868
REMARK INTRA:                   0.000
REMARK UNBOUND:                 0.000
REMARK SMILES CC1=CC[C@@]2(C)CCCC(C)(C)[C@]23C[C@H]13
REMARK SMILES IDX 1 1 2 2 3 3 4 4 5 5 7 6 8 7 9 8 10 9 13 10 15 11 14 12 11 13
REMARK SMILES IDX 12 14 6 15
REMARK H PARENT
REMARK Flexibility Score: inf
ROOT
ATOM      1  C   UNL     1      15.873   9.174  18.712  1.00  0.00     0.039 C 
ATOM      2  C   UNL     1      15.111   7.898  18.475  1.00  0.00    -0.074 C 
ATOM      3  C   UNL     1      15.232   6.905  19.361  1.00  0.00    -0.027 C 
ATOM      4  C   UNL     1      14.675   5.549  19.099  1.00  0.00     0.034 C 
ATOM      5  C   UNL     1      13.278   5.540  18.399  1.00  0.00    -0.022 C 
ATOM      6  C   UNL     1      12.142   5.707  19.461  1.00  0.00     0.008 C 
ATOM      7  C   UNL     1      11.606   7.141  19.538  1.00  0.00     0.001 C 
ATOM      8  C   UNL     1      10.923   7.580  18.226  1.00  0.00     0.007 C 
ATOM      9  C   UNL     1      11.652   7.120  16.914  1.00  0.00    -0.029 C 
ATOM     10  C   UNL     1      13.129   6.658  17.283  1.00  0.00    -0.012 C 
ATOM     11  C   UNL     1      14.127   7.841  17.330  1.00  0.00     0.022 C 
ATOM     12  C   UNL     1      14.295   6.744  16.282  1.00  0.00     0.017 C 
ATOM     13  C   UNL     1      11.556   8.282  15.878  1.00  0.00     0.012 C 
ATOM     14  C   UNL     1      10.875   5.936  16.283  1.00  0.00     0.012 C 
ATOM     15  C   UNL     1      13.164   4.126  17.763  1.00  0.00     0.012 C 
ENDROOT
TORSDOF 0
ENDMDL
