MODEL 1
REMARK VINA RESULT:    -6.267      0.000      0.000
REMARK INTER + INTRA:         -10.982
REMARK INTER:                  -9.198
REMARK INTRA:                  -1.784
REMARK UNBOUND:                -1.784
REMARK SMILES O=c1c(O[C@H]2O[C@@H](CO)[C@H](O)[C@H](O)[C@H]2O)c(-c2ccc(O)c(O)c2)oc2cc(O)cc(O)c12
REMARK SMILES IDX 4 1 3 2 16 3 25 4 2 5 26 6 1 7 33 8 27 9 31 10 28 11 30 12
REMARK SMILES IDX 17 13 18 14 19 15 20 16 24 17 22 18 21 19 23 21 32 23 29 25
REMARK SMILES IDX 5 27 14 28 6 29 12 30 7 31 10 32 15 33 13 35 8 37 9 38 11 40
REMARK H PARENT 21 20 23 22 32 24 29 26 15 34 13 36 9 39 11 41
REMARK Flexibility Score: inf
ROOT
ATOM      1  O   UNL     1       9.821  -3.756 -27.942  1.00  0.00    -0.454 OA
ENDROOT
BRANCH   1   2
ATOM      2  C   UNL     1      10.745  -2.694 -27.814  1.00  0.00     0.214 A 
ATOM      3  C   UNL     1      10.279  -1.463 -27.317  1.00  0.00     0.180 A 
ATOM      4  O   UNL     1      11.060  -0.393 -27.333  1.00  0.00    -0.452 OA
ATOM      5  C   UNL     1      12.104  -2.779 -28.201  1.00  0.00     0.239 A 
ATOM      6  C   UNL     1      12.323  -0.417 -27.730  1.00  0.00     0.146 A 
ATOM      7  O   UNL     1      12.556  -3.861 -28.651  1.00  0.00    -0.285 OA
ATOM      8  C   UNL     1      12.933  -1.632 -28.128  1.00  0.00     0.111 A 
ATOM      9  C   UNL     1      13.044   0.780 -27.741  1.00  0.00     0.094 A 
ATOM     10  C   UNL     1      14.318  -1.615 -28.477  1.00  0.00     0.134 A 
ATOM     11  C   UNL     1      14.382   0.793 -28.142  1.00  0.00     0.123 A 
ATOM     12  C   UNL     1      15.006  -0.396 -28.515  1.00  0.00     0.093 A 
BRANCH   3  13
ATOM     13  C   UNL     1       8.926  -1.323 -26.747  1.00  0.00     0.025 A 
ATOM     14  C   UNL     1       7.869  -0.890 -27.557  1.00  0.00     0.016 A 
ATOM     15  C   UNL     1       6.594  -0.710 -27.013  1.00  0.00     0.051 A 
ATOM     16  C   UNL     1       6.366  -0.943 -25.650  1.00  0.00     0.157 A 
ATOM     17  C   UNL     1       8.707  -1.525 -25.374  1.00  0.00     0.062 A 
ATOM     18  C   UNL     1       7.431  -1.341 -24.825  1.00  0.00     0.158 A 
BRANCH  16  19
ATOM     19  O   UNL     1       5.090  -0.769 -25.112  1.00  0.00    -0.504 OA
ATOM     20  H   UNL     1       4.432  -1.539 -25.046  1.00  0.00     0.293 HD
ENDBRANCH  16  19
BRANCH  18  21
ATOM     21  O   UNL     1       7.241  -1.559 -23.464  1.00  0.00    -0.504 OA
ATOM     22  H   UNL     1       7.983  -1.906 -22.864  1.00  0.00     0.293 HD
ENDBRANCH  18  21
ENDBRANCH   3  13
BRANCH  10  23
ATOM     23  O   UNL     1      15.064  -2.762 -28.759  1.00  0.00    -0.507 OA
ATOM     24  H   UNL     1      15.522  -3.329 -28.062  1.00  0.00     0.293 HD
ENDBRANCH  10  23
BRANCH  11  25
ATOM     25  O   UNL     1      15.106   1.981 -28.161  1.00  0.00    -0.508 OA
ATOM     26  H   UNL     1      15.137   2.566 -28.989  1.00  0.00     0.293 HD
ENDBRANCH  11  25
ENDBRANCH   1   2
BRANCH   1  27
ATOM     27  C   UNL     1       9.546  -4.776 -26.975  1.00  0.00     0.339 C 
ATOM     28  C   UNL     1      10.051  -6.195 -27.404  1.00  0.00     0.214 C 
ATOM     29  O   UNL     1       8.171  -4.727 -26.618  1.00  0.00    -0.332 OA
ATOM     30  C   UNL     1       8.911  -7.159 -27.792  1.00  0.00     0.180 C 
ATOM     31  C   UNL     1       7.251  -5.273 -27.563  1.00  0.00     0.179 C 
ATOM     32  C   UNL     1       7.800  -6.382 -28.493  1.00  0.00     0.177 C 
BRANCH  28  33
ATOM     33  O   UNL     1      10.995  -6.118 -28.443  1.00  0.00    -0.384 OA
ATOM     34  H   UNL     1      10.635  -6.609 -29.224  1.00  0.00     0.211 HD
ENDBRANCH  28  33
BRANCH  30  35
ATOM     35  O   UNL     1       8.417  -7.870 -26.682  1.00  0.00    -0.387 OA
ATOM     36  H   UNL     1       8.972  -8.685 -26.556  1.00  0.00     0.211 HD
ENDBRANCH  30  35
BRANCH  31  37
ATOM     37  C   UNL     1       6.532  -4.160 -28.341  1.00  0.00     0.191 C 
BRANCH  37  38
ATOM     38  O   UNL     1       5.443  -4.670 -29.065  1.00  0.00    -0.394 OA
ATOM     39  H   UNL     1       4.827  -3.914 -29.256  1.00  0.00     0.210 HD
ENDBRANCH  37  38
ENDBRANCH  31  37
BRANCH  32  40
ATOM     40  O   UNL     1       6.760  -7.250 -28.863  1.00  0.00    -0.387 OA
ATOM     41  H   UNL     1       6.401  -7.642 -28.024  1.00  0.00     0.211 HD
ENDBRANCH  32  40
ENDBRANCH   1  27
TORSDOF 12
ENDMDL
MODEL 2
REMARK VINA RESULT:    -6.131      2.128      5.952
REMARK INTER + INTRA:         -10.783
REMARK INTER:                  -9.542
REMARK INTRA:                  -1.241
REMARK UNBOUND:                -1.784
REMARK SMILES O=c1c(O[C@H]2O[C@@H](CO)[C@H](O)[C@H](O)[C@H]2O)c(-c2ccc(O)c(O)c2)oc2cc(O)cc(O)c12
REMARK SMILES IDX 4 1 3 2 16 3 25 4 2 5 26 6 1 7 33 8 27 9 31 10 28 11 30 12
REMARK SMILES IDX 17 13 18 14 19 15 20 16 24 17 22 18 21 19 23 21 32 23 29 25
REMARK SMILES IDX 5 27 14 28 6 29 12 30 7 31 10 32 15 33 13 35 8 37 9 38 11 40
REMARK H PARENT 21 20 23 22 32 24 29 26 15 34 13 36 9 39 11 41
REMARK Flexibility Score: inf
ROOT
ATOM      1  O   UNL     1       9.273  -4.366 -27.607  1.00  0.00    -0.454 OA
ENDROOT
BRANCH   1   2
ATOM      2  C   UNL     1       8.389  -3.334 -27.999  1.00  0.00     0.214 A 
ATOM      3  C   UNL     1       8.911  -2.039 -28.166  1.00  0.00     0.180 A 
ATOM      4  O   UNL     1       8.103  -1.010 -28.368  1.00  0.00    -0.452 OA
ATOM      5  C   UNL     1       6.999  -3.517 -28.188  1.00  0.00     0.239 A 
ATOM      6  C   UNL     1       6.790  -1.128 -28.505  1.00  0.00     0.146 A 
ATOM      7  O   UNL     1       6.496  -4.659 -28.045  1.00  0.00    -0.285 OA
ATOM      8  C   UNL     1       6.174  -2.404 -28.483  1.00  0.00     0.111 A 
ATOM      9  C   UNL     1       6.028   0.030 -28.678  1.00  0.00     0.094 A 
ATOM     10  C   UNL     1       4.765  -2.481 -28.708  1.00  0.00     0.134 A 
ATOM     11  C   UNL     1       4.643  -0.056 -28.836  1.00  0.00     0.123 A 
ATOM     12  C   UNL     1       4.021  -1.303 -28.842  1.00  0.00     0.093 A 
BRANCH   3  13
ATOM     13  C   UNL     1      10.364  -1.783 -28.143  1.00  0.00     0.025 A 
ATOM     14  C   UNL     1      11.188  -2.348 -29.125  1.00  0.00     0.016 A 
ATOM     15  C   UNL     1      12.570  -2.147 -29.083  1.00  0.00     0.051 A 
ATOM     16  C   UNL     1      13.146  -1.396 -28.049  1.00  0.00     0.157 A 
ATOM     17  C   UNL     1      10.943  -1.058 -27.088  1.00  0.00     0.062 A 
ATOM     18  C   UNL     1      12.329  -0.859 -27.041  1.00  0.00     0.158 A 
BRANCH  16  19
ATOM     19  O   UNL     1      14.527  -1.192 -28.015  1.00  0.00    -0.504 OA
ATOM     20  H   UNL     1      15.180  -1.965 -28.095  1.00  0.00     0.293 HD
ENDBRANCH  16  19
BRANCH  18  21
ATOM     21  O   UNL     1      12.873  -0.127 -25.990  1.00  0.00    -0.504 OA
ATOM     22  H   UNL     1      13.612  -0.496 -25.401  1.00  0.00     0.293 HD
ENDBRANCH  18  21
ENDBRANCH   3  13
BRANCH  10  23
ATOM     23  O   UNL     1       4.062  -3.682 -28.841  1.00  0.00    -0.507 OA
ATOM     24  H   UNL     1       4.496  -4.589 -28.919  1.00  0.00     0.293 HD
ENDBRANCH  10  23
BRANCH  11  25
ATOM     25  O   UNL     1       3.875   1.092 -29.004  1.00  0.00    -0.508 OA
ATOM     26  H   UNL     1       4.216   1.881 -29.543  1.00  0.00     0.293 HD
ENDBRANCH  11  25
ENDBRANCH   1   2
BRANCH   1  27
ATOM     27  C   UNL     1      10.028  -4.435 -26.392  1.00  0.00     0.339 C 
ATOM     28  C   UNL     1      11.378  -5.216 -26.539  1.00  0.00     0.214 C 
ATOM     29  O   UNL     1       9.190  -4.906 -25.344  1.00  0.00    -0.332 OA
ATOM     30  C   UNL     1      11.365  -6.596 -25.852  1.00  0.00     0.180 C 
ATOM     31  C   UNL     1       8.912  -6.306 -25.336  1.00  0.00     0.179 C 
ATOM     32  C   UNL     1       9.979  -7.221 -25.985  1.00  0.00     0.177 C 
BRANCH  28  33
ATOM     33  O   UNL     1      11.755  -5.350 -27.887  1.00  0.00    -0.384 OA
ATOM     34  H   UNL     1      12.052  -6.283 -28.033  1.00  0.00     0.211 HD
ENDBRANCH  28  33
BRANCH  30  35
ATOM     35  O   UNL     1      11.765  -6.520 -24.504  1.00  0.00    -0.387 OA
ATOM     36  H   UNL     1      11.128  -7.049 -23.954  1.00  0.00     0.211 HD
ENDBRANCH  30  35
BRANCH  31  37
ATOM     37  C   UNL     1       7.497  -6.591 -25.865  1.00  0.00     0.191 C 
BRANCH  37  38
ATOM     38  O   UNL     1       7.540  -7.131 -27.160  1.00  0.00    -0.394 OA
ATOM     39  H   UNL     1       7.821  -6.406 -27.779  1.00  0.00     0.210 HD
ENDBRANCH  37  38
ENDBRANCH  31  37
BRANCH  32  40
ATOM     40  O   UNL     1       9.956  -8.485 -25.372  1.00  0.00    -0.387 OA
ATOM     41  H   UNL     1       9.234  -9.005 -25.813  1.00  0.00     0.211 HD
ENDBRANCH  32  40
ENDBRANCH   1  27
TORSDOF 12
ENDMDL
MODEL 3
REMARK VINA RESULT:    -6.016      2.883      5.536
REMARK INTER + INTRA:         -10.613
REMARK INTER:                  -8.740
REMARK INTRA:                  -1.873
REMARK UNBOUND:                -1.784
REMARK SMILES O=c1c(O[C@H]2O[C@@H](CO)[C@H](O)[C@H](O)[C@H]2O)c(-c2ccc(O)c(O)c2)oc2cc(O)cc(O)c12
REMARK SMILES IDX 4 1 3 2 16 3 25 4 2 5 26 6 1 7 33 8 27 9 31 10 28 11 30 12
REMARK SMILES IDX 17 13 18 14 19 15 20 16 24 17 22 18 21 19 23 21 32 23 29 25
REMARK SMILES IDX 5 27 14 28 6 29 12 30 7 31 10 32 15 33 13 35 8 37 9 38 11 40
REMARK H PARENT 21 20 23 22 32 24 29 26 15 34 13 36 9 39 11 41
REMARK Flexibility Score: inf
ROOT
ATOM      1  O   UNL     1       6.958  -4.967 -26.886  1.00  0.00    -0.454 OA
ENDROOT
BRANCH   1   2
ATOM      2  C   UNL     1       7.660  -3.750 -27.046  1.00  0.00     0.214 A 
ATOM      3  C   UNL     1       9.054  -3.757 -26.858  1.00  0.00     0.180 A 
ATOM      4  O   UNL     1       9.734  -2.620 -26.832  1.00  0.00    -0.452 OA
ATOM      5  C   UNL     1       7.038  -2.513 -27.337  1.00  0.00     0.239 A 
ATOM      6  C   UNL     1       9.185  -1.435 -27.054  1.00  0.00     0.146 A 
ATOM      7  O   UNL     1       5.795  -2.467 -27.509  1.00  0.00    -0.285 OA
ATOM      8  C   UNL     1       7.811  -1.326 -27.382  1.00  0.00     0.111 A 
ATOM      9  C   UNL     1       9.990  -0.297 -26.966  1.00  0.00     0.094 A 
ATOM     10  C   UNL     1       7.286  -0.032 -27.683  1.00  0.00     0.134 A 
ATOM     11  C   UNL     1       9.449   0.969 -27.204  1.00  0.00     0.123 A 
ATOM     12  C   UNL     1       8.105   1.094 -27.550  1.00  0.00     0.093 A 
BRANCH   3  13
ATOM     13  C   UNL     1       9.807  -5.016 -26.705  1.00  0.00     0.025 A 
ATOM     14  C   UNL     1      10.166  -5.757 -27.839  1.00  0.00     0.016 A 
ATOM     15  C   UNL     1      10.838  -6.974 -27.699  1.00  0.00     0.051 A 
ATOM     16  C   UNL     1      11.143  -7.473 -26.426  1.00  0.00     0.157 A 
ATOM     17  C   UNL     1      10.082  -5.531 -25.427  1.00  0.00     0.062 A 
ATOM     18  C   UNL     1      10.752  -6.753 -25.285  1.00  0.00     0.158 A 
BRANCH  16  19
ATOM     19  O   UNL     1      11.821  -8.686 -26.291  1.00  0.00    -0.504 OA
ATOM     20  H   UNL     1      11.889  -9.345 -27.060  1.00  0.00     0.293 HD
ENDBRANCH  16  19
BRANCH  18  21
ATOM     21  O   UNL     1      11.020  -7.233 -24.006  1.00  0.00    -0.504 OA
ATOM     22  H   UNL     1      10.873  -8.205 -23.752  1.00  0.00     0.293 HD
ENDBRANCH  18  21
ENDBRANCH   3  13
BRANCH  10  23
ATOM     23  O   UNL     1       5.986   0.192 -28.146  1.00  0.00    -0.507 OA
ATOM     24  H   UNL     1       5.232   0.544 -27.576  1.00  0.00     0.293 HD
ENDBRANCH  10  23
BRANCH  11  25
ATOM     25  O   UNL     1      10.242   2.108 -27.113  1.00  0.00    -0.508 OA
ATOM     26  H   UNL     1      10.423   2.554 -26.220  1.00  0.00     0.293 HD
ENDBRANCH  11  25
ENDBRANCH   1   2
BRANCH   1  27
ATOM     27  C   UNL     1       6.552  -5.866 -27.923  1.00  0.00     0.339 C 
ATOM     28  C   UNL     1       5.003  -5.896 -28.153  1.00  0.00     0.214 C 
ATOM     29  O   UNL     1       7.134  -7.143 -27.693  1.00  0.00    -0.332 OA
ATOM     30  C   UNL     1       4.334  -7.193 -27.654  1.00  0.00     0.180 C 
ATOM     31  C   UNL     1       6.534  -7.937 -26.669  1.00  0.00     0.179 C 
ATOM     32  C   UNL     1       5.035  -7.675 -26.387  1.00  0.00     0.177 C 
BRANCH  28  33
ATOM     33  O   UNL     1       4.373  -4.775 -27.583  1.00  0.00    -0.384 OA
ATOM     34  H   UNL     1       5.049  -4.058 -27.484  1.00  0.00     0.211 HD
ENDBRANCH  28  33
BRANCH  30  35
ATOM     35  O   UNL     1       4.317  -8.194 -28.644  1.00  0.00    -0.387 OA
ATOM     36  H   UNL     1       3.965  -9.031 -28.240  1.00  0.00     0.211 HD
ENDBRANCH  30  35
BRANCH  31  37
ATOM     37  C   UNL     1       7.383  -7.919 -25.388  1.00  0.00     0.191 C 
BRANCH  37  38
ATOM     38  O   UNL     1       6.968  -6.895 -24.521  1.00  0.00    -0.394 OA
ATOM     39  H   UNL     1       6.103  -7.173 -24.119  1.00  0.00     0.210 HD
ENDBRANCH  37  38
ENDBRANCH  31  37
BRANCH  32  40
ATOM     40  O   UNL     1       4.428  -8.850 -25.915  1.00  0.00    -0.387 OA
ATOM     41  H   UNL     1       4.334  -8.750 -24.931  1.00  0.00     0.211 HD
ENDBRANCH  32  40
ENDBRANCH   1  27
TORSDOF 12
ENDMDL
MODEL 4
REMARK VINA RESULT:    -5.949      1.762      5.009
REMARK INTER + INTRA:         -10.515
REMARK INTER:                  -8.689
REMARK INTRA:                  -1.826
REMARK UNBOUND:                -1.784
REMARK SMILES O=c1c(O[C@H]2O[C@@H](CO)[C@H](O)[C@H](O)[C@H]2O)c(-c2ccc(O)c(O)c2)oc2cc(O)cc(O)c12
REMARK SMILES IDX 4 1 3 2 16 3 25 4 2 5 26 6 1 7 33 8 27 9 31 10 28 11 30 12
REMARK SMILES IDX 17 13 18 14 19 15 20 16 24 17 22 18 21 19 23 21 32 23 29 25
REMARK SMILES IDX 5 27 14 28 6 29 12 30 7 31 10 32 15 33 13 35 8 37 9 38 11 40
REMARK H PARENT 21 20 23 22 32 24 29 26 15 34 13 36 9 39 11 41
REMARK Flexibility Score: inf
ROOT
ATOM      1  O   UNL     1       8.322  -2.709 -25.958  1.00  0.00    -0.454 OA
ENDROOT
BRANCH   1   2
ATOM      2  C   UNL     1       9.547  -2.669 -26.663  1.00  0.00     0.214 A 
ATOM      3  C   UNL     1      10.147  -3.888 -27.025  1.00  0.00     0.180 A 
ATOM      4  O   UNL     1      11.368  -3.910 -27.536  1.00  0.00    -0.452 OA
ATOM      5  C   UNL     1      10.232  -1.473 -26.986  1.00  0.00     0.239 A 
ATOM      6  C   UNL     1      12.065  -2.818 -27.812  1.00  0.00     0.146 A 
ATOM      7  O   UNL     1       9.728  -0.365 -26.677  1.00  0.00    -0.285 OA
ATOM      8  C   UNL     1      11.504  -1.533 -27.608  1.00  0.00     0.111 A 
ATOM      9  C   UNL     1      13.361  -2.959 -28.315  1.00  0.00     0.094 A 
ATOM     10  C   UNL     1      12.269  -0.389 -27.990  1.00  0.00     0.134 A 
ATOM     11  C   UNL     1      14.121  -1.829 -28.628  1.00  0.00     0.123 A 
ATOM     12  C   UNL     1      13.578  -0.558 -28.456  1.00  0.00     0.093 A 
BRANCH   3  13
ATOM     13  C   UNL     1       9.439  -5.173 -26.870  1.00  0.00     0.025 A 
ATOM     14  C   UNL     1       8.385  -5.499 -27.734  1.00  0.00     0.016 A 
ATOM     15  C   UNL     1       7.681  -6.693 -27.565  1.00  0.00     0.051 A 
ATOM     16  C   UNL     1       8.008  -7.566 -26.519  1.00  0.00     0.157 A 
ATOM     17  C   UNL     1       9.746  -6.032 -25.801  1.00  0.00     0.062 A 
ATOM     18  C   UNL     1       9.038  -7.227 -25.626  1.00  0.00     0.158 A 
BRANCH  16  19
ATOM     19  O   UNL     1       7.305  -8.762 -26.357  1.00  0.00    -0.504 OA
ATOM     20  H   UNL     1       6.700  -9.125 -27.087  1.00  0.00     0.293 HD
ENDBRANCH  16  19
BRANCH  18  21
ATOM     21  O   UNL     1       9.372  -8.063 -24.564  1.00  0.00    -0.504 OA
ATOM     22  H   UNL     1       8.724  -8.752 -24.196  1.00  0.00     0.293 HD
ENDBRANCH  18  21
ENDBRANCH   3  13
BRANCH  10  23
ATOM     23  O   UNL     1      11.780   0.920 -27.962  1.00  0.00    -0.507 OA
ATOM     24  H   UNL     1      12.227   1.684 -27.480  1.00  0.00     0.293 HD
ENDBRANCH  10  23
BRANCH  11  25
ATOM     25  O   UNL     1      15.414  -1.960 -29.125  1.00  0.00    -0.508 OA
ATOM     26  H   UNL     1      15.659  -1.629 -30.052  1.00  0.00     0.293 HD
ENDBRANCH  11  25
ENDBRANCH   1   2
BRANCH   1  27
ATOM     27  C   UNL     1       7.019  -2.438 -26.486  1.00  0.00     0.339 C 
ATOM     28  C   UNL     1       6.388  -1.112 -25.939  1.00  0.00     0.214 C 
ATOM     29  O   UNL     1       6.196  -3.586 -26.324  1.00  0.00    -0.332 OA
ATOM     30  C   UNL     1       5.231  -1.347 -24.947  1.00  0.00     0.180 C 
ATOM     31  C   UNL     1       5.694  -3.826 -25.010  1.00  0.00     0.179 C 
ATOM     32  C   UNL     1       5.525  -2.584 -24.103  1.00  0.00     0.177 C 
BRANCH  28  33
ATOM     33  O   UNL     1       7.360  -0.275 -25.361  1.00  0.00    -0.384 OA
ATOM     34  H   UNL     1       8.245  -0.703 -25.481  1.00  0.00     0.211 HD
ENDBRANCH  28  33
BRANCH  30  35
ATOM     35  O   UNL     1       3.988  -1.456 -25.600  1.00  0.00    -0.387 OA
ATOM     36  H   UNL     1       3.267  -1.372 -24.921  1.00  0.00     0.211 HD
ENDBRANCH  30  35
BRANCH  31  37
ATOM     37  C   UNL     1       6.476  -4.954 -24.318  1.00  0.00     0.191 C 
BRANCH  37  38
ATOM     38  O   UNL     1       7.654  -4.467 -23.729  1.00  0.00    -0.394 OA
ATOM     39  H   UNL     1       7.435  -4.194 -22.799  1.00  0.00     0.210 HD
ENDBRANCH  37  38
ENDBRANCH  31  37
BRANCH  32  40
ATOM     40  O   UNL     1       4.484  -2.803 -23.186  1.00  0.00    -0.387 OA
ATOM     41  H   UNL     1       4.835  -3.424 -22.495  1.00  0.00     0.211 HD
ENDBRANCH  32  40
ENDBRANCH   1  27
TORSDOF 12
ENDMDL
MODEL 5
REMARK VINA RESULT:    -5.896      0.890      2.104
REMARK INTER + INTRA:         -10.438
REMARK INTER:                  -8.588
REMARK INTRA:                  -1.850
REMARK UNBOUND:                -1.784
REMARK SMILES O=c1c(O[C@H]2O[C@@H](CO)[C@H](O)[C@H](O)[C@H]2O)c(-c2ccc(O)c(O)c2)oc2cc(O)cc(O)c12
REMARK SMILES IDX 4 1 3 2 16 3 25 4 2 5 26 6 1 7 33 8 27 9 31 10 28 11 30 12
REMARK SMILES IDX 17 13 18 14 19 15 20 16 24 17 22 18 21 19 23 21 32 23 29 25
REMARK SMILES IDX 5 27 14 28 6 29 12 30 7 31 10 32 15 33 13 35 8 37 9 38 11 40
REMARK H PARENT 21 20 23 22 32 24 29 26 15 34 13 36 9 39 11 41
REMARK Flexibility Score: inf
ROOT
ATOM      1  O   UNL     1       9.619  -3.679 -27.281  1.00  0.00    -0.454 OA
ENDROOT
BRANCH   1   2
ATOM      2  C   UNL     1      10.631  -2.695 -27.368  1.00  0.00     0.214 A 
ATOM      3  C   UNL     1      10.292  -1.365 -27.064  1.00  0.00     0.180 A 
ATOM      4  O   UNL     1      11.153  -0.383 -27.288  1.00  0.00    -0.452 OA
ATOM      5  C   UNL     1      11.955  -2.960 -27.790  1.00  0.00     0.239 A 
ATOM      6  C   UNL     1      12.387  -0.581 -27.727  1.00  0.00     0.146 A 
ATOM      7  O   UNL     1      12.294  -4.136 -28.072  1.00  0.00    -0.285 OA
ATOM      8  C   UNL     1      12.875  -1.894 -27.942  1.00  0.00     0.111 A 
ATOM      9  C   UNL     1      13.199   0.531 -27.965  1.00  0.00     0.094 A 
ATOM     10  C   UNL     1      14.236  -2.054 -28.345  1.00  0.00     0.134 A 
ATOM     11  C   UNL     1      14.510   0.360 -28.416  1.00  0.00     0.123 A 
ATOM     12  C   UNL     1      15.016  -0.923 -28.612  1.00  0.00     0.093 A 
BRANCH   3  13
ATOM     13  C   UNL     1       8.987  -1.016 -26.470  1.00  0.00     0.025 A 
ATOM     14  C   UNL     1       7.982  -0.459 -27.272  1.00  0.00     0.016 A 
ATOM     15  C   UNL     1       6.760  -0.083 -26.708  1.00  0.00     0.051 A 
ATOM     16  C   UNL     1       6.535  -0.242 -25.334  1.00  0.00     0.157 A 
ATOM     17  C   UNL     1       8.775  -1.145 -25.087  1.00  0.00     0.062 A 
ATOM     18  C   UNL     1       7.553  -0.765 -24.519  1.00  0.00     0.158 A 
BRANCH  16  19
ATOM     19  O   UNL     1       5.310   0.128 -24.776  1.00  0.00    -0.504 OA
ATOM     20  H   UNL     1       4.977   1.086 -24.812  1.00  0.00     0.293 HD
ENDBRANCH  16  19
BRANCH  18  21
ATOM     21  O   UNL     1       7.368  -0.915 -23.147  1.00  0.00    -0.504 OA
ATOM     22  H   UNL     1       6.778  -1.643 -22.759  1.00  0.00     0.293 HD
ENDBRANCH  18  21
ENDBRANCH   3  13
BRANCH  10  23
ATOM     23  O   UNL     1      14.873  -3.293 -28.463  1.00  0.00    -0.507 OA
ATOM     24  H   UNL     1      15.642  -3.481 -29.086  1.00  0.00     0.293 HD
ENDBRANCH  10  23
BRANCH  11  25
ATOM     25  O   UNL     1      15.325   1.462 -28.661  1.00  0.00    -0.508 OA
ATOM     26  H   UNL     1      15.704   2.016 -27.902  1.00  0.00     0.293 HD
ENDBRANCH  11  25
ENDBRANCH   1   2
BRANCH   1  27
ATOM     27  C   UNL     1       8.863  -4.231 -28.364  1.00  0.00     0.339 C 
ATOM     28  C   UNL     1       7.348  -4.440 -28.025  1.00  0.00     0.214 C 
ATOM     29  O   UNL     1       9.519  -5.394 -28.853  1.00  0.00    -0.332 OA
ATOM     30  C   UNL     1       6.959  -5.922 -27.849  1.00  0.00     0.180 C 
ATOM     31  C   UNL     1       9.386  -6.575 -28.062  1.00  0.00     0.179 C 
ATOM     32  C   UNL     1       8.111  -6.679 -27.192  1.00  0.00     0.177 C 
BRANCH  28  33
ATOM     33  O   UNL     1       6.963  -3.700 -26.893  1.00  0.00    -0.384 OA
ATOM     34  H   UNL     1       7.771  -3.265 -26.520  1.00  0.00     0.211 HD
ENDBRANCH  28  33
BRANCH  30  35
ATOM     35  O   UNL     1       6.581  -6.519 -29.067  1.00  0.00    -0.387 OA
ATOM     36  H   UNL     1       6.001  -7.301 -28.869  1.00  0.00     0.211 HD
ENDBRANCH  30  35
BRANCH  31  37
ATOM     37  C   UNL     1      10.667  -6.848 -27.258  1.00  0.00     0.191 C 
BRANCH  37  38
ATOM     38  O   UNL     1      10.742  -6.017 -26.129  1.00  0.00    -0.394 OA
ATOM     39  H   UNL     1       9.852  -5.592 -26.008  1.00  0.00     0.210 HD
ENDBRANCH  37  38
ENDBRANCH  31  37
BRANCH  32  40
ATOM     40  O   UNL     1       7.764  -8.029 -27.015  1.00  0.00    -0.387 OA
ATOM     41  H   UNL     1       8.121  -8.522 -27.800  1.00  0.00     0.211 HD
ENDBRANCH  32  40
ENDBRANCH   1  27
TORSDOF 12
ENDMDL
MODEL 6
REMARK VINA RESULT:    -5.852      2.043      6.119
REMARK INTER + INTRA:         -10.373
REMARK INTER:                  -9.507
REMARK INTRA:                  -0.865
REMARK UNBOUND:                -1.784
REMARK SMILES O=c1c(O[C@H]2O[C@@H](CO)[C@H](O)[C@H](O)[C@H]2O)c(-c2ccc(O)c(O)c2)oc2cc(O)cc(O)c12
REMARK SMILES IDX 4 1 3 2 16 3 25 4 2 5 26 6 1 7 33 8 27 9 31 10 28 11 30 12
REMARK SMILES IDX 17 13 18 14 19 15 20 16 24 17 22 18 21 19 23 21 32 23 29 25
REMARK SMILES IDX 5 27 14 28 6 29 12 30 7 31 10 32 15 33 13 35 8 37 9 38 11 40
REMARK H PARENT 21 20 23 22 32 24 29 26 15 34 13 36 9 39 11 41
REMARK Flexibility Score: inf
ROOT
ATOM      1  O   UNL     1       8.880  -4.268 -27.577  1.00  0.00    -0.454 OA
ENDROOT
BRANCH   1   2
ATOM      2  C   UNL     1       8.147  -3.128 -27.982  1.00  0.00     0.214 A 
ATOM      3  C   UNL     1       8.821  -1.897 -28.062  1.00  0.00     0.180 A 
ATOM      4  O   UNL     1       8.150  -0.775 -28.273  1.00  0.00    -0.452 OA
ATOM      5  C   UNL     1       6.760  -3.142 -28.265  1.00  0.00     0.239 A 
ATOM      6  C   UNL     1       6.844  -0.736 -28.496  1.00  0.00     0.146 A 
ATOM      7  O   UNL     1       6.124  -4.223 -28.201  1.00  0.00    -0.285 OA
ATOM      8  C   UNL     1       6.088  -1.933 -28.566  1.00  0.00     0.111 A 
ATOM      9  C   UNL     1       6.231   0.507 -28.669  1.00  0.00     0.094 A 
ATOM     10  C   UNL     1       4.698  -1.839 -28.882  1.00  0.00     0.134 A 
ATOM     11  C   UNL     1       4.859   0.587 -28.919  1.00  0.00     0.123 A 
ATOM     12  C   UNL     1       4.102  -0.579 -29.014  1.00  0.00     0.093 A 
BRANCH   3  13
ATOM     13  C   UNL     1      10.289  -1.810 -27.937  1.00  0.00     0.025 A 
ATOM     14  C   UNL     1      10.879  -0.639 -27.443  1.00  0.00     0.016 A 
ATOM     15  C   UNL     1      12.270  -0.532 -27.365  1.00  0.00     0.051 A 
ATOM     16  C   UNL     1      13.087  -1.586 -27.797  1.00  0.00     0.157 A 
ATOM     17  C   UNL     1      11.107  -2.854 -28.400  1.00  0.00     0.062 A 
ATOM     18  C   UNL     1      12.502  -2.747 -28.328  1.00  0.00     0.158 A 
BRANCH  16  19
ATOM     19  O   UNL     1      14.476  -1.478 -27.711  1.00  0.00    -0.504 OA
ATOM     20  H   UNL     1      14.949  -1.408 -26.815  1.00  0.00     0.293 HD
ENDBRANCH  16  19
BRANCH  18  21
ATOM     21  O   UNL     1      13.286  -3.802 -28.785  1.00  0.00    -0.504 OA
ATOM     22  H   UNL     1      14.079  -4.152 -28.258  1.00  0.00     0.293 HD
ENDBRANCH  18  21
ENDBRANCH   3  13
BRANCH  10  23
ATOM     23  O   UNL     1       3.875  -2.946 -29.109  1.00  0.00    -0.507 OA
ATOM     24  H   UNL     1       3.441  -3.161 -29.993  1.00  0.00     0.293 HD
ENDBRANCH  10  23
BRANCH  11  25
ATOM     25  O   UNL     1       4.239   1.821 -29.087  1.00  0.00    -0.508 OA
ATOM     26  H   UNL     1       3.502   1.952 -29.771  1.00  0.00     0.293 HD
ENDBRANCH  11  25
ENDBRANCH   1   2
BRANCH   1  27
ATOM     27  C   UNL     1       8.411  -5.344 -26.759  1.00  0.00     0.339 C 
ATOM     28  C   UNL     1       9.121  -5.425 -25.365  1.00  0.00     0.214 C 
ATOM     29  O   UNL     1       8.449  -6.554 -27.505  1.00  0.00    -0.332 OA
ATOM     30  C   UNL     1      10.097  -6.612 -25.243  1.00  0.00     0.180 C 
ATOM     31  C   UNL     1       9.734  -7.150 -27.680  1.00  0.00     0.179 C 
ATOM     32  C   UNL     1      10.785  -6.850 -26.585  1.00  0.00     0.177 C 
BRANCH  28  33
ATOM     33  O   UNL     1       9.778  -4.222 -25.048  1.00  0.00    -0.384 OA
ATOM     34  H   UNL     1       9.287  -3.479 -25.482  1.00  0.00     0.211 HD
ENDBRANCH  28  33
BRANCH  30  35
ATOM     35  O   UNL     1       9.458  -7.778 -24.780  1.00  0.00    -0.387 OA
ATOM     36  H   UNL     1       8.523  -7.549 -24.533  1.00  0.00     0.211 HD
ENDBRANCH  30  35
BRANCH  31  37
ATOM     37  C   UNL     1      10.274  -6.893 -29.096  1.00  0.00     0.191 C 
BRANCH  37  38
ATOM     38  O   UNL     1      11.486  -6.185 -29.054  1.00  0.00    -0.394 OA
ATOM     39  H   UNL     1      12.224  -6.852 -29.036  1.00  0.00     0.210 HD
ENDBRANCH  37  38
ENDBRANCH  31  37
BRANCH  32  40
ATOM     40  O   UNL     1      11.686  -7.922 -26.484  1.00  0.00    -0.387 OA
ATOM     41  H   UNL     1      12.523  -7.558 -26.092  1.00  0.00     0.211 HD
ENDBRANCH  32  40
ENDBRANCH   1  27
TORSDOF 12
ENDMDL
MODEL 7
REMARK VINA RESULT:    -5.718      1.933      5.156
REMARK INTER + INTRA:         -10.176
REMARK INTER:                  -8.303
REMARK INTRA:                  -1.873
REMARK UNBOUND:                -1.784
REMARK SMILES O=c1c(O[C@H]2O[C@@H](CO)[C@H](O)[C@H](O)[C@H]2O)c(-c2ccc(O)c(O)c2)oc2cc(O)cc(O)c12
REMARK SMILES IDX 4 1 3 2 16 3 25 4 2 5 26 6 1 7 33 8 27 9 31 10 28 11 30 12
REMARK SMILES IDX 17 13 18 14 19 15 20 16 24 17 22 18 21 19 23 21 32 23 29 25
REMARK SMILES IDX 5 27 14 28 6 29 12 30 7 31 10 32 15 33 13 35 8 37 9 38 11 40
REMARK H PARENT 21 20 23 22 32 24 29 26 15 34 13 36 9 39 11 41
REMARK Flexibility Score: inf
ROOT
ATOM      1  O   UNL     1       7.551  -2.676 -26.882  1.00  0.00    -0.454 OA
ENDROOT
BRANCH   1   2
ATOM      2  C   UNL     1       8.874  -3.026 -27.237  1.00  0.00     0.214 A 
ATOM      3  C   UNL     1       9.247  -4.380 -27.162  1.00  0.00     0.180 A 
ATOM      4  O   UNL     1      10.512  -4.739 -27.323  1.00  0.00    -0.452 OA
ATOM      5  C   UNL     1       9.862  -2.088 -27.620  1.00  0.00     0.239 A 
ATOM      6  C   UNL     1      11.478  -3.888 -27.636  1.00  0.00     0.146 A 
ATOM      7  O   UNL     1       9.567  -0.870 -27.696  1.00  0.00    -0.285 OA
ATOM      8  C   UNL     1      11.190  -2.519 -27.863  1.00  0.00     0.111 A 
ATOM      9  C   UNL     1      12.785  -4.370 -27.744  1.00  0.00     0.094 A 
ATOM     10  C   UNL     1      12.256  -1.660 -28.270  1.00  0.00     0.134 A 
ATOM     11  C   UNL     1      13.828  -3.504 -28.084  1.00  0.00     0.123 A 
ATOM     12  C   UNL     1      13.561  -2.160 -28.334  1.00  0.00     0.093 A 
BRANCH   3  13
ATOM     13  C   UNL     1       8.253  -5.443 -26.924  1.00  0.00     0.025 A 
ATOM     14  C   UNL     1       7.471  -5.917 -27.986  1.00  0.00     0.016 A 
ATOM     15  C   UNL     1       6.495  -6.891 -27.759  1.00  0.00     0.051 A 
ATOM     16  C   UNL     1       6.276  -7.389 -26.467  1.00  0.00     0.157 A 
ATOM     17  C   UNL     1       8.013  -5.917 -25.624  1.00  0.00     0.062 A 
ATOM     18  C   UNL     1       7.031  -6.890 -25.394  1.00  0.00     0.158 A 
BRANCH  16  19
ATOM     19  O   UNL     1       5.305  -8.367 -26.247  1.00  0.00    -0.504 OA
ATOM     20  H   UNL     1       5.557  -9.320 -26.004  1.00  0.00     0.293 HD
ENDBRANCH  16  19
BRANCH  18  21
ATOM     21  O   UNL     1       6.823  -7.347 -24.096  1.00  0.00    -0.504 OA
ATOM     22  H   UNL     1       7.590  -7.520 -23.454  1.00  0.00     0.293 HD
ENDBRANCH  18  21
ENDBRANCH   3  13
BRANCH  10  23
ATOM     23  O   UNL     1      12.078  -0.326 -28.650  1.00  0.00    -0.507 OA
ATOM     24  H   UNL     1      11.543   0.349 -28.126  1.00  0.00     0.293 HD
ENDBRANCH  10  23
BRANCH  11  25
ATOM     25  O   UNL     1      15.134  -3.974 -28.189  1.00  0.00    -0.508 OA
ATOM     26  H   UNL     1      15.332  -4.965 -28.273  1.00  0.00     0.293 HD
ENDBRANCH  11  25
ENDBRANCH   1   2
BRANCH   1  27
ATOM     27  C   UNL     1       7.081  -2.312 -25.579  1.00  0.00     0.339 C 
ATOM     28  C   UNL     1       5.651  -2.864 -25.255  1.00  0.00     0.214 C 
ATOM     29  O   UNL     1       7.219  -0.908 -25.404  1.00  0.00    -0.332 OA
ATOM     30  C   UNL     1       4.561  -1.774 -25.248  1.00  0.00     0.180 C 
ATOM     31  C   UNL     1       6.252  -0.089 -26.062  1.00  0.00     0.179 C 
ATOM     32  C   UNL     1       4.869  -0.734 -26.321  1.00  0.00     0.177 C 
BRANCH  28  33
ATOM     33  O   UNL     1       5.288  -3.907 -26.128  1.00  0.00    -0.384 OA
ATOM     34  H   UNL     1       5.300  -4.755 -25.616  1.00  0.00     0.211 HD
ENDBRANCH  28  33
BRANCH  30  35
ATOM     35  O   UNL     1       4.418  -1.177 -23.981  1.00  0.00    -0.387 OA
ATOM     36  H   UNL     1       4.863  -1.756 -23.306  1.00  0.00     0.211 HD
ENDBRANCH  30  35
BRANCH  31  37
ATOM     37  C   UNL     1       6.843   0.555 -27.326  1.00  0.00     0.191 C 
BRANCH  37  38
ATOM     38  O   UNL     1       6.742  -0.308 -28.429  1.00  0.00    -0.394 OA
ATOM     39  H   UNL     1       7.229  -1.144 -28.202  1.00  0.00     0.210 HD
ENDBRANCH  37  38
ENDBRANCH  31  37
BRANCH  32  40
ATOM     40  O   UNL     1       3.876   0.260 -26.332  1.00  0.00    -0.387 OA
ATOM     41  H   UNL     1       3.639   0.418 -27.284  1.00  0.00     0.211 HD
ENDBRANCH  32  40
ENDBRANCH   1  27
TORSDOF 12
ENDMDL
MODEL 8
REMARK VINA RESULT:    -5.714      3.017      5.692
REMARK INTER + INTRA:         -10.171
REMARK INTER:                  -9.011
REMARK INTRA:                  -1.160
REMARK UNBOUND:                -1.784
REMARK SMILES O=c1c(O[C@H]2O[C@@H](CO)[C@H](O)[C@H](O)[C@H]2O)c(-c2ccc(O)c(O)c2)oc2cc(O)cc(O)c12
REMARK SMILES IDX 4 1 3 2 16 3 25 4 2 5 26 6 1 7 33 8 27 9 31 10 28 11 30 12
REMARK SMILES IDX 17 13 18 14 19 15 20 16 24 17 22 18 21 19 23 21 32 23 29 25
REMARK SMILES IDX 5 27 14 28 6 29 12 30 7 31 10 32 15 33 13 35 8 37 9 38 11 40
REMARK H PARENT 21 20 23 22 32 24 29 26 15 34 13 36 9 39 11 41
REMARK Flexibility Score: inf
ROOT
ATOM      1  O   UNL     1       8.638  -3.530 -26.281  1.00  0.00    -0.454 OA
ENDROOT
BRANCH   1   2
ATOM      2  C   UNL     1       8.168  -2.640 -25.288  1.00  0.00     0.214 A 
ATOM      3  C   UNL     1       6.947  -2.932 -24.656  1.00  0.00     0.180 A 
ATOM      4  O   UNL     1       6.383  -2.052 -23.842  1.00  0.00    -0.452 OA
ATOM      5  C   UNL     1       8.832  -1.444 -24.923  1.00  0.00     0.239 A 
ATOM      6  C   UNL     1       6.946  -0.900 -23.509  1.00  0.00     0.146 A 
ATOM      7  O   UNL     1       9.924  -1.148 -25.467  1.00  0.00    -0.285 OA
ATOM      8  C   UNL     1       8.237  -0.563 -23.987  1.00  0.00     0.111 A 
ATOM      9  C   UNL     1       6.244  -0.030 -22.672  1.00  0.00     0.094 A 
ATOM     10  C   UNL     1       8.828   0.657 -23.539  1.00  0.00     0.134 A 
ATOM     11  C   UNL     1       6.811   1.189 -22.290  1.00  0.00     0.123 A 
ATOM     12  C   UNL     1       8.089   1.528 -22.730  1.00  0.00     0.093 A 
BRANCH   3  13
ATOM     13  C   UNL     1       6.263  -4.224 -24.856  1.00  0.00     0.025 A 
ATOM     14  C   UNL     1       5.408  -4.399 -25.953  1.00  0.00     0.016 A 
ATOM     15  C   UNL     1       4.722  -5.604 -26.123  1.00  0.00     0.051 A 
ATOM     16  C   UNL     1       4.867  -6.641 -25.191  1.00  0.00     0.157 A 
ATOM     17  C   UNL     1       6.384  -5.250 -23.904  1.00  0.00     0.062 A 
ATOM     18  C   UNL     1       5.693  -6.457 -24.070  1.00  0.00     0.158 A 
BRANCH  16  19
ATOM     19  O   UNL     1       4.185  -7.845 -25.369  1.00  0.00    -0.504 OA
ATOM     20  H   UNL     1       3.800  -8.110 -26.271  1.00  0.00     0.293 HD
ENDBRANCH  16  19
BRANCH  18  21
ATOM     21  O   UNL     1       5.841  -7.459 -23.116  1.00  0.00    -0.504 OA
ATOM     22  H   UNL     1       5.350  -8.345 -23.183  1.00  0.00     0.293 HD
ENDBRANCH  18  21
ENDBRANCH   3  13
BRANCH  10  23
ATOM     23  O   UNL     1      10.141   1.040 -23.831  1.00  0.00    -0.507 OA
ATOM     24  H   UNL     1      10.473   1.277 -24.753  1.00  0.00     0.293 HD
ENDBRANCH  10  23
BRANCH  11  25
ATOM     25  O   UNL     1       6.118   2.065 -21.460  1.00  0.00    -0.508 OA
ATOM     26  H   UNL     1       5.117   2.197 -21.552  1.00  0.00     0.293 HD
ENDBRANCH  11  25
ENDBRANCH   1   2
BRANCH   1  27
ATOM     27  C   UNL     1      10.002  -3.777 -26.636  1.00  0.00     0.339 C 
ATOM     28  C   UNL     1      10.306  -3.537 -28.154  1.00  0.00     0.214 C 
ATOM     29  O   UNL     1      10.388  -5.060 -26.158  1.00  0.00    -0.332 OA
ATOM     30  C   UNL     1      10.538  -4.839 -28.946  1.00  0.00     0.180 C 
ATOM     31  C   UNL     1       9.915  -6.182 -26.903  1.00  0.00     0.179 C 
ATOM     32  C   UNL     1       9.627  -5.937 -28.404  1.00  0.00     0.177 C 
BRANCH  28  33
ATOM     33  O   UNL     1       9.301  -2.769 -28.769  1.00  0.00    -0.384 OA
ATOM     34  H   UNL     1       8.836  -3.342 -29.429  1.00  0.00     0.211 HD
ENDBRANCH  28  33
BRANCH  30  35
ATOM     35  O   UNL     1      11.889  -5.238 -28.926  1.00  0.00    -0.387 OA
ATOM     36  H   UNL     1      11.982  -6.007 -28.304  1.00  0.00     0.211 HD
ENDBRANCH  30  35
BRANCH  31  37
ATOM     37  C   UNL     1       8.740  -6.864 -26.186  1.00  0.00     0.191 C 
BRANCH  37  38
ATOM     38  O   UNL     1       8.033  -7.706 -27.060  1.00  0.00    -0.394 OA
ATOM     39  H   UNL     1       8.621  -7.894 -27.838  1.00  0.00     0.210 HD
ENDBRANCH  37  38
ENDBRANCH  31  37
BRANCH  32  40
ATOM     40  O   UNL     1       9.820  -7.127 -29.125  1.00  0.00    -0.387 OA
ATOM     41  H   UNL     1      10.623  -6.991 -29.693  1.00  0.00     0.211 HD
ENDBRANCH  32  40
ENDBRANCH   1  27
TORSDOF 12
ENDMDL
MODEL 9
REMARK VINA RESULT:    -5.008      2.096      6.726
REMARK INTER + INTRA:          -9.134
REMARK INTER:                  -7.409
REMARK INTRA:                  -1.725
REMARK UNBOUND:                -1.784
REMARK SMILES O=c1c(O[C@H]2O[C@@H](CO)[C@H](O)[C@H](O)[C@H]2O)c(-c2ccc(O)c(O)c2)oc2cc(O)cc(O)c12
REMARK SMILES IDX 4 1 3 2 16 3 25 4 2 5 26 6 1 7 33 8 27 9 31 10 28 11 30 12
REMARK SMILES IDX 17 13 18 14 19 15 20 16 24 17 22 18 21 19 23 21 32 23 29 25
REMARK SMILES IDX 5 27 14 28 6 29 12 30 7 31 10 32 15 33 13 35 8 37 9 38 11 40
REMARK H PARENT 21 20 23 22 32 24 29 26 15 34 13 36 9 39 11 41
REMARK Flexibility Score: inf
ROOT
ATOM      1  O   UNL     1       9.936  -2.655 -26.562  1.00  0.00    -0.454 OA
ENDROOT
BRANCH   1   2
ATOM      2  C   UNL     1       9.022  -3.727 -26.440  1.00  0.00     0.214 A 
ATOM      3  C   UNL     1       7.649  -3.445 -26.552  1.00  0.00     0.180 A 
ATOM      4  O   UNL     1       6.748  -4.377 -26.281  1.00  0.00    -0.452 OA
ATOM      5  C   UNL     1       9.403  -5.061 -26.165  1.00  0.00     0.239 A 
ATOM      6  C   UNL     1       7.060  -5.628 -25.974  1.00  0.00     0.146 A 
ATOM      7  O   UNL     1      10.621  -5.350 -26.056  1.00  0.00    -0.285 OA
ATOM      8  C   UNL     1       8.412  -6.052 -25.961  1.00  0.00     0.111 A 
ATOM      9  C   UNL     1       6.028  -6.520 -25.670  1.00  0.00     0.094 A 
ATOM     10  C   UNL     1       8.689  -7.428 -25.695  1.00  0.00     0.134 A 
ATOM     11  C   UNL     1       6.319  -7.849 -25.353  1.00  0.00     0.123 A 
ATOM     12  C   UNL     1       7.640  -8.291 -25.357  1.00  0.00     0.093 A 
BRANCH   3  13
ATOM     13  C   UNL     1       7.164  -2.122 -26.988  1.00  0.00     0.025 A 
ATOM     14  C   UNL     1       6.869  -1.898 -28.340  1.00  0.00     0.016 A 
ATOM     15  C   UNL     1       6.453  -0.635 -28.768  1.00  0.00     0.051 A 
ATOM     16  C   UNL     1       6.347   0.424 -27.855  1.00  0.00     0.157 A 
ATOM     17  C   UNL     1       7.090  -1.054 -26.078  1.00  0.00     0.062 A 
ATOM     18  C   UNL     1       6.678   0.215 -26.507  1.00  0.00     0.158 A 
BRANCH  16  19
ATOM     19  O   UNL     1       5.925   1.683 -28.286  1.00  0.00    -0.504 OA
ATOM     20  H   UNL     1       4.983   1.838 -28.632  1.00  0.00     0.293 HD
ENDBRANCH  16  19
BRANCH  18  21
ATOM     21  O   UNL     1       6.604   1.251 -25.580  1.00  0.00    -0.504 OA
ATOM     22  H   UNL     1       5.909   1.265 -24.841  1.00  0.00     0.293 HD
ENDBRANCH  18  21
ENDBRANCH   3  13
BRANCH  10  23
ATOM     23  O   UNL     1       9.963  -7.997 -25.781  1.00  0.00    -0.507 OA
ATOM     24  H   UNL     1      10.353  -8.394 -26.622  1.00  0.00     0.293 HD
ENDBRANCH  10  23
BRANCH  11  25
ATOM     25  O   UNL     1       5.299  -8.744 -25.044  1.00  0.00    -0.508 OA
ATOM     26  H   UNL     1       5.136  -9.572 -25.606  1.00  0.00     0.293 HD
ENDBRANCH  11  25
ENDBRANCH   1   2
BRANCH   1  27
ATOM     27  C   UNL     1      10.384  -2.043 -27.777  1.00  0.00     0.339 C 
ATOM     28  C   UNL     1      11.846  -2.441 -28.175  1.00  0.00     0.214 C 
ATOM     29  O   UNL     1      10.158  -0.641 -27.709  1.00  0.00    -0.332 OA
ATOM     30  C   UNL     1      12.865  -1.300 -27.982  1.00  0.00     0.180 C 
ATOM     31  C   UNL     1      11.070   0.110 -26.908  1.00  0.00     0.179 C 
ATOM     32  C   UNL     1      12.491  -0.482 -26.748  1.00  0.00     0.177 C 
BRANCH  28  33
ATOM     33  O   UNL     1      12.273  -3.594 -27.491  1.00  0.00    -0.384 OA
ATOM     34  H   UNL     1      11.532  -4.250 -27.502  1.00  0.00     0.211 HD
ENDBRANCH  28  33
BRANCH  30  35
ATOM     35  O   UNL     1      12.971  -0.485 -29.125  1.00  0.00    -0.387 OA
ATOM     36  H   UNL     1      13.191   0.440 -28.835  1.00  0.00     0.211 HD
ENDBRANCH  30  35
BRANCH  31  37
ATOM     37  C   UNL     1      10.439   0.489 -25.559  1.00  0.00     0.191 C 
BRANCH  37  38
ATOM     38  O   UNL     1      10.691  -0.494 -24.589  1.00  0.00    -0.394 OA
ATOM     39  H   UNL     1      10.040  -1.231 -24.730  1.00  0.00     0.210 HD
ENDBRANCH  37  38
ENDBRANCH  31  37
BRANCH  32  40
ATOM     40  O   UNL     1      13.419   0.554 -26.555  1.00  0.00    -0.387 OA
ATOM     41  H   UNL     1      13.947   0.320 -25.747  1.00  0.00     0.211 HD
ENDBRANCH  32  40
ENDBRANCH   1  27
TORSDOF 12
ENDMDL
