MODEL 1
REMARK VINA RESULT:    -5.317      0.000      0.000
REMARK INTER + INTRA:         -11.535
REMARK INTER:                  -9.980
REMARK INTRA:                  -1.554
REMARK UNBOUND:                -1.554
REMARK SMILES O=C([O-])CCCCCCCCCCCCCCC(=O)[O-]
REMARK SMILES IDX 10 1 9 2 8 3 7 4 6 5 5 6 4 7 2 8 1 9 3 10 11 11 12 12 13 13
REMARK SMILES IDX 14 14 15 15 16 16 17 17 18 18 19 19 20 20
REMARK H PARENT
REMARK Flexibility Score: inf
ROOT
ATOM      1  C   UNL     1       4.518  44.775  10.411  1.00  0.00     0.000 C 
ENDROOT
BRANCH   1   2
ATOM      2  C   UNL     1       4.035  43.772   9.350  1.00  0.00     0.000 C 
BRANCH   2   3
ATOM      3  C   UNL     1       2.608  43.257   9.616  1.00  0.00     0.000 C 
BRANCH   3   4
ATOM      4  C   UNL     1       1.932  43.809  10.885  1.00  0.00     0.000 C 
BRANCH   4   5
ATOM      5  C   UNL     1       1.817  42.763  12.008  1.00  0.00     0.000 C 
BRANCH   5   6
ATOM      6  C   UNL     1       2.698  41.524  11.759  1.00  0.00     0.006 C 
BRANCH   6   7
ATOM      7  C   UNL     1       2.428  40.351  12.716  1.00  0.00     0.053 C 
BRANCH   7   8
ATOM      8  C   UNL     1       3.595  39.417  12.800  1.00  0.00     0.041 C 
ATOM      9  O   UNL     1       3.462  38.204  12.487  1.00  0.00    -0.550 OA
ATOM     10  O   UNL     1       4.839  39.892  13.197  1.00  0.00    -0.550 OA
ENDBRANCH   7   8
ENDBRANCH   6   7
ENDBRANCH   5   6
ENDBRANCH   4   5
ENDBRANCH   3   4
ENDBRANCH   2   3
ENDBRANCH   1   2
BRANCH   1  11
ATOM     11  C   UNL     1       4.584  46.220   9.883  1.00  0.00     0.000 C 
BRANCH  11  12
ATOM     12  C   UNL     1       3.497  47.169  10.428  1.00  0.00     0.000 C 
BRANCH  12  13
ATOM     13  C   UNL     1       2.660  47.893   9.355  1.00  0.00     0.000 C 
BRANCH  13  14
ATOM     14  C   UNL     1       3.151  47.697   7.908  1.00  0.00     0.000 C 
BRANCH  14  15
ATOM     15  C   UNL     1       3.550  49.016   7.230  1.00  0.00     0.000 C 
BRANCH  15  16
ATOM     16  C   UNL     1       3.688  50.143   8.261  1.00  0.00     0.006 C 
BRANCH  16  17
ATOM     17  C   UNL     1       5.134  50.642   8.338  1.00  0.00     0.053 C 
BRANCH  17  18
ATOM     18  C   UNL     1       5.923  49.812   9.301  1.00  0.00     0.041 C 
ATOM     19  O   UNL     1       6.718  48.933   8.876  1.00  0.00    -0.550 OA
ATOM     20  O   UNL     1       5.817  50.044  10.667  1.00  0.00    -0.550 OA
ENDBRANCH  17  18
ENDBRANCH  16  17
ENDBRANCH  15  16
ENDBRANCH  14  15
ENDBRANCH  13  14
ENDBRANCH  12  13
ENDBRANCH  11  12
ENDBRANCH   1  11
TORSDOF 15
ENDMDL
MODEL 2
REMARK VINA RESULT:    -5.275      3.222      4.304
REMARK INTER + INTRA:         -11.456
REMARK INTER:                  -9.402
REMARK INTRA:                  -2.054
REMARK UNBOUND:                -1.554
REMARK SMILES O=C([O-])CCCCCCCCCCCCCCC(=O)[O-]
REMARK SMILES IDX 10 1 9 2 8 3 7 4 6 5 5 6 4 7 2 8 1 9 3 10 11 11 12 12 13 13
REMARK SMILES IDX 14 14 15 15 16 16 17 17 18 18 19 19 20 20
REMARK H PARENT
REMARK Flexibility Score: inf
ROOT
ATOM      1  C   UNL     1       5.104  46.941   9.969  1.00  0.00     0.000 C 
ENDROOT
BRANCH   1   2
ATOM      2  C   UNL     1       4.492  45.714   9.273  1.00  0.00     0.000 C 
BRANCH   2   3
ATOM      3  C   UNL     1       4.395  44.486  10.196  1.00  0.00     0.000 C 
BRANCH   3   4
ATOM      4  C   UNL     1       4.073  44.791  11.671  1.00  0.00     0.000 C 
BRANCH   4   5
ATOM      5  C   UNL     1       3.145  43.744  12.313  1.00  0.00     0.000 C 
BRANCH   5   6
ATOM      6  C   UNL     1       1.992  43.322  11.383  1.00  0.00     0.006 C 
BRANCH   6   7
ATOM      7  C   UNL     1       0.717  44.167  11.529  1.00  0.00     0.053 C 
BRANCH   7   8
ATOM      8  C   UNL     1       0.449  44.993  10.309  1.00  0.00     0.041 C 
ATOM      9  O   UNL     1       0.981  44.690   9.209  1.00  0.00    -0.550 OA
ATOM     10  O   UNL     1      -0.413  46.080  10.380  1.00  0.00    -0.550 OA
ENDBRANCH   7   8
ENDBRANCH   6   7
ENDBRANCH   5   6
ENDBRANCH   4   5
ENDBRANCH   3   4
ENDBRANCH   2   3
ENDBRANCH   1   2
BRANCH   1  11
ATOM     11  C   UNL     1       6.301  47.530   9.200  1.00  0.00     0.000 C 
BRANCH  11  12
ATOM     12  C   UNL     1       6.360  49.070   9.155  1.00  0.00     0.000 C 
BRANCH  12  13
ATOM     13  C   UNL     1       5.507  49.791  10.218  1.00  0.00     0.000 C 
BRANCH  13  14
ATOM     14  C   UNL     1       4.319  50.597   9.659  1.00  0.00     0.000 C 
BRANCH  14  15
ATOM     15  C   UNL     1       4.357  50.731   8.130  1.00  0.00     0.000 C 
BRANCH  15  16
ATOM     16  C   UNL     1       3.063  50.201   7.501  1.00  0.00     0.006 C 
BRANCH  16  17
ATOM     17  C   UNL     1       3.055  48.669   7.472  1.00  0.00     0.053 C 
BRANCH  17  18
ATOM     18  C   UNL     1       1.874  48.138   8.222  1.00  0.00     0.041 C 
ATOM     19  O   UNL     1       1.812  48.258   9.474  1.00  0.00    -0.550 OA
ATOM     20  O   UNL     1       0.819  47.554   7.533  1.00  0.00    -0.550 OA
ENDBRANCH  17  18
ENDBRANCH  16  17
ENDBRANCH  15  16
ENDBRANCH  14  15
ENDBRANCH  13  14
ENDBRANCH  12  13
ENDBRANCH  11  12
ENDBRANCH   1  11
TORSDOF 15
ENDMDL
MODEL 3
REMARK VINA RESULT:    -5.256      3.971      5.636
REMARK INTER + INTRA:         -11.418
REMARK INTER:                  -9.206
REMARK INTRA:                  -2.212
REMARK UNBOUND:                -1.554
REMARK SMILES O=C([O-])CCCCCCCCCCCCCCC(=O)[O-]
REMARK SMILES IDX 10 1 9 2 8 3 7 4 6 5 5 6 4 7 2 8 1 9 3 10 11 11 12 12 13 13
REMARK SMILES IDX 14 14 15 15 16 16 17 17 18 18 19 19 20 20
REMARK H PARENT
REMARK Flexibility Score: inf
ROOT
ATOM      1  C   UNL     1       2.458  42.810  10.556  1.00  0.00     0.000 C 
ENDROOT
BRANCH   1   2
ATOM      2  C   UNL     1       2.110  42.902   9.060  1.00  0.00     0.000 C 
BRANCH   2   3
ATOM      3  C   UNL     1       1.132  44.047   8.741  1.00  0.00     0.000 C 
BRANCH   3   4
ATOM      4  C   UNL     1       0.666  44.876   9.953  1.00  0.00     0.000 C 
BRANCH   4   5
ATOM      5  C   UNL     1       0.504  46.372   9.631  1.00  0.00     0.000 C 
BRANCH   5   6
ATOM      6  C   UNL     1       1.256  46.790   8.353  1.00  0.00     0.006 C 
BRANCH   6   7
ATOM      7  C   UNL     1       0.952  48.221   7.878  1.00  0.00     0.053 C 
BRANCH   7   8
ATOM      8  C   UNL     1       2.105  49.146   8.115  1.00  0.00     0.041 C 
ATOM      9  O   UNL     1       2.755  49.613   7.144  1.00  0.00    -0.550 OA
ATOM     10  O   UNL     1       2.443  49.517   9.411  1.00  0.00    -0.550 OA
ENDBRANCH   7   8
ENDBRANCH   6   7
ENDBRANCH   5   6
ENDBRANCH   4   5
ENDBRANCH   3   4
ENDBRANCH   2   3
ENDBRANCH   1   2
BRANCH   1  11
ATOM     11  C   UNL     1       3.899  43.257  10.864  1.00  0.00     0.000 C 
BRANCH  11  12
ATOM     12  C   UNL     1       4.022  44.548  11.698  1.00  0.00     0.000 C 
BRANCH  12  13
ATOM     13  C   UNL     1       4.069  45.855  10.882  1.00  0.00     0.000 C 
BRANCH  13  14
ATOM     14  C   UNL     1       4.456  45.682   9.401  1.00  0.00     0.000 C 
BRANCH  14  15
ATOM     15  C   UNL     1       4.951  46.985   8.758  1.00  0.00     0.000 C 
BRANCH  15  16
ATOM     16  C   UNL     1       6.084  47.609   9.583  1.00  0.00     0.006 C 
BRANCH  16  17
ATOM     17  C   UNL     1       6.649  48.851   8.888  1.00  0.00     0.053 C 
BRANCH  17  18
ATOM     18  C   UNL     1       5.943  50.083   9.364  1.00  0.00     0.041 C 
ATOM     19  O   UNL     1       5.829  50.312  10.597  1.00  0.00    -0.550 OA
ATOM     20  O   UNL     1       5.455  51.002   8.443  1.00  0.00    -0.550 OA
ENDBRANCH  17  18
ENDBRANCH  16  17
ENDBRANCH  15  16
ENDBRANCH  14  15
ENDBRANCH  13  14
ENDBRANCH  12  13
ENDBRANCH  11  12
ENDBRANCH   1  11
TORSDOF 15
ENDMDL
MODEL 4
REMARK VINA RESULT:    -5.247      1.902      2.787
REMARK INTER + INTRA:         -11.402
REMARK INTER:                 -10.364
REMARK INTRA:                  -1.038
REMARK UNBOUND:                -1.554
REMARK SMILES O=C([O-])CCCCCCCCCCCCCCC(=O)[O-]
REMARK SMILES IDX 10 1 9 2 8 3 7 4 6 5 5 6 4 7 2 8 1 9 3 10 11 11 12 12 13 13
REMARK SMILES IDX 14 14 15 15 16 16 17 17 18 18 19 19 20 20
REMARK H PARENT
REMARK Flexibility Score: inf
ROOT
ATOM      1  C   UNL     1       4.484  46.041   9.003  1.00  0.00     0.000 C 
ENDROOT
BRANCH   1   2
ATOM      2  C   UNL     1       3.770  44.954   9.823  1.00  0.00     0.000 C 
BRANCH   2   3
ATOM      3  C   UNL     1       4.189  44.946  11.304  1.00  0.00     0.000 C 
BRANCH   3   4
ATOM      4  C   UNL     1       3.501  43.882  12.181  1.00  0.00     0.000 C 
BRANCH   4   5
ATOM      5  C   UNL     1       2.710  42.848  11.361  1.00  0.00     0.000 C 
BRANCH   5   6
ATOM      6  C   UNL     1       2.787  41.430  11.958  1.00  0.00     0.006 C 
BRANCH   6   7
ATOM      7  C   UNL     1       4.210  40.970  12.316  1.00  0.00     0.053 C 
BRANCH   7   8
ATOM      8  C   UNL     1       4.216  39.614  12.952  1.00  0.00     0.041 C 
ATOM      9  O   UNL     1       5.089  39.319  13.809  1.00  0.00    -0.550 OA
ATOM     10  O   UNL     1       3.238  38.684  12.617  1.00  0.00    -0.550 OA
ENDBRANCH   7   8
ENDBRANCH   6   7
ENDBRANCH   5   6
ENDBRANCH   4   5
ENDBRANCH   3   4
ENDBRANCH   2   3
ENDBRANCH   1   2
BRANCH   1  11
ATOM     11  C   UNL     1       5.328  46.990   9.874  1.00  0.00     0.000 C 
BRANCH  11  12
ATOM     12  C   UNL     1       6.510  47.668   9.151  1.00  0.00     0.000 C 
BRANCH  12  13
ATOM     13  C   UNL     1       6.426  49.204   9.053  1.00  0.00     0.000 C 
BRANCH  13  14
ATOM     14  C   UNL     1       5.544  49.875  10.122  1.00  0.00     0.000 C 
BRANCH  14  15
ATOM     15  C   UNL     1       4.264  50.490   9.538  1.00  0.00     0.000 C 
BRANCH  15  16
ATOM     16  C   UNL     1       4.108  50.128   8.056  1.00  0.00     0.006 C 
BRANCH  16  17
ATOM     17  C   UNL     1       2.631  49.982   7.679  1.00  0.00     0.053 C 
BRANCH  17  18
ATOM     18  C   UNL     1       2.081  48.693   8.205  1.00  0.00     0.041 C 
ATOM     19  O   UNL     1       1.917  47.712   7.433  1.00  0.00    -0.550 OA
ATOM     20  O   UNL     1       1.796  48.561   9.558  1.00  0.00    -0.550 OA
ENDBRANCH  17  18
ENDBRANCH  16  17
ENDBRANCH  15  16
ENDBRANCH  14  15
ENDBRANCH  13  14
ENDBRANCH  12  13
ENDBRANCH  11  12
ENDBRANCH   1  11
TORSDOF 15
ENDMDL
MODEL 5
REMARK VINA RESULT:    -5.195      3.057      4.719
REMARK INTER + INTRA:         -11.305
REMARK INTER:                  -9.056
REMARK INTRA:                  -2.249
REMARK UNBOUND:                -1.554
REMARK SMILES O=C([O-])CCCCCCCCCCCCCCC(=O)[O-]
REMARK SMILES IDX 10 1 9 2 8 3 7 4 6 5 5 6 4 7 2 8 1 9 3 10 11 11 12 12 13 13
REMARK SMILES IDX 14 14 15 15 16 16 17 17 18 18 19 19 20 20
REMARK H PARENT
REMARK Flexibility Score: inf
ROOT
ATOM      1  C   UNL     1       6.368  49.256   9.256  1.00  0.00     0.000 C 
ENDROOT
BRANCH   1   2
ATOM      2  C   UNL     1       6.503  47.724   9.246  1.00  0.00     0.000 C 
BRANCH   2   3
ATOM      3  C   UNL     1       5.304  47.012   9.901  1.00  0.00     0.000 C 
BRANCH   3   4
ATOM      4  C   UNL     1       4.599  45.961   9.022  1.00  0.00     0.000 C 
BRANCH   4   5
ATOM      5  C   UNL     1       4.016  44.792   9.835  1.00  0.00     0.000 C 
BRANCH   5   6
ATOM      6  C   UNL     1       3.900  45.112  11.338  1.00  0.00     0.006 C 
BRANCH   6   7
ATOM      7  C   UNL     1       3.754  43.875  12.240  1.00  0.00     0.053 C 
BRANCH   7   8
ATOM      8  C   UNL     1       2.548  43.062  11.883  1.00  0.00     0.041 C 
ATOM      9  O   UNL     1       1.398  43.571  11.944  1.00  0.00    -0.550 OA
ATOM     10  O   UNL     1       2.697  41.748  11.454  1.00  0.00    -0.550 OA
ENDBRANCH   7   8
ENDBRANCH   6   7
ENDBRANCH   5   6
ENDBRANCH   4   5
ENDBRANCH   3   4
ENDBRANCH   2   3
ENDBRANCH   1   2
BRANCH   1  11
ATOM     11  C   UNL     1       5.191  49.748  10.117  1.00  0.00     0.000 C 
BRANCH  11  12
ATOM     12  C   UNL     1       4.106  50.538   9.356  1.00  0.00     0.000 C 
BRANCH  12  13
ATOM     13  C   UNL     1       3.908  50.130   7.882  1.00  0.00     0.000 C 
BRANCH  13  14
ATOM     14  C   UNL     1       2.899  48.989   7.655  1.00  0.00     0.000 C 
BRANCH  14  15
ATOM     15  C   UNL     1       1.662  49.099   8.557  1.00  0.00     0.000 C 
BRANCH  15  16
ATOM     16  C   UNL     1       1.415  47.787   9.312  1.00  0.00     0.006 C 
BRANCH  16  17
ATOM     17  C   UNL     1       1.039  46.660   8.346  1.00  0.00     0.053 C 
BRANCH  17  18
ATOM     18  C   UNL     1       0.456  45.502   9.094  1.00  0.00     0.041 C 
ATOM     19  O   UNL     1      -0.296  45.701  10.085  1.00  0.00    -0.550 OA
ATOM     20  O   UNL     1       0.703  44.204   8.665  1.00  0.00    -0.550 OA
ENDBRANCH  17  18
ENDBRANCH  16  17
ENDBRANCH  15  16
ENDBRANCH  14  15
ENDBRANCH  13  14
ENDBRANCH  12  13
ENDBRANCH  11  12
ENDBRANCH   1  11
TORSDOF 15
ENDMDL
MODEL 6
REMARK VINA RESULT:    -5.194      1.495      2.497
REMARK INTER + INTRA:         -11.302
REMARK INTER:                  -9.774
REMARK INTRA:                  -1.528
REMARK UNBOUND:                -1.554
REMARK SMILES O=C([O-])CCCCCCCCCCCCCCC(=O)[O-]
REMARK SMILES IDX 10 1 9 2 8 3 7 4 6 5 5 6 4 7 2 8 1 9 3 10 11 11 12 12 13 13
REMARK SMILES IDX 14 14 15 15 16 16 17 17 18 18 19 19 20 20
REMARK H PARENT
REMARK Flexibility Score: inf
ROOT
ATOM      1  C   UNL     1       0.715  44.006   8.343  1.00  0.00     0.000 C 
ENDROOT
BRANCH   1   2
ATOM      2  C   UNL     1       1.663  44.198   9.538  1.00  0.00     0.000 C 
BRANCH   2   3
ATOM      3  C   UNL     1       2.847  43.214   9.530  1.00  0.00     0.000 C 
BRANCH   3   4
ATOM      4  C   UNL     1       3.898  43.435  10.634  1.00  0.00     0.000 C 
BRANCH   4   5
ATOM      5  C   UNL     1       3.677  42.536  11.863  1.00  0.00     0.000 C 
BRANCH   5   6
ATOM      6  C   UNL     1       2.737  41.351  11.572  1.00  0.00     0.006 C 
BRANCH   6   7
ATOM      7  C   UNL     1       2.516  40.408  12.767  1.00  0.00     0.053 C 
BRANCH   7   8
ATOM      8  C   UNL     1       3.533  39.310  12.808  1.00  0.00     0.041 C 
ATOM      9  O   UNL     1       3.224  38.144  12.446  1.00  0.00    -0.550 OA
ATOM     10  O   UNL     1       4.833  39.581  13.217  1.00  0.00    -0.550 OA
ENDBRANCH   7   8
ENDBRANCH   6   7
ENDBRANCH   5   6
ENDBRANCH   4   5
ENDBRANCH   3   4
ENDBRANCH   2   3
ENDBRANCH   1   2
BRANCH   1  11
ATOM     11  C   UNL     1       0.139  45.334   7.816  1.00  0.00     0.000 C 
BRANCH  11  12
ATOM     12  C   UNL     1       0.629  46.599   8.549  1.00  0.00     0.000 C 
BRANCH  12  13
ATOM     13  C   UNL     1       1.530  47.533   7.717  1.00  0.00     0.000 C 
BRANCH  13  14
ATOM     14  C   UNL     1       2.954  47.725   8.271  1.00  0.00     0.000 C 
BRANCH  14  15
ATOM     15  C   UNL     1       3.000  47.740   9.805  1.00  0.00     0.000 C 
BRANCH  15  16
ATOM     16  C   UNL     1       4.290  47.092  10.323  1.00  0.00     0.006 C 
BRANCH  16  17
ATOM     17  C   UNL     1       5.267  46.822   9.174  1.00  0.00     0.053 C 
BRANCH  17  18
ATOM     18  C   UNL     1       6.380  47.821   9.187  1.00  0.00     0.041 C 
ATOM     19  O   UNL     1       7.503  47.514   9.667  1.00  0.00    -0.550 OA
ATOM     20  O   UNL     1       6.192  49.078   8.624  1.00  0.00    -0.550 OA
ENDBRANCH  17  18
ENDBRANCH  16  17
ENDBRANCH  15  16
ENDBRANCH  14  15
ENDBRANCH  13  14
ENDBRANCH  12  13
ENDBRANCH  11  12
ENDBRANCH   1  11
TORSDOF 15
ENDMDL
MODEL 7
REMARK VINA RESULT:    -5.132      2.428      7.686
REMARK INTER + INTRA:         -11.187
REMARK INTER:                  -9.471
REMARK INTRA:                  -1.716
REMARK UNBOUND:                -1.554
REMARK SMILES O=C([O-])CCCCCCCCCCCCCCC(=O)[O-]
REMARK SMILES IDX 10 1 9 2 8 3 7 4 6 5 5 6 4 7 2 8 1 9 3 10 11 11 12 12 13 13
REMARK SMILES IDX 14 14 15 15 16 16 17 17 18 18 19 19 20 20
REMARK H PARENT
REMARK Flexibility Score: inf
ROOT
ATOM      1  C   UNL     1       5.113  46.923   9.250  1.00  0.00     0.000 C 
ENDROOT
BRANCH   1   2
ATOM      2  C   UNL     1       5.645  48.361   9.370  1.00  0.00     0.000 C 
BRANCH   2   3
ATOM      3  C   UNL     1       5.147  49.282   8.240  1.00  0.00     0.000 C 
BRANCH   3   4
ATOM      4  C   UNL     1       3.745  48.955   7.691  1.00  0.00     0.000 C 
BRANCH   4   5
ATOM      5  C   UNL     1       2.613  49.585   8.521  1.00  0.00     0.000 C 
BRANCH   5   6
ATOM      6  C   UNL     1       1.507  48.574   8.881  1.00  0.00     0.006 C 
BRANCH   6   7
ATOM      7  C   UNL     1       1.577  47.253   8.098  1.00  0.00     0.053 C 
BRANCH   7   8
ATOM      8  C   UNL     1       0.936  46.124   8.846  1.00  0.00     0.041 C 
ATOM      9  O   UNL     1       0.512  45.113   8.227  1.00  0.00    -0.550 OA
ATOM     10  O   UNL     1       0.834  46.177  10.231  1.00  0.00    -0.550 OA
ENDBRANCH   7   8
ENDBRANCH   6   7
ENDBRANCH   5   6
ENDBRANCH   4   5
ENDBRANCH   3   4
ENDBRANCH   2   3
ENDBRANCH   1   2
BRANCH   1  11
ATOM     11  C   UNL     1       4.317  46.474  10.489  1.00  0.00     0.000 C 
BRANCH  11  12
ATOM     12  C   UNL     1       4.352  44.960  10.779  1.00  0.00     0.000 C 
BRANCH  12  13
ATOM     13  C   UNL     1       3.951  44.055   9.598  1.00  0.00     0.000 C 
BRANCH  13  14
ATOM     14  C   UNL     1       2.900  42.979   9.932  1.00  0.00     0.000 C 
BRANCH  14  15
ATOM     15  C   UNL     1       2.594  42.892  11.435  1.00  0.00     0.000 C 
BRANCH  15  16
ATOM     16  C   UNL     1       2.690  41.444  11.931  1.00  0.00     0.006 C 
BRANCH  16  17
ATOM     17  C   UNL     1       4.131  41.089  12.311  1.00  0.00     0.053 C 
BRANCH  17  18
ATOM     18  C   UNL     1       4.189  39.728  12.929  1.00  0.00     0.041 C 
ATOM     19  O   UNL     1       3.322  38.862  12.638  1.00  0.00    -0.550 OA
ATOM     20  O   UNL     1       5.229  39.400  13.790  1.00  0.00    -0.550 OA
ENDBRANCH  17  18
ENDBRANCH  16  17
ENDBRANCH  15  16
ENDBRANCH  14  15
ENDBRANCH  13  14
ENDBRANCH  12  13
ENDBRANCH  11  12
ENDBRANCH   1  11
TORSDOF 15
ENDMDL
MODEL 8
REMARK VINA RESULT:    -5.087      2.791      7.012
REMARK INTER + INTRA:         -11.103
REMARK INTER:                  -9.183
REMARK INTRA:                  -1.919
REMARK UNBOUND:                -1.554
REMARK SMILES O=C([O-])CCCCCCCCCCCCCCC(=O)[O-]
REMARK SMILES IDX 10 1 9 2 8 3 7 4 6 5 5 6 4 7 2 8 1 9 3 10 11 11 12 12 13 13
REMARK SMILES IDX 14 14 15 15 16 16 17 17 18 18 19 19 20 20
REMARK H PARENT
REMARK Flexibility Score: inf
ROOT
ATOM      1  C   UNL     1       5.692  49.843  10.165  1.00  0.00     0.000 C 
ENDROOT
BRANCH   1   2
ATOM      2  C   UNL     1       4.292  50.341   9.766  1.00  0.00     0.000 C 
BRANCH   2   3
ATOM      3  C   UNL     1       4.181  50.682   8.269  1.00  0.00     0.000 C 
BRANCH   3   4
ATOM      4  C   UNL     1       2.955  50.092   7.546  1.00  0.00     0.000 C 
BRANCH   4   5
ATOM      5  C   UNL     1       2.921  48.554   7.578  1.00  0.00     0.000 C 
BRANCH   5   6
ATOM      6  C   UNL     1       1.487  47.991   7.599  1.00  0.00     0.006 C 
BRANCH   6   7
ATOM      7  C   UNL     1       1.342  46.656   8.348  1.00  0.00     0.053 C 
BRANCH   7   8
ATOM      8  C   UNL     1       0.358  46.750   9.473  1.00  0.00     0.041 C 
ATOM      9  O   UNL     1      -0.578  47.591   9.430  1.00  0.00    -0.550 OA
ATOM     10  O   UNL     1       0.457  45.886  10.557  1.00  0.00    -0.550 OA
ENDBRANCH   7   8
ENDBRANCH   6   7
ENDBRANCH   5   6
ENDBRANCH   4   5
ENDBRANCH   3   4
ENDBRANCH   2   3
ENDBRANCH   1   2
BRANCH   1  11
ATOM     11  C   UNL     1       6.342  48.957   9.086  1.00  0.00     0.000 C 
BRANCH  11  12
ATOM     12  C   UNL     1       6.485  47.467   9.457  1.00  0.00     0.000 C 
BRANCH  12  13
ATOM     13  C   UNL     1       5.207  46.622   9.286  1.00  0.00     0.000 C 
BRANCH  13  14
ATOM     14  C   UNL     1       4.303  46.553  10.531  1.00  0.00     0.000 C 
BRANCH  14  15
ATOM     15  C   UNL     1       4.157  45.128  11.084  1.00  0.00     0.000 C 
BRANCH  15  16
ATOM     16  C   UNL     1       4.100  44.102   9.945  1.00  0.00     0.006 C 
BRANCH  16  17
ATOM     17  C   UNL     1       2.765  43.350   9.951  1.00  0.00     0.053 C 
BRANCH  17  18
ATOM     18  C   UNL     1       2.544  42.685  11.273  1.00  0.00     0.041 C 
ATOM     19  O   UNL     1       3.355  41.815  11.688  1.00  0.00    -0.550 OA
ATOM     20  O   UNL     1       1.470  43.061  12.069  1.00  0.00    -0.550 OA
ENDBRANCH  17  18
ENDBRANCH  16  17
ENDBRANCH  15  16
ENDBRANCH  14  15
ENDBRANCH  13  14
ENDBRANCH  12  13
ENDBRANCH  11  12
ENDBRANCH   1  11
TORSDOF 15
ENDMDL
MODEL 9
REMARK VINA RESULT:    -5.070      1.837      8.354
REMARK INTER + INTRA:         -11.071
REMARK INTER:                  -9.699
REMARK INTRA:                  -1.372
REMARK UNBOUND:                -1.554
REMARK SMILES O=C([O-])CCCCCCCCCCCCCCC(=O)[O-]
REMARK SMILES IDX 10 1 9 2 8 3 7 4 6 5 5 6 4 7 2 8 1 9 3 10 11 11 12 12 13 13
REMARK SMILES IDX 14 14 15 15 16 16 17 17 18 18 19 19 20 20
REMARK H PARENT
REMARK Flexibility Score: inf
ROOT
ATOM      1  C   UNL     1       5.680  47.001   8.968  1.00  0.00     0.000 C 
ENDROOT
BRANCH   1   2
ATOM      2  C   UNL     1       6.762  48.019   9.366  1.00  0.00     0.000 C 
BRANCH   2   3
ATOM      3  C   UNL     1       6.311  49.479   9.180  1.00  0.00     0.000 C 
BRANCH   3   4
ATOM      4  C   UNL     1       5.656  50.131  10.413  1.00  0.00     0.000 C 
BRANCH   4   5
ATOM      5  C   UNL     1       4.251  50.687  10.123  1.00  0.00     0.000 C 
BRANCH   5   6
ATOM      6  C   UNL     1       3.146  49.625  10.279  1.00  0.00     0.006 C 
BRANCH   6   7
ATOM      7  C   UNL     1       2.130  49.592   9.126  1.00  0.00     0.053 C 
BRANCH   7   8
ATOM      8  C   UNL     1       2.609  48.754   7.981  1.00  0.00     0.041 C 
ATOM      9  O   UNL     1       3.400  49.236   7.129  1.00  0.00    -0.550 OA
ATOM     10  O   UNL     1       2.205  47.428   7.873  1.00  0.00    -0.550 OA
ENDBRANCH   7   8
ENDBRANCH   6   7
ENDBRANCH   5   6
ENDBRANCH   4   5
ENDBRANCH   3   4
ENDBRANCH   2   3
ENDBRANCH   1   2
BRANCH   1  11
ATOM     11  C   UNL     1       4.910  46.441  10.178  1.00  0.00     0.000 C 
BRANCH  11  12
ATOM     12  C   UNL     1       4.053  45.192   9.891  1.00  0.00     0.000 C 
BRANCH  12  13
ATOM     13  C   UNL     1       2.791  45.046  10.765  1.00  0.00     0.000 C 
BRANCH  13  14
ATOM     14  C   UNL     1       2.855  43.919  11.812  1.00  0.00     0.000 C 
BRANCH  14  15
ATOM     15  C   UNL     1       1.534  43.146  11.937  1.00  0.00     0.000 C 
BRANCH  15  16
ATOM     16  C   UNL     1       1.786  41.694  12.362  1.00  0.00     0.006 C 
BRANCH  16  17
ATOM     17  C   UNL     1       3.242  41.292  12.105  1.00  0.00     0.053 C 
BRANCH  17  18
ATOM     18  C   UNL     1       3.503  39.912  12.623  1.00  0.00     0.041 C 
ATOM     19  O   UNL     1       2.581  39.054  12.631  1.00  0.00    -0.550 OA
ATOM     20  O   UNL     1       4.777  39.559  13.049  1.00  0.00    -0.550 OA
ENDBRANCH  17  18
ENDBRANCH  16  17
ENDBRANCH  15  16
ENDBRANCH  14  15
ENDBRANCH  13  14
ENDBRANCH  12  13
ENDBRANCH  11  12
ENDBRANCH   1  11
TORSDOF 15
ENDMDL
