MODEL 1
REMARK VINA RESULT:    -6.954      0.000      0.000
REMARK INTER + INTRA:          -7.564
REMARK INTER:                  -7.564
REMARK INTRA:                   0.000
REMARK UNBOUND:                 0.000
REMARK SMILES Cc1cc(O)c2c(c1)C(=O)c1cc(O)cc(O)c1C2=O
REMARK SMILES IDX 1 1 2 2 8 3 7 4 6 5 4 6 3 7 19 8 20 9 18 10 11 11 9 12 10 13
REMARK SMILES IDX 12 14 13 15 15 16 16 17 5 18 17 20 14 22
REMARK H PARENT 5 19 17 21 14 23
REMARK Flexibility Score: inf
ROOT
ATOM      1  C   UNL     1      58.433   4.372  81.934  1.00  0.00     0.044 C 
ATOM      2  C   UNL     1      56.935   4.363  81.834  1.00  0.00    -0.047 A 
ATOM      3  C   UNL     1      56.314   4.153  80.599  1.00  0.00     0.016 A 
ATOM      4  C   UNL     1      54.913   4.118  80.496  1.00  0.00     0.038 A 
ATOM      5  C   UNL     1      54.117   4.296  81.653  1.00  0.00     0.076 A 
ATOM      6  C   UNL     1      54.757   4.409  82.916  1.00  0.00     0.127 A 
ATOM      7  C   UNL     1      56.153   4.468  82.987  1.00  0.00     0.050 A 
ATOM      8  C   UNL     1      52.641   4.411  81.486  1.00  0.00     0.201 C 
ATOM      9  O   UNL     1      51.945   4.969  82.376  1.00  0.00    -0.288 OA
ATOM     10  C   UNL     1      51.995   3.975  80.220  1.00  0.00     0.076 A 
ATOM     11  C   UNL     1      52.801   3.733  79.086  1.00  0.00     0.041 A 
ATOM     12  C   UNL     1      54.272   3.880  79.181  1.00  0.00     0.194 C 
ATOM     13  O   UNL     1      54.981   3.787  78.141  1.00  0.00    -0.289 OA
ATOM     14  C   UNL     1      52.202   3.355  77.871  1.00  0.00     0.059 A 
ATOM     15  C   UNL     1      50.815   3.211  77.778  1.00  0.00     0.120 A 
ATOM     16  C   UNL     1      50.017   3.442  78.899  1.00  0.00     0.093 A 
ATOM     17  C   UNL     1      50.594   3.820  80.118  1.00  0.00     0.131 A 
ENDROOT
BRANCH   6  18
ATOM     18  O   UNL     1      54.056   4.427  84.125  1.00  0.00    -0.507 OA
ATOM     19  H   UNL     1      53.656   5.263  84.528  1.00  0.00     0.293 HD
ENDBRANCH   6  18
BRANCH  17  20
ATOM     20  O   UNL     1      49.772   4.032  81.226  1.00  0.00    -0.507 OA
ATOM     21  H   UNL     1      49.007   4.697  81.203  1.00  0.00     0.293 HD
ENDBRANCH  17  20
BRANCH  15  22
ATOM     22  O   UNL     1      50.219   2.836  76.576  1.00  0.00    -0.508 OA
ATOM     23  H   UNL     1      50.356   1.913  76.182  1.00  0.00     0.293 HD
ENDBRANCH  15  22
TORSDOF 3
ENDMDL
MODEL 2
REMARK VINA RESULT:    -6.868      1.245      5.484
REMARK INTER + INTRA:          -7.471
REMARK INTER:                  -7.471
REMARK INTRA:                   0.000
REMARK UNBOUND:                 0.000
REMARK SMILES Cc1cc(O)c2c(c1)C(=O)c1cc(O)cc(O)c1C2=O
REMARK SMILES IDX 1 1 2 2 8 3 7 4 6 5 4 6 3 7 19 8 20 9 18 10 11 11 9 12 10 13
REMARK SMILES IDX 12 14 13 15 15 16 16 17 5 18 17 20 14 22
REMARK H PARENT 5 19 17 21 14 23
REMARK Flexibility Score: inf
ROOT
ATOM      1  C   UNL     1      49.907   2.400  76.625  1.00  0.00     0.044 C 
ATOM      2  C   UNL     1      50.602   2.832  77.884  1.00  0.00    -0.047 A 
ATOM      3  C   UNL     1      51.998   2.884  77.934  1.00  0.00     0.016 A 
ATOM      4  C   UNL     1      52.659   3.311  79.098  1.00  0.00     0.038 A 
ATOM      5  C   UNL     1      51.909   3.694  80.235  1.00  0.00     0.076 A 
ATOM      6  C   UNL     1      50.492   3.734  80.140  1.00  0.00     0.127 A 
ATOM      7  C   UNL     1      49.858   3.278  78.979  1.00  0.00     0.050 A 
ATOM      8  C   UNL     1      52.639   3.988  81.499  1.00  0.00     0.201 C 
ATOM      9  O   UNL     1      52.039   3.924  82.606  1.00  0.00    -0.288 OA
ATOM     10  C   UNL     1      54.103   4.246  81.475  1.00  0.00     0.076 A 
ATOM     11  C   UNL     1      54.837   3.924  80.313  1.00  0.00     0.041 A 
ATOM     12  C   UNL     1      54.141   3.371  79.129  1.00  0.00     0.194 C 
ATOM     13  O   UNL     1      54.810   2.967  78.139  1.00  0.00    -0.289 OA
ATOM     14  C   UNL     1      56.228   4.127  80.288  1.00  0.00     0.059 A 
ATOM     15  C   UNL     1      56.890   4.653  81.402  1.00  0.00     0.120 A 
ATOM     16  C   UNL     1      56.165   4.979  82.548  1.00  0.00     0.093 A 
ATOM     17  C   UNL     1      54.779   4.783  82.595  1.00  0.00     0.131 A 
ENDROOT
BRANCH   6  18
ATOM     18  O   UNL     1      49.676   4.249  81.151  1.00  0.00    -0.507 OA
ATOM     19  H   UNL     1      48.672   4.133  81.175  1.00  0.00     0.293 HD
ENDBRANCH   6  18
BRANCH  17  20
ATOM     20  O   UNL     1      54.078   5.131  83.751  1.00  0.00    -0.507 OA
ATOM     21  H   UNL     1      53.719   6.067  83.895  1.00  0.00     0.293 HD
ENDBRANCH  17  20
BRANCH  15  22
ATOM     22  O   UNL     1      58.268   4.856  81.379  1.00  0.00    -0.508 OA
ATOM     23  H   UNL     1      58.905   4.133  81.070  1.00  0.00     0.293 HD
ENDBRANCH  15  22
TORSDOF 3
ENDMDL
MODEL 3
REMARK VINA RESULT:    -6.566      2.805      5.756
REMARK INTER + INTRA:          -7.142
REMARK INTER:                  -7.142
REMARK INTRA:                   0.000
REMARK UNBOUND:                 0.000
REMARK SMILES Cc1cc(O)c2c(c1)C(=O)c1cc(O)cc(O)c1C2=O
REMARK SMILES IDX 1 1 2 2 8 3 7 4 6 5 4 6 3 7 19 8 20 9 18 10 11 11 9 12 10 13
REMARK SMILES IDX 12 14 13 15 15 16 16 17 5 18 17 20 14 22
REMARK H PARENT 5 19 17 21 14 23
REMARK Flexibility Score: inf
ROOT
ATOM      1  C   UNL     1      54.009   8.187  75.785  1.00  0.00     0.044 C 
ATOM      2  C   UNL     1      54.055   7.336  77.021  1.00  0.00    -0.047 A 
ATOM      3  C   UNL     1      55.279   6.877  77.515  1.00  0.00     0.016 A 
ATOM      4  C   UNL     1      55.337   6.101  78.685  1.00  0.00     0.038 A 
ATOM      5  C   UNL     1      54.145   5.778  79.375  1.00  0.00     0.076 A 
ATOM      6  C   UNL     1      52.917   6.333  78.922  1.00  0.00     0.127 A 
ATOM      7  C   UNL     1      52.885   7.079  77.740  1.00  0.00     0.050 A 
ATOM      8  C   UNL     1      54.224   4.826  80.518  1.00  0.00     0.201 C 
ATOM      9  O   UNL     1      53.198   4.195  80.889  1.00  0.00    -0.288 OA
ATOM     10  C   UNL     1      55.535   4.526  81.152  1.00  0.00     0.076 A 
ATOM     11  C   UNL     1      56.721   4.910  80.491  1.00  0.00     0.041 A 
ATOM     12  C   UNL     1      56.646   5.634  79.200  1.00  0.00     0.194 C 
ATOM     13  O   UNL     1      57.701   5.866  78.548  1.00  0.00    -0.289 OA
ATOM     14  C   UNL     1      57.969   4.601  81.060  1.00  0.00     0.059 A 
ATOM     15  C   UNL     1      58.045   3.922  82.279  1.00  0.00     0.120 A 
ATOM     16  C   UNL     1      56.874   3.548  82.939  1.00  0.00     0.093 A 
ATOM     17  C   UNL     1      55.621   3.845  82.388  1.00  0.00     0.131 A 
ENDROOT
BRANCH   6  18
ATOM     18  O   UNL     1      51.718   6.203  79.628  1.00  0.00    -0.507 OA
ATOM     19  H   UNL     1      51.064   6.960  79.766  1.00  0.00     0.293 HD
ENDBRANCH   6  18
BRANCH  17  20
ATOM     20  O   UNL     1      54.466   3.470  83.077  1.00  0.00    -0.507 OA
ATOM     21  H   UNL     1      54.419   3.491  84.089  1.00  0.00     0.293 HD
ENDBRANCH  17  20
BRANCH  15  22
ATOM     22  O   UNL     1      59.281   3.616  82.846  1.00  0.00    -0.508 OA
ATOM     23  H   UNL     1      59.430   3.660  83.846  1.00  0.00     0.293 HD
ENDBRANCH  15  22
TORSDOF 3
ENDMDL
MODEL 4
REMARK VINA RESULT:    -6.471      3.204      4.098
REMARK INTER + INTRA:          -7.039
REMARK INTER:                  -7.039
REMARK INTRA:                   0.000
REMARK UNBOUND:                 0.000
REMARK SMILES Cc1cc(O)c2c(c1)C(=O)c1cc(O)cc(O)c1C2=O
REMARK SMILES IDX 1 1 2 2 8 3 7 4 6 5 4 6 3 7 19 8 20 9 18 10 11 11 9 12 10 13
REMARK SMILES IDX 12 14 13 15 15 16 16 17 5 18 17 20 14 22
REMARK H PARENT 5 19 17 21 14 23
REMARK Flexibility Score: inf
ROOT
ATOM      1  C   UNL     1      58.506   9.005  77.117  1.00  0.00     0.044 C 
ATOM      2  C   UNL     1      57.748   7.892  77.780  1.00  0.00    -0.047 A 
ATOM      3  C   UNL     1      56.356   7.828  77.674  1.00  0.00     0.016 A 
ATOM      4  C   UNL     1      55.637   6.777  78.268  1.00  0.00     0.038 A 
ATOM      5  C   UNL     1      56.326   5.769  78.983  1.00  0.00     0.076 A 
ATOM      6  C   UNL     1      57.747   5.788  78.999  1.00  0.00     0.127 A 
ATOM      7  C   UNL     1      58.435   6.860  78.423  1.00  0.00     0.050 A 
ATOM      8  C   UNL     1      55.526   4.759  79.732  1.00  0.00     0.201 C 
ATOM      9  O   UNL     1      56.046   4.123  80.687  1.00  0.00    -0.288 OA
ATOM     10  C   UNL     1      54.080   4.581  79.435  1.00  0.00     0.076 A 
ATOM     11  C   UNL     1      53.412   5.557  78.664  1.00  0.00     0.041 A 
ATOM     12  C   UNL     1      54.162   6.719  78.135  1.00  0.00     0.194 C 
ATOM     13  O   UNL     1      53.543   7.654  77.554  1.00  0.00    -0.289 OA
ATOM     14  C   UNL     1      52.037   5.421  78.406  1.00  0.00     0.059 A 
ATOM     15  C   UNL     1      51.326   4.323  78.900  1.00  0.00     0.120 A 
ATOM     16  C   UNL     1      51.986   3.353  79.655  1.00  0.00     0.093 A 
ATOM     17  C   UNL     1      53.355   3.471  79.925  1.00  0.00     0.131 A 
ENDROOT
BRANCH   6  18
ATOM     18  O   UNL     1      58.515   4.753  79.539  1.00  0.00    -0.507 OA
ATOM     19  H   UNL     1      58.346   4.344  80.448  1.00  0.00     0.293 HD
ENDBRANCH   6  18
BRANCH  17  20
ATOM     20  O   UNL     1      53.992   2.478  80.673  1.00  0.00    -0.507 OA
ATOM     21  H   UNL     1      53.532   1.604  80.900  1.00  0.00     0.293 HD
ENDBRANCH  17  20
BRANCH  15  22
ATOM     22  O   UNL     1      49.964   4.185  78.645  1.00  0.00    -0.508 OA
ATOM     23  H   UNL     1      49.273   4.727  79.149  1.00  0.00     0.293 HD
ENDBRANCH  15  22
TORSDOF 3
ENDMDL
MODEL 5
REMARK VINA RESULT:    -6.441      2.160      3.936
REMARK INTER + INTRA:          -7.006
REMARK INTER:                  -7.006
REMARK INTRA:                   0.000
REMARK UNBOUND:                 0.000
REMARK SMILES Cc1cc(O)c2c(c1)C(=O)c1cc(O)cc(O)c1C2=O
REMARK SMILES IDX 1 1 2 2 8 3 7 4 6 5 4 6 3 7 19 8 20 9 18 10 11 11 9 12 10 13
REMARK SMILES IDX 12 14 13 15 15 16 16 17 5 18 17 20 14 22
REMARK H PARENT 5 19 17 21 14 23
REMARK Flexibility Score: inf
ROOT
ATOM      1  C   UNL     1      58.989   6.077  78.878  1.00  0.00     0.044 C 
ATOM      2  C   UNL     1      57.518   5.781  78.841  1.00  0.00    -0.047 A 
ATOM      3  C   UNL     1      56.910   5.100  79.899  1.00  0.00     0.016 A 
ATOM      4  C   UNL     1      55.530   4.840  79.888  1.00  0.00     0.038 A 
ATOM      5  C   UNL     1      54.741   5.270  78.795  1.00  0.00     0.076 A 
ATOM      6  C   UNL     1      55.349   6.048  77.773  1.00  0.00     0.127 A 
ATOM      7  C   UNL     1      56.729   6.269  77.796  1.00  0.00     0.050 A 
ATOM      8  C   UNL     1      53.315   4.841  78.738  1.00  0.00     0.201 C 
ATOM      9  O   UNL     1      52.700   4.831  77.638  1.00  0.00    -0.288 OA
ATOM     10  C   UNL     1      52.644   4.313  79.955  1.00  0.00     0.076 A 
ATOM     11  C   UNL     1      53.431   3.948  81.069  1.00  0.00     0.041 A 
ATOM     12  C   UNL     1      54.900   4.127  81.025  1.00  0.00     0.194 C 
ATOM     13  O   UNL     1      55.615   3.686  81.967  1.00  0.00    -0.289 OA
ATOM     14  C   UNL     1      52.814   3.412  82.214  1.00  0.00     0.059 A 
ATOM     15  C   UNL     1      51.427   3.245  82.261  1.00  0.00     0.120 A 
ATOM     16  C   UNL     1      50.647   3.613  81.164  1.00  0.00     0.093 A 
ATOM     17  C   UNL     1      51.241   4.147  80.014  1.00  0.00     0.131 A 
ENDROOT
BRANCH   6  18
ATOM     18  O   UNL     1      54.623   6.651  76.742  1.00  0.00    -0.507 OA
ATOM     19  H   UNL     1      54.031   7.459  76.871  1.00  0.00     0.293 HD
ENDBRANCH   6  18
BRANCH  17  20
ATOM     20  O   UNL     1      50.434   4.518  78.937  1.00  0.00    -0.507 OA
ATOM     21  H   UNL     1      49.577   4.024  78.719  1.00  0.00     0.293 HD
ENDBRANCH  17  20
BRANCH  15  22
ATOM     22  O   UNL     1      50.813   2.716  83.394  1.00  0.00    -0.508 OA
ATOM     23  H   UNL     1      50.105   1.996  83.326  1.00  0.00     0.293 HD
ENDBRANCH  15  22
TORSDOF 3
ENDMDL
MODEL 6
REMARK VINA RESULT:    -6.415      2.324      5.412
REMARK INTER + INTRA:          -6.977
REMARK INTER:                  -6.977
REMARK INTRA:                   0.000
REMARK UNBOUND:                 0.000
REMARK SMILES Cc1cc(O)c2c(c1)C(=O)c1cc(O)cc(O)c1C2=O
REMARK SMILES IDX 1 1 2 2 8 3 7 4 6 5 4 6 3 7 19 8 20 9 18 10 11 11 9 12 10 13
REMARK SMILES IDX 12 14 13 15 15 16 16 17 5 18 17 20 14 22
REMARK H PARENT 5 19 17 21 14 23
REMARK Flexibility Score: inf
ROOT
ATOM      1  C   UNL     1      51.146   2.492  83.747  1.00  0.00     0.044 C 
ATOM      2  C   UNL     1      51.775   3.237  82.605  1.00  0.00    -0.047 A 
ATOM      3  C   UNL     1      53.163   3.393  82.546  1.00  0.00     0.016 A 
ATOM      4  C   UNL     1      53.764   4.067  81.470  1.00  0.00     0.038 A 
ATOM      5  C   UNL     1      52.961   4.594  80.431  1.00  0.00     0.076 A 
ATOM      6  C   UNL     1      51.563   4.342  80.449  1.00  0.00     0.127 A 
ATOM      7  C   UNL     1      50.987   3.694  81.546  1.00  0.00     0.050 A 
ATOM      8  C   UNL     1      53.613   5.436  79.389  1.00  0.00     0.201 C 
ATOM      9  O   UNL     1      52.928   6.248  78.711  1.00  0.00    -0.288 OA
ATOM     10  C   UNL     1      55.090   5.410  79.223  1.00  0.00     0.076 A 
ATOM     11  C   UNL     1      55.884   4.822  80.232  1.00  0.00     0.041 A 
ATOM     12  C   UNL     1      55.239   4.212  81.417  1.00  0.00     0.194 C 
ATOM     13  O   UNL     1      55.948   3.800  82.376  1.00  0.00    -0.289 OA
ATOM     14  C   UNL     1      57.285   4.823  80.107  1.00  0.00     0.059 A 
ATOM     15  C   UNL     1      57.898   5.395  78.989  1.00  0.00     0.120 A 
ATOM     16  C   UNL     1      57.115   5.969  77.987  1.00  0.00     0.093 A 
ATOM     17  C   UNL     1      55.719   5.980  78.092  1.00  0.00     0.131 A 
ENDROOT
BRANCH   6  18
ATOM     18  O   UNL     1      50.715   4.682  79.392  1.00  0.00    -0.507 OA
ATOM     19  H   UNL     1      50.514   4.069  78.614  1.00  0.00     0.293 HD
ENDBRANCH   6  18
BRANCH  17  20
ATOM     20  O   UNL     1      54.961   6.551  77.069  1.00  0.00    -0.507 OA
ATOM     21  H   UNL     1      54.326   5.998  76.504  1.00  0.00     0.293 HD
ENDBRANCH  17  20
BRANCH  15  22
ATOM     22  O   UNL     1      59.285   5.396  78.862  1.00  0.00    -0.508 OA
ATOM     23  H   UNL     1      59.747   4.928  78.092  1.00  0.00     0.293 HD
ENDBRANCH  15  22
TORSDOF 3
ENDMDL
MODEL 7
REMARK VINA RESULT:    -6.328      1.216      3.501
REMARK INTER + INTRA:          -6.883
REMARK INTER:                  -6.883
REMARK INTRA:                   0.000
REMARK UNBOUND:                 0.000
REMARK SMILES Cc1cc(O)c2c(c1)C(=O)c1cc(O)cc(O)c1C2=O
REMARK SMILES IDX 1 1 2 2 8 3 7 4 6 5 4 6 3 7 19 8 20 9 18 10 11 11 9 12 10 13
REMARK SMILES IDX 12 14 13 15 15 16 16 17 5 18 17 20 14 22
REMARK H PARENT 5 19 17 21 14 23
REMARK Flexibility Score: inf
ROOT
ATOM      1  C   UNL     1      58.965   5.089  83.744  1.00  0.00     0.044 C 
ATOM      2  C   UNL     1      57.955   4.792  82.673  1.00  0.00    -0.047 A 
ATOM      3  C   UNL     1      56.605   4.640  83.002  1.00  0.00     0.016 A 
ATOM      4  C   UNL     1      55.647   4.386  82.006  1.00  0.00     0.038 A 
ATOM      5  C   UNL     1      56.048   4.282  80.653  1.00  0.00     0.076 A 
ATOM      6  C   UNL     1      57.405   4.537  80.318  1.00  0.00     0.127 A 
ATOM      7  C   UNL     1      58.343   4.760  81.331  1.00  0.00     0.050 A 
ATOM      8  C   UNL     1      55.037   3.857  79.645  1.00  0.00     0.201 C 
ATOM      9  O   UNL     1      55.407   3.357  78.549  1.00  0.00    -0.288 OA
ATOM     10  C   UNL     1      53.587   3.913  79.971  1.00  0.00     0.076 A 
ATOM     11  C   UNL     1      53.192   4.084  81.315  1.00  0.00     0.041 A 
ATOM     12  C   UNL     1      54.218   4.242  82.372  1.00  0.00     0.194 C 
ATOM     13  O   UNL     1      53.871   4.269  83.585  1.00  0.00    -0.289 OA
ATOM     14  C   UNL     1      51.825   4.102  81.644  1.00  0.00     0.059 A 
ATOM     15  C   UNL     1      50.853   3.958  80.649  1.00  0.00     0.120 A 
ATOM     16  C   UNL     1      51.242   3.796  79.319  1.00  0.00     0.093 A 
ATOM     17  C   UNL     1      52.598   3.774  78.970  1.00  0.00     0.131 A 
ENDROOT
BRANCH   6  18
ATOM     18  O   UNL     1      57.861   4.616  78.999  1.00  0.00    -0.507 OA
ATOM     19  H   UNL     1      57.630   3.940  78.285  1.00  0.00     0.293 HD
ENDBRANCH   6  18
BRANCH  17  20
ATOM     20  O   UNL     1      52.956   3.624  77.630  1.00  0.00    -0.507 OA
ATOM     21  H   UNL     1      53.926   3.565  77.341  1.00  0.00     0.293 HD
ENDBRANCH  17  20
BRANCH  15  22
ATOM     22  O   UNL     1      49.498   3.976  80.972  1.00  0.00    -0.508 OA
ATOM     23  H   UNL     1      48.965   3.120  81.071  1.00  0.00     0.293 HD
ENDBRANCH  15  22
TORSDOF 3
ENDMDL
MODEL 8
REMARK VINA RESULT:    -6.324      9.299     11.244
REMARK INTER + INTRA:          -6.878
REMARK INTER:                  -6.878
REMARK INTRA:                   0.000
REMARK UNBOUND:                 0.000
REMARK SMILES Cc1cc(O)c2c(c1)C(=O)c1cc(O)cc(O)c1C2=O
REMARK SMILES IDX 1 1 2 2 8 3 7 4 6 5 4 6 3 7 19 8 20 9 18 10 11 11 9 12 10 13
REMARK SMILES IDX 12 14 13 15 15 16 16 17 5 18 17 20 14 22
REMARK H PARENT 5 19 17 21 14 23
REMARK Flexibility Score: inf
ROOT
ATOM      1  C   UNL     1      44.756   4.712  72.342  1.00  0.00     0.044 C 
ATOM      2  C   UNL     1      45.563   3.564  72.874  1.00  0.00    -0.047 A 
ATOM      3  C   UNL     1      44.982   2.299  73.010  1.00  0.00     0.016 A 
ATOM      4  C   UNL     1      45.734   1.211  73.483  1.00  0.00     0.038 A 
ATOM      5  C   UNL     1      47.095   1.391  73.827  1.00  0.00     0.076 A 
ATOM      6  C   UNL     1      47.701   2.653  73.591  1.00  0.00     0.127 A 
ATOM      7  C   UNL     1      46.924   3.727  73.145  1.00  0.00     0.050 A 
ATOM      8  C   UNL     1      47.818   0.259  74.473  1.00  0.00     0.201 C 
ATOM      9  O   UNL     1      48.852   0.478  75.158  1.00  0.00    -0.288 OA
ATOM     10  C   UNL     1      47.260  -1.118  74.410  1.00  0.00     0.076 A 
ATOM     11  C   UNL     1      45.921  -1.298  74.001  1.00  0.00     0.041 A 
ATOM     12  C   UNL     1      45.105  -0.126  73.609  1.00  0.00     0.194 C 
ATOM     13  O   UNL     1      43.875  -0.270  73.365  1.00  0.00    -0.289 OA
ATOM     14  C   UNL     1      45.368  -2.590  73.973  1.00  0.00     0.059 A 
ATOM     15  C   UNL     1      46.135  -3.700  74.339  1.00  0.00     0.120 A 
ATOM     16  C   UNL     1      47.462  -3.525  74.735  1.00  0.00     0.093 A 
ATOM     17  C   UNL     1      48.031  -2.246  74.772  1.00  0.00     0.131 A 
ENDROOT
BRANCH   6  18
ATOM     18  O   UNL     1      49.071   2.880  73.747  1.00  0.00    -0.507 OA
ATOM     19  H   UNL     1      49.481   3.799  73.840  1.00  0.00     0.293 HD
ENDBRANCH   6  18
BRANCH  17  20
ATOM     20  O   UNL     1      49.364  -2.103  75.161  1.00  0.00    -0.507 OA
ATOM     21  H   UNL     1      50.108  -1.993  74.482  1.00  0.00     0.293 HD
ENDBRANCH  17  20
BRANCH  15  22
ATOM     22  O   UNL     1      45.590  -4.982  74.309  1.00  0.00    -0.508 OA
ATOM     23  H   UNL     1      44.993  -5.320  75.054  1.00  0.00     0.293 HD
ENDBRANCH  15  22
TORSDOF 3
ENDMDL
MODEL 9
REMARK VINA RESULT:    -6.316      3.737      6.593
REMARK INTER + INTRA:          -6.870
REMARK INTER:                  -6.870
REMARK INTRA:                   0.000
REMARK UNBOUND:                 0.000
REMARK SMILES Cc1cc(O)c2c(c1)C(=O)c1cc(O)cc(O)c1C2=O
REMARK SMILES IDX 1 1 2 2 8 3 7 4 6 5 4 6 3 7 19 8 20 9 18 10 11 11 9 12 10 13
REMARK SMILES IDX 12 14 13 15 15 16 16 17 5 18 17 20 14 22
REMARK H PARENT 5 19 17 21 14 23
REMARK Flexibility Score: inf
ROOT
ATOM      1  C   UNL     1      50.855   4.073  78.496  1.00  0.00     0.044 C 
ATOM      2  C   UNL     1      52.324   4.356  78.626  1.00  0.00    -0.047 A 
ATOM      3  C   UNL     1      52.888   5.458  77.978  1.00  0.00     0.016 A 
ATOM      4  C   UNL     1      54.257   5.747  78.111  1.00  0.00     0.038 A 
ATOM      5  C   UNL     1      55.078   4.916  78.910  1.00  0.00     0.076 A 
ATOM      6  C   UNL     1      54.476   3.859  79.644  1.00  0.00     0.127 A 
ATOM      7  C   UNL     1      53.117   3.576  79.471  1.00  0.00     0.050 A 
ATOM      8  C   UNL     1      56.548   5.156  78.904  1.00  0.00     0.201 C 
ATOM      9  O   UNL     1      57.341   4.236  79.238  1.00  0.00    -0.288 OA
ATOM     10  C   UNL     1      57.094   6.442  78.394  1.00  0.00     0.076 A 
ATOM     11  C   UNL     1      56.251   7.300  77.654  1.00  0.00     0.041 A 
ATOM     12  C   UNL     1      54.835   6.929  77.427  1.00  0.00     0.194 C 
ATOM     13  O   UNL     1      54.117   7.630  76.663  1.00  0.00    -0.289 OA
ATOM     14  C   UNL     1      56.763   8.501  77.133  1.00  0.00     0.059 A 
ATOM     15  C   UNL     1      58.097   8.857  77.348  1.00  0.00     0.120 A 
ATOM     16  C   UNL     1      58.929   8.015  78.086  1.00  0.00     0.093 A 
ATOM     17  C   UNL     1      58.440   6.813  78.612  1.00  0.00     0.131 A 
ENDROOT
BRANCH   6  18
ATOM     18  O   UNL     1      55.173   3.089  80.579  1.00  0.00    -0.507 OA
ATOM     19  H   UNL     1      56.180   2.997  80.591  1.00  0.00     0.293 HD
ENDBRANCH   6  18
BRANCH  17  20
ATOM     20  O   UNL     1      59.293   5.996  79.356  1.00  0.00    -0.507 OA
ATOM     21  H   UNL     1      59.407   6.116  80.356  1.00  0.00     0.293 HD
ENDBRANCH  17  20
BRANCH  15  22
ATOM     22  O   UNL     1      58.606  10.048  76.834  1.00  0.00    -0.508 OA
ATOM     23  H   UNL     1      58.284  10.425  75.951  1.00  0.00     0.293 HD
ENDBRANCH  15  22
TORSDOF 3
ENDMDL
