MODEL 1
REMARK VINA RESULT:    -3.661      0.000      0.000
REMARK INTER + INTRA:          -4.109
REMARK INTER:                  -3.982
REMARK INTRA:                  -0.127
REMARK UNBOUND:                -0.127
REMARK SMILES Cc1ccc(C(C)C)cc1O
REMARK SMILES IDX 1 1 2 2 10 3 9 4 5 5 4 6 3 7 11 8 6 10 7 11 8 12
REMARK H PARENT 11 9
REMARK Flexibility Score: inf
ROOT
ATOM      1  C   UNL     1     148.942 159.738 163.844  1.00  0.00     0.048 C 
ATOM      2  C   UNL     1     150.210 159.558 164.631  1.00  0.00    -0.009 A 
ATOM      3  C   UNL     1     150.181 159.303 166.020  1.00  0.00     0.118 A 
ATOM      4  C   UNL     1     151.379 159.141 166.724  1.00  0.00     0.050 A 
ATOM      5  C   UNL     1     152.620 159.228 166.069  1.00  0.00    -0.042 A 
ATOM      6  C   UNL     1     152.641 159.482 164.688  1.00  0.00     0.004 A 
ATOM      7  C   UNL     1     151.450 159.645 163.978  1.00  0.00     0.007 A 
ENDROOT
BRANCH   3   8
ATOM      8  O   UNL     1     148.979 159.206 166.727  1.00  0.00    -0.508 OA
ATOM      9  H   UNL     1     148.248 159.903 166.673  1.00  0.00     0.293 HD
ENDBRANCH   3   8
BRANCH   5  10
ATOM     10  C   UNL     1     153.922 159.053 166.828  1.00  0.00     0.013 C 
ATOM     11  C   UNL     1     155.047 159.880 166.193  1.00  0.00     0.012 C 
ATOM     12  C   UNL     1     154.312 157.573 166.923  1.00  0.00     0.012 C 
ENDBRANCH   5  10
TORSDOF 2
ENDMDL
MODEL 2
REMARK VINA RESULT:    -3.657      7.016      8.913
REMARK INTER + INTRA:          -4.105
REMARK INTER:                  -3.977
REMARK INTRA:                  -0.127
REMARK UNBOUND:                -0.127
REMARK SMILES Cc1ccc(C(C)C)cc1O
REMARK SMILES IDX 1 1 2 2 10 3 9 4 5 5 4 6 3 7 11 8 6 10 7 11 8 12
REMARK H PARENT 11 9
REMARK Flexibility Score: inf
ROOT
ATOM      1  C   UNL     1     159.724 165.999 163.847  1.00  0.00     0.048 C 
ATOM      2  C   UNL     1     159.554 164.712 164.605  1.00  0.00    -0.009 A 
ATOM      3  C   UNL     1     159.321 164.706 165.998  1.00  0.00     0.118 A 
ATOM      4  C   UNL     1     159.167 163.490 166.674  1.00  0.00     0.050 A 
ATOM      5  C   UNL     1     159.243 162.266 165.985  1.00  0.00    -0.042 A 
ATOM      6  C   UNL     1     159.476 162.281 164.601  1.00  0.00     0.004 A 
ATOM      7  C   UNL     1     159.630 163.488 163.919  1.00  0.00     0.007 A 
ENDROOT
BRANCH   3   8
ATOM      8  O   UNL     1     159.235 165.889 166.737  1.00  0.00    -0.508 OA
ATOM      9  H   UNL     1     158.647 165.988 167.554  1.00  0.00     0.293 HD
ENDBRANCH   3   8
BRANCH   5  10
ATOM     10  C   UNL     1     159.078 160.946 166.714  1.00  0.00     0.013 C 
ATOM     11  C   UNL     1     159.845 159.823 166.003  1.00  0.00     0.012 C 
ATOM     12  C   UNL     1     157.597 160.584 166.875  1.00  0.00     0.012 C 
ENDBRANCH   5  10
TORSDOF 2
ENDMDL
MODEL 3
REMARK VINA RESULT:    -3.644     10.167     12.650
REMARK INTER + INTRA:          -4.091
REMARK INTER:                  -3.964
REMARK INTRA:                  -0.127
REMARK UNBOUND:                -0.127
REMARK SMILES Cc1ccc(C(C)C)cc1O
REMARK SMILES IDX 1 1 2 2 10 3 9 4 5 5 4 6 3 7 11 8 6 10 7 11 8 12
REMARK H PARENT 11 9
REMARK Flexibility Score: inf
ROOT
ATOM      1  C   UNL     1     166.048 155.091 163.764  1.00  0.00     0.048 C 
ATOM      2  C   UNL     1     164.761 155.291 164.515  1.00  0.00    -0.009 A 
ATOM      3  C   UNL     1     164.758 155.595 165.895  1.00  0.00     0.118 A 
ATOM      4  C   UNL     1     163.543 155.776 166.566  1.00  0.00     0.050 A 
ATOM      5  C   UNL     1     162.318 155.658 165.885  1.00  0.00    -0.042 A 
ATOM      6  C   UNL     1     162.330 155.355 164.515  1.00  0.00     0.004 A 
ATOM      7  C   UNL     1     163.537 155.174 163.838  1.00  0.00     0.007 A 
ENDROOT
BRANCH   3   8
ATOM      8  O   UNL     1     165.942 155.725 166.625  1.00  0.00    -0.508 OA
ATOM      9  H   UNL     1     165.961 155.946 167.612  1.00  0.00     0.293 HD
ENDBRANCH   3   8
BRANCH   5  10
ATOM     10  C   UNL     1     160.998 155.852 166.608  1.00  0.00     0.013 C 
ATOM     11  C   UNL     1     159.854 155.145 165.869  1.00  0.00     0.012 C 
ATOM     12  C   UNL     1     160.690 157.341 166.807  1.00  0.00     0.012 C 
ENDBRANCH   5  10
TORSDOF 2
ENDMDL
MODEL 4
REMARK VINA RESULT:    -3.631      7.207      9.070
REMARK INTER + INTRA:          -4.077
REMARK INTER:                  -3.950
REMARK INTRA:                  -0.127
REMARK UNBOUND:                -0.127
REMARK SMILES Cc1ccc(C(C)C)cc1O
REMARK SMILES IDX 1 1 2 2 10 3 9 4 5 5 4 6 3 7 11 8 6 10 7 11 8 12
REMARK H PARENT 11 9
REMARK Flexibility Score: inf
ROOT
ATOM      1  C   UNL     1     155.087 148.738 163.720  1.00  0.00     0.048 C 
ATOM      2  C   UNL     1     155.296 150.013 164.488  1.00  0.00    -0.009 A 
ATOM      3  C   UNL     1     155.636 149.996 165.859  1.00  0.00     0.118 A 
ATOM      4  C   UNL     1     155.823 151.201 166.545  1.00  0.00     0.050 A 
ATOM      5  C   UNL     1     155.676 152.437 165.889  1.00  0.00    -0.042 A 
ATOM      6  C   UNL     1     155.337 152.445 164.527  1.00  0.00     0.004 A 
ATOM      7  C   UNL     1     155.148 151.248 163.835  1.00  0.00     0.007 A 
ENDROOT
BRANCH   3   8
ATOM      8  O   UNL     1     155.797 148.801 166.565  1.00  0.00    -0.508 OA
ATOM      9  H   UNL     1     155.935 148.766 167.567  1.00  0.00     0.293 HD
ENDBRANCH   3   8
BRANCH   5  10
ATOM     10  C   UNL     1     155.877 153.746 166.629  1.00  0.00     0.013 C 
ATOM     11  C   UNL     1     155.130 154.893 165.936  1.00  0.00     0.012 C 
ATOM     12  C   UNL     1     157.367 154.072 166.783  1.00  0.00     0.012 C 
ENDBRANCH   5  10
TORSDOF 2
ENDMDL
MODEL 5
REMARK VINA RESULT:    -3.557     12.054     13.945
REMARK INTER + INTRA:          -3.996
REMARK INTER:                  -3.871
REMARK INTRA:                  -0.124
REMARK UNBOUND:                -0.127
REMARK SMILES Cc1ccc(C(C)C)cc1O
REMARK SMILES IDX 1 1 2 2 10 3 9 4 5 5 4 6 3 7 11 8 6 10 7 11 8 12
REMARK H PARENT 11 9
REMARK Flexibility Score: inf
ROOT
ATOM      1  C   UNL     1     162.715 155.980 167.099  1.00  0.00     0.048 C 
ATOM      2  C   UNL     1     163.499 155.661 165.857  1.00  0.00    -0.009 A 
ATOM      3  C   UNL     1     164.888 155.409 165.912  1.00  0.00     0.118 A 
ATOM      4  C   UNL     1     165.590 155.115 164.737  1.00  0.00     0.050 A 
ATOM      5  C   UNL     1     164.931 155.066 163.495  1.00  0.00    -0.042 A 
ATOM      6  C   UNL     1     163.551 155.318 163.449  1.00  0.00     0.004 A 
ATOM      7  C   UNL     1     162.843 155.612 164.616  1.00  0.00     0.007 A 
ENDROOT
BRANCH   3   8
ATOM      8  O   UNL     1     165.597 155.443 167.115  1.00  0.00    -0.508 OA
ATOM      9  H   UNL     1     165.436 154.788 167.870  1.00  0.00     0.293 HD
ENDBRANCH   3   8
BRANCH   5  10
ATOM     10  C   UNL     1     165.688 154.748 162.219  1.00  0.00     0.013 C 
ATOM     11  C   UNL     1     164.838 153.892 161.271  1.00  0.00     0.012 C 
ATOM     12  C   UNL     1     167.027 154.068 162.525  1.00  0.00     0.012 C 
ENDBRANCH   5  10
TORSDOF 2
ENDMDL
MODEL 6
REMARK VINA RESULT:    -3.553      8.726     10.365
REMARK INTER + INTRA:          -3.992
REMARK INTER:                  -3.865
REMARK INTRA:                  -0.127
REMARK UNBOUND:                -0.127
REMARK SMILES Cc1ccc(C(C)C)cc1O
REMARK SMILES IDX 1 1 2 2 10 3 9 4 5 5 4 6 3 7 11 8 6 10 7 11 8 12
REMARK H PARENT 11 9
REMARK Flexibility Score: inf
ROOT
ATOM      1  C   UNL     1     156.085 152.135 167.070  1.00  0.00     0.048 C 
ATOM      2  C   UNL     1     155.705 151.374 165.830  1.00  0.00    -0.009 A 
ATOM      3  C   UNL     1     155.407 149.995 165.879  1.00  0.00     0.118 A 
ATOM      4  C   UNL     1     155.057 149.315 164.707  1.00  0.00     0.050 A 
ATOM      5  C   UNL     1     154.997 149.988 163.473  1.00  0.00    -0.042 A 
ATOM      6  C   UNL     1     155.296 151.359 163.433  1.00  0.00     0.004 A 
ATOM      7  C   UNL     1     155.646 152.044 164.597  1.00  0.00     0.007 A 
ENDROOT
BRANCH   3   8
ATOM      8  O   UNL     1     155.449 149.272 167.075  1.00  0.00    -0.508 OA
ATOM      9  H   UNL     1     154.751 149.367 167.801  1.00  0.00     0.293 HD
ENDBRANCH   3   8
BRANCH   5  10
ATOM     10  C   UNL     1     154.619 149.256 162.199  1.00  0.00     0.013 C 
ATOM     11  C   UNL     1     154.053 150.225 161.152  1.00  0.00     0.012 C 
ATOM     12  C   UNL     1     153.632 148.118 162.487  1.00  0.00     0.012 C 
ENDBRANCH   5  10
TORSDOF 2
ENDMDL
MODEL 7
REMARK VINA RESULT:    -3.465      6.981      8.113
REMARK INTER + INTRA:          -3.896
REMARK INTER:                  -3.773
REMARK INTRA:                  -0.123
REMARK UNBOUND:                -0.127
REMARK SMILES Cc1ccc(C(C)C)cc1O
REMARK SMILES IDX 1 1 2 2 10 3 9 4 5 5 4 6 3 7 11 8 6 10 7 11 8 12
REMARK H PARENT 11 9
REMARK Flexibility Score: inf
ROOT
ATOM      1  C   UNL     1     147.617 149.727 165.249  1.00  0.00     0.048 C 
ATOM      2  C   UNL     1     147.793 151.207 165.451  1.00  0.00    -0.009 A 
ATOM      3  C   UNL     1     147.982 152.079 164.357  1.00  0.00     0.118 A 
ATOM      4  C   UNL     1     148.142 153.451 164.579  1.00  0.00     0.050 A 
ATOM      5  C   UNL     1     148.119 153.980 165.882  1.00  0.00    -0.042 A 
ATOM      6  C   UNL     1     147.932 153.106 166.964  1.00  0.00     0.004 A 
ATOM      7  C   UNL     1     147.771 151.736 166.752  1.00  0.00     0.007 A 
ENDROOT
BRANCH   3   8
ATOM      8  O   UNL     1     148.013 151.614 163.039  1.00  0.00    -0.508 OA
ATOM      9  H   UNL     1     148.435 150.733 162.775  1.00  0.00     0.293 HD
ENDBRANCH   3   8
BRANCH   5  10
ATOM     10  C   UNL     1     148.294 155.467 166.128  1.00  0.00     0.013 C 
ATOM     11  C   UNL     1     147.251 155.988 167.125  1.00  0.00     0.012 C 
ATOM     12  C   UNL     1     148.242 156.255 164.813  1.00  0.00     0.012 C 
ENDBRANCH   5  10
TORSDOF 2
ENDMDL
MODEL 8
REMARK VINA RESULT:    -3.437      8.431     10.356
REMARK INTER + INTRA:          -3.866
REMARK INTER:                  -3.739
REMARK INTRA:                  -0.126
REMARK UNBOUND:                -0.127
REMARK SMILES Cc1ccc(C(C)C)cc1O
REMARK SMILES IDX 1 1 2 2 10 3 9 4 5 5 4 6 3 7 11 8 6 10 7 11 8 12
REMARK H PARENT 11 9
REMARK Flexibility Score: inf
ROOT
ATOM      1  C   UNL     1     158.685 162.826 166.889  1.00  0.00     0.048 C 
ATOM      2  C   UNL     1     159.148 163.560 165.662  1.00  0.00    -0.009 A 
ATOM      3  C   UNL     1     159.425 164.944 165.697  1.00  0.00     0.118 A 
ATOM      4  C   UNL     1     159.855 165.598 164.537  1.00  0.00     0.050 A 
ATOM      5  C   UNL     1     160.017 164.896 163.329  1.00  0.00    -0.042 A 
ATOM      6  C   UNL     1     159.739 163.520 163.303  1.00  0.00     0.004 A 
ATOM      7  C   UNL     1     159.310 162.860 164.455  1.00  0.00     0.007 A 
ENDROOT
BRANCH   3   8
ATOM      8  O   UNL     1     159.283 165.696 166.866  1.00  0.00    -0.508 OA
ATOM      9  H   UNL     1     159.632 165.390 167.765  1.00  0.00     0.293 HD
ENDBRANCH   3   8
BRANCH   5  10
ATOM     10  C   UNL     1     160.482 165.600 162.068  1.00  0.00     0.013 C 
ATOM     11  C   UNL     1     161.153 164.617 161.101  1.00  0.00     0.012 C 
ATOM     12  C   UNL     1     161.416 166.770 162.401  1.00  0.00     0.012 C 
ENDBRANCH   5  10
TORSDOF 2
ENDMDL
MODEL 9
REMARK VINA RESULT:    -3.414      1.558      4.599
REMARK INTER + INTRA:          -3.840
REMARK INTER:                  -3.713
REMARK INTRA:                  -0.127
REMARK UNBOUND:                -0.127
REMARK SMILES Cc1ccc(C(C)C)cc1O
REMARK SMILES IDX 1 1 2 2 10 3 9 4 5 5 4 6 3 7 11 8 6 10 7 11 8 12
REMARK H PARENT 11 9
REMARK Flexibility Score: inf
ROOT
ATOM      1  C   UNL     1     152.031 158.656 166.690  1.00  0.00     0.048 C 
ATOM      2  C   UNL     1     151.245 159.132 165.500  1.00  0.00    -0.009 A 
ATOM      3  C   UNL     1     149.854 159.366 165.586  1.00  0.00     0.118 A 
ATOM      4  C   UNL     1     149.151 159.808 164.460  1.00  0.00     0.050 A 
ATOM      5  C   UNL     1     149.809 160.024 163.236  1.00  0.00    -0.042 A 
ATOM      6  C   UNL     1     151.191 159.788 163.159  1.00  0.00     0.004 A 
ATOM      7  C   UNL     1     151.900 159.347 164.277  1.00  0.00     0.007 A 
ENDROOT
BRANCH   3   8
ATOM      8  O   UNL     1     149.145 159.169 166.774  1.00  0.00    -0.508 OA
ATOM      9  H   UNL     1     149.344 158.415 167.418  1.00  0.00     0.293 HD
ENDBRANCH   3   8
BRANCH   5  10
ATOM     10  C   UNL     1     149.051 160.503 162.012  1.00  0.00     0.013 C 
ATOM     11  C   UNL     1     150.011 161.041 160.943  1.00  0.00     0.012 C 
ATOM     12  C   UNL     1     148.000 161.553 162.388  1.00  0.00     0.012 C 
ENDBRANCH   5  10
TORSDOF 2
ENDMDL
