MODEL 1
REMARK VINA RESULT:    -4.610      0.000      0.000
REMARK INTER + INTRA:          -4.610
REMARK INTER:                  -4.610
REMARK INTRA:                   0.000
REMARK UNBOUND:                 0.000
REMARK SMILES CC1=CC[C@@]2(C)CCCC(C)(C)[C@@]23C[C@@H]13
REMARK SMILES IDX 1 1 2 2 3 3 4 4 5 5 7 6 8 7 9 8 10 9 13 10 15 11 14 12 11 13
REMARK SMILES IDX 12 14 6 15
REMARK H PARENT
REMARK Flexibility Score: inf
ROOT
ATOM      1  C   UNL     1      24.323  61.247  16.931  1.00  0.00     0.039 C 
ATOM      2  C   UNL     1      23.401  62.430  17.021  1.00  0.00    -0.074 C 
ATOM      3  C   UNL     1      23.153  62.982  18.227  1.00  0.00    -0.027 C 
ATOM      4  C   UNL     1      22.246  64.176  18.388  1.00  0.00     0.034 C 
ATOM      5  C   UNL     1      21.080  64.137  17.357  1.00  0.00    -0.022 C 
ATOM      6  C   UNL     1      20.289  65.464  17.443  1.00  0.00     0.008 C 
ATOM      7  C   UNL     1      19.201  65.596  16.363  1.00  0.00     0.001 C 
ATOM      8  C   UNL     1      19.764  65.447  14.941  1.00  0.00     0.007 C 
ATOM      9  C   UNL     1      20.574  64.142  14.692  1.00  0.00    -0.029 C 
ATOM     10  C   UNL     1      21.616  63.975  15.877  1.00  0.00    -0.012 C 
ATOM     11  C   UNL     1      22.772  62.971  15.746  1.00  0.00     0.022 C 
ATOM     12  C   UNL     1      23.057  64.459  15.552  1.00  0.00     0.017 C 
ATOM     13  C   UNL     1      19.630  62.917  14.610  1.00  0.00     0.012 C 
ATOM     14  C   UNL     1      21.213  64.285  13.278  1.00  0.00     0.012 C 
ATOM     15  C   UNL     1      20.170  62.938  17.771  1.00  0.00     0.012 C 
ENDROOT
TORSDOF 0
ENDMDL
MODEL 2
REMARK VINA RESULT:    -4.542      1.016      4.044
REMARK INTER + INTRA:          -4.542
REMARK INTER:                  -4.542
REMARK INTRA:                   0.000
REMARK UNBOUND:                 0.000
REMARK SMILES CC1=CC[C@@]2(C)CCCC(C)(C)[C@@]23C[C@@H]13
REMARK SMILES IDX 1 1 2 2 3 3 4 4 5 5 7 6 8 7 9 8 10 9 13 10 15 11 14 12 11 13
REMARK SMILES IDX 12 14 6 15
REMARK H PARENT
REMARK Flexibility Score: inf
ROOT
ATOM      1  C   UNL     1      18.380  66.125  14.626  1.00  0.00     0.039 C 
ATOM      2  C   UNL     1      19.165  65.154  15.462  1.00  0.00    -0.074 C 
ATOM      3  C   UNL     1      18.788  64.929  16.738  1.00  0.00    -0.027 C 
ATOM      4  C   UNL     1      19.524  63.960  17.630  1.00  0.00     0.034 C 
ATOM      5  C   UNL     1      21.049  63.957  17.314  1.00  0.00    -0.022 C 
ATOM      6  C   UNL     1      21.726  62.825  18.125  1.00  0.00     0.008 C 
ATOM      7  C   UNL     1      23.213  62.634  17.776  1.00  0.00     0.001 C 
ATOM      8  C   UNL     1      23.437  62.373  16.279  1.00  0.00     0.007 C 
ATOM      9  C   UNL     1      22.826  63.444  15.330  1.00  0.00    -0.029 C 
ATOM     10  C   UNL     1      21.325  63.700  15.778  1.00  0.00    -0.012 C 
ATOM     11  C   UNL     1      20.364  64.452  14.844  1.00  0.00     0.022 C 
ATOM     12  C   UNL     1      20.257  62.932  14.949  1.00  0.00     0.017 C 
ATOM     13  C   UNL     1      23.649  64.756  15.380  1.00  0.00     0.012 C 
ATOM     14  C   UNL     1      22.989  62.892  13.882  1.00  0.00     0.012 C 
ATOM     15  C   UNL     1      21.593  65.347  17.770  1.00  0.00     0.012 C 
ENDROOT
TORSDOF 0
ENDMDL
MODEL 3
REMARK VINA RESULT:    -4.461      1.164      4.074
REMARK INTER + INTRA:          -4.461
REMARK INTER:                  -4.461
REMARK INTRA:                   0.000
REMARK UNBOUND:                 0.000
REMARK SMILES CC1=CC[C@@]2(C)CCCC(C)(C)[C@@]23C[C@@H]13
REMARK SMILES IDX 1 1 2 2 3 3 4 4 5 5 7 6 8 7 9 8 10 9 13 10 15 11 14 12 11 13
REMARK SMILES IDX 12 14 6 15
REMARK H PARENT
REMARK Flexibility Score: inf
ROOT
ATOM      1  C   UNL     1      20.949  65.797  12.309  1.00  0.00     0.039 C 
ATOM      2  C   UNL     1      20.727  65.063  13.600  1.00  0.00    -0.074 C 
ATOM      3  C   UNL     1      19.554  65.216  14.251  1.00  0.00    -0.027 C 
ATOM      4  C   UNL     1      19.261  64.500  15.547  1.00  0.00     0.034 C 
ATOM      5  C   UNL     1      20.551  64.344  16.405  1.00  0.00    -0.022 C 
ATOM      6  C   UNL     1      20.233  63.452  17.629  1.00  0.00     0.008 C 
ATOM      7  C   UNL     1      21.476  63.108  18.470  1.00  0.00     0.001 C 
ATOM      8  C   UNL     1      22.579  62.434  17.640  1.00  0.00     0.007 C 
ATOM      9  C   UNL     1      23.023  63.227  16.376  1.00  0.00    -0.029 C 
ATOM     10  C   UNL     1      21.718  63.661  15.584  1.00  0.00    -0.012 C 
ATOM     11  C   UNL     1      21.832  64.166  14.137  1.00  0.00     0.022 C 
ATOM     12  C   UNL     1      21.345  62.740  14.387  1.00  0.00     0.017 C 
ATOM     13  C   UNL     1      23.866  64.464  16.772  1.00  0.00     0.012 C 
ATOM     14  C   UNL     1      23.983  62.290  15.585  1.00  0.00     0.012 C 
ATOM     15  C   UNL     1      20.943  65.781  16.871  1.00  0.00     0.012 C 
ENDROOT
TORSDOF 0
ENDMDL
MODEL 4
REMARK VINA RESULT:    -4.374      1.244      3.345
REMARK INTER + INTRA:          -4.374
REMARK INTER:                  -4.374
REMARK INTRA:                   0.000
REMARK UNBOUND:                 0.000
REMARK SMILES CC1=CC[C@@]2(C)CCCC(C)(C)[C@@]23C[C@@H]13
REMARK SMILES IDX 1 1 2 2 3 3 4 4 5 5 7 6 8 7 9 8 10 9 13 10 15 11 14 12 11 13
REMARK SMILES IDX 12 14 6 15
REMARK H PARENT
REMARK Flexibility Score: inf
ROOT
ATOM      1  C   UNL     1      20.962  64.888  20.682  1.00  0.00     0.039 C 
ATOM      2  C   UNL     1      21.297  64.205  19.387  1.00  0.00    -0.074 C 
ATOM      3  C   UNL     1      22.436  63.485  19.298  1.00  0.00    -0.027 C 
ATOM      4  C   UNL     1      22.829  62.765  18.032  1.00  0.00     0.034 C 
ATOM      5  C   UNL     1      22.374  63.560  16.772  1.00  0.00    -0.022 C 
ATOM      6  C   UNL     1      22.639  62.698  15.513  1.00  0.00     0.008 C 
ATOM      7  C   UNL     1      22.090  63.327  14.220  1.00  0.00     0.001 C 
ATOM      8  C   UNL     1      20.587  63.629  14.305  1.00  0.00     0.007 C 
ATOM      9  C   UNL     1      20.164  64.509  15.517  1.00  0.00    -0.029 C 
ATOM     10  C   UNL     1      20.831  63.901  16.823  1.00  0.00    -0.012 C 
ATOM     11  C   UNL     1      20.342  64.346  18.211  1.00  0.00     0.022 C 
ATOM     12  C   UNL     1      19.896  62.990  17.668  1.00  0.00     0.017 C 
ATOM     13  C   UNL     1      20.603  65.980  15.307  1.00  0.00     0.012 C 
ATOM     14  C   UNL     1      18.607  64.525  15.528  1.00  0.00     0.012 C 
ATOM     15  C   UNL     1      23.246  64.854  16.733  1.00  0.00     0.012 C 
ENDROOT
TORSDOF 0
ENDMDL
MODEL 5
REMARK VINA RESULT:    -4.365      1.022      3.186
REMARK INTER + INTRA:          -4.365
REMARK INTER:                  -4.365
REMARK INTRA:                   0.000
REMARK UNBOUND:                 0.000
REMARK SMILES CC1=CC[C@@]2(C)CCCC(C)(C)[C@@]23C[C@@H]13
REMARK SMILES IDX 1 1 2 2 3 3 4 4 5 5 7 6 8 7 9 8 10 9 13 10 15 11 14 12 11 13
REMARK SMILES IDX 12 14 6 15
REMARK H PARENT
REMARK Flexibility Score: inf
ROOT
ATOM      1  C   UNL     1      22.859  64.905  19.828  1.00  0.00     0.039 C 
ATOM      2  C   UNL     1      22.413  64.235  18.560  1.00  0.00    -0.074 C 
ATOM      3  C   UNL     1      23.288  63.467  17.877  1.00  0.00    -0.027 C 
ATOM      4  C   UNL     1      22.903  62.757  16.603  1.00  0.00     0.034 C 
ATOM      5  C   UNL     1      21.883  63.598  15.780  1.00  0.00    -0.022 C 
ATOM      6  C   UNL     1      21.388  62.752  14.582  1.00  0.00     0.008 C 
ATOM      7  C   UNL     1      20.262  63.432  13.782  1.00  0.00     0.001 C 
ATOM      8  C   UNL     1      19.056  63.799  14.661  1.00  0.00     0.007 C 
ATOM      9  C   UNL     1      19.395  64.671  15.904  1.00  0.00    -0.029 C 
ATOM     10  C   UNL     1      20.628  64.006  16.651  1.00  0.00    -0.012 C 
ATOM     11  C   UNL     1      20.984  64.444  18.081  1.00  0.00     0.022 C 
ATOM     12  C   UNL     1      20.250  63.121  17.872  1.00  0.00     0.017 C 
ATOM     13  C   UNL     1      19.724  66.125  15.482  1.00  0.00     0.012 C 
ATOM     14  C   UNL     1      18.090  64.756  16.750  1.00  0.00     0.012 C 
ATOM     15  C   UNL     1      22.660  64.852  15.270  1.00  0.00     0.012 C 
ENDROOT
TORSDOF 0
ENDMDL
MODEL 6
REMARK VINA RESULT:    -4.347      1.197      4.402
REMARK INTER + INTRA:          -4.347
REMARK INTER:                  -4.347
REMARK INTRA:                   0.000
REMARK UNBOUND:                 0.000
REMARK SMILES CC1=CC[C@@]2(C)CCCC(C)(C)[C@@]23C[C@@H]13
REMARK SMILES IDX 1 1 2 2 3 3 4 4 5 5 7 6 8 7 9 8 10 9 13 10 15 11 14 12 11 13
REMARK SMILES IDX 12 14 6 15
REMARK H PARENT
REMARK Flexibility Score: inf
ROOT
ATOM      1  C   UNL     1      19.139  62.517  13.808  1.00  0.00     0.039 C 
ATOM      2  C   UNL     1      20.262  63.366  14.332  1.00  0.00    -0.074 C 
ATOM      3  C   UNL     1      20.900  64.206  13.490  1.00  0.00    -0.027 C 
ATOM      4  C   UNL     1      22.030  65.094  13.951  1.00  0.00     0.034 C 
ATOM      5  C   UNL     1      22.876  64.394  15.056  1.00  0.00    -0.022 C 
ATOM      6  C   UNL     1      23.902  65.407  15.618  1.00  0.00     0.008 C 
ATOM      7  C   UNL     1      24.694  64.866  16.821  1.00  0.00     0.001 C 
ATOM      8  C   UNL     1      23.781  64.401  17.965  1.00  0.00     0.007 C 
ATOM      9  C   UNL     1      22.701  63.358  17.557  1.00  0.00    -0.029 C 
ATOM     10  C   UNL     1      21.971  63.891  16.251  1.00  0.00    -0.012 C 
ATOM     11  C   UNL     1      20.648  63.252  15.799  1.00  0.00     0.022 C 
ATOM     12  C   UNL     1      20.614  64.604  16.508  1.00  0.00     0.017 C 
ATOM     13  C   UNL     1      23.344  61.972  17.304  1.00  0.00     0.012 C 
ATOM     14  C   UNL     1      21.772  63.179  18.795  1.00  0.00     0.012 C 
ATOM     15  C   UNL     1      23.614  63.209  14.357  1.00  0.00     0.012 C 
ENDROOT
TORSDOF 0
ENDMDL
MODEL 7
REMARK VINA RESULT:    -4.144      1.743      2.481
REMARK INTER + INTRA:          -4.144
REMARK INTER:                  -4.144
REMARK INTRA:                   0.000
REMARK UNBOUND:                 0.000
REMARK SMILES CC1=CC[C@@]2(C)CCCC(C)(C)[C@@]23C[C@@H]13
REMARK SMILES IDX 1 1 2 2 3 3 4 4 5 5 7 6 8 7 9 8 10 9 13 10 15 11 14 12 11 13
REMARK SMILES IDX 12 14 6 15
REMARK H PARENT
REMARK Flexibility Score: inf
ROOT
ATOM      1  C   UNL     1      24.594  60.428  13.500  1.00  0.00     0.039 C 
ATOM      2  C   UNL     1      24.309  61.684  14.273  1.00  0.00    -0.074 C 
ATOM      3  C   UNL     1      25.118  62.025  15.298  1.00  0.00    -0.027 C 
ATOM      4  C   UNL     1      24.897  63.277  16.110  1.00  0.00     0.034 C 
ATOM      5  C   UNL     1      23.378  63.591  16.251  1.00  0.00    -0.022 C 
ATOM      6  C   UNL     1      23.212  64.971  16.932  1.00  0.00     0.008 C 
ATOM      7  C   UNL     1      21.751  65.450  16.989  1.00  0.00     0.001 C 
ATOM      8  C   UNL     1      21.095  65.501  15.601  1.00  0.00     0.007 C 
ATOM      9  C   UNL     1      21.164  64.171  14.795  1.00  0.00    -0.029 C 
ATOM     10  C   UNL     1      22.660  63.644  14.843  1.00  0.00    -0.012 C 
ATOM     11  C   UNL     1      23.114  62.538  13.877  1.00  0.00     0.022 C 
ATOM     12  C   UNL     1      23.511  63.984  13.587  1.00  0.00     0.017 C 
ATOM     13  C   UNL     1      20.189  63.121  15.385  1.00  0.00     0.012 C 
ATOM     14  C   UNL     1      20.632  64.493  13.367  1.00  0.00     0.012 C 
ATOM     15  C   UNL     1      22.782  62.468  17.157  1.00  0.00     0.012 C 
ENDROOT
TORSDOF 0
ENDMDL
MODEL 8
REMARK VINA RESULT:    -4.140      1.255      3.760
REMARK INTER + INTRA:          -4.140
REMARK INTER:                  -4.140
REMARK INTRA:                   0.000
REMARK UNBOUND:                 0.000
REMARK SMILES CC1=CC[C@@]2(C)CCCC(C)(C)[C@@]23C[C@@H]13
REMARK SMILES IDX 1 1 2 2 3 3 4 4 5 5 7 6 8 7 9 8 10 9 13 10 15 11 14 12 11 13
REMARK SMILES IDX 12 14 6 15
REMARK H PARENT
REMARK Flexibility Score: inf
ROOT
ATOM      1  C   UNL     1      18.115  65.403  17.567  1.00  0.00     0.039 C 
ATOM      2  C   UNL     1      19.313  64.604  17.140  1.00  0.00    -0.074 C 
ATOM      3  C   UNL     1      19.952  63.838  18.050  1.00  0.00    -0.027 C 
ATOM      4  C   UNL     1      21.155  63.003  17.687  1.00  0.00     0.034 C 
ATOM      5  C   UNL     1      22.018  63.707  16.598  1.00  0.00    -0.022 C 
ATOM      6  C   UNL     1      23.131  62.736  16.135  1.00  0.00     0.008 C 
ATOM      7  C   UNL     1      23.955  63.275  14.952  1.00  0.00     0.001 C 
ATOM      8  C   UNL     1      23.079  63.638  13.743  1.00  0.00     0.007 C 
ATOM      9  C   UNL     1      21.919  64.629  14.049  1.00  0.00    -0.029 C 
ATOM     10  C   UNL     1      21.152  64.107  15.337  1.00  0.00    -0.012 C 
ATOM     11  C   UNL     1      19.772  64.682  15.692  1.00  0.00     0.022 C 
ATOM     12  C   UNL     1      19.854  63.303  15.041  1.00  0.00     0.017 C 
ATOM     13  C   UNL     1      22.466  66.061  14.275  1.00  0.00     0.012 C 
ATOM     14  C   UNL     1      21.051  64.702  12.758  1.00  0.00     0.012 C 
ATOM     15  C   UNL     1      22.647  64.961  17.283  1.00  0.00     0.012 C 
ENDROOT
TORSDOF 0
ENDMDL
MODEL 9
REMARK VINA RESULT:    -4.110      1.741      4.194
REMARK INTER + INTRA:          -4.110
REMARK INTER:                  -4.110
REMARK INTRA:                   0.000
REMARK UNBOUND:                 0.000
REMARK SMILES CC1=CC[C@@]2(C)CCCC(C)(C)[C@@]23C[C@@H]13
REMARK SMILES IDX 1 1 2 2 3 3 4 4 5 5 7 6 8 7 9 8 10 9 13 10 15 11 14 12 11 13
REMARK SMILES IDX 12 14 6 15
REMARK H PARENT
REMARK Flexibility Score: inf
ROOT
ATOM      1  C   UNL     1      21.810  65.879  10.616  1.00  0.00     0.039 C 
ATOM      2  C   UNL     1      21.949  65.552  12.076  1.00  0.00    -0.074 C 
ATOM      3  C   UNL     1      23.177  65.555  12.637  1.00  0.00    -0.027 C 
ATOM      4  C   UNL     1      23.388  65.246  14.099  1.00  0.00     0.034 C 
ATOM      5  C   UNL     1      22.365  64.184  14.600  1.00  0.00    -0.022 C 
ATOM      6  C   UNL     1      22.505  64.037  16.134  1.00  0.00     0.008 C 
ATOM      7  C   UNL     1      21.438  63.120  16.758  1.00  0.00     0.001 C 
ATOM      8  C   UNL     1      20.008  63.577  16.433  1.00  0.00     0.007 C 
ATOM      9  C   UNL     1      19.705  63.752  14.917  1.00  0.00    -0.029 C 
ATOM     10  C   UNL     1      20.876  64.612  14.277  1.00  0.00    -0.012 C 
ATOM     11  C   UNL     1      20.700  65.227  12.880  1.00  0.00     0.022 C 
ATOM     12  C   UNL     1      20.557  66.124  14.108  1.00  0.00     0.017 C 
ATOM     13  C   UNL     1      19.587  62.374  14.218  1.00  0.00     0.012 C 
ATOM     14  C   UNL     1      18.293  64.402  14.823  1.00  0.00     0.012 C 
ATOM     15  C   UNL     1      22.743  62.844  13.893  1.00  0.00     0.012 C 
ENDROOT
TORSDOF 0
ENDMDL
