MODEL 1
REMARK VINA RESULT:    -6.137      0.000      0.000
REMARK INTER + INTRA:          -7.806
REMARK INTER:                  -7.572
REMARK INTRA:                  -0.234
REMARK UNBOUND:                -0.234
REMARK SMILES Oc1cc(O)c2cc(O)c(-c3cc(O)c(O)c(O)c3)[o+]c2c1
REMARK SMILES IDX 10 1 20 2 21 3 22 4 2 5 3 6 4 7 6 8 7 9 8 10 11 11 12 12
REMARK SMILES IDX 13 13 19 14 15 15 17 16 14 17 16 19 18 21 9 23 1 25 5 27
REMARK H PARENT 14 18 16 20 18 22 9 24 1 26 5 28
REMARK Flexibility Score: inf
ROOT
ATOM      1  C   UNL     1       8.378  26.024  12.980  1.00  0.00     0.402 A 
ATOM      2  O   UNL     1       9.143  26.177  11.902  1.00  0.00    -0.202 OA
ATOM      3  C   UNL     1       9.236  25.267  10.938  1.00  0.00     0.368 A 
ATOM      4  C   UNL     1      10.069  25.517   9.845  1.00  0.00     0.162 A 
ATOM      5  C   UNL     1      10.188  24.575   8.819  1.00  0.00     0.128 A 
ATOM      6  C   UNL     1       9.472  23.378   8.887  1.00  0.00     0.093 A 
ATOM      7  C   UNL     1       8.630  23.103   9.973  1.00  0.00     0.136 A 
ATOM      8  C   UNL     1       8.504  24.058  11.015  1.00  0.00     0.125 A 
ATOM      9  C   UNL     1       7.675  23.873  12.134  1.00  0.00     0.078 A 
ATOM     10  C   UNL     1       7.599  24.861  13.120  1.00  0.00     0.223 A 
ENDROOT
BRANCH   1  11
ATOM     11  C   UNL     1       8.366  27.108  13.989  1.00  0.00     0.091 A 
ATOM     12  C   UNL     1       7.202  27.870  14.169  1.00  0.00     0.068 A 
ATOM     13  C   UNL     1       7.171  28.915  15.104  1.00  0.00     0.162 A 
ATOM     14  C   UNL     1       9.515  27.428  14.733  1.00  0.00     0.068 A 
ATOM     15  C   UNL     1       8.312  29.215  15.857  1.00  0.00     0.200 A 
ATOM     16  C   UNL     1       9.490  28.473  15.668  1.00  0.00     0.162 A 
BRANCH  13  17
ATOM     17  O   UNL     1       6.007  29.658  15.289  1.00  0.00    -0.504 OA
ATOM     18  H   UNL     1       6.035  30.618  15.615  1.00  0.00     0.293 HD
ENDBRANCH  13  17
BRANCH  15  19
ATOM     19  O   UNL     1       8.262  30.256  16.785  1.00  0.00    -0.502 OA
ATOM     20  H   UNL     1       8.328  30.093  17.783  1.00  0.00     0.293 HD
ENDBRANCH  15  19
BRANCH  16  21
ATOM     21  O   UNL     1      10.634  28.778  16.405  1.00  0.00    -0.504 OA
ATOM     22  H   UNL     1      11.370  29.364  16.028  1.00  0.00     0.293 HD
ENDBRANCH  16  21
ENDBRANCH   1  11
BRANCH  10  23
ATOM     23  O   UNL     1       6.738  24.701  14.207  1.00  0.00    -0.500 OA
ATOM     24  H   UNL     1       6.305  25.495  14.665  1.00  0.00     0.294 HD
ENDBRANCH  10  23
BRANCH   5  25
ATOM     25  O   UNL     1      11.016  24.818   7.725  1.00  0.00    -0.507 OA
ATOM     26  H   UNL     1      11.049  25.726   7.276  1.00  0.00     0.293 HD
ENDBRANCH   5  25
BRANCH   7  27
ATOM     27  O   UNL     1       7.952  21.881   9.968  1.00  0.00    -0.507 OA
ATOM     28  H   UNL     1       8.349  21.008  10.279  1.00  0.00     0.293 HD
ENDBRANCH   7  27
TORSDOF 7
ENDMDL
MODEL 2
REMARK VINA RESULT:    -5.778      1.139      2.233
REMARK INTER + INTRA:          -7.363
REMARK INTER:                  -7.327
REMARK INTRA:                  -0.036
REMARK UNBOUND:                -0.234
REMARK SMILES Oc1cc(O)c2cc(O)c(-c3cc(O)c(O)c(O)c3)[o+]c2c1
REMARK SMILES IDX 10 1 20 2 21 3 22 4 2 5 3 6 4 7 6 8 7 9 8 10 11 11 12 12
REMARK SMILES IDX 13 13 19 14 15 15 17 16 14 17 16 19 18 21 9 23 1 25 5 27
REMARK H PARENT 14 18 16 20 18 22 9 24 1 26 5 28
REMARK Flexibility Score: inf
ROOT
ATOM      1  C   UNL     1       7.519  26.257  13.539  1.00  0.00     0.402 A 
ATOM      2  O   UNL     1       8.345  26.003  12.527  1.00  0.00    -0.202 OA
ATOM      3  C   UNL     1       8.230  24.938  11.741  1.00  0.00     0.368 A 
ATOM      4  C   UNL     1       9.149  24.756  10.705  1.00  0.00     0.162 A 
ATOM      5  C   UNL     1       9.054  23.643   9.865  1.00  0.00     0.128 A 
ATOM      6  C   UNL     1       8.036  22.707  10.063  1.00  0.00     0.093 A 
ATOM      7  C   UNL     1       7.103  22.866  11.096  1.00  0.00     0.136 A 
ATOM      8  C   UNL     1       7.194  23.996  11.949  1.00  0.00     0.125 A 
ATOM      9  C   UNL     1       6.296  24.244  13.000  1.00  0.00     0.078 A 
ATOM     10  C   UNL     1       6.447  25.383  13.797  1.00  0.00     0.223 A 
ENDROOT
BRANCH   1  11
ATOM     11  C   UNL     1       7.756  27.473  14.349  1.00  0.00     0.091 A 
ATOM     12  C   UNL     1       9.029  27.704  14.892  1.00  0.00     0.068 A 
ATOM     13  C   UNL     1       9.274  28.837  15.680  1.00  0.00     0.162 A 
ATOM     14  C   UNL     1       6.717  28.376  14.635  1.00  0.00     0.068 A 
ATOM     15  C   UNL     1       8.241  29.744  15.942  1.00  0.00     0.200 A 
ATOM     16  C   UNL     1       6.956  29.511  15.423  1.00  0.00     0.162 A 
BRANCH  13  17
ATOM     17  O   UNL     1      10.545  29.069  16.203  1.00  0.00    -0.504 OA
ATOM     18  H   UNL     1      10.746  29.886  16.767  1.00  0.00     0.293 HD
ENDBRANCH  13  17
BRANCH  15  19
ATOM     19  O   UNL     1       8.504  30.869  16.726  1.00  0.00    -0.502 OA
ATOM     20  H   UNL     1       8.305  31.809  16.403  1.00  0.00     0.293 HD
ENDBRANCH  15  19
BRANCH  16  21
ATOM     21  O   UNL     1       5.920  30.404  15.695  1.00  0.00    -0.504 OA
ATOM     22  H   UNL     1       5.550  30.521  16.631  1.00  0.00     0.293 HD
ENDBRANCH  16  21
ENDBRANCH   1  11
BRANCH  10  23
ATOM     23  O   UNL     1       5.526  25.655  14.810  1.00  0.00    -0.500 OA
ATOM     24  H   UNL     1       4.551  25.844  14.606  1.00  0.00     0.294 HD
ENDBRANCH  10  23
BRANCH   5  25
ATOM     25  O   UNL     1       9.966  23.455   8.828  1.00  0.00    -0.507 OA
ATOM     26  H   UNL     1      10.879  23.895   8.840  1.00  0.00     0.293 HD
ENDBRANCH   5  25
BRANCH   7  27
ATOM     27  O   UNL     1       6.119  21.883  11.231  1.00  0.00    -0.507 OA
ATOM     28  H   UNL     1       6.246  20.912  10.988  1.00  0.00     0.293 HD
ENDBRANCH   7  27
TORSDOF 7
ENDMDL
MODEL 3
REMARK VINA RESULT:    -5.769      2.091      4.304
REMARK INTER + INTRA:          -7.351
REMARK INTER:                  -7.318
REMARK INTRA:                  -0.033
REMARK UNBOUND:                -0.234
REMARK SMILES Oc1cc(O)c2cc(O)c(-c3cc(O)c(O)c(O)c3)[o+]c2c1
REMARK SMILES IDX 10 1 20 2 21 3 22 4 2 5 3 6 4 7 6 8 7 9 8 10 11 11 12 12
REMARK SMILES IDX 13 13 19 14 15 15 17 16 14 17 16 19 18 21 9 23 1 25 5 27
REMARK H PARENT 14 18 16 20 18 22 9 24 1 26 5 28
REMARK Flexibility Score: inf
ROOT
ATOM      1  C   UNL     1       7.140  26.090  13.757  1.00  0.00     0.402 A 
ATOM      2  O   UNL     1       6.039  25.431  14.111  1.00  0.00    -0.202 OA
ATOM      3  C   UNL     1       5.646  24.302  13.529  1.00  0.00     0.368 A 
ATOM      4  C   UNL     1       4.473  23.684  13.969  1.00  0.00     0.162 A 
ATOM      5  C   UNL     1       4.035  22.498  13.373  1.00  0.00     0.128 A 
ATOM      6  C   UNL     1       4.773  21.928  12.333  1.00  0.00     0.093 A 
ATOM      7  C   UNL     1       5.952  22.529  11.873  1.00  0.00     0.136 A 
ATOM      8  C   UNL     1       6.402  23.732  12.477  1.00  0.00     0.125 A 
ATOM      9  C   UNL     1       7.578  24.396  12.091  1.00  0.00     0.078 A 
ATOM     10  C   UNL     1       7.960  25.575  12.737  1.00  0.00     0.223 A 
ENDROOT
BRANCH   1  11
ATOM     11  C   UNL     1       7.467  27.343  14.475  1.00  0.00     0.091 A 
ATOM     12  C   UNL     1       8.744  27.505  15.034  1.00  0.00     0.068 A 
ATOM     13  C   UNL     1       9.072  28.673  15.737  1.00  0.00     0.162 A 
ATOM     14  C   UNL     1       6.507  28.353  14.658  1.00  0.00     0.068 A 
ATOM     15  C   UNL     1       8.118  29.685  15.898  1.00  0.00     0.200 A 
ATOM     16  C   UNL     1       6.829  29.523  15.362  1.00  0.00     0.162 A 
BRANCH  13  17
ATOM     17  O   UNL     1      10.346  28.834  16.277  1.00  0.00    -0.504 OA
ATOM     18  H   UNL     1      10.811  28.084  16.776  1.00  0.00     0.293 HD
ENDBRANCH  13  17
BRANCH  15  19
ATOM     19  O   UNL     1       8.463  30.842  16.598  1.00  0.00    -0.502 OA
ATOM     20  H   UNL     1       8.229  31.768  16.258  1.00  0.00     0.293 HD
ENDBRANCH  15  19
BRANCH  16  21
ATOM     21  O   UNL     1       5.871  30.522  15.532  1.00  0.00    -0.504 OA
ATOM     22  H   UNL     1       6.118  31.504  15.518  1.00  0.00     0.293 HD
ENDBRANCH  16  21
ENDBRANCH   1  11
BRANCH  10  23
ATOM     23  O   UNL     1       9.154  26.209  12.387  1.00  0.00    -0.500 OA
ATOM     24  H   UNL     1       9.858  25.746  11.824  1.00  0.00     0.294 HD
ENDBRANCH  10  23
BRANCH   5  25
ATOM     25  O   UNL     1       2.867  21.875  13.807  1.00  0.00    -0.507 OA
ATOM     26  H   UNL     1       2.537  21.014  13.386  1.00  0.00     0.293 HD
ENDBRANCH   5  25
BRANCH   7  27
ATOM     27  O   UNL     1       6.630  21.899  10.826  1.00  0.00    -0.507 OA
ATOM     28  H   UNL     1       6.743  20.900  10.741  1.00  0.00     0.293 HD
ENDBRANCH   7  27
TORSDOF 7
ENDMDL
MODEL 4
REMARK VINA RESULT:    -5.721      3.522      3.640
REMARK INTER + INTRA:          -7.293
REMARK INTER:                  -7.134
REMARK INTRA:                  -0.159
REMARK UNBOUND:                -0.234
REMARK SMILES Oc1cc(O)c2cc(O)c(-c3cc(O)c(O)c(O)c3)[o+]c2c1
REMARK SMILES IDX 10 1 20 2 21 3 22 4 2 5 3 6 4 7 6 8 7 9 8 10 11 11 12 12
REMARK SMILES IDX 13 13 19 14 15 15 17 16 14 17 16 19 18 21 9 23 1 25 5 27
REMARK H PARENT 14 18 16 20 18 22 9 24 1 26 5 28
REMARK Flexibility Score: inf
ROOT
ATOM      1  C   UNL     1       6.729  26.680  14.334  1.00  0.00     0.402 A 
ATOM      2  O   UNL     1       5.966  26.820  13.252  1.00  0.00    -0.202 OA
ATOM      3  C   UNL     1       5.381  25.799  12.635  1.00  0.00     0.368 A 
ATOM      4  C   UNL     1       4.601  26.046  11.503  1.00  0.00     0.162 A 
ATOM      5  C   UNL     1       3.978  24.989  10.832  1.00  0.00     0.128 A 
ATOM      6  C   UNL     1       4.135  23.682  11.295  1.00  0.00     0.093 A 
ATOM      7  C   UNL     1       4.914  23.407  12.428  1.00  0.00     0.136 A 
ATOM      8  C   UNL     1       5.546  24.477  13.113  1.00  0.00     0.125 A 
ATOM      9  C   UNL     1       6.333  24.298  14.264  1.00  0.00     0.078 A 
ATOM     10  C   UNL     1       6.921  25.402  14.888  1.00  0.00     0.223 A 
ENDROOT
BRANCH   1  11
ATOM     11  C   UNL     1       7.333  27.895  14.927  1.00  0.00     0.091 A 
ATOM     12  C   UNL     1       6.514  28.990  15.243  1.00  0.00     0.068 A 
ATOM     13  C   UNL     1       7.065  30.160  15.785  1.00  0.00     0.162 A 
ATOM     14  C   UNL     1       8.720  27.999  15.127  1.00  0.00     0.068 A 
ATOM     15  C   UNL     1       8.445  30.248  16.003  1.00  0.00     0.200 A 
ATOM     16  C   UNL     1       9.277  29.167  15.668  1.00  0.00     0.162 A 
BRANCH  13  17
ATOM     17  O   UNL     1       6.244  31.238  16.111  1.00  0.00    -0.504 OA
ATOM     18  H   UNL     1       6.494  31.893  16.842  1.00  0.00     0.293 HD
ENDBRANCH  13  17
BRANCH  15  19
ATOM     19  O   UNL     1       8.976  31.419  16.546  1.00  0.00    -0.502 OA
ATOM     20  H   UNL     1       8.609  32.335  16.315  1.00  0.00     0.293 HD
ENDBRANCH  15  19
BRANCH  16  21
ATOM     21  O   UNL     1      10.654  29.257  15.869  1.00  0.00    -0.504 OA
ATOM     22  H   UNL     1      11.075  29.050  16.768  1.00  0.00     0.293 HD
ENDBRANCH  16  21
ENDBRANCH   1  11
BRANCH  10  23
ATOM     23  O   UNL     1       7.662  25.231  16.059  1.00  0.00    -0.500 OA
ATOM     24  H   UNL     1       8.513  25.754  16.232  1.00  0.00     0.294 HD
ENDBRANCH  10  23
BRANCH   5  25
ATOM     25  O   UNL     1       3.197  25.228   9.703  1.00  0.00    -0.507 OA
ATOM     26  H   UNL     1       2.232  25.528   9.779  1.00  0.00     0.293 HD
ENDBRANCH   5  25
BRANCH   7  27
ATOM     27  O   UNL     1       5.025  22.072  12.824  1.00  0.00    -0.507 OA
ATOM     28  H   UNL     1       4.673  21.705  13.696  1.00  0.00     0.293 HD
ENDBRANCH   7  27
TORSDOF 7
ENDMDL
MODEL 5
REMARK VINA RESULT:    -5.630     21.093     22.525
REMARK INTER + INTRA:          -7.181
REMARK INTER:                  -6.890
REMARK INTRA:                  -0.291
REMARK UNBOUND:                -0.234
REMARK SMILES Oc1cc(O)c2cc(O)c(-c3cc(O)c(O)c(O)c3)[o+]c2c1
REMARK SMILES IDX 10 1 20 2 21 3 22 4 2 5 3 6 4 7 6 8 7 9 8 10 11 11 12 12
REMARK SMILES IDX 13 13 19 14 15 15 17 16 14 17 16 19 18 21 9 23 1 25 5 27
REMARK H PARENT 14 18 16 20 18 22 9 24 1 26 5 28
REMARK Flexibility Score: inf
ROOT
ATOM      1  C   UNL     1      -3.911  39.121   0.819  1.00  0.00     0.402 A 
ATOM      2  O   UNL     1      -3.451  39.676  -0.299  1.00  0.00    -0.202 OA
ATOM      3  C   UNL     1      -2.294  40.327  -0.369  1.00  0.00     0.368 A 
ATOM      4  C   UNL     1      -1.898  40.880  -1.590  1.00  0.00     0.162 A 
ATOM      5  C   UNL     1      -0.687  41.572  -1.690  1.00  0.00     0.128 A 
ATOM      6  C   UNL     1       0.129  41.712  -0.566  1.00  0.00     0.093 A 
ATOM      7  C   UNL     1      -0.246  41.168   0.670  1.00  0.00     0.136 A 
ATOM      8  C   UNL     1      -1.473  40.462   0.776  1.00  0.00     0.125 A 
ATOM      9  C   UNL     1      -1.923  39.872   1.968  1.00  0.00     0.078 A 
ATOM     10  C   UNL     1      -3.141  39.188   1.995  1.00  0.00     0.223 A 
ENDROOT
BRANCH   1  11
ATOM     11  C   UNL     1      -5.219  38.430   0.772  1.00  0.00     0.091 A 
ATOM     12  C   UNL     1      -5.363  37.276  -0.013  1.00  0.00     0.068 A 
ATOM     13  C   UNL     1      -6.597  36.615  -0.092  1.00  0.00     0.162 A 
ATOM     14  C   UNL     1      -6.340  38.938   1.452  1.00  0.00     0.068 A 
ATOM     15  C   UNL     1      -7.704  37.114   0.605  1.00  0.00     0.200 A 
ATOM     16  C   UNL     1      -7.577  38.283   1.375  1.00  0.00     0.162 A 
BRANCH  13  17
ATOM     17  O   UNL     1      -6.729  35.461  -0.861  1.00  0.00    -0.504 OA
ATOM     18  H   UNL     1      -7.551  35.292  -1.429  1.00  0.00     0.293 HD
ENDBRANCH  13  17
BRANCH  15  19
ATOM     19  O   UNL     1      -8.924  36.442   0.518  1.00  0.00    -0.502 OA
ATOM     20  H   UNL     1      -9.808  36.904   0.696  1.00  0.00     0.293 HD
ENDBRANCH  15  19
BRANCH  16  21
ATOM     21  O   UNL     1      -8.681  38.791   2.059  1.00  0.00    -0.504 OA
ATOM     22  H   UNL     1      -9.329  39.434   1.620  1.00  0.00     0.293 HD
ENDBRANCH  16  21
ENDBRANCH   1  11
BRANCH  10  23
ATOM     23  O   UNL     1      -3.566  38.560   3.167  1.00  0.00    -0.500 OA
ATOM     24  H   UNL     1      -3.614  39.056   4.050  1.00  0.00     0.294 HD
ENDBRANCH  10  23
BRANCH   5  25
ATOM     25  O   UNL     1      -0.285  42.125  -2.904  1.00  0.00    -0.507 OA
ATOM     26  H   UNL     1      -0.409  41.629  -3.779  1.00  0.00     0.293 HD
ENDBRANCH   5  25
BRANCH   7  27
ATOM     27  O   UNL     1       0.624  41.356   1.746  1.00  0.00    -0.507 OA
ATOM     28  H   UNL     1       0.818  40.660   2.450  1.00  0.00     0.293 HD
ENDBRANCH   7  27
TORSDOF 7
ENDMDL
MODEL 6
REMARK VINA RESULT:    -5.621     21.097     22.506
REMARK INTER + INTRA:          -7.169
REMARK INTER:                  -6.860
REMARK INTRA:                  -0.310
REMARK UNBOUND:                -0.234
REMARK SMILES Oc1cc(O)c2cc(O)c(-c3cc(O)c(O)c(O)c3)[o+]c2c1
REMARK SMILES IDX 10 1 20 2 21 3 22 4 2 5 3 6 4 7 6 8 7 9 8 10 11 11 12 12
REMARK SMILES IDX 13 13 19 14 15 15 17 16 14 17 16 19 18 21 9 23 1 25 5 27
REMARK H PARENT 14 18 16 20 18 22 9 24 1 26 5 28
REMARK Flexibility Score: inf
ROOT
ATOM      1  C   UNL     1      -3.994  39.172   0.873  1.00  0.00     0.402 A 
ATOM      2  O   UNL     1      -3.540  39.731  -0.246  1.00  0.00    -0.202 OA
ATOM      3  C   UNL     1      -2.366  40.348  -0.329  1.00  0.00     0.368 A 
ATOM      4  C   UNL     1      -1.977  40.907  -1.548  1.00  0.00     0.162 A 
ATOM      5  C   UNL     1      -0.748  41.565  -1.662  1.00  0.00     0.128 A 
ATOM      6  C   UNL     1       0.093  41.664  -0.552  1.00  0.00     0.093 A 
ATOM      7  C   UNL     1      -0.275  41.113   0.683  1.00  0.00     0.136 A 
ATOM      8  C   UNL     1      -1.519  40.442   0.802  1.00  0.00     0.125 A 
ATOM      9  C   UNL     1      -1.964  39.847   1.994  1.00  0.00     0.078 A 
ATOM     10  C   UNL     1      -3.202  39.199   2.035  1.00  0.00     0.223 A 
ENDROOT
BRANCH   1  11
ATOM     11  C   UNL     1      -5.324  38.521   0.840  1.00  0.00     0.091 A 
ATOM     12  C   UNL     1      -6.407  39.131   1.490  1.00  0.00     0.068 A 
ATOM     13  C   UNL     1      -7.672  38.525   1.492  1.00  0.00     0.162 A 
ATOM     14  C   UNL     1      -5.513  37.274   0.220  1.00  0.00     0.068 A 
ATOM     15  C   UNL     1      -7.859  37.293   0.854  1.00  0.00     0.200 A 
ATOM     16  C   UNL     1      -6.775  36.662   0.220  1.00  0.00     0.162 A 
BRANCH  13  17
ATOM     17  O   UNL     1      -8.747  39.144   2.127  1.00  0.00    -0.504 OA
ATOM     18  H   UNL     1      -9.701  38.998   1.818  1.00  0.00     0.293 HD
ENDBRANCH  13  17
BRANCH  15  19
ATOM     19  O   UNL     1      -9.125  36.706   0.863  1.00  0.00    -0.502 OA
ATOM     20  H   UNL     1      -9.646  36.562   1.720  1.00  0.00     0.293 HD
ENDBRANCH  15  19
BRANCH  16  21
ATOM     21  O   UNL     1      -6.953  35.428  -0.404  1.00  0.00    -0.504 OA
ATOM     22  H   UNL     1      -6.917  35.332  -1.412  1.00  0.00     0.293 HD
ENDBRANCH  16  21
ENDBRANCH   1  11
BRANCH  10  23
ATOM     23  O   UNL     1      -3.622  38.565   3.205  1.00  0.00    -0.500 OA
ATOM     24  H   UNL     1      -3.566  37.559   3.316  1.00  0.00     0.294 HD
ENDBRANCH  10  23
BRANCH   5  25
ATOM     25  O   UNL     1      -0.353  42.125  -2.875  1.00  0.00    -0.507 OA
ATOM     26  H   UNL     1      -0.589  41.692  -3.760  1.00  0.00     0.293 HD
ENDBRANCH   5  25
BRANCH   7  27
ATOM     27  O   UNL     1       0.621  41.258   1.745  1.00  0.00    -0.507 OA
ATOM     28  H   UNL     1       1.261  40.542   2.053  1.00  0.00     0.293 HD
ENDBRANCH   7  27
TORSDOF 7
ENDMDL
MODEL 7
REMARK VINA RESULT:    -5.435      3.225      7.141
REMARK INTER + INTRA:          -6.940
REMARK INTER:                  -6.644
REMARK INTRA:                  -0.296
REMARK UNBOUND:                -0.234
REMARK SMILES Oc1cc(O)c2cc(O)c(-c3cc(O)c(O)c(O)c3)[o+]c2c1
REMARK SMILES IDX 10 1 20 2 21 3 22 4 2 5 3 6 4 7 6 8 7 9 8 10 11 11 12 12
REMARK SMILES IDX 13 13 19 14 15 15 17 16 14 17 16 19 18 21 9 23 1 25 5 27
REMARK H PARENT 14 18 16 20 18 22 9 24 1 26 5 28
REMARK Flexibility Score: inf
ROOT
ATOM      1  C   UNL     1       6.794  26.026  13.955  1.00  0.00     0.402 A 
ATOM      2  O   UNL     1       6.356  27.222  14.340  1.00  0.00    -0.202 OA
ATOM      3  C   UNL     1       7.138  28.141  14.896  1.00  0.00     0.368 A 
ATOM      4  C   UNL     1       6.585  29.368  15.271  1.00  0.00     0.162 A 
ATOM      5  C   UNL     1       7.385  30.351  15.861  1.00  0.00     0.128 A 
ATOM      6  C   UNL     1       8.742  30.106  16.078  1.00  0.00     0.093 A 
ATOM      7  C   UNL     1       9.321  28.883  15.713  1.00  0.00     0.136 A 
ATOM      8  C   UNL     1       8.514  27.883  15.111  1.00  0.00     0.125 A 
ATOM      9  C   UNL     1       9.010  26.635  14.699  1.00  0.00     0.078 A 
ATOM     10  C   UNL     1       8.154  25.701  14.109  1.00  0.00     0.223 A 
ENDROOT
BRANCH   1  11
ATOM     11  C   UNL     1       5.821  25.084  13.355  1.00  0.00     0.091 A 
ATOM     12  C   UNL     1       5.230  25.395  12.121  1.00  0.00     0.068 A 
ATOM     13  C   UNL     1       4.290  24.531  11.542  1.00  0.00     0.162 A 
ATOM     14  C   UNL     1       5.434  23.910  14.022  1.00  0.00     0.068 A 
ATOM     15  C   UNL     1       3.925  23.351  12.202  1.00  0.00     0.200 A 
ATOM     16  C   UNL     1       4.493  23.041  13.448  1.00  0.00     0.162 A 
BRANCH  13  17
ATOM     17  O   UNL     1       3.718  24.838  10.309  1.00  0.00    -0.504 OA
ATOM     18  H   UNL     1       4.286  25.021   9.490  1.00  0.00     0.293 HD
ENDBRANCH  13  17
BRANCH  15  19
ATOM     19  O   UNL     1       2.990  22.500  11.609  1.00  0.00    -0.502 OA
ATOM     20  H   UNL     1       2.697  22.610  10.645  1.00  0.00     0.293 HD
ENDBRANCH  15  19
BRANCH  16  21
ATOM     21  O   UNL     1       4.121  21.875  14.116  1.00  0.00    -0.504 OA
ATOM     22  H   UNL     1       3.502  21.194  13.692  1.00  0.00     0.293 HD
ENDBRANCH  16  21
ENDBRANCH   1  11
BRANCH  10  23
ATOM     23  O   UNL     1       8.656  24.480  13.655  1.00  0.00    -0.500 OA
ATOM     24  H   UNL     1       8.516  23.621  14.175  1.00  0.00     0.294 HD
ENDBRANCH  10  23
BRANCH   5  25
ATOM     25  O   UNL     1       6.841  31.578  16.237  1.00  0.00    -0.507 OA
ATOM     26  H   UNL     1       7.060  32.003  17.130  1.00  0.00     0.293 HD
ENDBRANCH   5  25
BRANCH   7  27
ATOM     27  O   UNL     1      10.685  28.715  15.967  1.00  0.00    -0.507 OA
ATOM     28  H   UNL     1      11.179  27.840  15.870  1.00  0.00     0.293 HD
ENDBRANCH   7  27
TORSDOF 7
ENDMDL
MODEL 8
REMARK VINA RESULT:    -5.149     21.269     22.387
REMARK INTER + INTRA:          -6.587
REMARK INTER:                  -6.351
REMARK INTRA:                  -0.235
REMARK UNBOUND:                -0.234
REMARK SMILES Oc1cc(O)c2cc(O)c(-c3cc(O)c(O)c(O)c3)[o+]c2c1
REMARK SMILES IDX 10 1 20 2 21 3 22 4 2 5 3 6 4 7 6 8 7 9 8 10 11 11 12 12
REMARK SMILES IDX 13 13 19 14 15 15 17 16 14 17 16 19 18 21 9 23 1 25 5 27
REMARK H PARENT 14 18 16 20 18 22 9 24 1 26 5 28
REMARK Flexibility Score: inf
ROOT
ATOM      1  C   UNL     1      -4.265  38.958   0.289  1.00  0.00     0.402 A 
ATOM      2  O   UNL     1      -4.439  37.880  -0.471  1.00  0.00    -0.202 OA
ATOM      3  C   UNL     1      -5.474  37.056  -0.344  1.00  0.00     0.368 A 
ATOM      4  C   UNL     1      -5.568  35.947  -1.188  1.00  0.00     0.162 A 
ATOM      5  C   UNL     1      -6.645  35.063  -1.072  1.00  0.00     0.128 A 
ATOM      6  C   UNL     1      -7.630  35.288  -0.109  1.00  0.00     0.093 A 
ATOM      7  C   UNL     1      -7.559  36.393   0.750  1.00  0.00     0.136 A 
ATOM      8  C   UNL     1      -6.469  37.295   0.635  1.00  0.00     0.125 A 
ATOM      9  C   UNL     1      -6.322  38.434   1.442  1.00  0.00     0.078 A 
ATOM     10  C   UNL     1      -5.224  39.280   1.268  1.00  0.00     0.223 A 
ENDROOT
BRANCH   1  11
ATOM     11  C   UNL     1      -3.065  39.794   0.056  1.00  0.00     0.091 A 
ATOM     12  C   UNL     1      -2.866  40.378  -1.204  1.00  0.00     0.068 A 
ATOM     13  C   UNL     1      -1.727  41.156  -1.457  1.00  0.00     0.162 A 
ATOM     14  C   UNL     1      -2.091  39.969   1.053  1.00  0.00     0.068 A 
ATOM     15  C   UNL     1      -0.770  41.344  -0.453  1.00  0.00     0.200 A 
ATOM     16  C   UNL     1      -0.949  40.745   0.805  1.00  0.00     0.162 A 
BRANCH  13  17
ATOM     17  O   UNL     1      -1.542  41.746  -2.706  1.00  0.00    -0.504 OA
ATOM     18  H   UNL     1      -2.323  42.082  -3.256  1.00  0.00     0.293 HD
ENDBRANCH  13  17
BRANCH  15  19
ATOM     19  O   UNL     1       0.356  42.125  -0.721  1.00  0.00    -0.502 OA
ATOM     20  H   UNL     1       0.337  43.136  -0.661  1.00  0.00     0.293 HD
ENDBRANCH  15  19
BRANCH  16  21
ATOM     21  O   UNL     1       0.009  40.918   1.804  1.00  0.00    -0.504 OA
ATOM     22  H   UNL     1       0.835  41.485   1.656  1.00  0.00     0.293 HD
ENDBRANCH  16  21
ENDBRANCH   1  11
BRANCH  10  23
ATOM     23  O   UNL     1      -5.103  40.439   2.036  1.00  0.00    -0.500 OA
ATOM     24  H   UNL     1      -5.687  40.603   2.848  1.00  0.00     0.294 HD
ENDBRANCH  10  23
BRANCH   5  25
ATOM     25  O   UNL     1      -6.746  33.954  -1.911  1.00  0.00    -0.507 OA
ATOM     26  H   UNL     1      -5.942  33.596  -2.415  1.00  0.00     0.293 HD
ENDBRANCH   5  25
BRANCH   7  27
ATOM     27  O   UNL     1      -8.582  36.545   1.689  1.00  0.00    -0.507 OA
ATOM     28  H   UNL     1      -9.566  36.471   1.476  1.00  0.00     0.293 HD
ENDBRANCH   7  27
TORSDOF 7
ENDMDL
MODEL 9
REMARK VINA RESULT:    -4.358      1.252      7.344
REMARK INTER + INTRA:          -5.611
REMARK INTER:                  -5.594
REMARK INTRA:                  -0.017
REMARK UNBOUND:                -0.234
REMARK SMILES Oc1cc(O)c2cc(O)c(-c3cc(O)c(O)c(O)c3)[o+]c2c1
REMARK SMILES IDX 10 1 20 2 21 3 22 4 2 5 3 6 4 7 6 8 7 9 8 10 11 11 12 12
REMARK SMILES IDX 13 13 19 14 15 15 17 16 14 17 16 19 18 21 9 23 1 25 5 27
REMARK H PARENT 14 18 16 20 18 22 9 24 1 26 5 28
REMARK Flexibility Score: inf
ROOT
ATOM      1  C   UNL     1       8.656  26.099  13.050  1.00  0.00     0.402 A 
ATOM      2  O   UNL     1       7.557  26.724  13.466  1.00  0.00    -0.202 OA
ATOM      3  C   UNL     1       7.576  27.734  14.330  1.00  0.00     0.368 A 
ATOM      4  C   UNL     1       6.368  28.325  14.710  1.00  0.00     0.162 A 
ATOM      5  C   UNL     1       6.359  29.388  15.619  1.00  0.00     0.128 A 
ATOM      6  C   UNL     1       7.561  29.860  16.149  1.00  0.00     0.093 A 
ATOM      7  C   UNL     1       8.785  29.283  15.785  1.00  0.00     0.136 A 
ATOM      8  C   UNL     1       8.800  28.207  14.860  1.00  0.00     0.125 A 
ATOM      9  C   UNL     1       9.979  27.578  14.427  1.00  0.00     0.078 A 
ATOM     10  C   UNL     1       9.915  26.525  13.510  1.00  0.00     0.223 A 
ENDROOT
BRANCH   1  11
ATOM     11  C   UNL     1       8.504  24.980  12.092  1.00  0.00     0.091 A 
ATOM     12  C   UNL     1       9.267  24.970  10.915  1.00  0.00     0.068 A 
ATOM     13  C   UNL     1       9.127  23.933   9.982  1.00  0.00     0.162 A 
ATOM     14  C   UNL     1       7.570  23.952  12.310  1.00  0.00     0.068 A 
ATOM     15  C   UNL     1       8.210  22.901  10.215  1.00  0.00     0.200 A 
ATOM     16  C   UNL     1       7.424  22.913  11.379  1.00  0.00     0.162 A 
BRANCH  13  17
ATOM     17  O   UNL     1       9.898  23.922   8.821  1.00  0.00    -0.504 OA
ATOM     18  H   UNL     1      10.587  23.199   8.648  1.00  0.00     0.293 HD
ENDBRANCH  13  17
BRANCH  15  19
ATOM     19  O   UNL     1       8.085  21.875   9.277  1.00  0.00    -0.502 OA
ATOM     20  H   UNL     1       7.408  21.129   9.381  1.00  0.00     0.293 HD
ENDBRANCH  15  19
BRANCH  16  21
ATOM     21  O   UNL     1       6.499  21.895  11.608  1.00  0.00    -0.504 OA
ATOM     22  H   UNL     1       5.659  21.803  11.048  1.00  0.00     0.293 HD
ENDBRANCH  16  21
ENDBRANCH   1  11
BRANCH  10  23
ATOM     23  O   UNL     1      11.089  25.932  13.042  1.00  0.00    -0.500 OA
ATOM     24  H   UNL     1      11.138  24.942  12.831  1.00  0.00     0.294 HD
ENDBRANCH  10  23
BRANCH   5  25
ATOM     25  O   UNL     1       5.159  29.983  16.002  1.00  0.00    -0.507 OA
ATOM     26  H   UNL     1       4.328  29.431  16.183  1.00  0.00     0.293 HD
ENDBRANCH   5  25
BRANCH   7  27
ATOM     27  O   UNL     1       9.942  29.811  16.364  1.00  0.00    -0.507 OA
ATOM     28  H   UNL     1      10.112  29.859  17.357  1.00  0.00     0.293 HD
ENDBRANCH   7  27
TORSDOF 7
ENDMDL
