MODEL 1
REMARK VINA RESULT:    -3.285      0.000      0.000
REMARK INTER + INTRA:          -4.514
REMARK INTER:                  -4.054
REMARK INTRA:                  -0.460
REMARK UNBOUND:                -0.460
REMARK SMILES C=CC[C@H](C)C(=O)CC
REMARK SMILES IDX 4 1 5 2 6 3 7 4 8 5 9 6 3 7 2 8 1 9
REMARK H PARENT
REMARK Flexibility Score: inf
ROOT
ATOM      1  C   UNL     1      27.958 -44.037 -20.169  1.00  0.00     0.057 C 
ATOM      2  C   UNL     1      26.620 -44.542 -20.728  1.00  0.00     0.016 C 
ENDROOT
BRANCH   1   3
ATOM      3  C   UNL     1      28.644 -43.125 -21.166  1.00  0.00     0.135 C 
ATOM      4  O   UNL     1      28.890 -43.550 -22.286  1.00  0.00    -0.299 OA
BRANCH   3   5
ATOM      5  C   UNL     1      29.008 -41.701 -20.829  1.00  0.00     0.072 C 
ATOM      6  C   UNL     1      28.907 -41.453 -19.328  1.00  0.00     0.012 C 
ENDBRANCH   3   5
ENDBRANCH   1   3
BRANCH   1   7
ATOM      7  C   UNL     1      28.891 -45.200 -19.765  1.00  0.00     0.038 C 
BRANCH   7   8
ATOM      8  C   UNL     1      29.256 -45.157 -18.305  1.00  0.00    -0.034 C 
ATOM      9  C   UNL     1      28.429 -44.650 -17.386  1.00  0.00     0.004 C 
ENDBRANCH   7   8
ENDBRANCH   1   7
TORSDOF 4
ENDMDL
MODEL 2
REMARK VINA RESULT:    -3.256      1.886      4.188
REMARK INTER + INTRA:          -4.477
REMARK INTER:                  -4.309
REMARK INTRA:                  -0.168
REMARK UNBOUND:                -0.460
REMARK SMILES C=CC[C@H](C)C(=O)CC
REMARK SMILES IDX 4 1 5 2 6 3 7 4 8 5 9 6 3 7 2 8 1 9
REMARK H PARENT
REMARK Flexibility Score: inf
ROOT
ATOM      1  C   UNL     1      28.091 -42.953 -21.044  1.00  0.00     0.057 C 
ATOM      2  C   UNL     1      29.003 -41.856 -20.475  1.00  0.00     0.016 C 
ENDROOT
BRANCH   1   3
ATOM      3  C   UNL     1      28.202 -44.220 -20.221  1.00  0.00     0.135 C 
ATOM      4  O   UNL     1      27.990 -45.297 -20.759  1.00  0.00    -0.299 OA
BRANCH   3   5
ATOM      5  C   UNL     1      28.594 -44.197 -18.764  1.00  0.00     0.072 C 
ATOM      6  C   UNL     1      29.683 -45.225 -18.477  1.00  0.00     0.012 C 
ENDBRANCH   3   5
ENDBRANCH   1   3
BRANCH   1   7
ATOM      7  C   UNL     1      28.392 -43.242 -22.531  1.00  0.00     0.038 C 
BRANCH   7   8
ATOM      8  C   UNL     1      27.552 -42.403 -23.457  1.00  0.00    -0.034 C 
ATOM      9  C   UNL     1      27.513 -42.631 -24.773  1.00  0.00     0.004 C 
ENDBRANCH   7   8
ENDBRANCH   1   7
TORSDOF 4
ENDMDL
MODEL 3
REMARK VINA RESULT:    -3.250      2.050      2.977
REMARK INTER + INTRA:          -4.470
REMARK INTER:                  -4.299
REMARK INTRA:                  -0.171
REMARK UNBOUND:                -0.460
REMARK SMILES C=CC[C@H](C)C(=O)CC
REMARK SMILES IDX 4 1 5 2 6 3 7 4 8 5 9 6 3 7 2 8 1 9
REMARK H PARENT
REMARK Flexibility Score: inf
ROOT
ATOM      1  C   UNL     1      28.621 -43.486 -21.669  1.00  0.00     0.057 C 
ATOM      2  C   UNL     1      28.929 -42.156 -20.965  1.00  0.00     0.016 C 
ENDROOT
BRANCH   1   3
ATOM      3  C   UNL     1      27.458 -43.326 -22.627  1.00  0.00     0.135 C 
ATOM      4  O   UNL     1      26.432 -43.960 -22.424  1.00  0.00    -0.299 OA
BRANCH   3   5
ATOM      5  C   UNL     1      27.514 -42.389 -23.807  1.00  0.00     0.072 C 
ATOM      6  C   UNL     1      27.557 -43.167 -25.118  1.00  0.00     0.012 C 
ENDBRANCH   3   5
ENDBRANCH   1   3
BRANCH   1   7
ATOM      7  C   UNL     1      28.345 -44.623 -20.662  1.00  0.00     0.038 C 
BRANCH   7   8
ATOM      8  C   UNL     1      28.928 -44.336 -19.303  1.00  0.00    -0.034 C 
ATOM      9  C   UNL     1      29.455 -45.302 -18.545  1.00  0.00     0.004 C 
ENDBRANCH   7   8
ENDBRANCH   1   7
TORSDOF 4
ENDMDL
MODEL 4
REMARK VINA RESULT:    -3.226     14.397     15.929
REMARK INTER + INTRA:          -4.440
REMARK INTER:                  -4.223
REMARK INTRA:                  -0.217
REMARK UNBOUND:                -0.460
REMARK SMILES C=CC[C@H](C)C(=O)CC
REMARK SMILES IDX 4 1 5 2 6 3 7 4 8 5 9 6 3 7 2 8 1 9
REMARK H PARENT
REMARK Flexibility Score: inf
ROOT
ATOM      1  C   UNL     1      17.721 -46.121  -8.953  1.00  0.00     0.057 C 
ATOM      2  C   UNL     1      17.017 -45.716 -10.256  1.00  0.00     0.016 C 
ENDROOT
BRANCH   1   3
ATOM      3  C   UNL     1      17.299 -45.214  -7.815  1.00  0.00     0.135 C 
ATOM      4  O   UNL     1      18.112 -44.939  -6.943  1.00  0.00    -0.299 OA
BRANCH   3   5
ATOM      5  C   UNL     1      15.915 -44.619  -7.736  1.00  0.00     0.072 C 
ATOM      6  C   UNL     1      15.180 -45.111  -6.493  1.00  0.00     0.012 C 
ENDBRANCH   3   5
ENDBRANCH   1   3
BRANCH   1   7
ATOM      7  C   UNL     1      19.258 -46.125  -9.103  1.00  0.00     0.038 C 
BRANCH   7   8
ATOM      8  C   UNL     1      19.715 -45.357 -10.315  1.00  0.00    -0.034 C 
ATOM      9  C   UNL     1      20.725 -45.783 -11.080  1.00  0.00     0.004 C 
ENDBRANCH   7   8
ENDBRANCH   1   7
TORSDOF 4
ENDMDL
MODEL 5
REMARK VINA RESULT:    -3.225      1.855      3.062
REMARK INTER + INTRA:          -4.439
REMARK INTER:                  -3.957
REMARK INTRA:                  -0.482
REMARK UNBOUND:                -0.460
REMARK SMILES C=CC[C@H](C)C(=O)CC
REMARK SMILES IDX 4 1 5 2 6 3 7 4 8 5 9 6 3 7 2 8 1 9
REMARK H PARENT
REMARK Flexibility Score: inf
ROOT
ATOM      1  C   UNL     1      28.585 -44.139 -19.220  1.00  0.00     0.057 C 
ATOM      2  C   UNL     1      29.409 -45.292 -18.629  1.00  0.00     0.016 C 
ENDROOT
BRANCH   1   3
ATOM      3  C   UNL     1      29.104 -42.804 -18.724  1.00  0.00     0.135 C 
ATOM      4  O   UNL     1      29.708 -42.760 -17.662  1.00  0.00    -0.299 OA
BRANCH   3   5
ATOM      5  C   UNL     1      28.923 -41.531 -19.514  1.00  0.00     0.072 C 
ATOM      6  C   UNL     1      29.022 -41.801 -21.011  1.00  0.00     0.012 C 
ENDBRANCH   3   5
ENDBRANCH   1   3
BRANCH   1   7
ATOM      7  C   UNL     1      27.079 -44.286 -18.910  1.00  0.00     0.038 C 
BRANCH   7   8
ATOM      8  C   UNL     1      26.239 -44.300 -20.159  1.00  0.00    -0.034 C 
ATOM      9  C   UNL     1      26.740 -44.670 -21.341  1.00  0.00     0.004 C 
ENDBRANCH   7   8
ENDBRANCH   1   7
TORSDOF 4
ENDMDL
MODEL 6
REMARK VINA RESULT:    -3.203      1.818      3.851
REMARK INTER + INTRA:          -4.412
REMARK INTER:                  -4.173
REMARK INTRA:                  -0.239
REMARK UNBOUND:                -0.460
REMARK SMILES C=CC[C@H](C)C(=O)CC
REMARK SMILES IDX 4 1 5 2 6 3 7 4 8 5 9 6 3 7 2 8 1 9
REMARK H PARENT
REMARK Flexibility Score: inf
ROOT
ATOM      1  C   UNL     1      28.393 -44.080 -20.913  1.00  0.00     0.057 C 
ATOM      2  C   UNL     1      26.943 -44.584 -20.910  1.00  0.00     0.016 C 
ENDROOT
BRANCH   1   3
ATOM      3  C   UNL     1      28.720 -43.385 -19.607  1.00  0.00     0.135 C 
ATOM      4  O   UNL     1      28.920 -42.178 -19.612  1.00  0.00    -0.299 OA
BRANCH   3   5
ATOM      5  C   UNL     1      28.779 -44.129 -18.296  1.00  0.00     0.072 C 
ATOM      6  C   UNL     1      29.641 -45.381 -18.420  1.00  0.00     0.012 C 
ENDBRANCH   3   5
ENDBRANCH   1   3
BRANCH   1   7
ATOM      7  C   UNL     1      28.680 -43.149 -22.112  1.00  0.00     0.038 C 
BRANCH   7   8
ATOM      8  C   UNL     1      27.514 -43.067 -23.061  1.00  0.00    -0.034 C 
ATOM      9  C   UNL     1      27.685 -43.050 -24.387  1.00  0.00     0.004 C 
ENDBRANCH   7   8
ENDBRANCH   1   7
TORSDOF 4
ENDMDL
MODEL 7
REMARK VINA RESULT:    -3.171      1.618      3.138
REMARK INTER + INTRA:          -4.372
REMARK INTER:                  -3.869
REMARK INTRA:                  -0.503
REMARK UNBOUND:                -0.460
REMARK SMILES C=CC[C@H](C)C(=O)CC
REMARK SMILES IDX 4 1 5 2 6 3 7 4 8 5 9 6 3 7 2 8 1 9
REMARK H PARENT
REMARK Flexibility Score: inf
ROOT
ATOM      1  C   UNL     1      27.875 -44.767 -20.252  1.00  0.00     0.057 C 
ATOM      2  C   UNL     1      26.448 -44.258 -20.000  1.00  0.00     0.016 C 
ENDROOT
BRANCH   1   3
ATOM      3  C   UNL     1      28.685 -44.744 -18.971  1.00  0.00     0.135 C 
ATOM      4  O   UNL     1      29.713 -45.402 -18.908  1.00  0.00    -0.299 OA
BRANCH   3   5
ATOM      5  C   UNL     1      28.277 -43.913 -17.780  1.00  0.00     0.072 C 
ATOM      6  C   UNL     1      29.376 -42.926 -17.403  1.00  0.00     0.012 C 
ENDBRANCH   3   5
ENDBRANCH   1   3
BRANCH   1   7
ATOM      7  C   UNL     1      28.588 -43.963 -21.361  1.00  0.00     0.038 C 
BRANCH   7   8
ATOM      8  C   UNL     1      28.196 -42.509 -21.354  1.00  0.00    -0.034 C 
ATOM      9  C   UNL     1      29.011 -41.562 -20.880  1.00  0.00     0.004 C 
ENDBRANCH   7   8
ENDBRANCH   1   7
TORSDOF 4
ENDMDL
MODEL 8
REMARK VINA RESULT:    -3.130      1.252      3.161
REMARK INTER + INTRA:          -4.322
REMARK INTER:                  -3.904
REMARK INTRA:                  -0.418
REMARK UNBOUND:                -0.460
REMARK SMILES C=CC[C@H](C)C(=O)CC
REMARK SMILES IDX 4 1 5 2 6 3 7 4 8 5 9 6 3 7 2 8 1 9
REMARK H PARENT
REMARK Flexibility Score: inf
ROOT
ATOM      1  C   UNL     1      28.711 -43.114 -21.123  1.00  0.00     0.057 C 
ATOM      2  C   UNL     1      28.224 -43.291 -22.568  1.00  0.00     0.016 C 
ENDROOT
BRANCH   1   3
ATOM      3  C   UNL     1      28.170 -44.217 -20.237  1.00  0.00     0.135 C 
ATOM      4  O   UNL     1      26.959 -44.329 -20.103  1.00  0.00    -0.299 OA
BRANCH   3   5
ATOM      5  C   UNL     1      29.075 -45.199 -19.536  1.00  0.00     0.072 C 
ATOM      6  C   UNL     1      29.027 -45.000 -18.024  1.00  0.00     0.012 C 
ENDBRANCH   3   5
ENDBRANCH   1   3
BRANCH   1   7
ATOM      7  C   UNL     1      28.339 -41.727 -20.554  1.00  0.00     0.038 C 
BRANCH   7   8
ATOM      8  C   UNL     1      28.964 -41.477 -19.206  1.00  0.00    -0.034 C 
ATOM      9  C   UNL     1      28.232 -41.122 -18.146  1.00  0.00     0.004 C 
ENDBRANCH   7   8
ENDBRANCH   1   7
TORSDOF 4
ENDMDL
MODEL 9
REMARK VINA RESULT:    -3.076      2.106      4.037
REMARK INTER + INTRA:          -4.255
REMARK INTER:                  -3.860
REMARK INTRA:                  -0.396
REMARK UNBOUND:                -0.460
REMARK SMILES C=CC[C@H](C)C(=O)CC
REMARK SMILES IDX 4 1 5 2 6 3 7 4 8 5 9 6 3 7 2 8 1 9
REMARK H PARENT
REMARK Flexibility Score: inf
ROOT
ATOM      1  C   UNL     1      28.102 -42.043 -19.001  1.00  0.00     0.057 C 
ATOM      2  C   UNL     1      27.699 -40.795 -18.202  1.00  0.00     0.016 C 
ENDROOT
BRANCH   1   3
ATOM      3  C   UNL     1      28.798 -43.048 -18.106  1.00  0.00     0.135 C 
ATOM      4  O   UNL     1      29.673 -42.659 -17.345  1.00  0.00    -0.299 OA
BRANCH   3   5
ATOM      5  C   UNL     1      28.427 -44.511 -18.103  1.00  0.00     0.072 C 
ATOM      6  C   UNL     1      29.570 -45.364 -18.642  1.00  0.00     0.012 C 
ENDBRANCH   3   5
ENDBRANCH   1   3
BRANCH   1   7
ATOM      7  C   UNL     1      28.989 -41.691 -20.215  1.00  0.00     0.038 C 
BRANCH   7   8
ATOM      8  C   UNL     1      28.456 -42.272 -21.498  1.00  0.00    -0.034 C 
ATOM      9  C   UNL     1      28.645 -43.554 -21.823  1.00  0.00     0.004 C 
ENDBRANCH   7   8
ENDBRANCH   1   7
TORSDOF 4
ENDMDL
