MODEL 1
REMARK VINA RESULT:    -3.086      0.000      0.000
REMARK INTER + INTRA:          -7.924
REMARK INTER:                  -5.611
REMARK INTRA:                  -2.313
REMARK UNBOUND:                -2.313
REMARK SMILES CCCCCCCCCCCCCCCC(=O)[O-]
REMARK SMILES IDX 9 1 10 2 11 3 12 4 13 5 14 6 15 7 16 8 17 9 18 10 8 11 7 12
REMARK SMILES IDX 6 13 5 14 4 15 3 16 2 17 1 18
REMARK H PARENT
REMARK Flexibility Score: inf
ROOT
ATOM      1  C   UNL     1      88.141  29.863  24.913  1.00  0.00     0.000 C 
ENDROOT
BRANCH   1   2
ATOM      2  C   UNL     1      86.861  29.472  24.152  1.00  0.00     0.000 C 
BRANCH   2   3
ATOM      3  C   UNL     1      86.265  28.099  24.524  1.00  0.00     0.000 C 
BRANCH   3   4
ATOM      4  C   UNL     1      85.787  27.966  25.982  1.00  0.00     0.000 C 
BRANCH   4   5
ATOM      5  C   UNL     1      86.603  26.945  26.787  1.00  0.00     0.000 C 
BRANCH   5   6
ATOM      6  C   UNL     1      85.814  25.641  26.978  1.00  0.00     0.006 C 
BRANCH   6   7
ATOM      7  C   UNL     1      85.943  25.088  28.402  1.00  0.00     0.053 C 
BRANCH   7   8
ATOM      8  C   UNL     1      84.602  24.857  29.031  1.00  0.00     0.041 C 
ATOM      9  O   UNL     1      84.223  23.688  29.305  1.00  0.00    -0.550 OA
ATOM     10  O   UNL     1      83.786  25.937  29.343  1.00  0.00    -0.550 OA
ENDBRANCH   7   8
ENDBRANCH   6   7
ENDBRANCH   5   6
ENDBRANCH   4   5
ENDBRANCH   3   4
ENDBRANCH   2   3
ENDBRANCH   1   2
BRANCH   1  11
ATOM     11  C   UNL     1      89.235  28.786  24.836  1.00  0.00     0.000 C 
BRANCH  11  12
ATOM     12  C   UNL     1      89.935  28.543  26.186  1.00  0.00    -0.000 C 
BRANCH  12  13
ATOM     13  C   UNL     1      89.579  29.546  27.299  1.00  0.00    -0.000 C 
BRANCH  13  14
ATOM     14  C   UNL     1      89.255  28.867  28.639  1.00  0.00    -0.000 C 
BRANCH  14  15
ATOM     15  C   UNL     1      87.898  29.335  29.179  1.00  0.00    -0.000 C 
BRANCH  15  16
ATOM     16  C   UNL     1      87.489  30.674  28.549  1.00  0.00    -0.000 C 
BRANCH  16  17
ATOM     17  C   UNL     1      85.974  30.774  28.305  1.00  0.00    -0.003 C 
ATOM     18  C   UNL     1      85.628  31.600  27.066  1.00  0.00     0.004 C 
ENDBRANCH  16  17
ENDBRANCH  15  16
ENDBRANCH  14  15
ENDBRANCH  13  14
ENDBRANCH  12  13
ENDBRANCH  11  12
ENDBRANCH   1  11
TORSDOF 14
ENDMDL
MODEL 2
REMARK VINA RESULT:    -3.065      1.762      3.687
REMARK INTER + INTRA:          -7.887
REMARK INTER:                  -5.958
REMARK INTRA:                  -1.928
REMARK UNBOUND:                -2.313
REMARK SMILES CCCCCCCCCCCCCCCC(=O)[O-]
REMARK SMILES IDX 9 1 10 2 11 3 12 4 13 5 14 6 15 7 16 8 17 9 18 10 8 11 7 12
REMARK SMILES IDX 6 13 5 14 4 15 3 16 2 17 1 18
REMARK H PARENT
REMARK Flexibility Score: inf
ROOT
ATOM      1  C   UNL     1      85.442  28.799  27.747  1.00  0.00     0.000 C 
ENDROOT
BRANCH   1   2
ATOM      2  C   UNL     1      85.855  27.701  28.744  1.00  0.00     0.000 C 
BRANCH   2   3
ATOM      3  C   UNL     1      86.551  26.472  28.124  1.00  0.00     0.000 C 
BRANCH   3   4
ATOM      4  C   UNL     1      85.814  25.135  28.318  1.00  0.00     0.000 C 
BRANCH   4   5
ATOM      5  C   UNL     1      84.524  25.278  29.138  1.00  0.00     0.000 C 
BRANCH   5   6
ATOM      6  C   UNL     1      83.839  23.916  29.327  1.00  0.00     0.006 C 
BRANCH   6   7
ATOM      7  C   UNL     1      83.263  23.747  30.738  1.00  0.00     0.053 C 
BRANCH   7   8
ATOM      8  C   UNL     1      82.104  24.667  30.978  1.00  0.00     0.041 C 
ATOM      9  O   UNL     1      82.199  25.600  31.817  1.00  0.00    -0.550 OA
ATOM     10  O   UNL     1      80.931  24.510  30.250  1.00  0.00    -0.550 OA
ENDBRANCH   7   8
ENDBRANCH   6   7
ENDBRANCH   5   6
ENDBRANCH   4   5
ENDBRANCH   3   4
ENDBRANCH   2   3
ENDBRANCH   1   2
BRANCH   1  11
ATOM     11  C   UNL     1      86.144  30.141  28.011  1.00  0.00     0.000 C 
BRANCH  11  12
ATOM     12  C   UNL     1      87.177  30.065  29.151  1.00  0.00    -0.000 C 
BRANCH  12  13
ATOM     13  C   UNL     1      88.641  30.280  28.724  1.00  0.00    -0.000 C 
BRANCH  13  14
ATOM     14  C   UNL     1      89.416  28.965  28.554  1.00  0.00    -0.000 C 
BRANCH  14  15
ATOM     15  C   UNL     1      89.561  28.600  27.071  1.00  0.00    -0.000 C 
BRANCH  15  16
ATOM     16  C   UNL     1      89.505  29.855  26.188  1.00  0.00    -0.000 C 
BRANCH  16  17
ATOM     17  C   UNL     1      88.465  29.741  25.063  1.00  0.00    -0.003 C 
ATOM     18  C   UNL     1      87.836  28.350  24.979  1.00  0.00     0.004 C 
ENDBRANCH  16  17
ENDBRANCH  15  16
ENDBRANCH  14  15
ENDBRANCH  13  14
ENDBRANCH  12  13
ENDBRANCH  11  12
ENDBRANCH   1  11
TORSDOF 14
ENDMDL
MODEL 3
REMARK VINA RESULT:    -3.059      1.282      2.342
REMARK INTER + INTRA:          -7.875
REMARK INTER:                  -5.806
REMARK INTRA:                  -2.069
REMARK UNBOUND:                -2.313
REMARK SMILES CCCCCCCCCCCCCCCC(=O)[O-]
REMARK SMILES IDX 9 1 10 2 11 3 12 4 13 5 14 6 15 7 16 8 17 9 18 10 8 11 7 12
REMARK SMILES IDX 6 13 5 14 4 15 3 16 2 17 1 18
REMARK H PARENT
REMARK Flexibility Score: inf
ROOT
ATOM      1  C   UNL     1      86.097  28.859  25.485  1.00  0.00     0.000 C 
ENDROOT
BRANCH   1   2
ATOM      2  C   UNL     1      86.136  27.662  26.454  1.00  0.00     0.000 C 
BRANCH   2   3
ATOM      3  C   UNL     1      85.070  27.679  27.569  1.00  0.00     0.000 C 
BRANCH   3   4
ATOM      4  C   UNL     1      85.365  26.762  28.770  1.00  0.00     0.000 C 
BRANCH   4   5
ATOM      5  C   UNL     1      86.022  25.436  28.361  1.00  0.00     0.000 C 
BRANCH   5   6
ATOM      6  C   UNL     1      85.114  24.246  28.703  1.00  0.00     0.006 C 
BRANCH   6   7
ATOM      7  C   UNL     1      83.819  24.684  29.397  1.00  0.00     0.053 C 
BRANCH   7   8
ATOM      8  C   UNL     1      82.931  23.517  29.706  1.00  0.00     0.041 C 
ATOM      9  O   UNL     1      82.120  23.091  28.843  1.00  0.00    -0.550 OA
ATOM     10  O   UNL     1      83.025  22.880  30.937  1.00  0.00    -0.550 OA
ENDBRANCH   7   8
ENDBRANCH   6   7
ENDBRANCH   5   6
ENDBRANCH   4   5
ENDBRANCH   3   4
ENDBRANCH   2   3
ENDBRANCH   1   2
BRANCH   1  11
ATOM     11  C   UNL     1      87.470  29.524  25.301  1.00  0.00     0.000 C 
BRANCH  11  12
ATOM     12  C   UNL     1      88.612  28.505  25.125  1.00  0.00    -0.000 C 
BRANCH  12  13
ATOM     13  C   UNL     1      89.874  28.783  25.962  1.00  0.00    -0.000 C 
BRANCH  13  14
ATOM     14  C   UNL     1      89.600  29.678  27.181  1.00  0.00    -0.000 C 
BRANCH  14  15
ATOM     15  C   UNL     1      89.366  28.835  28.440  1.00  0.00    -0.000 C 
BRANCH  15  16
ATOM     16  C   UNL     1      88.084  29.272  29.163  1.00  0.00    -0.000 C 
BRANCH  16  17
ATOM     17  C   UNL     1      87.670  30.710  28.814  1.00  0.00    -0.003 C 
ATOM     18  C   UNL     1      86.164  30.940  28.944  1.00  0.00     0.004 C 
ENDBRANCH  16  17
ENDBRANCH  15  16
ENDBRANCH  14  15
ENDBRANCH  13  14
ENDBRANCH  12  13
ENDBRANCH  11  12
ENDBRANCH   1  11
TORSDOF 14
ENDMDL
MODEL 4
REMARK VINA RESULT:    -3.055      1.455      3.448
REMARK INTER + INTRA:          -7.869
REMARK INTER:                  -5.323
REMARK INTRA:                  -2.546
REMARK UNBOUND:                -2.313
REMARK SMILES CCCCCCCCCCCCCCCC(=O)[O-]
REMARK SMILES IDX 9 1 10 2 11 3 12 4 13 5 14 6 15 7 16 8 17 9 18 10 8 11 7 12
REMARK SMILES IDX 6 13 5 14 4 15 3 16 2 17 1 18
REMARK H PARENT
REMARK Flexibility Score: inf
ROOT
ATOM      1  C   UNL     1      85.117  29.086  26.483  1.00  0.00     0.000 C 
ENDROOT
BRANCH   1   2
ATOM      2  C   UNL     1      86.229  28.308  25.754  1.00  0.00     0.000 C 
BRANCH   2   3
ATOM      3  C   UNL     1      86.649  26.980  26.415  1.00  0.00     0.000 C 
BRANCH   3   4
ATOM      4  C   UNL     1      86.363  26.881  27.925  1.00  0.00     0.000 C 
BRANCH   4   5
ATOM      5  C   UNL     1      85.878  25.489  28.351  1.00  0.00     0.000 C 
BRANCH   5   6
ATOM      6  C   UNL     1      84.530  25.577  29.082  1.00  0.00     0.006 C 
BRANCH   6   7
ATOM      7  C   UNL     1      84.140  27.024  29.408  1.00  0.00     0.053 C 
BRANCH   7   8
ATOM      8  C   UNL     1      82.799  27.379  28.840  1.00  0.00     0.041 C 
ATOM      9  O   UNL     1      82.349  28.549  28.958  1.00  0.00    -0.550 OA
ATOM     10  O   UNL     1      82.061  26.423  28.152  1.00  0.00    -0.550 OA
ENDBRANCH   7   8
ENDBRANCH   6   7
ENDBRANCH   5   6
ENDBRANCH   4   5
ENDBRANCH   3   4
ENDBRANCH   2   3
ENDBRANCH   1   2
BRANCH   1  11
ATOM     11  C   UNL     1      85.610  30.414  27.080  1.00  0.00     0.000 C 
BRANCH  11  12
ATOM     12  C   UNL     1      85.407  30.499  28.604  1.00  0.00    -0.000 C 
BRANCH  12  13
ATOM     13  C   UNL     1      86.671  30.839  29.416  1.00  0.00    -0.000 C 
BRANCH  13  14
ATOM     14  C   UNL     1      87.971  30.568  28.645  1.00  0.00    -0.000 C 
BRANCH  14  15
ATOM     15  C   UNL     1      88.679  29.318  29.182  1.00  0.00    -0.000 C 
BRANCH  15  16
ATOM     16  C   UNL     1      89.632  28.732  28.131  1.00  0.00    -0.000 C 
BRANCH  16  17
ATOM     17  C   UNL     1      89.565  29.480  26.790  1.00  0.00    -0.003 C 
ATOM     18  C   UNL     1      90.021  28.621  25.610  1.00  0.00     0.004 C 
ENDBRANCH  16  17
ENDBRANCH  15  16
ENDBRANCH  14  15
ENDBRANCH  13  14
ENDBRANCH  12  13
ENDBRANCH  11  12
ENDBRANCH   1  11
TORSDOF 14
ENDMDL
MODEL 5
REMARK VINA RESULT:    -3.040      3.040      5.790
REMARK INTER + INTRA:          -7.841
REMARK INTER:                  -5.336
REMARK INTRA:                  -2.506
REMARK UNBOUND:                -2.313
REMARK SMILES CCCCCCCCCCCCCCCC(=O)[O-]
REMARK SMILES IDX 9 1 10 2 11 3 12 4 13 5 14 6 15 7 16 8 17 9 18 10 8 11 7 12
REMARK SMILES IDX 6 13 5 14 4 15 3 16 2 17 1 18
REMARK H PARENT
REMARK Flexibility Score: inf
ROOT
ATOM      1  C   UNL     1      88.918  30.264  28.729  1.00  0.00     0.000 C 
ENDROOT
BRANCH   1   2
ATOM      2  C   UNL     1      89.349  28.837  28.342  1.00  0.00     0.000 C 
BRANCH   2   3
ATOM      3  C   UNL     1      89.914  28.681  26.915  1.00  0.00     0.000 C 
BRANCH   3   4
ATOM      4  C   UNL     1      89.830  29.943  26.037  1.00  0.00     0.000 C 
BRANCH   4   5
ATOM      5  C   UNL     1      88.740  29.849  24.960  1.00  0.00     0.000 C 
BRANCH   5   6
ATOM      6  C   UNL     1      88.259  31.247  24.543  1.00  0.00     0.006 C 
BRANCH   6   7
ATOM      7  C   UNL     1      87.109  31.751  25.423  1.00  0.00     0.053 C 
BRANCH   7   8
ATOM      8  C   UNL     1      85.792  31.679  24.712  1.00  0.00     0.041 C 
ATOM      9  O   UNL     1      85.724  31.198  23.550  1.00  0.00    -0.550 OA
ATOM     10  O   UNL     1      84.636  32.114  25.347  1.00  0.00    -0.550 OA
ENDBRANCH   7   8
ENDBRANCH   6   7
ENDBRANCH   5   6
ENDBRANCH   4   5
ENDBRANCH   3   4
ENDBRANCH   2   3
ENDBRANCH   1   2
BRANCH   1  11
ATOM     11  C   UNL     1      87.393  30.414  28.857  1.00  0.00     0.000 C 
BRANCH  11  12
ATOM     12  C   UNL     1      86.639  29.089  28.636  1.00  0.00    -0.000 C 
BRANCH  12  13
ATOM     13  C   UNL     1      85.410  29.180  27.712  1.00  0.00    -0.000 C 
BRANCH  13  14
ATOM     14  C   UNL     1      85.597  28.424  26.389  1.00  0.00    -0.000 C 
BRANCH  14  15
ATOM     15  C   UNL     1      86.505  27.203  26.576  1.00  0.00    -0.000 C 
BRANCH  15  16
ATOM     16  C   UNL     1      85.817  25.924  26.078  1.00  0.00    -0.000 C 
BRANCH  16  17
ATOM     17  C   UNL     1      85.557  24.915  27.208  1.00  0.00    -0.003 C 
ATOM     18  C   UNL     1      86.029  25.420  28.572  1.00  0.00     0.004 C 
ENDBRANCH  16  17
ENDBRANCH  15  16
ENDBRANCH  14  15
ENDBRANCH  13  14
ENDBRANCH  12  13
ENDBRANCH  11  12
ENDBRANCH   1  11
TORSDOF 14
ENDMDL
MODEL 6
REMARK VINA RESULT:    -3.022      2.599      4.564
REMARK INTER + INTRA:          -7.808
REMARK INTER:                  -5.314
REMARK INTRA:                  -2.494
REMARK UNBOUND:                -2.313
REMARK SMILES CCCCCCCCCCCCCCCC(=O)[O-]
REMARK SMILES IDX 9 1 10 2 11 3 12 4 13 5 14 6 15 7 16 8 17 9 18 10 8 11 7 12
REMARK SMILES IDX 6 13 5 14 4 15 3 16 2 17 1 18
REMARK H PARENT
REMARK Flexibility Score: inf
ROOT
ATOM      1  C   UNL     1      85.386  26.784  26.926  1.00  0.00     0.000 C 
ENDROOT
BRANCH   1   2
ATOM      2  C   UNL     1      86.298  27.081  25.722  1.00  0.00     0.000 C 
BRANCH   2   3
ATOM      3  C   UNL     1      86.535  28.575  25.424  1.00  0.00     0.000 C 
BRANCH   3   4
ATOM      4  C   UNL     1      85.338  29.498  25.717  1.00  0.00     0.000 C 
BRANCH   4   5
ATOM      5  C   UNL     1      85.645  30.552  26.790  1.00  0.00     0.000 C 
BRANCH   5   6
ATOM      6  C   UNL     1      84.400  30.848  27.640  1.00  0.00     0.006 C 
BRANCH   6   7
ATOM      7  C   UNL     1      84.467  30.179  29.019  1.00  0.00     0.053 C 
BRANCH   7   8
ATOM      8  C   UNL     1      84.685  31.181  30.112  1.00  0.00     0.041 C 
ATOM      9  O   UNL     1      83.843  31.302  31.040  1.00  0.00    -0.550 OA
ATOM     10  O   UNL     1      85.837  31.958  30.121  1.00  0.00    -0.550 OA
ENDBRANCH   7   8
ENDBRANCH   6   7
ENDBRANCH   5   6
ENDBRANCH   4   5
ENDBRANCH   3   4
ENDBRANCH   2   3
ENDBRANCH   1   2
BRANCH   1  11
ATOM     11  C   UNL     1      86.139  26.146  28.104  1.00  0.00     0.000 C 
BRANCH  11  12
ATOM     12  C   UNL     1      86.575  27.173  29.166  1.00  0.00    -0.000 C 
BRANCH  12  13
ATOM     13  C   UNL     1      87.949  27.825  28.923  1.00  0.00    -0.000 C 
BRANCH  13  14
ATOM     14  C   UNL     1      87.976  29.319  29.278  1.00  0.00    -0.000 C 
BRANCH  14  15
ATOM     15  C   UNL     1      88.955  30.080  28.376  1.00  0.00    -0.000 C 
BRANCH  15  16
ATOM     16  C   UNL     1      89.643  29.128  27.386  1.00  0.00    -0.000 C 
BRANCH  16  17
ATOM     17  C   UNL     1      89.961  29.803  26.042  1.00  0.00    -0.003 C 
ATOM     18  C   UNL     1      90.255  28.796  24.930  1.00  0.00     0.004 C 
ENDBRANCH  16  17
ENDBRANCH  15  16
ENDBRANCH  14  15
ENDBRANCH  13  14
ENDBRANCH  12  13
ENDBRANCH  11  12
ENDBRANCH   1  11
TORSDOF 14
ENDMDL
MODEL 7
REMARK VINA RESULT:    -3.011      2.226      5.467
REMARK INTER + INTRA:          -7.789
REMARK INTER:                  -6.252
REMARK INTRA:                  -1.537
REMARK UNBOUND:                -2.313
REMARK SMILES CCCCCCCCCCCCCCCC(=O)[O-]
REMARK SMILES IDX 9 1 10 2 11 3 12 4 13 5 14 6 15 7 16 8 17 9 18 10 8 11 7 12
REMARK SMILES IDX 6 13 5 14 4 15 3 16 2 17 1 18
REMARK H PARENT
REMARK Flexibility Score: inf
ROOT
ATOM      1  C   UNL     1      86.980  28.315  25.606  1.00  0.00     0.000 C 
ENDROOT
BRANCH   1   2
ATOM      2  C   UNL     1      88.374  28.742  25.113  1.00  0.00     0.000 C 
BRANCH   2   3
ATOM      3  C   UNL     1      89.327  29.275  26.204  1.00  0.00     0.000 C 
BRANCH   3   4
ATOM      4  C   UNL     1      89.299  28.498  27.533  1.00  0.00     0.000 C 
BRANCH   4   5
ATOM      5  C   UNL     1      89.073  29.406  28.750  1.00  0.00     0.000 C 
BRANCH   5   6
ATOM      6  C   UNL     1      87.587  29.443  29.138  1.00  0.00     0.006 C 
BRANCH   6   7
ATOM      7  C   UNL     1      86.907  30.748  28.708  1.00  0.00     0.053 C 
BRANCH   7   8
ATOM      8  C   UNL     1      85.770  31.107  29.615  1.00  0.00     0.041 C 
ATOM      9  O   UNL     1      84.687  30.467  29.559  1.00  0.00    -0.550 OA
ATOM     10  O   UNL     1      85.919  32.129  30.545  1.00  0.00    -0.550 OA
ENDBRANCH   7   8
ENDBRANCH   6   7
ENDBRANCH   5   6
ENDBRANCH   4   5
ENDBRANCH   3   4
ENDBRANCH   2   3
ENDBRANCH   1   2
BRANCH   1  11
ATOM     11  C   UNL     1      86.499  27.000  24.973  1.00  0.00     0.000 C 
BRANCH  11  12
ATOM     12  C   UNL     1      85.873  26.034  25.997  1.00  0.00    -0.000 C 
BRANCH  12  13
ATOM     13  C   UNL     1      85.708  26.602  27.419  1.00  0.00    -0.000 C 
BRANCH  13  14
ATOM     14  C   UNL     1      86.049  25.582  28.515  1.00  0.00    -0.000 C 
BRANCH  14  15
ATOM     15  C   UNL     1      85.869  24.147  28.006  1.00  0.00    -0.000 C 
BRANCH  15  16
ATOM     16  C   UNL     1      84.650  23.480  28.659  1.00  0.00    -0.000 C 
BRANCH  16  17
ATOM     17  C   UNL     1      83.894  24.429  29.603  1.00  0.00    -0.003 C 
ATOM     18  C   UNL     1      83.196  23.692  30.746  1.00  0.00     0.004 C 
ENDBRANCH  16  17
ENDBRANCH  15  16
ENDBRANCH  14  15
ENDBRANCH  13  14
ENDBRANCH  12  13
ENDBRANCH  11  12
ENDBRANCH   1  11
TORSDOF 14
ENDMDL
MODEL 8
REMARK VINA RESULT:    -2.985      4.491      6.895
REMARK INTER + INTRA:          -7.741
REMARK INTER:                  -6.103
REMARK INTRA:                  -1.638
REMARK UNBOUND:                -2.313
REMARK SMILES CCCCCCCCCCCCCCCC(=O)[O-]
REMARK SMILES IDX 9 1 10 2 11 3 12 4 13 5 14 6 15 7 16 8 17 9 18 10 8 11 7 12
REMARK SMILES IDX 6 13 5 14 4 15 3 16 2 17 1 18
REMARK H PARENT
REMARK Flexibility Score: inf
ROOT
ATOM      1  C   UNL     1      88.202  29.350  29.163  1.00  0.00     0.000 C 
ENDROOT
BRANCH   1   2
ATOM      2  C   UNL     1      87.472  30.545  28.522  1.00  0.00     0.000 C 
BRANCH   2   3
ATOM      3  C   UNL     1      86.131  30.929  29.179  1.00  0.00     0.000 C 
BRANCH   3   4
ATOM      4  C   UNL     1      86.244  31.848  30.409  1.00  0.00     0.000 C 
BRANCH   4   5
ATOM      5  C   UNL     1      84.916  32.530  30.769  1.00  0.00     0.000 C 
BRANCH   5   6
ATOM      6  C   UNL     1      85.161  33.874  31.469  1.00  0.00     0.006 C 
BRANCH   6   7
ATOM      7  C   UNL     1      85.867  33.704  32.821  1.00  0.00     0.053 C 
BRANCH   7   8
ATOM      8  C   UNL     1      86.068  35.018  33.512  1.00  0.00     0.041 C 
ATOM      9  O   UNL     1      85.952  36.096  32.872  1.00  0.00    -0.550 OA
ATOM     10  O   UNL     1      86.352  35.051  34.871  1.00  0.00    -0.550 OA
ENDBRANCH   7   8
ENDBRANCH   6   7
ENDBRANCH   5   6
ENDBRANCH   4   5
ENDBRANCH   3   4
ENDBRANCH   2   3
ENDBRANCH   1   2
BRANCH   1  11
ATOM     11  C   UNL     1      89.399  28.865  28.330  1.00  0.00     0.000 C 
BRANCH  11  12
ATOM     12  C   UNL     1      89.393  29.415  26.892  1.00  0.00    -0.000 C 
BRANCH  12  13
ATOM     13  C   UNL     1      88.955  28.413  25.808  1.00  0.00    -0.000 C 
BRANCH  13  14
ATOM     14  C   UNL     1      87.447  28.465  25.517  1.00  0.00    -0.000 C 
BRANCH  14  15
ATOM     15  C   UNL     1      86.712  27.319  26.223  1.00  0.00    -0.000 C 
BRANCH  15  16
ATOM     16  C   UNL     1      85.457  27.834  26.943  1.00  0.00    -0.000 C 
BRANCH  16  17
ATOM     17  C   UNL     1      85.336  27.294  28.377  1.00  0.00    -0.003 C 
ATOM     18  C   UNL     1      86.349  26.190  28.680  1.00  0.00     0.004 C 
ENDBRANCH  16  17
ENDBRANCH  15  16
ENDBRANCH  14  15
ENDBRANCH  13  14
ENDBRANCH  12  13
ENDBRANCH  11  12
ENDBRANCH   1  11
TORSDOF 14
ENDMDL
MODEL 9
REMARK VINA RESULT:    -2.955      2.265      4.741
REMARK INTER + INTRA:          -7.687
REMARK INTER:                  -5.159
REMARK INTRA:                  -2.528
REMARK UNBOUND:                -2.313
REMARK SMILES CCCCCCCCCCCCCCCC(=O)[O-]
REMARK SMILES IDX 9 1 10 2 11 3 12 4 13 5 14 6 15 7 16 8 17 9 18 10 8 11 7 12
REMARK SMILES IDX 6 13 5 14 4 15 3 16 2 17 1 18
REMARK H PARENT
REMARK Flexibility Score: inf
ROOT
ATOM      1  C   UNL     1      89.630  28.740  26.653  1.00  0.00     0.000 C 
ENDROOT
BRANCH   1   2
ATOM      2  C   UNL     1      89.590  28.796  28.191  1.00  0.00     0.000 C 
BRANCH   2   3
ATOM      3  C   UNL     1      88.883  30.029  28.789  1.00  0.00     0.000 C 
BRANCH   3   4
ATOM      4  C   UNL     1      87.434  29.792  29.253  1.00  0.00     0.000 C 
BRANCH   4   5
ATOM      5  C   UNL     1      86.515  30.989  28.975  1.00  0.00     0.000 C 
BRANCH   5   6
ATOM      6  C   UNL     1      85.341  30.582  28.072  1.00  0.00     0.006 C 
BRANCH   6   7
ATOM      7  C   UNL     1      84.225  29.878  28.854  1.00  0.00     0.053 C 
BRANCH   7   8
ATOM      8  C   UNL     1      83.592  30.790  29.861  1.00  0.00     0.041 C 
ATOM      9  O   UNL     1      83.563  30.469  31.078  1.00  0.00    -0.550 OA
ATOM     10  O   UNL     1      83.063  32.009  29.457  1.00  0.00    -0.550 OA
ENDBRANCH   7   8
ENDBRANCH   6   7
ENDBRANCH   5   6
ENDBRANCH   4   5
ENDBRANCH   3   4
ENDBRANCH   2   3
ENDBRANCH   1   2
BRANCH   1  11
ATOM     11  C   UNL     1      88.992  29.972  25.993  1.00  0.00     0.000 C 
BRANCH  11  12
ATOM     12  C   UNL     1      87.678  29.648  25.258  1.00  0.00    -0.000 C 
BRANCH  12  13
ATOM     13  C   UNL     1      87.290  28.158  25.236  1.00  0.00    -0.000 C 
BRANCH  13  14
ATOM     14  C   UNL     1      85.903  27.891  25.841  1.00  0.00    -0.000 C 
BRANCH  14  15
ATOM     15  C   UNL     1      85.862  26.526  26.539  1.00  0.00    -0.000 C 
BRANCH  15  16
ATOM     16  C   UNL     1      86.589  26.579  27.891  1.00  0.00    -0.000 C 
BRANCH  16  17
ATOM     17  C   UNL     1      85.619  26.583  29.083  1.00  0.00    -0.003 C 
ATOM     18  C   UNL     1      84.211  26.122  28.701  1.00  0.00     0.004 C 
ENDBRANCH  16  17
ENDBRANCH  15  16
ENDBRANCH  14  15
ENDBRANCH  13  14
ENDBRANCH  12  13
ENDBRANCH  11  12
ENDBRANCH   1  11
TORSDOF 14
ENDMDL
