MODEL 1
REMARK VINA RESULT:    -4.479      0.000      0.000
REMARK INTER + INTRA:          -4.757
REMARK INTER:                  -4.741
REMARK INTRA:                  -0.017
REMARK UNBOUND:                -0.017
REMARK SMILES O=C([O-])c1cccnc1
REMARK SMILES IDX 4 1 5 2 9 3 6 4 8 5 7 6 2 7 1 8 3 9
REMARK H PARENT
REMARK Flexibility Score: inf
ROOT
ATOM      1  C   UNL     1       2.267  13.307   4.425  1.00  0.00     0.016 A 
ATOM      2  C   UNL     1       2.328  13.319   5.828  1.00  0.00     0.013 A 
ATOM      3  C   UNL     1       1.026  13.540   3.807  1.00  0.00     0.120 A 
ATOM      4  C   UNL     1       1.173  13.558   6.578  1.00  0.00     0.021 A 
ATOM      5  N   UNL     1      -0.083  13.769   4.561  1.00  0.00    -0.264 NA
ATOM      6  C   UNL     1      -0.035  13.783   5.919  1.00  0.00     0.111 A 
ENDROOT
BRANCH   1   7
ATOM      7  C   UNL     1       3.477  13.057   3.613  1.00  0.00     0.073 C 
ATOM      8  O   UNL     1       4.369  13.940   3.505  1.00  0.00    -0.545 OA
ATOM      9  O   UNL     1       3.647  11.843   2.958  1.00  0.00    -0.545 OA
ENDBRANCH   1   7
TORSDOF 1
ENDMDL
MODEL 2
REMARK VINA RESULT:    -4.464      0.446      1.119
REMARK INTER + INTRA:          -4.742
REMARK INTER:                  -4.725
REMARK INTRA:                  -0.016
REMARK UNBOUND:                -0.017
REMARK SMILES O=C([O-])c1cccnc1
REMARK SMILES IDX 4 1 5 2 9 3 6 4 8 5 7 6 2 7 1 8 3 9
REMARK H PARENT
REMARK Flexibility Score: inf
ROOT
ATOM      1  C   UNL     1       2.159  13.383   4.588  1.00  0.00     0.016 A 
ATOM      2  C   UNL     1       1.990  13.340   5.982  1.00  0.00     0.013 A 
ATOM      3  C   UNL     1       1.030  13.622   3.785  1.00  0.00     0.120 A 
ATOM      4  C   UNL     1       0.725  13.533   6.542  1.00  0.00     0.021 A 
ATOM      5  N   UNL     1      -0.191  13.806   4.356  1.00  0.00    -0.264 NA
ATOM      6  C   UNL     1      -0.364  13.768   5.703  1.00  0.00     0.111 A 
ENDROOT
BRANCH   1   7
ATOM      7  C   UNL     1       3.489  13.181   3.975  1.00  0.00     0.073 C 
ATOM      8  O   UNL     1       3.963  12.022   3.841  1.00  0.00    -0.545 OA
ATOM      9  O   UNL     1       4.236  14.269   3.540  1.00  0.00    -0.545 OA
ENDBRANCH   1   7
TORSDOF 1
ENDMDL
MODEL 3
REMARK VINA RESULT:    -4.459      0.966      1.936
REMARK INTER + INTRA:          -4.736
REMARK INTER:                  -4.719
REMARK INTRA:                  -0.017
REMARK UNBOUND:                -0.017
REMARK SMILES O=C([O-])c1cccnc1
REMARK SMILES IDX 4 1 5 2 9 3 6 4 8 5 7 6 2 7 1 8 3 9
REMARK H PARENT
REMARK Flexibility Score: inf
ROOT
ATOM      1  C   UNL     1       2.339  13.247   4.504  1.00  0.00     0.016 A 
ATOM      2  C   UNL     1       1.047  13.403   3.974  1.00  0.00     0.013 A 
ATOM      3  C   UNL     1       2.505  13.336   5.897  1.00  0.00     0.120 A 
ATOM      4  C   UNL     1      -0.035  13.641   4.824  1.00  0.00     0.021 A 
ATOM      5  N   UNL     1       1.434  13.569   6.702  1.00  0.00    -0.264 NA
ATOM      6  C   UNL     1       0.180  13.721   6.199  1.00  0.00     0.111 A 
ENDROOT
BRANCH   1   7
ATOM      7  C   UNL     1       3.498  12.994   3.622  1.00  0.00     0.073 C 
ATOM      8  O   UNL     1       3.635  11.881   3.049  1.00  0.00    -0.545 OA
ATOM      9  O   UNL     1       4.453  13.982   3.414  1.00  0.00    -0.545 OA
ENDBRANCH   1   7
TORSDOF 1
ENDMDL
MODEL 4
REMARK VINA RESULT:    -4.386      3.215      3.847
REMARK INTER + INTRA:          -4.659
REMARK INTER:                  -4.643
REMARK INTRA:                  -0.016
REMARK UNBOUND:                -0.017
REMARK SMILES O=C([O-])c1cccnc1
REMARK SMILES IDX 4 1 5 2 9 3 6 4 8 5 7 6 2 7 1 8 3 9
REMARK H PARENT
REMARK Flexibility Score: inf
ROOT
ATOM      1  C   UNL     1       0.586  12.855   5.656  1.00  0.00     0.016 A 
ATOM      2  C   UNL     1       1.478  13.451   6.564  1.00  0.00     0.013 A 
ATOM      3  C   UNL     1       1.074  12.467   4.396  1.00  0.00     0.120 A 
ATOM      4  C   UNL     1       2.814  13.648   6.207  1.00  0.00     0.021 A 
ATOM      5  N   UNL     1       2.380  12.670   4.074  1.00  0.00    -0.264 NA
ATOM      6  C   UNL     1       3.251  13.246   4.945  1.00  0.00     0.111 A 
ENDROOT
BRANCH   1   7
ATOM      7  C   UNL     1      -0.832  12.638   6.014  1.00  0.00     0.073 C 
ATOM      8  O   UNL     1      -1.667  13.575   5.917  1.00  0.00    -0.545 OA
ATOM      9  O   UNL     1      -1.262  11.395   6.464  1.00  0.00    -0.545 OA
ENDBRANCH   1   7
TORSDOF 1
ENDMDL
MODEL 5
REMARK VINA RESULT:    -4.337      3.164      4.133
REMARK INTER + INTRA:          -4.607
REMARK INTER:                  -4.591
REMARK INTRA:                  -0.016
REMARK UNBOUND:                -0.017
REMARK SMILES O=C([O-])c1cccnc1
REMARK SMILES IDX 4 1 5 2 9 3 6 4 8 5 7 6 2 7 1 8 3 9
REMARK H PARENT
REMARK Flexibility Score: inf
ROOT
ATOM      1  C   UNL     1       0.845  12.910   5.564  1.00  0.00     0.016 A 
ATOM      2  C   UNL     1       1.290  12.667   4.254  1.00  0.00     0.013 A 
ATOM      3  C   UNL     1       1.768  13.401   6.504  1.00  0.00     0.120 A 
ATOM      4  C   UNL     1       2.621  12.912   3.909  1.00  0.00     0.021 A 
ATOM      5  N   UNL     1       3.059  13.630   6.141  1.00  0.00    -0.264 NA
ATOM      6  C   UNL     1       3.499  13.399   4.876  1.00  0.00     0.111 A 
ENDROOT
BRANCH   1   7
ATOM      7  C   UNL     1      -0.560  12.658   5.950  1.00  0.00     0.073 C 
ATOM      8  O   UNL     1      -0.961  11.486   6.179  1.00  0.00    -0.545 OA
ATOM      9  O   UNL     1      -1.459  13.712   6.064  1.00  0.00    -0.545 OA
ENDBRANCH   1   7
TORSDOF 1
ENDMDL
MODEL 6
REMARK VINA RESULT:    -4.225      2.259      2.688
REMARK INTER + INTRA:          -4.488
REMARK INTER:                  -4.466
REMARK INTRA:                  -0.022
REMARK UNBOUND:                -0.017
REMARK SMILES O=C([O-])c1cccnc1
REMARK SMILES IDX 4 1 5 2 9 3 6 4 8 5 7 6 2 7 1 8 3 9
REMARK H PARENT
REMARK Flexibility Score: inf
ROOT
ATOM      1  C   UNL     1       1.333  13.708   3.842  1.00  0.00     0.016 A 
ATOM      2  C   UNL     1       0.394  13.739   4.887  1.00  0.00     0.013 A 
ATOM      3  C   UNL     1       2.687  13.515   4.166  1.00  0.00     0.120 A 
ATOM      4  C   UNL     1       0.812  13.581   6.211  1.00  0.00     0.021 A 
ATOM      5  N   UNL     1       3.067  13.364   5.463  1.00  0.00    -0.264 NA
ATOM      6  C   UNL     1       2.167  13.392   6.481  1.00  0.00     0.111 A 
ENDROOT
BRANCH   1   7
ATOM      7  C   UNL     1       0.910  13.873   2.435  1.00  0.00     0.073 C 
ATOM      8  O   UNL     1      -0.117  14.543   2.149  1.00  0.00    -0.545 OA
ATOM      9  O   UNL     1       1.642  13.289   1.408  1.00  0.00    -0.545 OA
ENDBRANCH   1   7
TORSDOF 1
ENDMDL
MODEL 7
REMARK VINA RESULT:    -4.217      2.517      3.369
REMARK INTER + INTRA:          -4.480
REMARK INTER:                  -4.461
REMARK INTRA:                  -0.019
REMARK UNBOUND:                -0.017
REMARK SMILES O=C([O-])c1cccnc1
REMARK SMILES IDX 4 1 5 2 9 3 6 4 8 5 7 6 2 7 1 8 3 9
REMARK H PARENT
REMARK Flexibility Score: inf
ROOT
ATOM      1  C   UNL     1       1.554  13.149   4.864  1.00  0.00     0.016 A 
ATOM      2  C   UNL     1       2.701  12.595   4.270  1.00  0.00     0.013 A 
ATOM      3  C   UNL     1       0.625  13.805   4.038  1.00  0.00     0.120 A 
ATOM      4  C   UNL     1       2.899  12.704   2.892  1.00  0.00     0.021 A 
ATOM      5  N   UNL     1       0.842  13.897   2.699  1.00  0.00    -0.264 NA
ATOM      6  C   UNL     1       1.948  13.365   2.115  1.00  0.00     0.111 A 
ENDROOT
BRANCH   1   7
ATOM      7  C   UNL     1       1.326  13.045   6.321  1.00  0.00     0.073 C 
ATOM      8  O   UNL     1       2.220  13.397   7.136  1.00  0.00    -0.545 OA
ATOM      9  O   UNL     1       0.122  12.556   6.812  1.00  0.00    -0.545 OA
ENDBRANCH   1   7
TORSDOF 1
ENDMDL
MODEL 8
REMARK VINA RESULT:    -4.169      2.663      3.536
REMARK INTER + INTRA:          -4.429
REMARK INTER:                  -4.408
REMARK INTRA:                  -0.021
REMARK UNBOUND:                -0.017
REMARK SMILES O=C([O-])c1cccnc1
REMARK SMILES IDX 4 1 5 2 9 3 6 4 8 5 7 6 2 7 1 8 3 9
REMARK H PARENT
REMARK Flexibility Score: inf
ROOT
ATOM      1  C   UNL     1       1.610  13.475   4.874  1.00  0.00     0.016 A 
ATOM      2  C   UNL     1       0.522  13.855   4.070  1.00  0.00     0.013 A 
ATOM      3  C   UNL     1       2.887  13.422   4.289  1.00  0.00     0.120 A 
ATOM      4  C   UNL     1       0.721  14.170   2.724  1.00  0.00     0.021 A 
ATOM      5  N   UNL     1       3.053  13.734   2.976  1.00  0.00    -0.264 NA
ATOM      6  C   UNL     1       2.007  14.103   2.190  1.00  0.00     0.111 A 
ENDROOT
BRANCH   1   7
ATOM      7  C   UNL     1       1.420  13.138   6.301  1.00  0.00     0.073 C 
ATOM      8  O   UNL     1       2.328  13.375   7.141  1.00  0.00    -0.545 OA
ATOM      9  O   UNL     1       0.236  12.552   6.735  1.00  0.00    -0.545 OA
ENDBRANCH   1   7
TORSDOF 1
ENDMDL
MODEL 9
REMARK VINA RESULT:    -4.078     10.997     11.983
REMARK INTER + INTRA:          -4.333
REMARK INTER:                  -4.317
REMARK INTRA:                  -0.016
REMARK UNBOUND:                -0.017
REMARK SMILES O=C([O-])c1cccnc1
REMARK SMILES IDX 4 1 5 2 9 3 6 4 8 5 7 6 2 7 1 8 3 9
REMARK H PARENT
REMARK Flexibility Score: inf
ROOT
ATOM      1  C   UNL     1      -0.871  10.430  15.486  1.00  0.00     0.016 A 
ATOM      2  C   UNL     1      -0.201  10.721  16.687  1.00  0.00     0.013 A 
ATOM      3  C   UNL     1      -2.275  10.375  15.501  1.00  0.00     0.120 A 
ATOM      4  C   UNL     1      -0.928  10.948  17.858  1.00  0.00     0.021 A 
ATOM      5  N   UNL     1      -2.959  10.600  16.655  1.00  0.00    -0.264 NA
ATOM      6  C   UNL     1      -2.321  10.883  17.821  1.00  0.00     0.111 A 
ENDROOT
BRANCH   1   7
ATOM      7  C   UNL     1      -0.120  10.187  14.236  1.00  0.00     0.073 C 
ATOM      8  O   UNL     1       0.250   9.024  13.928  1.00  0.00    -0.545 OA
ATOM      9  O   UNL     1       0.188  11.241  13.384  1.00  0.00    -0.545 OA
ENDBRANCH   1   7
TORSDOF 1
ENDMDL
