MODEL 1
REMARK VINA RESULT:    -4.648      0.000      0.000
REMARK INTER + INTRA:          -5.958
REMARK INTER:                  -5.734
REMARK INTRA:                  -0.224
REMARK UNBOUND:                -0.224
REMARK SMILES CCCCC=CC(C)=O
REMARK SMILES IDX 4 1 3 2 2 3 1 4 5 5 6 6 7 7 9 8 8 9
REMARK H PARENT
REMARK Flexibility Score: inf
ROOT
ATOM      1  C   UNL     1      32.891  21.082   6.723  1.00  0.00     0.027 C 
ENDROOT
BRANCH   1   2
ATOM      2  C   UNL     1      32.004  19.875   6.378  1.00  0.00     0.004 C 
BRANCH   2   3
ATOM      3  C   UNL     1      31.054  20.160   5.205  1.00  0.00    -0.003 C 
ATOM      4  C   UNL     1      29.584  20.159   5.621  1.00  0.00     0.004 C 
ENDBRANCH   2   3
ENDBRANCH   1   2
BRANCH   1   5
ATOM      5  C   UNL     1      32.136  22.095   7.536  1.00  0.00    -0.023 C 
ATOM      6  C   UNL     1      31.711  23.245   6.998  1.00  0.00     0.042 C 
BRANCH   6   7
ATOM      7  C   UNL     1      30.956  24.264   7.754  1.00  0.00     0.152 C 
ATOM      8  O   UNL     1      29.820  23.962   8.206  1.00  0.00    -0.295 OA
ATOM      9  C   UNL     1      31.492  25.643   8.001  1.00  0.00     0.093 C 
ENDBRANCH   6   7
ENDBRANCH   1   5
TORSDOF 4
ENDMDL
MODEL 2
REMARK VINA RESULT:    -4.411      2.749      3.896
REMARK INTER + INTRA:          -5.666
REMARK INTER:                  -5.560
REMARK INTRA:                  -0.106
REMARK UNBOUND:                -0.224
REMARK SMILES CCCCC=CC(C)=O
REMARK SMILES IDX 4 1 3 2 2 3 1 4 5 5 6 6 7 7 9 8 8 9
REMARK H PARENT
REMARK Flexibility Score: inf
ROOT
ATOM      1  C   UNL     1      28.844  20.809   5.340  1.00  0.00     0.027 C 
ENDROOT
BRANCH   1   2
ATOM      2  C   UNL     1      27.651  21.757   5.145  1.00  0.00     0.004 C 
BRANCH   2   3
ATOM      3  C   UNL     1      26.924  21.521   3.812  1.00  0.00    -0.003 C 
ATOM      4  C   UNL     1      26.163  22.755   3.327  1.00  0.00     0.004 C 
ENDBRANCH   2   3
ENDBRANCH   1   2
BRANCH   1   5
ATOM      5  C   UNL     1      29.668  21.212   6.529  1.00  0.00    -0.023 C 
ATOM      6  C   UNL     1      31.004  21.280   6.461  1.00  0.00     0.042 C 
BRANCH   6   7
ATOM      7  C   UNL     1      31.855  21.682   7.599  1.00  0.00     0.152 C 
ATOM      8  O   UNL     1      33.105  21.593   7.479  1.00  0.00    -0.295 OA
ATOM      9  C   UNL     1      31.284  22.192   8.889  1.00  0.00     0.093 C 
ENDBRANCH   6   7
ENDBRANCH   1   5
TORSDOF 4
ENDMDL
MODEL 3
REMARK VINA RESULT:    -4.408      2.035      4.399
REMARK INTER + INTRA:          -5.662
REMARK INTER:                  -5.424
REMARK INTRA:                  -0.238
REMARK UNBOUND:                -0.224
REMARK SMILES CCCCC=CC(C)=O
REMARK SMILES IDX 4 1 3 2 2 3 1 4 5 5 6 6 7 7 9 8 8 9
REMARK H PARENT
REMARK Flexibility Score: inf
ROOT
ATOM      1  C   UNL     1      32.023  20.239   6.306  1.00  0.00     0.027 C 
ENDROOT
BRANCH   1   2
ATOM      2  C   UNL     1      32.713  21.485   6.882  1.00  0.00     0.004 C 
BRANCH   2   3
ATOM      3  C   UNL     1      31.710  22.521   7.412  1.00  0.00    -0.003 C 
ATOM      4  C   UNL     1      31.290  22.252   8.856  1.00  0.00     0.004 C 
ENDBRANCH   2   3
ENDBRANCH   1   2
BRANCH   1   5
ATOM      5  C   UNL     1      30.766  20.606   5.570  1.00  0.00    -0.023 C 
ATOM      6  C   UNL     1      29.632  19.915   5.738  1.00  0.00     0.042 C 
BRANCH   6   7
ATOM      7  C   UNL     1      28.370  20.246   5.046  1.00  0.00     0.152 C 
ATOM      8  O   UNL     1      27.476  20.862   5.683  1.00  0.00    -0.295 OA
ATOM      9  C   UNL     1      28.117  19.875   3.615  1.00  0.00     0.093 C 
ENDBRANCH   6   7
ENDBRANCH   1   5
TORSDOF 4
ENDMDL
MODEL 4
REMARK VINA RESULT:    -4.404      2.085      3.990
REMARK INTER + INTRA:          -5.658
REMARK INTER:                  -5.375
REMARK INTRA:                  -0.283
REMARK UNBOUND:                -0.224
REMARK SMILES CCCCC=CC(C)=O
REMARK SMILES IDX 4 1 3 2 2 3 1 4 5 5 6 6 7 7 9 8 8 9
REMARK H PARENT
REMARK Flexibility Score: inf
ROOT
ATOM      1  C   UNL     1      31.227  20.345   6.202  1.00  0.00     0.027 C 
ENDROOT
BRANCH   1   2
ATOM      2  C   UNL     1      31.880  21.699   6.520  1.00  0.00     0.004 C 
BRANCH   2   3
ATOM      3  C   UNL     1      32.393  21.779   7.966  1.00  0.00    -0.003 C 
ATOM      4  C   UNL     1      31.308  22.199   8.957  1.00  0.00     0.004 C 
ENDBRANCH   2   3
ENDBRANCH   1   2
BRANCH   1   5
ATOM      5  C   UNL     1      29.802  20.519   5.760  1.00  0.00    -0.023 C 
ATOM      6  C   UNL     1      29.128  21.649   6.010  1.00  0.00     0.042 C 
BRANCH   6   7
ATOM      7  C   UNL     1      27.731  21.870   5.586  1.00  0.00     0.152 C 
ATOM      8  O   UNL     1      26.940  22.438   6.385  1.00  0.00    -0.295 OA
ATOM      9  C   UNL     1      27.222  21.444   4.241  1.00  0.00     0.093 C 
ENDBRANCH   6   7
ENDBRANCH   1   5
TORSDOF 4
ENDMDL
MODEL 5
REMARK VINA RESULT:    -4.385      2.248      3.781
REMARK INTER + INTRA:          -5.634
REMARK INTER:                  -5.357
REMARK INTRA:                  -0.277
REMARK UNBOUND:                -0.224
REMARK SMILES CCCCC=CC(C)=O
REMARK SMILES IDX 4 1 3 2 2 3 1 4 5 5 6 6 7 7 9 8 8 9
REMARK H PARENT
REMARK Flexibility Score: inf
ROOT
ATOM      1  C   UNL     1      31.029  22.467   8.620  1.00  0.00     0.027 C 
ENDROOT
BRANCH   1   2
ATOM      2  C   UNL     1      31.786  22.769   7.317  1.00  0.00     0.004 C 
BRANCH   2   3
ATOM      3  C   UNL     1      32.786  21.663   6.948  1.00  0.00    -0.003 C 
ATOM      4  C   UNL     1      32.196  20.628   5.991  1.00  0.00     0.004 C 
ENDBRANCH   2   3
ENDBRANCH   1   2
BRANCH   1   5
ATOM      5  C   UNL     1      29.633  21.990   8.338  1.00  0.00    -0.023 C 
ATOM      6  C   UNL     1      29.067  22.159   7.136  1.00  0.00     0.042 C 
BRANCH   6   7
ATOM      7  C   UNL     1      27.703  21.697   6.809  1.00  0.00     0.152 C 
ATOM      8  O   UNL     1      26.843  22.551   6.466  1.00  0.00    -0.295 OA
ATOM      9  C   UNL     1      27.307  20.252   6.871  1.00  0.00     0.093 C 
ENDBRANCH   6   7
ENDBRANCH   1   5
TORSDOF 4
ENDMDL
MODEL 6
REMARK VINA RESULT:    -4.333      5.804      6.782
REMARK INTER + INTRA:          -5.569
REMARK INTER:                  -5.401
REMARK INTRA:                  -0.168
REMARK UNBOUND:                -0.224
REMARK SMILES CCCCC=CC(C)=O
REMARK SMILES IDX 4 1 3 2 2 3 1 4 5 5 6 6 7 7 9 8 8 9
REMARK H PARENT
REMARK Flexibility Score: inf
ROOT
ATOM      1  C   UNL     1      26.509  22.519   3.355  1.00  0.00     0.027 C 
ENDROOT
BRANCH   1   2
ATOM      2  C   UNL     1      26.994  21.496   4.393  1.00  0.00     0.004 C 
BRANCH   2   3
ATOM      3  C   UNL     1      27.502  22.160   5.682  1.00  0.00    -0.003 C 
ATOM      4  C   UNL     1      28.949  21.793   6.007  1.00  0.00     0.004 C 
ENDBRANCH   2   3
ENDBRANCH   1   2
BRANCH   1   5
ATOM      5  C   UNL     1      25.530  23.484   3.961  1.00  0.00    -0.023 C 
ATOM      6  C   UNL     1      25.174  24.608   3.325  1.00  0.00     0.042 C 
BRANCH   6   7
ATOM      7  C   UNL     1      24.207  25.579   3.876  1.00  0.00     0.152 C 
ATOM      8  O   UNL     1      23.006  25.513   3.502  1.00  0.00    -0.295 OA
ATOM      9  C   UNL     1      24.603  26.638   4.861  1.00  0.00     0.093 C 
ENDBRANCH   6   7
ENDBRANCH   1   5
TORSDOF 4
ENDMDL
MODEL 7
REMARK VINA RESULT:    -4.288      6.262      8.224
REMARK INTER + INTRA:          -5.515
REMARK INTER:                  -5.329
REMARK INTRA:                  -0.186
REMARK UNBOUND:                -0.224
REMARK SMILES CCCCC=CC(C)=O
REMARK SMILES IDX 4 1 3 2 2 3 1 4 5 5 6 6 7 7 9 8 8 9
REMARK H PARENT
REMARK Flexibility Score: inf
ROOT
ATOM      1  C   UNL     1      25.292  24.762   3.119  1.00  0.00     0.027 C 
ENDROOT
BRANCH   1   2
ATOM      2  C   UNL     1      23.841  25.263   3.204  1.00  0.00     0.004 C 
BRANCH   2   3
ATOM      3  C   UNL     1      23.520  25.909   4.559  1.00  0.00    -0.003 C 
ATOM      4  C   UNL     1      24.649  26.803   5.071  1.00  0.00     0.004 C 
ENDBRANCH   2   3
ENDBRANCH   1   2
BRANCH   1   5
ATOM      5  C   UNL     1      25.429  23.393   3.722  1.00  0.00    -0.023 C 
ATOM      6  C   UNL     1      26.355  22.529   3.287  1.00  0.00     0.042 C 
BRANCH   6   7
ATOM      7  C   UNL     1      26.535  21.178   3.857  1.00  0.00     0.152 C 
ATOM      8  O   UNL     1      27.657  20.617   3.737  1.00  0.00    -0.295 OA
ATOM      9  C   UNL     1      25.434  20.453   4.570  1.00  0.00     0.093 C 
ENDBRANCH   6   7
ENDBRANCH   1   5
TORSDOF 4
ENDMDL
MODEL 8
REMARK VINA RESULT:    -4.091      1.867      4.600
REMARK INTER + INTRA:          -5.272
REMARK INTER:                  -5.134
REMARK INTRA:                  -0.137
REMARK UNBOUND:                -0.224
REMARK SMILES CCCCC=CC(C)=O
REMARK SMILES IDX 4 1 3 2 2 3 1 4 5 5 6 6 7 7 9 8 8 9
REMARK H PARENT
REMARK Flexibility Score: inf
ROOT
ATOM      1  C   UNL     1      32.056  22.309   7.179  1.00  0.00     0.027 C 
ENDROOT
BRANCH   1   2
ATOM      2  C   UNL     1      31.436  23.380   8.090  1.00  0.00     0.004 C 
BRANCH   2   3
ATOM      3  C   UNL     1      31.281  24.735   7.383  1.00  0.00    -0.003 C 
ATOM      4  C   UNL     1      31.745  25.908   8.245  1.00  0.00     0.004 C 
ENDBRANCH   2   3
ENDBRANCH   1   2
BRANCH   1   5
ATOM      5  C   UNL     1      31.057  21.237   6.845  1.00  0.00    -0.023 C 
ATOM      6  C   UNL     1      29.853  21.538   6.342  1.00  0.00     0.042 C 
BRANCH   6   7
ATOM      7  C   UNL     1      28.844  20.520   5.987  1.00  0.00     0.152 C 
ATOM      8  O   UNL     1      27.997  20.181   6.855  1.00  0.00    -0.295 OA
ATOM      9  C   UNL     1      28.793  19.876   4.634  1.00  0.00     0.093 C 
ENDBRANCH   6   7
ENDBRANCH   1   5
TORSDOF 4
ENDMDL
MODEL 9
REMARK VINA RESULT:    -4.073      5.572      7.124
REMARK INTER + INTRA:          -5.249
REMARK INTER:                  -5.104
REMARK INTRA:                  -0.145
REMARK UNBOUND:                -0.224
REMARK SMILES CCCCC=CC(C)=O
REMARK SMILES IDX 4 1 3 2 2 3 1 4 5 5 6 6 7 7 9 8 8 9
REMARK H PARENT
REMARK Flexibility Score: inf
ROOT
ATOM      1  C   UNL     1      25.731  23.823   3.369  1.00  0.00     0.027 C 
ENDROOT
BRANCH   1   2
ATOM      2  C   UNL     1      24.547  24.090   4.310  1.00  0.00     0.004 C 
BRANCH   2   3
ATOM      3  C   UNL     1      23.548  25.102   3.728  1.00  0.00    -0.003 C 
ATOM      4  C   UNL     1      24.102  25.847   2.514  1.00  0.00     0.004 C 
ENDBRANCH   2   3
ENDBRANCH   1   2
BRANCH   1   5
ATOM      5  C   UNL     1      26.452  22.561   3.748  1.00  0.00    -0.023 C 
ATOM      6  C   UNL     1      27.260  22.512   4.815  1.00  0.00     0.042 C 
BRANCH   6   7
ATOM      7  C   UNL     1      27.979  21.292   5.232  1.00  0.00     0.152 C 
ATOM      8  O   UNL     1      27.515  20.172   4.892  1.00  0.00    -0.295 OA
ATOM      9  C   UNL     1      29.239  21.339   6.045  1.00  0.00     0.093 C 
ENDBRANCH   6   7
ENDBRANCH   1   5
TORSDOF 4
ENDMDL
