MODEL 1
REMARK VINA RESULT:    -3.503      0.000      0.000
REMARK INTER + INTRA:          -4.722
REMARK INTER:                  -4.527
REMARK INTRA:                  -0.196
REMARK UNBOUND:                -0.196
REMARK SMILES CCCCCCC(=O)[O-]
REMARK SMILES IDX 5 1 6 2 7 3 8 4 9 5 4 6 3 7 2 8 1 9
REMARK H PARENT
REMARK Flexibility Score: inf
ROOT
ATOM      1  C   UNL     1     -44.118 -48.453  36.423  1.00  0.00     0.006 C 
ENDROOT
BRANCH   1   2
ATOM      2  C   UNL     1     -45.026 -48.828  37.602  1.00  0.00     0.053 C 
BRANCH   2   3
ATOM      3  C   UNL     1     -46.459 -48.947  37.181  1.00  0.00     0.041 C 
ATOM      4  O   UNL     1     -46.985 -50.081  37.037  1.00  0.00    -0.550 OA
ATOM      5  O   UNL     1     -47.221 -47.804  36.981  1.00  0.00    -0.550 OA
ENDBRANCH   2   3
ENDBRANCH   1   2
BRANCH   1   6
ATOM      6  C   UNL     1     -43.949 -49.615  35.429  1.00  0.00     0.000 C 
BRANCH   6   7
ATOM      7  C   UNL     1     -43.124 -49.227  34.189  1.00  0.00    -0.000 C 
BRANCH   7   8
ATOM      8  C   UNL     1     -42.404 -47.870  34.291  1.00  0.00    -0.003 C 
ATOM      9  C   UNL     1     -40.894 -48.006  34.473  1.00  0.00     0.004 C 
ENDBRANCH   7   8
ENDBRANCH   6   7
ENDBRANCH   1   6
TORSDOF 5
ENDMDL
MODEL 2
REMARK VINA RESULT:    -3.326      1.245      1.894
REMARK INTER + INTRA:          -4.493
REMARK INTER:                  -4.247
REMARK INTRA:                  -0.246
REMARK UNBOUND:                -0.196
REMARK SMILES CCCCCCC(=O)[O-]
REMARK SMILES IDX 5 1 6 2 7 3 8 4 9 5 4 6 3 7 2 8 1 9
REMARK H PARENT
REMARK Flexibility Score: inf
ROOT
ATOM      1  C   UNL     1     -43.964 -49.482  35.445  1.00  0.00     0.006 C 
ENDROOT
BRANCH   1   2
ATOM      2  C   UNL     1     -43.854 -48.374  36.501  1.00  0.00     0.053 C 
BRANCH   2   3
ATOM      3  C   UNL     1     -44.955 -48.462  37.513  1.00  0.00     0.041 C 
ATOM      4  O   UNL     1     -46.144 -48.222  37.178  1.00  0.00    -0.550 OA
ATOM      5  O   UNL     1     -44.670 -48.842  38.818  1.00  0.00    -0.550 OA
ENDBRANCH   2   3
ENDBRANCH   1   2
BRANCH   1   6
ATOM      6  C   UNL     1     -43.062 -49.216  34.228  1.00  0.00     0.000 C 
BRANCH   6   7
ATOM      7  C   UNL     1     -42.336 -47.861  34.306  1.00  0.00    -0.000 C 
BRANCH   7   8
ATOM      8  C   UNL     1     -40.802 -47.954  34.387  1.00  0.00    -0.003 C 
ATOM      9  C   UNL     1     -40.267 -47.794  35.809  1.00  0.00     0.004 C 
ENDBRANCH   7   8
ENDBRANCH   6   7
ENDBRANCH   1   6
TORSDOF 5
ENDMDL
MODEL 3
REMARK VINA RESULT:    -3.266      1.551      1.897
REMARK INTER + INTRA:          -4.417
REMARK INTER:                  -4.288
REMARK INTRA:                  -0.129
REMARK UNBOUND:                -0.196
REMARK SMILES CCCCCCC(=O)[O-]
REMARK SMILES IDX 5 1 6 2 7 3 8 4 9 5 4 6 3 7 2 8 1 9
REMARK H PARENT
REMARK Flexibility Score: inf
ROOT
ATOM      1  C   UNL     1     -45.517 -48.670  37.009  1.00  0.00     0.006 C 
ENDROOT
BRANCH   1   2
ATOM      2  C   UNL     1     -46.801 -49.506  36.923  1.00  0.00     0.053 C 
BRANCH   2   3
ATOM      3  C   UNL     1     -46.699 -50.760  37.735  1.00  0.00     0.041 C 
ATOM      4  O   UNL     1     -47.076 -51.860  37.253  1.00  0.00    -0.550 OA
ATOM      5  O   UNL     1     -46.158 -50.718  39.014  1.00  0.00    -0.550 OA
ENDBRANCH   2   3
ENDBRANCH   1   2
BRANCH   1   6
ATOM      6  C   UNL     1     -44.382 -49.259  36.153  1.00  0.00     0.000 C 
BRANCH   6   7
ATOM      7  C   UNL     1     -43.181 -48.307  36.015  1.00  0.00    -0.000 C 
BRANCH   7   8
ATOM      8  C   UNL     1     -42.687 -48.095  34.572  1.00  0.00    -0.003 C 
ATOM      9  C   UNL     1     -41.177 -47.878  34.484  1.00  0.00     0.004 C 
ENDBRANCH   7   8
ENDBRANCH   6   7
ENDBRANCH   1   6
TORSDOF 5
ENDMDL
MODEL 4
REMARK VINA RESULT:    -3.118      2.980      5.037
REMARK INTER + INTRA:          -4.225
REMARK INTER:                  -4.073
REMARK INTRA:                  -0.152
REMARK UNBOUND:                -0.196
REMARK SMILES CCCCCCC(=O)[O-]
REMARK SMILES IDX 5 1 6 2 7 3 8 4 9 5 4 6 3 7 2 8 1 9
REMARK H PARENT
REMARK Flexibility Score: inf
ROOT
ATOM      1  C   UNL     1     -44.495 -49.321  36.187  1.00  0.00     0.006 C 
ENDROOT
BRANCH   1   2
ATOM      2  C   UNL     1     -43.305 -48.367  36.014  1.00  0.00     0.053 C 
BRANCH   2   3
ATOM      3  C   UNL     1     -42.809 -48.353  34.600  1.00  0.00     0.041 C 
ATOM      4  O   UNL     1     -42.021 -47.451  34.213  1.00  0.00    -0.550 OA
ATOM      5  O   UNL     1     -43.192 -49.357  33.719  1.00  0.00    -0.550 OA
ENDBRANCH   2   3
ENDBRANCH   1   2
BRANCH   1   6
ATOM      6  C   UNL     1     -45.629 -48.689  37.013  1.00  0.00     0.000 C 
BRANCH   6   7
ATOM      7  C   UNL     1     -46.822 -49.639  37.215  1.00  0.00    -0.000 C 
BRANCH   7   8
ATOM      8  C   UNL     1     -46.477 -50.975  37.898  1.00  0.00    -0.003 C 
ATOM      9  C   UNL     1     -47.146 -52.176  37.233  1.00  0.00     0.004 C 
ENDBRANCH   7   8
ENDBRANCH   6   7
ENDBRANCH   1   6
TORSDOF 5
ENDMDL
MODEL 5
REMARK VINA RESULT:    -3.117      2.575      2.838
REMARK INTER + INTRA:          -4.223
REMARK INTER:                  -3.915
REMARK INTRA:                  -0.309
REMARK UNBOUND:                -0.196
REMARK SMILES CCCCCCC(=O)[O-]
REMARK SMILES IDX 5 1 6 2 7 3 8 4 9 5 4 6 3 7 2 8 1 9
REMARK H PARENT
REMARK Flexibility Score: inf
ROOT
ATOM      1  C   UNL     1     -44.219 -48.454  36.465  1.00  0.00     0.006 C 
ENDROOT
BRANCH   1   2
ATOM      2  C   UNL     1     -43.961 -48.807  37.936  1.00  0.00     0.053 C 
BRANCH   2   3
ATOM      3  C   UNL     1     -43.011 -47.843  38.577  1.00  0.00     0.041 C 
ATOM      4  O   UNL     1     -41.918 -47.562  38.017  1.00  0.00    -0.550 OA
ATOM      5  O   UNL     1     -43.347 -47.229  39.777  1.00  0.00    -0.550 OA
ENDBRANCH   2   3
ENDBRANCH   1   2
BRANCH   1   6
ATOM      6  C   UNL     1     -43.971 -49.650  35.529  1.00  0.00     0.000 C 
BRANCH   6   7
ATOM      7  C   UNL     1     -43.127 -49.281  34.297  1.00  0.00    -0.000 C 
BRANCH   7   8
ATOM      8  C   UNL     1     -42.438 -47.906  34.374  1.00  0.00    -0.003 C 
ATOM      9  C   UNL     1     -40.915 -48.004  34.450  1.00  0.00     0.004 C 
ENDBRANCH   7   8
ENDBRANCH   6   7
ENDBRANCH   1   6
TORSDOF 5
ENDMDL
MODEL 6
REMARK VINA RESULT:    -3.083      5.850      7.504
REMARK INTER + INTRA:          -4.180
REMARK INTER:                  -3.983
REMARK INTRA:                  -0.197
REMARK UNBOUND:                -0.196
REMARK SMILES CCCCCCC(=O)[O-]
REMARK SMILES IDX 5 1 6 2 7 3 8 4 9 5 4 6 3 7 2 8 1 9
REMARK H PARENT
REMARK Flexibility Score: inf
ROOT
ATOM      1  C   UNL     1     -47.361 -54.029  38.579  1.00  0.00     0.006 C 
ENDROOT
BRANCH   1   2
ATOM      2  C   UNL     1     -47.655 -52.910  37.571  1.00  0.00     0.053 C 
BRANCH   2   3
ATOM      3  C   UNL     1     -46.959 -51.636  37.940  1.00  0.00     0.041 C 
ATOM      4  O   UNL     1     -46.675 -50.788  37.054  1.00  0.00    -0.550 OA
ATOM      5  O   UNL     1     -46.654 -51.371  39.269  1.00  0.00    -0.550 OA
ENDBRANCH   2   3
ENDBRANCH   1   2
BRANCH   1   6
ATOM      6  C   UNL     1     -46.078 -54.802  38.230  1.00  0.00     0.000 C 
BRANCH   6   7
ATOM      7  C   UNL     1     -46.245 -56.326  38.356  1.00  0.00    -0.000 C 
BRANCH   7   8
ATOM      8  C   UNL     1     -47.703 -56.812  38.444  1.00  0.00    -0.003 C 
ATOM      9  C   UNL     1     -47.857 -58.301  38.140  1.00  0.00     0.004 C 
ENDBRANCH   7   8
ENDBRANCH   6   7
ENDBRANCH   1   6
TORSDOF 5
ENDMDL
MODEL 7
REMARK VINA RESULT:    -3.049      3.545      5.983
REMARK INTER + INTRA:          -4.136
REMARK INTER:                  -3.956
REMARK INTRA:                  -0.180
REMARK UNBOUND:                -0.196
REMARK SMILES CCCCCCC(=O)[O-]
REMARK SMILES IDX 5 1 6 2 7 3 8 4 9 5 4 6 3 7 2 8 1 9
REMARK H PARENT
REMARK Flexibility Score: inf
ROOT
ATOM      1  C   UNL     1     -46.295 -51.557  37.541  1.00  0.00     0.006 C 
ENDROOT
BRANCH   1   2
ATOM      2  C   UNL     1     -46.766 -50.145  37.166  1.00  0.00     0.053 C 
BRANCH   2   3
ATOM      3  C   UNL     1     -45.616 -49.255  36.807  1.00  0.00     0.041 C 
ATOM      4  O   UNL     1     -44.718 -49.663  36.024  1.00  0.00    -0.550 OA
ATOM      5  O   UNL     1     -45.553 -47.963  37.312  1.00  0.00    -0.550 OA
ENDBRANCH   2   3
ENDBRANCH   1   2
BRANCH   1   6
ATOM      6  C   UNL     1     -47.400 -52.609  37.346  1.00  0.00     0.000 C 
BRANCH   6   7
ATOM      7  C   UNL     1     -47.673 -53.433  38.617  1.00  0.00    -0.000 C 
BRANCH   7   8
ATOM      8  C   UNL     1     -47.639 -52.628  39.929  1.00  0.00    -0.003 C 
ATOM      9  C   UNL     1     -48.890 -52.826  40.784  1.00  0.00     0.004 C 
ENDBRANCH   7   8
ENDBRANCH   6   7
ENDBRANCH   1   6
TORSDOF 5
ENDMDL
MODEL 8
REMARK VINA RESULT:    -2.996      4.360      6.758
REMARK INTER + INTRA:          -4.068
REMARK INTER:                  -3.677
REMARK INTRA:                  -0.390
REMARK UNBOUND:                -0.196
REMARK SMILES CCCCCCC(=O)[O-]
REMARK SMILES IDX 5 1 6 2 7 3 8 4 9 5 4 6 3 7 2 8 1 9
REMARK H PARENT
REMARK Flexibility Score: inf
ROOT
ATOM      1  C   UNL     1     -46.453 -53.407  38.018  1.00  0.00     0.006 C 
ENDROOT
BRANCH   1   2
ATOM      2  C   UNL     1     -47.215 -52.308  37.266  1.00  0.00     0.053 C 
BRANCH   2   3
ATOM      3  C   UNL     1     -46.775 -50.940  37.691  1.00  0.00     0.041 C 
ATOM      4  O   UNL     1     -46.198 -50.775  38.798  1.00  0.00    -0.550 OA
ATOM      5  O   UNL     1     -46.974 -49.854  36.849  1.00  0.00    -0.550 OA
ENDBRANCH   2   3
ENDBRANCH   1   2
BRANCH   1   6
ATOM      6  C   UNL     1     -47.389 -54.285  38.867  1.00  0.00     0.000 C 
BRANCH   6   7
ATOM      7  C   UNL     1     -47.481 -53.818  40.331  1.00  0.00    -0.000 C 
BRANCH   7   8
ATOM      8  C   UNL     1     -48.730 -52.982  40.666  1.00  0.00    -0.003 C 
ATOM      9  C   UNL     1     -48.404 -51.705  41.438  1.00  0.00     0.004 C 
ENDBRANCH   7   8
ENDBRANCH   6   7
ENDBRANCH   1   6
TORSDOF 5
ENDMDL
MODEL 9
REMARK VINA RESULT:    -2.958      4.116      5.512
REMARK INTER + INTRA:          -4.019
REMARK INTER:                  -3.764
REMARK INTRA:                  -0.255
REMARK UNBOUND:                -0.196
REMARK SMILES CCCCCCC(=O)[O-]
REMARK SMILES IDX 5 1 6 2 7 3 8 4 9 5 4 6 3 7 2 8 1 9
REMARK H PARENT
REMARK Flexibility Score: inf
ROOT
ATOM      1  C   UNL     1     -47.568 -52.920  38.605  1.00  0.00     0.006 C 
ENDROOT
BRANCH   1   2
ATOM      2  C   UNL     1     -47.309 -52.090  39.869  1.00  0.00     0.053 C 
BRANCH   2   3
ATOM      3  C   UNL     1     -48.286 -52.417  40.956  1.00  0.00     0.041 C 
ATOM      4  O   UNL     1     -49.464 -52.757  40.669  1.00  0.00    -0.550 OA
ATOM      5  O   UNL     1     -47.885 -52.380  42.285  1.00  0.00    -0.550 OA
ENDBRANCH   2   3
ENDBRANCH   1   2
BRANCH   1   6
ATOM      6  C   UNL     1     -47.182 -52.162  37.323  1.00  0.00     0.000 C 
BRANCH   6   7
ATOM      7  C   UNL     1     -45.791 -51.508  37.411  1.00  0.00    -0.000 C 
BRANCH   7   8
ATOM      8  C   UNL     1     -45.702 -50.095  36.806  1.00  0.00    -0.003 C 
ATOM      9  C   UNL     1     -46.900 -49.217  37.160  1.00  0.00     0.004 C 
ENDBRANCH   7   8
ENDBRANCH   6   7
ENDBRANCH   1   6
TORSDOF 5
ENDMDL
