MODEL 1
REMARK VINA RESULT:    -5.541      0.000      0.000
REMARK INTER + INTRA:          -5.541
REMARK INTER:                  -5.541
REMARK INTRA:                   0.000
REMARK UNBOUND:                 0.000
REMARK SMILES CC1=CC(=O)[C@@H]2C[C@H]1C2(C)C
REMARK SMILES IDX 1 1 2 2 3 3 4 4 5 5 6 6 7 7 8 8 9 9 10 10 11 11
REMARK H PARENT
REMARK Flexibility Score: inf
ROOT
ATOM      1  C   UNL     1      13.867 -32.751 -31.751  1.00  0.00     0.040 C 
ATOM      2  C   UNL     1      12.791 -33.222 -30.825  1.00  0.00    -0.066 C 
ATOM      3  C   UNL     1      11.817 -34.077 -31.247  1.00  0.00     0.047 C 
ATOM      4  C   UNL     1      10.814 -34.501 -30.217  1.00  0.00     0.159 C 
ATOM      5  O   UNL     1       9.891 -35.316 -30.474  1.00  0.00    -0.295 OA
ATOM      6  C   UNL     1      10.992 -33.873 -28.834  1.00  0.00     0.067 C 
ATOM      7  C   UNL     1      11.237 -32.377 -29.126  1.00  0.00     0.021 C 
ATOM      8  C   UNL     1      12.718 -32.753 -29.356  1.00  0.00     0.022 C 
ATOM      9  C   UNL     1      12.490 -33.983 -28.430  1.00  0.00    -0.019 C 
ATOM     10  C   UNL     1      12.724 -33.646 -26.935  1.00  0.00     0.012 C 
ATOM     11  C   UNL     1      13.249 -35.300 -28.757  1.00  0.00     0.012 C 
ENDROOT
TORSDOF 0
ENDMDL
MODEL 2
REMARK VINA RESULT:    -5.512      1.474      2.376
REMARK INTER + INTRA:          -5.512
REMARK INTER:                  -5.512
REMARK INTRA:                   0.000
REMARK UNBOUND:                 0.000
REMARK SMILES CC1=CC(=O)[C@@H]2C[C@H]1C2(C)C
REMARK SMILES IDX 1 1 2 2 3 3 4 4 5 5 6 6 7 7 8 8 9 9 10 10 11 11
REMARK H PARENT
REMARK Flexibility Score: inf
ROOT
ATOM      1  C   UNL     1      13.996 -32.753 -32.389  1.00  0.00     0.040 C 
ATOM      2  C   UNL     1      13.001 -33.492 -31.550  1.00  0.00    -0.066 C 
ATOM      3  C   UNL     1      13.330 -34.658 -30.926  1.00  0.00     0.047 C 
ATOM      4  C   UNL     1      12.256 -35.287 -30.089  1.00  0.00     0.159 C 
ATOM      5  O   UNL     1      12.448 -36.342 -29.432  1.00  0.00    -0.295 OA
ATOM      6  C   UNL     1      10.913 -34.555 -30.089  1.00  0.00     0.067 C 
ATOM      7  C   UNL     1      10.662 -34.227 -31.577  1.00  0.00     0.021 C 
ATOM      8  C   UNL     1      11.556 -32.984 -31.365  1.00  0.00     0.022 C 
ATOM      9  C   UNL     1      11.176 -33.040 -29.856  1.00  0.00    -0.019 C 
ATOM     10  C   UNL     1       9.875 -32.256 -29.547  1.00  0.00     0.012 C 
ATOM     11  C   UNL     1      12.253 -32.628 -28.812  1.00  0.00     0.012 C 
ENDROOT
TORSDOF 0
ENDMDL
MODEL 3
REMARK VINA RESULT:    -5.464      1.443      1.857
REMARK INTER + INTRA:          -5.464
REMARK INTER:                  -5.464
REMARK INTRA:                   0.000
REMARK UNBOUND:                 0.000
REMARK SMILES CC1=CC(=O)[C@@H]2C[C@H]1C2(C)C
REMARK SMILES IDX 1 1 2 2 3 3 4 4 5 5 6 6 7 7 8 8 9 9 10 10 11 11
REMARK H PARENT
REMARK Flexibility Score: inf
ROOT
ATOM      1  C   UNL     1      14.386 -32.095 -32.241  1.00  0.00     0.040 C 
ATOM      2  C   UNL     1      13.211 -32.868 -31.731  1.00  0.00    -0.066 C 
ATOM      3  C   UNL     1      12.135 -33.128 -32.526  1.00  0.00     0.047 C 
ATOM      4  C   UNL     1      11.035 -33.938 -31.909  1.00  0.00     0.159 C 
ATOM      5  O   UNL     1      10.008 -34.277 -32.552  1.00  0.00    -0.295 OA
ATOM      6  C   UNL     1      11.250 -34.326 -30.445  1.00  0.00     0.067 C 
ATOM      7  C   UNL     1      11.737 -33.021 -29.777  1.00  0.00     0.021 C 
ATOM      8  C   UNL     1      13.150 -33.393 -30.281  1.00  0.00     0.022 C 
ATOM      9  C   UNL     1      12.694 -34.881 -30.287  1.00  0.00    -0.019 C 
ATOM     10  C   UNL     1      12.914 -35.570 -28.916  1.00  0.00     0.012 C 
ATOM     11  C   UNL     1      13.252 -35.816 -31.398  1.00  0.00     0.012 C 
ENDROOT
TORSDOF 0
ENDMDL
MODEL 4
REMARK VINA RESULT:    -5.407      1.629      2.924
REMARK INTER + INTRA:          -5.407
REMARK INTER:                  -5.407
REMARK INTRA:                   0.000
REMARK UNBOUND:                 0.000
REMARK SMILES CC1=CC(=O)[C@@H]2C[C@H]1C2(C)C
REMARK SMILES IDX 1 1 2 2 3 3 4 4 5 5 6 6 7 7 8 8 9 9 10 10 11 11
REMARK H PARENT
REMARK Flexibility Score: inf
ROOT
ATOM      1  C   UNL     1      13.945 -32.522 -31.806  1.00  0.00     0.040 C 
ATOM      2  C   UNL     1      13.077 -33.475 -31.047  1.00  0.00    -0.066 C 
ATOM      3  C   UNL     1      11.951 -33.051 -30.408  1.00  0.00     0.047 C 
ATOM      4  C   UNL     1      11.148 -34.107 -29.709  1.00  0.00     0.159 C 
ATOM      5  O   UNL     1      10.068 -33.849 -29.117  1.00  0.00    -0.295 OA
ATOM      6  C   UNL     1      11.732 -35.519 -29.767  1.00  0.00     0.067 C 
ATOM      7  C   UNL     1      13.229 -35.322 -29.441  1.00  0.00     0.021 C 
ATOM      8  C   UNL     1      13.420 -34.976 -30.935  1.00  0.00     0.022 C 
ATOM      9  C   UNL     1      12.149 -35.822 -31.235  1.00  0.00    -0.019 C 
ATOM     10  C   UNL     1      12.477 -37.320 -31.457  1.00  0.00     0.012 C 
ATOM     11  C   UNL     1      11.208 -35.354 -32.381  1.00  0.00     0.012 C 
ENDROOT
TORSDOF 0
ENDMDL
MODEL 5
REMARK VINA RESULT:    -5.345      1.651      2.730
REMARK INTER + INTRA:          -5.345
REMARK INTER:                  -5.345
REMARK INTRA:                   0.000
REMARK UNBOUND:                 0.000
REMARK SMILES CC1=CC(=O)[C@@H]2C[C@H]1C2(C)C
REMARK SMILES IDX 1 1 2 2 3 3 4 4 5 5 6 6 7 7 8 8 9 9 10 10 11 11
REMARK H PARENT
REMARK Flexibility Score: inf
ROOT
ATOM      1  C   UNL     1      12.875 -36.921 -31.085  1.00  0.00     0.040 C 
ATOM      2  C   UNL     1      12.488 -35.488 -31.272  1.00  0.00    -0.066 C 
ATOM      3  C   UNL     1      11.461 -35.133 -32.094  1.00  0.00     0.047 C 
ATOM      4  C   UNL     1      11.150 -33.669 -32.174  1.00  0.00     0.159 C 
ATOM      5  O   UNL     1      10.201 -33.220 -32.866  1.00  0.00    -0.295 OA
ATOM      6  C   UNL     1      12.067 -32.760 -31.352  1.00  0.00     0.067 C 
ATOM      7  C   UNL     1      13.488 -33.282 -31.658  1.00  0.00     0.021 C 
ATOM      8  C   UNL     1      13.240 -34.343 -30.562  1.00  0.00     0.022 C 
ATOM      9  C   UNL     1      12.212 -33.363 -29.926  1.00  0.00    -0.019 C 
ATOM     10  C   UNL     1      12.875 -32.375 -28.933  1.00  0.00     0.012 C 
ATOM     11  C   UNL     1      10.948 -33.963 -29.246  1.00  0.00     0.012 C 
ENDROOT
TORSDOF 0
ENDMDL
MODEL 6
REMARK VINA RESULT:    -5.318      1.517      3.367
REMARK INTER + INTRA:          -5.318
REMARK INTER:                  -5.318
REMARK INTRA:                   0.000
REMARK UNBOUND:                 0.000
REMARK SMILES CC1=CC(=O)[C@@H]2C[C@H]1C2(C)C
REMARK SMILES IDX 1 1 2 2 3 3 4 4 5 5 6 6 7 7 8 8 9 9 10 10 11 11
REMARK H PARENT
REMARK Flexibility Score: inf
ROOT
ATOM      1  C   UNL     1      11.739 -33.920 -26.810  1.00  0.00     0.040 C 
ATOM      2  C   UNL     1      12.052 -34.082 -28.264  1.00  0.00    -0.066 C 
ATOM      3  C   UNL     1      12.717 -35.177 -28.727  1.00  0.00     0.047 C 
ATOM      4  C   UNL     1      12.943 -35.239 -30.208  1.00  0.00     0.159 C 
ATOM      5  O   UNL     1      13.508 -36.216 -30.762  1.00  0.00    -0.295 OA
ATOM      6  C   UNL     1      12.435 -34.031 -30.998  1.00  0.00     0.067 C 
ATOM      7  C   UNL     1      12.917 -32.814 -30.177  1.00  0.00     0.021 C 
ATOM      8  C   UNL     1      11.656 -33.014 -29.305  1.00  0.00     0.022 C 
ATOM      9  C   UNL     1      10.989 -33.705 -30.529  1.00  0.00    -0.019 C 
ATOM     10  C   UNL     1      10.280 -32.693 -31.465  1.00  0.00     0.012 C 
ATOM     11  C   UNL     1      10.014 -34.888 -30.264  1.00  0.00     0.012 C 
ENDROOT
TORSDOF 0
ENDMDL
MODEL 7
REMARK VINA RESULT:    -5.296      2.003      3.550
REMARK INTER + INTRA:          -5.296
REMARK INTER:                  -5.296
REMARK INTRA:                   0.000
REMARK UNBOUND:                 0.000
REMARK SMILES CC1=CC(=O)[C@@H]2C[C@H]1C2(C)C
REMARK SMILES IDX 1 1 2 2 3 3 4 4 5 5 6 6 7 7 8 8 9 9 10 10 11 11
REMARK H PARENT
REMARK Flexibility Score: inf
ROOT
ATOM      1  C   UNL     1      12.502 -37.628 -31.402  1.00  0.00     0.040 C 
ATOM      2  C   UNL     1      12.225 -36.282 -30.812  1.00  0.00    -0.066 C 
ATOM      3  C   UNL     1      12.718 -35.928 -29.592  1.00  0.00     0.047 C 
ATOM      4  C   UNL     1      12.397 -34.541 -29.124  1.00  0.00     0.159 C 
ATOM      5  O   UNL     1      12.827 -34.083 -28.034  1.00  0.00    -0.295 OA
ATOM      6  C   UNL     1      11.512 -33.721 -30.064  1.00  0.00     0.067 C 
ATOM      7  C   UNL     1      10.385 -34.697 -30.468  1.00  0.00     0.021 C 
ATOM      8  C   UNL     1      11.356 -35.236 -31.543  1.00  0.00     0.022 C 
ATOM      9  C   UNL     1      12.070 -33.854 -31.510  1.00  0.00    -0.019 C 
ATOM     10  C   UNL     1      11.428 -32.835 -32.486  1.00  0.00     0.012 C 
ATOM     11  C   UNL     1      13.612 -33.819 -31.713  1.00  0.00     0.012 C 
ENDROOT
TORSDOF 0
ENDMDL
MODEL 8
REMARK VINA RESULT:    -5.264      2.193      3.437
REMARK INTER + INTRA:          -5.264
REMARK INTER:                  -5.264
REMARK INTRA:                   0.000
REMARK UNBOUND:                 0.000
REMARK SMILES CC1=CC(=O)[C@@H]2C[C@H]1C2(C)C
REMARK SMILES IDX 1 1 2 2 3 3 4 4 5 5 6 6 7 7 8 8 9 9 10 10 11 11
REMARK H PARENT
REMARK Flexibility Score: inf
ROOT
ATOM      1  C   UNL     1      12.455 -36.784 -31.597  1.00  0.00     0.040 C 
ATOM      2  C   UNL     1      12.567 -35.345 -31.201  1.00  0.00    -0.066 C 
ATOM      3  C   UNL     1      13.529 -34.539 -31.729  1.00  0.00     0.047 C 
ATOM      4  C   UNL     1      13.518 -33.109 -31.276  1.00  0.00     0.159 C 
ATOM      5  O   UNL     1      14.330 -32.257 -31.720  1.00  0.00    -0.295 OA
ATOM      6  C   UNL     1      12.450 -32.760 -30.239  1.00  0.00     0.067 C 
ATOM      7  C   UNL     1      12.530 -33.911 -29.212  1.00  0.00     0.021 C 
ATOM      8  C   UNL     1      11.613 -34.710 -30.167  1.00  0.00     0.022 C 
ATOM      9  C   UNL     1      11.090 -33.349 -30.712  1.00  0.00    -0.019 C 
ATOM     10  C   UNL     1       9.894 -32.806 -29.889  1.00  0.00     0.012 C 
ATOM     11  C   UNL     1      10.727 -33.252 -32.221  1.00  0.00     0.012 C 
ENDROOT
TORSDOF 0
ENDMDL
MODEL 9
REMARK VINA RESULT:    -5.159      1.715      2.726
REMARK INTER + INTRA:          -5.159
REMARK INTER:                  -5.159
REMARK INTRA:                   0.000
REMARK UNBOUND:                 0.000
REMARK SMILES CC1=CC(=O)[C@@H]2C[C@H]1C2(C)C
REMARK SMILES IDX 1 1 2 2 3 3 4 4 5 5 6 6 7 7 8 8 9 9 10 10 11 11
REMARK H PARENT
REMARK Flexibility Score: inf
ROOT
ATOM      1  C   UNL     1       9.925 -33.786 -32.750  1.00  0.00     0.040 C 
ATOM      2  C   UNL     1      10.941 -34.209 -31.736  1.00  0.00    -0.066 C 
ATOM      3  C   UNL     1      11.760 -35.275 -31.956  1.00  0.00     0.047 C 
ATOM      4  C   UNL     1      12.756 -35.579 -30.879  1.00  0.00     0.159 C 
ATOM      5  O   UNL     1      13.593 -36.513 -30.982  1.00  0.00    -0.295 OA
ATOM      6  C   UNL     1      12.686 -34.675 -29.647  1.00  0.00     0.067 C 
ATOM      7  C   UNL     1      11.177 -34.593 -29.325  1.00  0.00     0.021 C 
ATOM      8  C   UNL     1      11.100 -33.473 -30.388  1.00  0.00     0.022 C 
ATOM      9  C   UNL     1      12.608 -33.196 -30.124  1.00  0.00    -0.019 C 
ATOM     10  C   UNL     1      12.828 -32.191 -28.964  1.00  0.00     0.012 C 
ATOM     11  C   UNL     1      13.496 -32.759 -31.323  1.00  0.00     0.012 C 
ENDROOT
TORSDOF 0
ENDMDL
