MODEL 1
REMARK VINA RESULT:    -6.304      0.000      0.000
REMARK INTER + INTRA:          -9.618
REMARK INTER:                  -8.883
REMARK INTRA:                  -0.735
REMARK UNBOUND:                -0.735
REMARK SMILES COc1ccc(-c2cc(=O)c3c(OC)c(OC)c(OC)c(OC)c3o2)cc1OC
REMARK SMILES IDX 7 1 8 2 9 3 10 4 11 5 24 6 25 7 21 8 18 9 15 10 12 11 6 12
REMARK SMILES IDX 3 13 27 14 4 15 26 16 5 17 2 18 1 19 28 20 29 21 22 22 23 23
REMARK SMILES IDX 13 24 14 25 19 26 20 27 16 28 17 29
REMARK H PARENT
REMARK Flexibility Score: inf
ROOT
ATOM      1  C   UNL     1      18.018 -25.368 -27.261  1.00  0.00     0.138 A 
ATOM      2  C   UNL     1      18.051 -25.581 -25.878  1.00  0.00     0.100 A 
ATOM      3  C   UNL     1      18.658 -24.635 -25.056  1.00  0.00     0.197 A 
ATOM      4  O   UNL     1      18.679 -24.838 -23.812  1.00  0.00    -0.289 OA
ATOM      5  C   UNL     1      19.231 -23.476 -25.627  1.00  0.00     0.115 A 
ATOM      6  C   UNL     1      19.143 -23.318 -27.032  1.00  0.00     0.188 A 
ATOM      7  O   UNL     1      18.548 -24.257 -27.764  1.00  0.00    -0.452 OA
ATOM      8  C   UNL     1      19.706 -22.180 -27.654  1.00  0.00     0.209 A 
ATOM      9  C   UNL     1      20.360 -21.209 -26.881  1.00  0.00     0.211 A 
ATOM     10  C   UNL     1      20.414 -21.341 -25.475  1.00  0.00     0.208 A 
ATOM     11  C   UNL     1      19.895 -22.497 -24.854  1.00  0.00     0.179 A 
ENDROOT
BRANCH   1  12
ATOM     12  C   UNL     1      17.400 -26.352 -28.185  1.00  0.00     0.021 A 
ATOM     13  C   UNL     1      16.174 -28.241 -29.888  1.00  0.00     0.160 A 
ATOM     14  C   UNL     1      16.338 -26.917 -30.318  1.00  0.00     0.161 A 
ATOM     15  C   UNL     1      16.624 -28.615 -28.608  1.00  0.00     0.051 A 
ATOM     16  C   UNL     1      16.951 -25.976 -29.465  1.00  0.00     0.062 A 
ATOM     17  C   UNL     1      17.225 -27.678 -27.767  1.00  0.00     0.016 A 
BRANCH  13  18
ATOM     18  O   UNL     1      15.558 -29.155 -30.758  1.00  0.00    -0.493 OA
ATOM     19  C   UNL     1      16.258 -30.020 -31.648  1.00  0.00     0.278 C 
ENDBRANCH  13  18
BRANCH  14  20
ATOM     20  O   UNL     1      15.875 -26.572 -31.599  1.00  0.00    -0.493 OA
ATOM     21  C   UNL     1      16.713 -26.321 -32.724  1.00  0.00     0.278 C 
ENDBRANCH  14  20
ENDBRANCH   1  12
BRANCH   8  22
ATOM     22  O   UNL     1      19.658 -21.951 -29.045  1.00  0.00    -0.490 OA
ATOM     23  C   UNL     1      18.535 -21.488 -29.786  1.00  0.00     0.278 C 
ENDBRANCH   8  22
BRANCH  11  24
ATOM     24  O   UNL     1      20.038 -22.680 -23.472  1.00  0.00    -0.492 OA
ATOM     25  C   UNL     1      21.266 -23.089 -22.875  1.00  0.00     0.278 C 
ENDBRANCH  11  24
BRANCH   9  26
ATOM     26  O   UNL     1      20.922 -20.123 -27.580  1.00  0.00    -0.490 OA
ATOM     27  C   UNL     1      20.379 -18.803 -27.678  1.00  0.00     0.279 C 
ENDBRANCH   9  26
BRANCH  10  28
ATOM     28  O   UNL     1      20.959 -20.317 -24.695  1.00  0.00    -0.490 OA
ATOM     29  C   UNL     1      22.363 -20.109 -24.585  1.00  0.00     0.278 C 
ENDBRANCH  10  28
TORSDOF 7
ENDMDL
MODEL 2
REMARK VINA RESULT:    -6.287      1.246      1.355
REMARK INTER + INTRA:          -9.595
REMARK INTER:                  -8.778
REMARK INTRA:                  -0.817
REMARK UNBOUND:                -0.735
REMARK SMILES COc1ccc(-c2cc(=O)c3c(OC)c(OC)c(OC)c(OC)c3o2)cc1OC
REMARK SMILES IDX 7 1 8 2 9 3 10 4 11 5 24 6 25 7 21 8 18 9 15 10 12 11 6 12
REMARK SMILES IDX 3 13 27 14 4 15 26 16 5 17 2 18 1 19 28 20 29 21 22 22 23 23
REMARK SMILES IDX 13 24 14 25 19 26 20 27 16 28 17 29
REMARK H PARENT
REMARK Flexibility Score: inf
ROOT
ATOM      1  C   UNL     1      18.310 -25.340 -27.483  1.00  0.00     0.138 A 
ATOM      2  C   UNL     1      18.033 -25.242 -26.114  1.00  0.00     0.100 A 
ATOM      3  C   UNL     1      18.705 -24.290 -25.350  1.00  0.00     0.197 A 
ATOM      4  O   UNL     1      18.445 -24.209 -24.118  1.00  0.00    -0.289 OA
ATOM      5  C   UNL     1      19.651 -23.439 -25.964  1.00  0.00     0.115 A 
ATOM      6  C   UNL     1      19.865 -23.584 -27.357  1.00  0.00     0.188 A 
ATOM      7  O   UNL     1      19.190 -24.511 -28.034  1.00  0.00    -0.452 OA
ATOM      8  C   UNL     1      20.806 -22.762 -28.020  1.00  0.00     0.209 A 
ATOM      9  C   UNL     1      21.536 -21.807 -27.296  1.00  0.00     0.211 A 
ATOM     10  C   UNL     1      21.297 -21.631 -25.914  1.00  0.00     0.208 A 
ATOM     11  C   UNL     1      20.393 -22.479 -25.239  1.00  0.00     0.179 A 
ENDROOT
BRANCH   1  12
ATOM     12  C   UNL     1      17.637 -26.348 -28.340  1.00  0.00     0.021 A 
ATOM     13  C   UNL     1      16.310 -28.280 -29.915  1.00  0.00     0.160 A 
ATOM     14  C   UNL     1      16.478 -26.977 -30.404  1.00  0.00     0.161 A 
ATOM     15  C   UNL     1      16.806 -28.612 -28.641  1.00  0.00     0.051 A 
ATOM     16  C   UNL     1      17.141 -26.015 -29.615  1.00  0.00     0.062 A 
ATOM     17  C   UNL     1      17.458 -27.654 -27.863  1.00  0.00     0.016 A 
BRANCH  13  18
ATOM     18  O   UNL     1      15.643 -29.216 -30.722  1.00  0.00    -0.493 OA
ATOM     19  C   UNL     1      16.291 -30.125 -31.608  1.00  0.00     0.278 C 
ENDBRANCH  13  18
BRANCH  14  20
ATOM     20  O   UNL     1      15.968 -26.674 -31.678  1.00  0.00    -0.493 OA
ATOM     21  C   UNL     1      16.763 -26.334 -32.810  1.00  0.00     0.278 C 
ENDBRANCH  14  20
ENDBRANCH   1  12
BRANCH   8  22
ATOM     22  O   UNL     1      21.072 -22.844 -29.401  1.00  0.00    -0.490 OA
ATOM     23  C   UNL     1      21.903 -23.803 -30.046  1.00  0.00     0.278 C 
ENDBRANCH   8  22
BRANCH  11  24
ATOM     24  O   UNL     1      20.230 -22.376 -23.852  1.00  0.00    -0.492 OA
ATOM     25  C   UNL     1      21.208 -22.843 -22.927  1.00  0.00     0.278 C 
ENDBRANCH  11  24
BRANCH   9  26
ATOM     26  O   UNL     1      22.477 -21.052 -28.022  1.00  0.00    -0.490 OA
ATOM     27  C   UNL     1      23.892 -21.258 -28.050  1.00  0.00     0.279 C 
ENDBRANCH   9  26
BRANCH  10  28
ATOM     28  O   UNL     1      21.936 -20.601 -25.218  1.00  0.00    -0.490 OA
ATOM     29  C   UNL     1      21.448 -19.264 -25.219  1.00  0.00     0.278 C 
ENDBRANCH  10  28
TORSDOF 7
ENDMDL
MODEL 3
REMARK VINA RESULT:    -6.211      1.877      3.762
REMARK INTER + INTRA:          -9.487
REMARK INTER:                  -8.709
REMARK INTRA:                  -0.778
REMARK UNBOUND:                -0.735
REMARK SMILES COc1ccc(-c2cc(=O)c3c(OC)c(OC)c(OC)c(OC)c3o2)cc1OC
REMARK SMILES IDX 7 1 8 2 9 3 10 4 11 5 24 6 25 7 21 8 18 9 15 10 12 11 6 12
REMARK SMILES IDX 3 13 27 14 4 15 26 16 5 17 2 18 1 19 28 20 29 21 22 22 23 23
REMARK SMILES IDX 13 24 14 25 19 26 20 27 16 28 17 29
REMARK H PARENT
REMARK Flexibility Score: inf
ROOT
ATOM      1  C   UNL     1      19.415 -24.871 -29.214  1.00  0.00     0.138 A 
ATOM      2  C   UNL     1      20.571 -24.527 -29.926  1.00  0.00     0.100 A 
ATOM      3  C   UNL     1      21.454 -23.597 -29.383  1.00  0.00     0.197 A 
ATOM      4  O   UNL     1      22.492 -23.297 -30.033  1.00  0.00    -0.289 OA
ATOM      5  C   UNL     1      21.175 -23.017 -28.125  1.00  0.00     0.115 A 
ATOM      6  C   UNL     1      19.997 -23.427 -27.455  1.00  0.00     0.188 A 
ATOM      7  O   UNL     1      19.192 -24.322 -28.024  1.00  0.00    -0.452 OA
ATOM      8  C   UNL     1      19.667 -22.872 -26.196  1.00  0.00     0.209 A 
ATOM      9  C   UNL     1      20.502 -21.906 -25.615  1.00  0.00     0.211 A 
ATOM     10  C   UNL     1      21.699 -21.523 -26.261  1.00  0.00     0.208 A 
ATOM     11  C   UNL     1      22.010 -22.039 -27.537  1.00  0.00     0.179 A 
ENDROOT
BRANCH   1  12
ATOM     12  C   UNL     1      18.431 -25.843 -29.754  1.00  0.00     0.021 A 
ATOM     13  C   UNL     1      16.611 -27.714 -30.829  1.00  0.00     0.160 A 
ATOM     14  C   UNL     1      16.864 -27.700 -29.450  1.00  0.00     0.161 A 
ATOM     15  C   UNL     1      17.268 -26.793 -31.664  1.00  0.00     0.051 A 
ATOM     16  C   UNL     1      17.774 -26.764 -28.917  1.00  0.00     0.062 A 
ATOM     17  C   UNL     1      18.171 -25.872 -31.130  1.00  0.00     0.016 A 
BRANCH  13  18
ATOM     18  O   UNL     1      15.702 -28.659 -31.331  1.00  0.00    -0.493 OA
ATOM     19  C   UNL     1      16.074 -29.889 -31.948  1.00  0.00     0.278 C 
ENDBRANCH  13  18
BRANCH  14  20
ATOM     20  O   UNL     1      16.196 -28.635 -28.642  1.00  0.00    -0.493 OA
ATOM     21  C   UNL     1      16.541 -28.933 -27.292  1.00  0.00     0.278 C 
ENDBRANCH  14  20
ENDBRANCH   1  12
BRANCH   8  22
ATOM     22  O   UNL     1      18.515 -23.231 -25.467  1.00  0.00    -0.490 OA
ATOM     23  C   UNL     1      18.337 -24.414 -24.697  1.00  0.00     0.278 C 
ENDBRANCH   8  22
BRANCH  11  24
ATOM     24  O   UNL     1      23.142 -21.585 -28.226  1.00  0.00    -0.492 OA
ATOM     25  C   UNL     1      23.215 -20.288 -28.811  1.00  0.00     0.278 C 
ENDBRANCH  11  24
BRANCH   9  26
ATOM     26  O   UNL     1      20.086 -21.379 -24.377  1.00  0.00    -0.490 OA
ATOM     27  C   UNL     1      20.509 -21.815 -23.083  1.00  0.00     0.279 C 
ENDBRANCH   9  26
BRANCH  10  28
ATOM     28  O   UNL     1      22.590 -20.652 -25.628  1.00  0.00    -0.490 OA
ATOM     29  C   UNL     1      23.677 -21.119 -24.835  1.00  0.00     0.278 C 
ENDBRANCH  10  28
TORSDOF 7
ENDMDL
MODEL 4
REMARK VINA RESULT:    -6.168      1.634      3.344
REMARK INTER + INTRA:          -9.427
REMARK INTER:                  -8.726
REMARK INTRA:                  -0.701
REMARK UNBOUND:                -0.735
REMARK SMILES COc1ccc(-c2cc(=O)c3c(OC)c(OC)c(OC)c(OC)c3o2)cc1OC
REMARK SMILES IDX 7 1 8 2 9 3 10 4 11 5 24 6 25 7 21 8 18 9 15 10 12 11 6 12
REMARK SMILES IDX 3 13 27 14 4 15 26 16 5 17 2 18 1 19 28 20 29 21 22 22 23 23
REMARK SMILES IDX 13 24 14 25 19 26 20 27 16 28 17 29
REMARK H PARENT
REMARK Flexibility Score: inf
ROOT
ATOM      1  C   UNL     1      19.270 -25.015 -28.944  1.00  0.00     0.138 A 
ATOM      2  C   UNL     1      20.378 -24.621 -29.704  1.00  0.00     0.100 A 
ATOM      3  C   UNL     1      21.237 -23.647 -29.201  1.00  0.00     0.197 A 
ATOM      4  O   UNL     1      22.233 -23.302 -29.893  1.00  0.00    -0.289 OA
ATOM      5  C   UNL     1      20.981 -23.072 -27.935  1.00  0.00     0.115 A 
ATOM      6  C   UNL     1      19.852 -23.533 -27.216  1.00  0.00     0.188 A 
ATOM      7  O   UNL     1      19.068 -24.469 -27.749  1.00  0.00    -0.452 OA
ATOM      8  C   UNL     1      19.546 -22.986 -25.948  1.00  0.00     0.209 A 
ATOM      9  C   UNL     1      20.357 -21.979 -25.405  1.00  0.00     0.211 A 
ATOM     10  C   UNL     1      21.508 -21.544 -26.101  1.00  0.00     0.208 A 
ATOM     11  C   UNL     1      21.791 -22.053 -27.386  1.00  0.00     0.179 A 
ENDROOT
BRANCH   1  12
ATOM     12  C   UNL     1      18.312 -26.035 -29.439  1.00  0.00     0.021 A 
ATOM     13  C   UNL     1      16.453 -27.971 -30.316  1.00  0.00     0.160 A 
ATOM     14  C   UNL     1      16.687 -26.826 -31.092  1.00  0.00     0.161 A 
ATOM     15  C   UNL     1      17.150 -28.143 -29.106  1.00  0.00     0.051 A 
ATOM     16  C   UNL     1      17.615 -25.862 -30.650  1.00  0.00     0.062 A 
ATOM     17  C   UNL     1      18.065 -27.182 -28.673  1.00  0.00     0.016 A 
BRANCH  13  18
ATOM     18  O   UNL     1      15.521 -28.913 -30.779  1.00  0.00    -0.493 OA
ATOM     19  C   UNL     1      15.814 -29.947 -31.715  1.00  0.00     0.278 C 
ENDBRANCH  13  18
BRANCH  14  20
ATOM     20  O   UNL     1      15.972 -26.680 -32.292  1.00  0.00    -0.493 OA
ATOM     21  C   UNL     1      16.569 -26.475 -33.571  1.00  0.00     0.278 C 
ENDBRANCH  14  20
ENDBRANCH   1  12
BRANCH   8  22
ATOM     22  O   UNL     1      18.443 -23.394 -25.171  1.00  0.00    -0.490 OA
ATOM     23  C   UNL     1      18.353 -24.578 -24.387  1.00  0.00     0.278 C 
ENDBRANCH   8  22
BRANCH  11  24
ATOM     24  O   UNL     1      22.872 -21.550 -28.121  1.00  0.00    -0.492 OA
ATOM     25  C   UNL     1      22.860 -20.255 -28.716  1.00  0.00     0.278 C 
ENDBRANCH  11  24
BRANCH   9  26
ATOM     26  O   UNL     1      19.967 -21.463 -24.154  1.00  0.00    -0.490 OA
ATOM     27  C   UNL     1      20.462 -21.870 -22.876  1.00  0.00     0.279 C 
ENDBRANCH   9  26
BRANCH  10  28
ATOM     28  O   UNL     1      22.381 -20.628 -25.507  1.00  0.00    -0.490 OA
ATOM     29  C   UNL     1      23.524 -21.037 -24.762  1.00  0.00     0.278 C 
ENDBRANCH  10  28
TORSDOF 7
ENDMDL
MODEL 5
REMARK VINA RESULT:    -5.930      2.183      8.185
REMARK INTER + INTRA:          -9.092
REMARK INTER:                  -8.502
REMARK INTRA:                  -0.590
REMARK UNBOUND:                -0.735
REMARK SMILES COc1ccc(-c2cc(=O)c3c(OC)c(OC)c(OC)c(OC)c3o2)cc1OC
REMARK SMILES IDX 7 1 8 2 9 3 10 4 11 5 24 6 25 7 21 8 18 9 15 10 12 11 6 12
REMARK SMILES IDX 3 13 27 14 4 15 26 16 5 17 2 18 1 19 28 20 29 21 22 22 23 23
REMARK SMILES IDX 13 24 14 25 19 26 20 27 16 28 17 29
REMARK H PARENT
REMARK Flexibility Score: inf
ROOT
ATOM      1  C   UNL     1      17.902 -26.104 -28.206  1.00  0.00     0.138 A 
ATOM      2  C   UNL     1      17.183 -27.296 -28.049  1.00  0.00     0.100 A 
ATOM      3  C   UNL     1      16.870 -28.055 -29.174  1.00  0.00     0.197 A 
ATOM      4  O   UNL     1      16.225 -29.127 -29.020  1.00  0.00    -0.289 OA
ATOM      5  C   UNL     1      17.280 -27.615 -30.453  1.00  0.00     0.115 A 
ATOM      6  C   UNL     1      18.019 -26.410 -30.532  1.00  0.00     0.188 A 
ATOM      7  O   UNL     1      18.290 -25.729 -29.420  1.00  0.00    -0.452 OA
ATOM      8  C   UNL     1      18.448 -25.921 -31.788  1.00  0.00     0.209 A 
ATOM      9  C   UNL     1      18.134 -26.626 -32.960  1.00  0.00     0.211 A 
ATOM     10  C   UNL     1      17.431 -27.851 -32.882  1.00  0.00     0.208 A 
ATOM     11  C   UNL     1      16.961 -28.318 -31.637  1.00  0.00     0.179 A 
ENDROOT
BRANCH   1  12
ATOM     12  C   UNL     1      18.247 -25.247 -27.044  1.00  0.00     0.021 A 
ATOM     13  C   UNL     1      18.880 -23.558 -24.872  1.00  0.00     0.160 A 
ATOM     14  C   UNL     1      18.034 -24.659 -24.676  1.00  0.00     0.161 A 
ATOM     15  C   UNL     1      19.407 -23.307 -26.152  1.00  0.00     0.051 A 
ATOM     16  C   UNL     1      17.720 -25.500 -25.763  1.00  0.00     0.062 A 
ATOM     17  C   UNL     1      19.088 -24.141 -27.225  1.00  0.00     0.016 A 
BRANCH  13  18
ATOM     18  O   UNL     1      19.173 -22.736 -23.772  1.00  0.00    -0.493 OA
ATOM     19  C   UNL     1      20.215 -21.764 -23.744  1.00  0.00     0.278 C 
ENDBRANCH  13  18
BRANCH  14  20
ATOM     20  O   UNL     1      17.520 -24.880 -23.388  1.00  0.00    -0.493 OA
ATOM     21  C   UNL     1      16.168 -24.645 -23.002  1.00  0.00     0.278 C 
ENDBRANCH  14  20
ENDBRANCH   1  12
BRANCH   8  22
ATOM     22  O   UNL     1      19.189 -24.732 -31.948  1.00  0.00    -0.490 OA
ATOM     23  C   UNL     1      18.667 -23.408 -31.973  1.00  0.00     0.278 C 
ENDBRANCH   8  22
BRANCH  11  24
ATOM     24  O   UNL     1      16.177 -29.477 -31.569  1.00  0.00    -0.492 OA
ATOM     25  C   UNL     1      14.959 -29.623 -32.293  1.00  0.00     0.278 C 
ENDBRANCH  11  24
BRANCH   9  26
ATOM     26  O   UNL     1      18.568 -26.057 -34.172  1.00  0.00    -0.490 OA
ATOM     27  C   UNL     1      17.762 -25.338 -35.110  1.00  0.00     0.279 C 
ENDBRANCH   9  26
BRANCH  10  28
ATOM     28  O   UNL     1      17.223 -28.612 -34.036  1.00  0.00    -0.490 OA
ATOM     29  C   UNL     1      18.038 -29.731 -34.367  1.00  0.00     0.278 C 
ENDBRANCH  10  28
TORSDOF 7
ENDMDL
MODEL 6
REMARK VINA RESULT:    -5.748      1.607      2.621
REMARK INTER + INTRA:          -8.835
REMARK INTER:                  -8.249
REMARK INTRA:                  -0.586
REMARK UNBOUND:                -0.735
REMARK SMILES COc1ccc(-c2cc(=O)c3c(OC)c(OC)c(OC)c(OC)c3o2)cc1OC
REMARK SMILES IDX 7 1 8 2 9 3 10 4 11 5 24 6 25 7 21 8 18 9 15 10 12 11 6 12
REMARK SMILES IDX 3 13 27 14 4 15 26 16 5 17 2 18 1 19 28 20 29 21 22 22 23 23
REMARK SMILES IDX 13 24 14 25 19 26 20 27 16 28 17 29
REMARK H PARENT
REMARK Flexibility Score: inf
ROOT
ATOM      1  C   UNL     1      18.319 -25.427 -28.768  1.00  0.00     0.138 A 
ATOM      2  C   UNL     1      17.699 -25.961 -27.631  1.00  0.00     0.100 A 
ATOM      3  C   UNL     1      17.985 -25.418 -26.381  1.00  0.00     0.197 A 
ATOM      4  O   UNL     1      17.418 -25.906 -25.365  1.00  0.00    -0.289 OA
ATOM      5  C   UNL     1      18.892 -24.339 -26.276  1.00  0.00     0.115 A 
ATOM      6  C   UNL     1      19.466 -23.840 -27.470  1.00  0.00     0.188 A 
ATOM      7  O   UNL     1      19.152 -24.400 -28.637  1.00  0.00    -0.452 OA
ATOM      8  C   UNL     1      20.386 -22.766 -27.421  1.00  0.00     0.209 A 
ATOM      9  C   UNL     1      20.737 -22.200 -26.186  1.00  0.00     0.211 A 
ATOM     10  C   UNL     1      20.136 -22.668 -24.995  1.00  0.00     0.208 A 
ATOM     11  C   UNL     1      19.254 -23.769 -25.035  1.00  0.00     0.179 A 
ENDROOT
BRANCH   1  12
ATOM     12  C   UNL     1      18.065 -25.979 -30.122  1.00  0.00     0.021 A 
ATOM     13  C   UNL     1      17.653 -27.050 -32.702  1.00  0.00     0.160 A 
ATOM     14  C   UNL     1      16.840 -27.462 -31.637  1.00  0.00     0.161 A 
ATOM     15  C   UNL     1      18.669 -26.104 -32.473  1.00  0.00     0.051 A 
ATOM     16  C   UNL     1      17.048 -26.926 -30.351  1.00  0.00     0.062 A 
ATOM     17  C   UNL     1      18.873 -25.580 -31.195  1.00  0.00     0.016 A 
BRANCH  13  18
ATOM     18  O   UNL     1      17.424 -27.603 -33.972  1.00  0.00    -0.493 OA
ATOM     19  C   UNL     1      17.911 -27.053 -35.193  1.00  0.00     0.278 C 
ENDBRANCH  13  18
BRANCH  14  20
ATOM     20  O   UNL     1      15.837 -28.412 -31.897  1.00  0.00    -0.493 OA
ATOM     21  C   UNL     1      15.964 -29.811 -31.655  1.00  0.00     0.278 C 
ENDBRANCH  14  20
ENDBRANCH   1  12
BRANCH   8  22
ATOM     22  O   UNL     1      20.997 -22.213 -28.565  1.00  0.00    -0.490 OA
ATOM     23  C   UNL     1      22.118 -22.743 -29.263  1.00  0.00     0.278 C 
ENDBRANCH   8  22
BRANCH  11  24
ATOM     24  O   UNL     1      18.737 -24.301 -23.846  1.00  0.00    -0.492 OA
ATOM     25  C   UNL     1      17.761 -23.620 -23.062  1.00  0.00     0.278 C 
ENDBRANCH  11  24
BRANCH   9  26
ATOM     26  O   UNL     1      21.684 -21.158 -26.219  1.00  0.00    -0.490 OA
ATOM     27  C   UNL     1      21.404 -19.756 -26.185  1.00  0.00     0.279 C 
ENDBRANCH   9  26
BRANCH  10  28
ATOM     28  O   UNL     1      20.395 -22.026 -23.781  1.00  0.00    -0.490 OA
ATOM     29  C   UNL     1      21.508 -22.369 -22.961  1.00  0.00     0.278 C 
ENDBRANCH  10  28
TORSDOF 7
ENDMDL
MODEL 7
REMARK VINA RESULT:    -5.706      2.099      8.228
REMARK INTER + INTRA:          -8.776
REMARK INTER:                  -8.134
REMARK INTRA:                  -0.642
REMARK UNBOUND:                -0.735
REMARK SMILES COc1ccc(-c2cc(=O)c3c(OC)c(OC)c(OC)c(OC)c3o2)cc1OC
REMARK SMILES IDX 7 1 8 2 9 3 10 4 11 5 24 6 25 7 21 8 18 9 15 10 12 11 6 12
REMARK SMILES IDX 3 13 27 14 4 15 26 16 5 17 2 18 1 19 28 20 29 21 22 22 23 23
REMARK SMILES IDX 13 24 14 25 19 26 20 27 16 28 17 29
REMARK H PARENT
REMARK Flexibility Score: inf
ROOT
ATOM      1  C   UNL     1      19.148 -22.886 -28.823  1.00  0.00     0.138 A 
ATOM      2  C   UNL     1      19.537 -23.883 -27.920  1.00  0.00     0.100 A 
ATOM      3  C   UNL     1      19.154 -25.201 -28.155  1.00  0.00     0.197 A 
ATOM      4  O   UNL     1      19.512 -26.091 -27.336  1.00  0.00    -0.289 OA
ATOM      5  C   UNL     1      18.382 -25.514 -29.297  1.00  0.00     0.115 A 
ATOM      6  C   UNL     1      18.042 -24.456 -30.175  1.00  0.00     0.188 A 
ATOM      7  O   UNL     1      18.440 -23.216 -29.898  1.00  0.00    -0.452 OA
ATOM      8  C   UNL     1      17.266 -24.714 -31.329  1.00  0.00     0.209 A 
ATOM      9  C   UNL     1      16.823 -26.017 -31.600  1.00  0.00     0.211 A 
ATOM     10  C   UNL     1      17.194 -27.083 -30.749  1.00  0.00     0.208 A 
ATOM     11  C   UNL     1      17.929 -26.824 -29.573  1.00  0.00     0.179 A 
ENDROOT
BRANCH   1  12
ATOM     12  C   UNL     1      19.513 -21.462 -28.612  1.00  0.00     0.021 A 
ATOM     13  C   UNL     1      20.143 -18.735 -28.244  1.00  0.00     0.160 A 
ATOM     14  C   UNL     1      20.136 -19.604 -27.143  1.00  0.00     0.161 A 
ATOM     15  C   UNL     1      19.837 -19.233 -29.523  1.00  0.00     0.051 A 
ATOM     16  C   UNL     1      19.820 -20.965 -27.331  1.00  0.00     0.062 A 
ATOM     17  C   UNL     1      19.521 -20.581 -29.701  1.00  0.00     0.016 A 
BRANCH  13  18
ATOM     18  O   UNL     1      20.459 -17.384 -28.026  1.00  0.00    -0.493 OA
ATOM     19  C   UNL     1      20.496 -16.389 -29.046  1.00  0.00     0.278 C 
ENDBRANCH  13  18
BRANCH  14  20
ATOM     20  O   UNL     1      20.442 -19.076 -25.878  1.00  0.00    -0.493 OA
ATOM     21  C   UNL     1      21.640 -19.347 -25.155  1.00  0.00     0.278 C 
ENDBRANCH  14  20
ENDBRANCH   1  12
BRANCH   8  22
ATOM     22  O   UNL     1      16.889 -23.715 -32.251  1.00  0.00    -0.490 OA
ATOM     23  C   UNL     1      17.720 -23.126 -33.244  1.00  0.00     0.278 C 
ENDBRANCH   8  22
BRANCH  11  24
ATOM     24  O   UNL     1      18.210 -27.862 -28.674  1.00  0.00    -0.492 OA
ATOM     25  C   UNL     1      17.244 -28.362 -27.753  1.00  0.00     0.278 C 
ENDBRANCH  11  24
BRANCH   9  26
ATOM     26  O   UNL     1      16.027 -26.184 -32.750  1.00  0.00    -0.490 OA
ATOM     27  C   UNL     1      16.482 -26.578 -34.047  1.00  0.00     0.279 C 
ENDBRANCH   9  26
BRANCH  10  28
ATOM     28  O   UNL     1      16.855 -28.397 -31.083  1.00  0.00    -0.490 OA
ATOM     29  C   UNL     1      15.571 -28.947 -30.802  1.00  0.00     0.278 C 
ENDBRANCH  10  28
TORSDOF 7
ENDMDL
MODEL 8
REMARK VINA RESULT:    -5.679      3.351      4.139
REMARK INTER + INTRA:          -8.738
REMARK INTER:                  -8.177
REMARK INTRA:                  -0.562
REMARK UNBOUND:                -0.735
REMARK SMILES COc1ccc(-c2cc(=O)c3c(OC)c(OC)c(OC)c(OC)c3o2)cc1OC
REMARK SMILES IDX 7 1 8 2 9 3 10 4 11 5 24 6 25 7 21 8 18 9 15 10 12 11 6 12
REMARK SMILES IDX 3 13 27 14 4 15 26 16 5 17 2 18 1 19 28 20 29 21 22 22 23 23
REMARK SMILES IDX 13 24 14 25 19 26 20 27 16 28 17 29
REMARK H PARENT
REMARK Flexibility Score: inf
ROOT
ATOM      1  C   UNL     1      17.286 -22.894 -26.751  1.00  0.00     0.138 A 
ATOM      2  C   UNL     1      17.538 -23.257 -25.423  1.00  0.00     0.100 A 
ATOM      3  C   UNL     1      18.816 -23.076 -24.898  1.00  0.00     0.197 A 
ATOM      4  O   UNL     1      19.030 -23.405 -23.700  1.00  0.00    -0.289 OA
ATOM      5  C   UNL     1      19.836 -22.530 -25.709  1.00  0.00     0.115 A 
ATOM      6  C   UNL     1      19.502 -22.168 -27.037  1.00  0.00     0.188 A 
ATOM      7  O   UNL     1      18.261 -22.363 -27.481  1.00  0.00    -0.452 OA
ATOM      8  C   UNL     1      20.487 -21.624 -27.894  1.00  0.00     0.209 A 
ATOM      9  C   UNL     1      21.800 -21.449 -27.431  1.00  0.00     0.211 A 
ATOM     10  C   UNL     1      22.128 -21.770 -26.094  1.00  0.00     0.208 A 
ATOM     11  C   UNL     1      21.161 -22.356 -25.250  1.00  0.00     0.179 A 
ENDROOT
BRANCH   1  12
ATOM     12  C   UNL     1      15.948 -23.081 -27.366  1.00  0.00     0.021 A 
ATOM     13  C   UNL     1      13.415 -23.512 -28.536  1.00  0.00     0.160 A 
ATOM     14  C   UNL     1      13.520 -22.760 -27.357  1.00  0.00     0.161 A 
ATOM     15  C   UNL     1      14.576 -24.045 -29.125  1.00  0.00     0.051 A 
ATOM     16  C   UNL     1      14.787 -22.548 -26.776  1.00  0.00     0.062 A 
ATOM     17  C   UNL     1      15.826 -23.834 -28.542  1.00  0.00     0.016 A 
BRANCH  13  18
ATOM     18  O   UNL     1      12.140 -23.710 -29.091  1.00  0.00    -0.493 OA
ATOM     19  C   UNL     1      11.464 -22.768 -29.918  1.00  0.00     0.278 C 
ENDBRANCH  13  18
BRANCH  14  20
ATOM     20  O   UNL     1      12.342 -22.246 -26.790  1.00  0.00    -0.493 OA
ATOM     21  C   UNL     1      12.071 -20.859 -26.604  1.00  0.00     0.278 C 
ENDBRANCH  14  20
ENDBRANCH   1  12
BRANCH   8  22
ATOM     22  O   UNL     1      20.231 -21.238 -29.226  1.00  0.00    -0.490 OA
ATOM     23  C   UNL     1      19.586 -20.043 -29.650  1.00  0.00     0.278 C 
ENDBRANCH   8  22
BRANCH  11  24
ATOM     24  O   UNL     1      21.511 -22.771 -23.958  1.00  0.00    -0.492 OA
ATOM     25  C   UNL     1      21.792 -21.851 -22.907  1.00  0.00     0.278 C 
ENDBRANCH  11  24
BRANCH   9  26
ATOM     26  O   UNL     1      22.729 -20.932 -28.355  1.00  0.00    -0.490 OA
ATOM     27  C   UNL     1      23.588 -21.691 -29.210  1.00  0.00     0.279 C 
ENDBRANCH   9  26
BRANCH  10  28
ATOM     28  O   UNL     1      23.403 -21.485 -25.598  1.00  0.00    -0.490 OA
ATOM     29  C   UNL     1      24.462 -22.437 -25.627  1.00  0.00     0.278 C 
ENDBRANCH  10  28
TORSDOF 7
ENDMDL
MODEL 9
REMARK VINA RESULT:    -5.432      2.093      2.550
REMARK INTER + INTRA:          -8.390
REMARK INTER:                  -7.650
REMARK INTRA:                  -0.740
REMARK UNBOUND:                -0.735
REMARK SMILES COc1ccc(-c2cc(=O)c3c(OC)c(OC)c(OC)c(OC)c3o2)cc1OC
REMARK SMILES IDX 7 1 8 2 9 3 10 4 11 5 24 6 25 7 21 8 18 9 15 10 12 11 6 12
REMARK SMILES IDX 3 13 27 14 4 15 26 16 5 17 2 18 1 19 28 20 29 21 22 22 23 23
REMARK SMILES IDX 13 24 14 25 19 26 20 27 16 28 17 29
REMARK H PARENT
REMARK Flexibility Score: inf
ROOT
ATOM      1  C   UNL     1      19.239 -24.128 -27.055  1.00  0.00     0.138 A 
ATOM      2  C   UNL     1      18.889 -23.616 -25.799  1.00  0.00     0.100 A 
ATOM      3  C   UNL     1      19.696 -22.646 -25.210  1.00  0.00     0.197 A 
ATOM      4  O   UNL     1      19.370 -22.192 -24.080  1.00  0.00    -0.289 OA
ATOM      5  C   UNL     1      20.853 -22.193 -25.884  1.00  0.00     0.115 A 
ATOM      6  C   UNL     1      21.133 -22.743 -27.159  1.00  0.00     0.188 A 
ATOM      7  O   UNL     1      20.321 -23.665 -27.671  1.00  0.00    -0.452 OA
ATOM      8  C   UNL     1      22.282 -22.329 -27.873  1.00  0.00     0.209 A 
ATOM      9  C   UNL     1      23.150 -21.379 -27.315  1.00  0.00     0.211 A 
ATOM     10  C   UNL     1      22.853 -20.797 -26.061  1.00  0.00     0.208 A 
ATOM     11  C   UNL     1      21.734 -21.240 -25.324  1.00  0.00     0.179 A 
ENDROOT
BRANCH   1  12
ATOM     12  C   UNL     1      18.424 -25.175 -27.721  1.00  0.00     0.021 A 
ATOM     13  C   UNL     1      16.878 -27.208 -28.924  1.00  0.00     0.160 A 
ATOM     14  C   UNL     1      16.404 -25.888 -28.908  1.00  0.00     0.161 A 
ATOM     15  C   UNL     1      18.122 -27.506 -28.340  1.00  0.00     0.051 A 
ATOM     16  C   UNL     1      17.179 -24.876 -28.306  1.00  0.00     0.062 A 
ATOM     17  C   UNL     1      18.882 -26.499 -27.741  1.00  0.00     0.016 A 
BRANCH  13  18
ATOM     18  O   UNL     1      16.083 -28.195 -29.528  1.00  0.00    -0.493 OA
ATOM     19  C   UNL     1      16.328 -28.752 -30.817  1.00  0.00     0.278 C 
ENDBRANCH  13  18
BRANCH  14  20
ATOM     20  O   UNL     1      15.156 -25.623 -29.496  1.00  0.00    -0.493 OA
ATOM     21  C   UNL     1      14.393 -24.439 -29.278  1.00  0.00     0.278 C 
ENDBRANCH  14  20
ENDBRANCH   1  12
BRANCH   8  22
ATOM     22  O   UNL     1      22.626 -22.827 -29.146  1.00  0.00    -0.490 OA
ATOM     23  C   UNL     1      22.045 -22.447 -30.388  1.00  0.00     0.278 C 
ENDBRANCH   8  22
BRANCH  11  24
ATOM     24  O   UNL     1      21.495 -20.741 -24.037  1.00  0.00    -0.492 OA
ATOM     25  C   UNL     1      22.298 -21.094 -22.915  1.00  0.00     0.278 C 
ENDBRANCH  11  24
BRANCH   9  26
ATOM     26  O   UNL     1      24.288 -21.044 -28.074  1.00  0.00    -0.490 OA
ATOM     27  C   UNL     1      24.425 -19.922 -28.950  1.00  0.00     0.279 C 
ENDBRANCH   9  26
BRANCH  10  28
ATOM     28  O   UNL     1      23.652 -19.766 -25.560  1.00  0.00    -0.490 OA
ATOM     29  C   UNL     1      23.331 -18.392 -25.751  1.00  0.00     0.278 C 
ENDBRANCH  10  28
TORSDOF 7
ENDMDL
