MODEL 1
REMARK VINA RESULT:    -5.970      0.000      0.000
REMARK INTER + INTRA:          -5.970
REMARK INTER:                  -5.970
REMARK INTRA:                   0.000
REMARK UNBOUND:                 0.000
REMARK SMILES C=C1CC[C@H]2C[C@@H]1C2(C)C
REMARK SMILES IDX 9 1 8 2 5 3 4 4 3 5 2 6 1 7 7 8 6 9 10 10
REMARK H PARENT
REMARK Flexibility Score: inf
ROOT
ATOM      1  C   UNL     1     140.035 136.076 123.766  1.00  0.00     0.012 C 
ATOM      2  C   UNL     1     138.504 136.279 123.898  1.00  0.00    -0.026 C 
ATOM      3  C   UNL     1     137.728 135.597 122.743  1.00  0.00    -0.004 C 
ATOM      4  C   UNL     1     136.212 135.457 123.092  1.00  0.00     0.008 C 
ATOM      5  C   UNL     1     135.572 136.816 123.568  1.00  0.00     0.031 C 
ATOM      6  C   UNL     1     136.621 137.925 123.741  1.00  0.00    -0.074 C 
ATOM      7  C   UNL     1     136.300 139.110 124.271  1.00  0.00     0.008 C 
ATOM      8  C   UNL     1     138.042 137.618 123.278  1.00  0.00     0.021 C 
ATOM      9  C   UNL     1     137.872 136.895 121.932  1.00  0.00     0.012 C 
ATOM     10  C   UNL     1     138.094 135.962 125.362  1.00  0.00     0.012 C 
ENDROOT
TORSDOF 0
ENDMDL
MODEL 2
REMARK VINA RESULT:    -5.947     14.260     16.501
REMARK INTER + INTRA:          -5.947
REMARK INTER:                  -5.947
REMARK INTRA:                   0.000
REMARK UNBOUND:                 0.000
REMARK SMILES C=C1CC[C@H]2C[C@@H]1C2(C)C
REMARK SMILES IDX 9 1 8 2 5 3 4 4 3 5 2 6 1 7 7 8 6 9 10 10
REMARK H PARENT
REMARK Flexibility Score: inf
ROOT
ATOM      1  C   UNL     1     154.446 139.884 124.126  1.00  0.00     0.012 C 
ATOM      2  C   UNL     1     154.301 138.341 124.130  1.00  0.00    -0.026 C 
ATOM      3  C   UNL     1     154.910 137.700 122.857  1.00  0.00    -0.004 C 
ATOM      4  C   UNL     1     155.125 136.164 123.051  1.00  0.00     0.008 C 
ATOM      5  C   UNL     1     153.829 135.432 123.571  1.00  0.00     0.031 C 
ATOM      6  C   UNL     1     152.706 136.418 123.928  1.00  0.00    -0.074 C 
ATOM      7  C   UNL     1     151.579 136.005 124.518  1.00  0.00     0.008 C 
ATOM      8  C   UNL     1     152.931 137.886 123.577  1.00  0.00     0.021 C 
ATOM      9  C   UNL     1     153.546 137.867 122.168  1.00  0.00     0.012 C 
ATOM     10  C   UNL     1     154.750 137.812 125.520  1.00  0.00     0.012 C 
ENDROOT
TORSDOF 0
ENDMDL
MODEL 3
REMARK VINA RESULT:    -5.905     14.234     16.598
REMARK INTER + INTRA:          -5.905
REMARK INTER:                  -5.905
REMARK INTRA:                   0.000
REMARK UNBOUND:                 0.000
REMARK SMILES C=C1CC[C@H]2C[C@@H]1C2(C)C
REMARK SMILES IDX 9 1 8 2 5 3 4 4 3 5 2 6 1 7 7 8 6 9 10 10
REMARK H PARENT
REMARK Flexibility Score: inf
ROOT
ATOM      1  C   UNL     1     136.220 150.634 123.849  1.00  0.00     0.012 C 
ATOM      2  C   UNL     1     136.368 152.170 123.980  1.00  0.00    -0.026 C 
ATOM      3  C   UNL     1     135.637 152.921 122.838  1.00  0.00    -0.004 C 
ATOM      4  C   UNL     1     135.445 154.431 123.192  1.00  0.00     0.008 C 
ATOM      5  C   UNL     1     136.788 155.122 123.645  1.00  0.00     0.031 C 
ATOM      6  C   UNL     1     137.938 154.115 123.798  1.00  0.00    -0.074 C 
ATOM      7  C   UNL     1     139.119 154.480 124.309  1.00  0.00     0.008 C 
ATOM      8  C   UNL     1     137.677 152.684 123.338  1.00  0.00     0.021 C 
ATOM      9  C   UNL     1     136.926 152.827 122.005  1.00  0.00     0.012 C 
ATOM     10  C   UNL     1     136.060 152.568 125.450  1.00  0.00     0.012 C 
ENDROOT
TORSDOF 0
ENDMDL
MODEL 4
REMARK VINA RESULT:    -5.827     22.161     23.425
REMARK INTER + INTRA:          -5.827
REMARK INTER:                  -5.827
REMARK INTRA:                   0.000
REMARK UNBOUND:                 0.000
REMARK SMILES C=C1CC[C@H]2C[C@@H]1C2(C)C
REMARK SMILES IDX 9 1 8 2 5 3 4 4 3 5 2 6 1 7 7 8 6 9 10 10
REMARK H PARENT
REMARK Flexibility Score: inf
ROOT
ATOM      1  C   UNL     1     150.658 154.539 123.769  1.00  0.00     0.012 C 
ATOM      2  C   UNL     1     152.189 154.349 123.907  1.00  0.00    -0.026 C 
ATOM      3  C   UNL     1     152.958 154.958 122.707  1.00  0.00    -0.004 C 
ATOM      4  C   UNL     1     154.476 155.125 123.040  1.00  0.00     0.008 C 
ATOM      5  C   UNL     1     155.122 153.800 123.600  1.00  0.00     0.031 C 
ATOM      6  C   UNL     1     154.077 152.702 123.848  1.00  0.00    -0.074 C 
ATOM      7  C   UNL     1     154.405 151.554 124.452  1.00  0.00     0.008 C 
ATOM      8  C   UNL     1     152.654 152.974 123.373  1.00  0.00     0.021 C 
ATOM      9  C   UNL     1     152.816 153.610 121.982  1.00  0.00     0.012 C 
ATOM     10  C   UNL     1     152.605 154.761 125.346  1.00  0.00     0.012 C 
ENDROOT
TORSDOF 0
ENDMDL
MODEL 5
REMARK VINA RESULT:    -5.596      1.020      3.248
REMARK INTER + INTRA:          -5.596
REMARK INTER:                  -5.596
REMARK INTRA:                   0.000
REMARK UNBOUND:                 0.000
REMARK SMILES C=C1CC[C@H]2C[C@@H]1C2(C)C
REMARK SMILES IDX 9 1 8 2 5 3 4 4 3 5 2 6 1 7 7 8 6 9 10 10
REMARK H PARENT
REMARK Flexibility Score: inf
ROOT
ATOM      1  C   UNL     1     135.647 137.897 123.945  1.00  0.00     0.012 C 
ATOM      2  C   UNL     1     136.842 137.088 123.383  1.00  0.00    -0.026 C 
ATOM      3  C   UNL     1     136.458 135.615 123.093  1.00  0.00    -0.004 C 
ATOM      4  C   UNL     1     137.516 134.931 122.169  1.00  0.00     0.008 C 
ATOM      5  C   UNL     1     138.989 135.107 122.702  1.00  0.00     0.031 C 
ATOM      6  C   UNL     1     139.062 136.052 123.912  1.00  0.00    -0.074 C 
ATOM      7  C   UNL     1     140.236 136.440 124.421  1.00  0.00     0.008 C 
ATOM      8  C   UNL     1     137.739 136.522 124.508  1.00  0.00     0.021 C 
ATOM      9  C   UNL     1     136.850 135.268 124.539  1.00  0.00     0.012 C 
ATOM     10  C   UNL     1     137.509 137.921 122.254  1.00  0.00     0.012 C 
ENDROOT
TORSDOF 0
ENDMDL
MODEL 6
REMARK VINA RESULT:    -5.488     14.737     16.680
REMARK INTER + INTRA:          -5.488
REMARK INTER:                  -5.488
REMARK INTRA:                   0.000
REMARK UNBOUND:                 0.000
REMARK SMILES C=C1CC[C@H]2C[C@@H]1C2(C)C
REMARK SMILES IDX 9 1 8 2 5 3 4 4 3 5 2 6 1 7 7 8 6 9 10 10
REMARK H PARENT
REMARK Flexibility Score: inf
ROOT
ATOM      1  C   UNL     1     137.955 155.125 124.303  1.00  0.00     0.012 C 
ATOM      2  C   UNL     1     137.115 153.883 123.914  1.00  0.00    -0.026 C 
ATOM      3  C   UNL     1     135.858 154.269 123.094  1.00  0.00    -0.004 C 
ATOM      4  C   UNL     1     135.254 153.021 122.373  1.00  0.00     0.008 C 
ATOM      5  C   UNL     1     135.022 151.808 123.353  1.00  0.00     0.031 C 
ATOM      6  C   UNL     1     135.599 152.072 124.753  1.00  0.00    -0.074 C 
ATOM      7  C   UNL     1     135.628 151.114 125.685  1.00  0.00     0.008 C 
ATOM      8  C   UNL     1     136.131 153.474 125.034  1.00  0.00     0.021 C 
ATOM      9  C   UNL     1     135.090 154.424 124.417  1.00  0.00     0.012 C 
ATOM     10  C   UNL     1     138.075 152.803 123.344  1.00  0.00     0.012 C 
ENDROOT
TORSDOF 0
ENDMDL
MODEL 7
REMARK VINA RESULT:    -5.362      1.066      2.760
REMARK INTER + INTRA:          -5.362
REMARK INTER:                  -5.362
REMARK INTRA:                   0.000
REMARK UNBOUND:                 0.000
REMARK SMILES C=C1CC[C@H]2C[C@@H]1C2(C)C
REMARK SMILES IDX 9 1 8 2 5 3 4 4 3 5 2 6 1 7 7 8 6 9 10 10
REMARK H PARENT
REMARK Flexibility Score: inf
ROOT
ATOM      1  C   UNL     1     138.234 137.237 121.166  1.00  0.00     0.012 C 
ATOM      2  C   UNL     1     137.900 136.355 122.394  1.00  0.00    -0.026 C 
ATOM      3  C   UNL     1     136.517 136.704 122.999  1.00  0.00    -0.004 C 
ATOM      4  C   UNL     1     136.019 135.571 123.952  1.00  0.00     0.008 C 
ATOM      5  C   UNL     1     137.097 135.169 125.030  1.00  0.00     0.031 C 
ATOM      6  C   UNL     1     138.447 135.862 124.790  1.00  0.00    -0.074 C 
ATOM      7  C   UNL     1     139.528 135.547 125.511  1.00  0.00     0.008 C 
ATOM      8  C   UNL     1     138.499 136.928 123.700  1.00  0.00     0.021 C 
ATOM      9  C   UNL     1     137.212 137.749 123.887  1.00  0.00     0.012 C 
ATOM     10  C   UNL     1     138.203 134.875 122.031  1.00  0.00     0.012 C 
ENDROOT
TORSDOF 0
ENDMDL
MODEL 8
REMARK VINA RESULT:    -5.340     15.065     16.839
REMARK INTER + INTRA:          -5.340
REMARK INTER:                  -5.340
REMARK INTRA:                   0.000
REMARK UNBOUND:                 0.000
REMARK SMILES C=C1CC[C@H]2C[C@@H]1C2(C)C
REMARK SMILES IDX 9 1 8 2 5 3 4 4 3 5 2 6 1 7 7 8 6 9 10 10
REMARK H PARENT
REMARK Flexibility Score: inf
ROOT
ATOM      1  C   UNL     1     135.756 153.630 126.189  1.00  0.00     0.012 C 
ATOM      2  C   UNL     1     136.278 153.177 124.803  1.00  0.00    -0.026 C 
ATOM      3  C   UNL     1     137.554 153.950 124.384  1.00  0.00    -0.004 C 
ATOM      4  C   UNL     1     138.291 153.225 123.212  1.00  0.00     0.008 C 
ATOM      5  C   UNL     1     137.330 152.890 122.008  1.00  0.00     0.031 C 
ATOM      6  C   UNL     1     135.860 153.200 122.332  1.00  0.00    -0.074 C 
ATOM      7  C   UNL     1     134.876 152.856 121.495  1.00  0.00     0.008 C 
ATOM      8  C   UNL     1     135.573 153.921 123.646  1.00  0.00     0.021 C 
ATOM      9  C   UNL     1     136.650 155.015 123.741  1.00  0.00     0.012 C 
ATOM     10  C   UNL     1     136.305 151.624 124.775  1.00  0.00     0.012 C 
ENDROOT
TORSDOF 0
ENDMDL
MODEL 9
REMARK VINA RESULT:    -5.238     14.791     16.482
REMARK INTER + INTRA:          -5.238
REMARK INTER:                  -5.238
REMARK INTRA:                   0.000
REMARK UNBOUND:                 0.000
REMARK SMILES C=C1CC[C@H]2C[C@@H]1C2(C)C
REMARK SMILES IDX 9 1 8 2 5 3 4 4 3 5 2 6 1 7 7 8 6 9 10 10
REMARK H PARENT
REMARK Flexibility Score: inf
ROOT
ATOM      1  C   UNL     1     137.148 152.497 121.054  1.00  0.00     0.012 C 
ATOM      2  C   UNL     1     136.403 152.875 122.358  1.00  0.00    -0.026 C 
ATOM      3  C   UNL     1     136.977 154.165 122.999  1.00  0.00    -0.004 C 
ATOM      4  C   UNL     1     135.988 154.754 124.055  1.00  0.00     0.008 C 
ATOM      5  C   UNL     1     135.516 153.681 125.109  1.00  0.00     0.031 C 
ATOM      6  C   UNL     1     136.002 152.266 124.756  1.00  0.00    -0.074 C 
ATOM      7  C   UNL     1     135.591 151.197 125.447  1.00  0.00     0.008 C 
ATOM      8  C   UNL     1     136.976 152.135 123.589  1.00  0.00     0.021 C 
ATOM      9  C   UNL     1     137.974 153.289 123.775  1.00  0.00     0.012 C 
ATOM     10  C   UNL     1     134.875 152.792 122.091  1.00  0.00     0.012 C 
ENDROOT
TORSDOF 0
ENDMDL
