MODEL 1
REMARK VINA RESULT:    -3.630      0.000      0.000
REMARK INTER + INTRA:          -3.863
REMARK INTER:                  -3.842
REMARK INTRA:                  -0.021
REMARK UNBOUND:                -0.021
REMARK SMILES O=C([O-])c1cccnc1
REMARK SMILES IDX 4 1 5 2 9 3 6 4 8 5 7 6 2 7 1 8 3 9
REMARK H PARENT
REMARK Flexibility Score: inf
ROOT
ATOM      1  C   UNL     1       2.976  -0.564  18.011  1.00  0.00     0.016 A 
ATOM      2  C   UNL     1       3.916  -0.329  19.029  1.00  0.00     0.013 A 
ATOM      3  C   UNL     1       3.448  -0.841  16.717  1.00  0.00     0.120 A 
ATOM      4  C   UNL     1       5.282  -0.374  18.744  1.00  0.00     0.021 A 
ATOM      5  N   UNL     1       4.785  -0.878  16.467  1.00  0.00    -0.264 NA
ATOM      6  C   UNL     1       5.702  -0.653  17.443  1.00  0.00     0.111 A 
ENDROOT
BRANCH   1   7
ATOM      7  C   UNL     1       1.525  -0.523  18.290  1.00  0.00     0.073 C 
ATOM      8  O   UNL     1       0.720  -0.078  17.428  1.00  0.00    -0.545 OA
ATOM      9  O   UNL     1       1.028  -0.975  19.508  1.00  0.00    -0.545 OA
ENDBRANCH   1   7
TORSDOF 1
ENDMDL
MODEL 2
REMARK VINA RESULT:    -3.533      4.866      5.893
REMARK INTER + INTRA:          -3.761
REMARK INTER:                  -3.744
REMARK INTRA:                  -0.017
REMARK UNBOUND:                -0.021
REMARK SMILES O=C([O-])c1cccnc1
REMARK SMILES IDX 4 1 5 2 9 3 6 4 8 5 7 6 2 7 1 8 3 9
REMARK H PARENT
REMARK Flexibility Score: inf
ROOT
ATOM      1  C   UNL     1       8.337   0.498  16.697  1.00  0.00     0.016 A 
ATOM      2  C   UNL     1       9.567   0.063  16.174  1.00  0.00     0.013 A 
ATOM      3  C   UNL     1       8.311   1.007  18.006  1.00  0.00     0.120 A 
ATOM      4  C   UNL     1      10.725   0.142  16.950  1.00  0.00     0.021 A 
ATOM      5  N   UNL     1       9.454   1.073  18.741  1.00  0.00    -0.264 NA
ATOM      6  C   UNL     1      10.647   0.655  18.245  1.00  0.00     0.111 A 
ENDROOT
BRANCH   1   7
ATOM      7  C   UNL     1       7.099   0.423  15.893  1.00  0.00     0.073 C 
ATOM      8  O   UNL     1       6.893   1.242  14.957  1.00  0.00    -0.545 OA
ATOM      9  O   UNL     1       6.144  -0.553  16.157  1.00  0.00    -0.545 OA
ENDBRANCH   1   7
TORSDOF 1
ENDMDL
MODEL 3
REMARK VINA RESULT:    -3.507      3.194      4.206
REMARK INTER + INTRA:          -3.733
REMARK INTER:                  -3.714
REMARK INTRA:                  -0.019
REMARK UNBOUND:                -0.021
REMARK SMILES O=C([O-])c1cccnc1
REMARK SMILES IDX 4 1 5 2 9 3 6 4 8 5 7 6 2 7 1 8 3 9
REMARK H PARENT
REMARK Flexibility Score: inf
ROOT
ATOM      1  C   UNL     1       6.694  -0.354  16.776  1.00  0.00     0.016 A 
ATOM      2  C   UNL     1       6.963   0.584  15.766  1.00  0.00     0.013 A 
ATOM      3  C   UNL     1       7.778  -1.005  17.390  1.00  0.00     0.120 A 
ATOM      4  C   UNL     1       8.282   0.852  15.393  1.00  0.00     0.021 A 
ATOM      5  N   UNL     1       9.053  -0.725  17.007  1.00  0.00    -0.264 NA
ATOM      6  C   UNL     1       9.324   0.180  16.031  1.00  0.00     0.111 A 
ENDROOT
BRANCH   1   7
ATOM      7  C   UNL     1       5.306  -0.653  17.188  1.00  0.00     0.073 C 
ATOM      8  O   UNL     1       4.437  -0.967  16.330  1.00  0.00    -0.545 OA
ATOM      9  O   UNL     1       4.939  -0.592  18.528  1.00  0.00    -0.545 OA
ENDBRANCH   1   7
TORSDOF 1
ENDMDL
MODEL 4
REMARK VINA RESULT:    -3.495      4.869      5.621
REMARK INTER + INTRA:          -3.720
REMARK INTER:                  -3.704
REMARK INTRA:                  -0.016
REMARK UNBOUND:                -0.021
REMARK SMILES O=C([O-])c1cccnc1
REMARK SMILES IDX 4 1 5 2 9 3 6 4 8 5 7 6 2 7 1 8 3 9
REMARK H PARENT
REMARK Flexibility Score: inf
ROOT
ATOM      1  C   UNL     1       8.184   0.523  16.807  1.00  0.00     0.016 A 
ATOM      2  C   UNL     1       8.035   1.141  18.059  1.00  0.00     0.013 A 
ATOM      3  C   UNL     1       9.459   0.059  16.438  1.00  0.00     0.120 A 
ATOM      4  C   UNL     1       9.137   1.283  18.905  1.00  0.00     0.021 A 
ATOM      5  N   UNL     1      10.515   0.210  17.282  1.00  0.00    -0.264 NA
ATOM      6  C   UNL     1      10.381   0.807  18.495  1.00  0.00     0.111 A 
ENDROOT
BRANCH   1   7
ATOM      7  C   UNL     1       7.032   0.362  15.895  1.00  0.00     0.073 C 
ATOM      8  O   UNL     1       6.848   1.171  14.946  1.00  0.00    -0.545 OA
ATOM      9  O   UNL     1       6.135  -0.686  16.070  1.00  0.00    -0.545 OA
ENDBRANCH   1   7
TORSDOF 1
ENDMDL
MODEL 5
REMARK VINA RESULT:    -3.439      2.774      4.058
REMARK INTER + INTRA:          -3.661
REMARK INTER:                  -3.637
REMARK INTRA:                  -0.024
REMARK UNBOUND:                -0.021
REMARK SMILES O=C([O-])c1cccnc1
REMARK SMILES IDX 4 1 5 2 9 3 6 4 8 5 7 6 2 7 1 8 3 9
REMARK H PARENT
REMARK Flexibility Score: inf
ROOT
ATOM      1  C   UNL     1       3.050  -0.728  17.830  1.00  0.00     0.016 A 
ATOM      2  C   UNL     1       2.186  -0.669  16.724  1.00  0.00     0.013 A 
ATOM      3  C   UNL     1       2.487  -0.766  19.117  1.00  0.00     0.120 A 
ATOM      4  C   UNL     1       0.803  -0.650  16.916  1.00  0.00     0.021 A 
ATOM      5  N   UNL     1       1.136  -0.745  19.276  1.00  0.00    -0.264 NA
ATOM      6  C   UNL     1       0.292  -0.688  18.213  1.00  0.00     0.111 A 
ENDROOT
BRANCH   1   7
ATOM      7  C   UNL     1       4.517  -0.750  17.649  1.00  0.00     0.073 C 
ATOM      8  O   UNL     1       5.285  -0.779  18.649  1.00  0.00    -0.545 OA
ATOM      9  O   UNL     1       5.071  -0.742  16.374  1.00  0.00    -0.545 OA
ENDBRANCH   1   7
TORSDOF 1
ENDMDL
MODEL 6
REMARK VINA RESULT:    -3.213      5.851      6.950
REMARK INTER + INTRA:          -3.422
REMARK INTER:                  -3.398
REMARK INTRA:                  -0.024
REMARK UNBOUND:                -0.021
REMARK SMILES O=C([O-])c1cccnc1
REMARK SMILES IDX 4 1 5 2 9 3 6 4 8 5 7 6 2 7 1 8 3 9
REMARK H PARENT
REMARK Flexibility Score: inf
ROOT
ATOM      1  C   UNL     1       9.221  -0.070  16.582  1.00  0.00     0.016 A 
ATOM      2  C   UNL     1       8.684   0.891  15.708  1.00  0.00     0.013 A 
ATOM      3  C   UNL     1       8.351  -1.016  17.150  1.00  0.00     0.120 A 
ATOM      4  C   UNL     1       7.318   0.892  15.423  1.00  0.00     0.021 A 
ATOM      5  N   UNL     1       7.023  -0.992  16.855  1.00  0.00    -0.264 NA
ATOM      6  C   UNL     1       6.494  -0.068  16.012  1.00  0.00     0.111 A 
ENDROOT
BRANCH   1   7
ATOM      7  C   UNL     1      10.665  -0.090  16.898  1.00  0.00     0.073 C 
ATOM      8  O   UNL     1      11.426   0.821  16.473  1.00  0.00    -0.545 OA
ATOM      9  O   UNL     1      11.204  -1.114  17.669  1.00  0.00    -0.545 OA
ENDBRANCH   1   7
TORSDOF 1
ENDMDL
MODEL 7
REMARK VINA RESULT:    -3.192      3.150      3.846
REMARK INTER + INTRA:          -3.399
REMARK INTER:                  -3.379
REMARK INTRA:                  -0.020
REMARK UNBOUND:                -0.021
REMARK SMILES O=C([O-])c1cccnc1
REMARK SMILES IDX 4 1 5 2 9 3 6 4 8 5 7 6 2 7 1 8 3 9
REMARK H PARENT
REMARK Flexibility Score: inf
ROOT
ATOM      1  C   UNL     1       5.033  -0.551  17.294  1.00  0.00     0.016 A 
ATOM      2  C   UNL     1       5.132  -0.333  18.678  1.00  0.00     0.013 A 
ATOM      3  C   UNL     1       3.767  -0.827  16.749  1.00  0.00     0.120 A 
ATOM      4  C   UNL     1       3.990  -0.393  19.480  1.00  0.00     0.021 A 
ATOM      5  N   UNL     1       2.671  -0.879  17.553  1.00  0.00    -0.264 NA
ATOM      6  C   UNL     1       2.755  -0.671  18.893  1.00  0.00     0.111 A 
ENDROOT
BRANCH   1   7
ATOM      7  C   UNL     1       6.229  -0.492  16.427  1.00  0.00     0.073 C 
ATOM      8  O   UNL     1       6.189   0.111  15.321  1.00  0.00    -0.545 OA
ATOM      9  O   UNL     1       7.416  -1.101  16.820  1.00  0.00    -0.545 OA
ENDBRANCH   1   7
TORSDOF 1
ENDMDL
MODEL 8
REMARK VINA RESULT:    -3.090      4.026      4.900
REMARK INTER + INTRA:          -3.291
REMARK INTER:                  -3.271
REMARK INTRA:                  -0.020
REMARK UNBOUND:                -0.021
REMARK SMILES O=C([O-])c1cccnc1
REMARK SMILES IDX 4 1 5 2 9 3 6 4 8 5 7 6 2 7 1 8 3 9
REMARK H PARENT
REMARK Flexibility Score: inf
ROOT
ATOM      1  C   UNL     1       6.813   0.051  16.711  1.00  0.00     0.016 A 
ATOM      2  C   UNL     1       7.215  -0.087  18.050  1.00  0.00     0.013 A 
ATOM      3  C   UNL     1       5.539  -0.416  16.344  1.00  0.00     0.120 A 
ATOM      4  C   UNL     1       6.358  -0.676  18.981  1.00  0.00     0.021 A 
ATOM      5  N   UNL     1       4.724  -0.986  17.272  1.00  0.00    -0.264 NA
ATOM      6  C   UNL     1       5.103  -1.125  18.569  1.00  0.00     0.111 A 
ENDROOT
BRANCH   1   7
ATOM      7  C   UNL     1       7.704   0.672  15.708  1.00  0.00     0.073 C 
ATOM      8  O   UNL     1       7.250   1.500  14.873  1.00  0.00    -0.545 OA
ATOM      9  O   UNL     1       9.057   0.353  15.674  1.00  0.00    -0.545 OA
ENDBRANCH   1   7
TORSDOF 1
ENDMDL
MODEL 9
REMARK VINA RESULT:    -3.057      4.990      5.985
REMARK INTER + INTRA:          -3.256
REMARK INTER:                  -3.236
REMARK INTRA:                  -0.020
REMARK UNBOUND:                -0.021
REMARK SMILES O=C([O-])c1cccnc1
REMARK SMILES IDX 4 1 5 2 9 3 6 4 8 5 7 6 2 7 1 8 3 9
REMARK H PARENT
REMARK Flexibility Score: inf
ROOT
ATOM      1  C   UNL     1       8.231   0.130  16.937  1.00  0.00     0.016 A 
ATOM      2  C   UNL     1       7.394  -0.537  17.847  1.00  0.00     0.013 A 
ATOM      3  C   UNL     1       7.697   0.511  15.694  1.00  0.00     0.120 A 
ATOM      4  C   UNL     1       6.066  -0.807  17.509  1.00  0.00     0.021 A 
ATOM      5  N   UNL     1       6.400   0.235  15.390  1.00  0.00    -0.264 NA
ATOM      6  C   UNL     1       5.582  -0.409  16.263  1.00  0.00     0.111 A 
ENDROOT
BRANCH   1   7
ATOM      7  C   UNL     1       9.639   0.426  17.275  1.00  0.00     0.073 C 
ATOM      8  O   UNL     1      10.541   0.334  16.398  1.00  0.00    -0.545 OA
ATOM      9  O   UNL     1       9.990   0.811  18.564  1.00  0.00    -0.545 OA
ENDBRANCH   1   7
TORSDOF 1
ENDMDL
