MODEL 1
REMARK VINA RESULT:    -2.287      0.000      0.000
REMARK INTER + INTRA:          -2.487
REMARK INTER:                  -2.487
REMARK INTRA:                   0.000
REMARK UNBOUND:                 0.000
REMARK SMILES [NH3+]CC(=O)[O-]
REMARK SMILES IDX 2 1 1 2 3 6 4 7 5 8
REMARK H PARENT 1 3 1 4 1 5
REMARK Flexibility Score: inf
ROOT
ATOM      1  C   UNL     1      10.603   6.496  41.137  1.00  0.00     0.312 C 
ENDROOT
BRANCH   1   2
ATOM      2  N   UNL     1      11.810   5.772  41.531  1.00  0.00    -0.353 N 
ATOM      3  H   UNL     1      12.071   5.080  40.792  1.00  0.00     0.344 HD
ATOM      4  H   UNL     1      12.594   6.454  41.650  1.00  0.00     0.344 HD
ATOM      5  H   UNL     1      11.651   5.278  42.439  1.00  0.00     0.344 HD
ENDBRANCH   1   2
BRANCH   1   6
ATOM      6  C   UNL     1       9.838   6.945  42.344  1.00  0.00     0.096 C 
ATOM      7  O   UNL     1      10.078   8.066  42.864  1.00  0.00    -0.544 OA
ATOM      8  O   UNL     1       8.898   6.104  42.923  1.00  0.00    -0.544 OA
ENDBRANCH   1   6
TORSDOF 2
ENDMDL
MODEL 2
REMARK VINA RESULT:    -2.215      9.299      9.441
REMARK INTER + INTRA:          -2.409
REMARK INTER:                  -2.409
REMARK INTRA:                   0.000
REMARK UNBOUND:                 0.000
REMARK SMILES [NH3+]CC(=O)[O-]
REMARK SMILES IDX 2 1 1 2 3 6 4 7 5 8
REMARK H PARENT 1 3 1 4 1 5
REMARK Flexibility Score: inf
ROOT
ATOM      1  C   UNL     1       7.662  -2.541  42.652  1.00  0.00     0.312 C 
ENDROOT
BRANCH   1   2
ATOM      2  N   UNL     1       8.582  -1.406  42.690  1.00  0.00    -0.353 N 
ATOM      3  H   UNL     1       8.676  -1.052  43.670  1.00  0.00     0.344 HD
ATOM      4  H   UNL     1       9.522  -1.716  42.350  1.00  0.00     0.344 HD
ATOM      5  H   UNL     1       8.233  -0.640  42.069  1.00  0.00     0.344 HD
ENDBRANCH   1   2
BRANCH   1   6
ATOM      6  C   UNL     1       6.243  -2.074  42.759  1.00  0.00     0.096 C 
ATOM      7  O   UNL     1       5.490  -2.103  41.750  1.00  0.00    -0.544 OA
ATOM      8  O   UNL     1       5.769  -1.560  43.958  1.00  0.00    -0.544 OA
ENDBRANCH   1   6
TORSDOF 2
ENDMDL
MODEL 3
REMARK VINA RESULT:    -2.169      1.705      2.125
REMARK INTER + INTRA:          -2.360
REMARK INTER:                  -2.360
REMARK INTRA:                   0.000
REMARK UNBOUND:                 0.000
REMARK SMILES [NH3+]CC(=O)[O-]
REMARK SMILES IDX 2 1 1 2 3 6 4 7 5 8
REMARK H PARENT 1 3 1 4 1 5
REMARK Flexibility Score: inf
ROOT
ATOM      1  C   UNL     1      10.906   6.711  41.793  1.00  0.00     0.312 C 
ENDROOT
BRANCH   1   2
ATOM      2  N   UNL     1      11.933   5.709  41.513  1.00  0.00    -0.353 N 
ATOM      3  H   UNL     1      11.797   4.873  42.127  1.00  0.00     0.344 HD
ATOM      4  H   UNL     1      11.857   5.412  40.513  1.00  0.00     0.344 HD
ATOM      5  H   UNL     1      12.884   6.116  41.673  1.00  0.00     0.344 HD
ENDBRANCH   1   2
BRANCH   1   6
ATOM      6  C   UNL     1       9.647   6.400  41.045  1.00  0.00     0.096 C 
ATOM      7  O   UNL     1       8.733   5.729  41.594  1.00  0.00    -0.544 OA
ATOM      8  O   UNL     1       9.504   6.807  39.725  1.00  0.00    -0.544 OA
ENDBRANCH   1   6
TORSDOF 2
ENDMDL
MODEL 4
REMARK VINA RESULT:    -2.164      0.374      1.492
REMARK INTER + INTRA:          -2.353
REMARK INTER:                  -2.353
REMARK INTRA:                   0.000
REMARK UNBOUND:                 0.000
REMARK SMILES [NH3+]CC(=O)[O-]
REMARK SMILES IDX 2 1 1 2 3 6 4 7 5 8
REMARK H PARENT 1 3 1 4 1 5
REMARK Flexibility Score: inf
ROOT
ATOM      1  C   UNL     1      10.196   6.548  41.242  1.00  0.00     0.312 C 
ENDROOT
BRANCH   1   2
ATOM      2  N   UNL     1      11.504   5.941  41.478  1.00  0.00    -0.353 N 
ATOM      3  H   UNL     1      11.467   4.916  41.272  1.00  0.00     0.344 HD
ATOM      4  H   UNL     1      12.208   6.388  40.848  1.00  0.00     0.344 HD
ATOM      5  H   UNL     1      11.796   6.091  42.472  1.00  0.00     0.344 HD
ENDBRANCH   1   2
BRANCH   1   6
ATOM      6  C   UNL     1       9.522   6.872  42.539  1.00  0.00     0.096 C 
ATOM      7  O   UNL     1       8.637   6.105  43.002  1.00  0.00    -0.544 OA
ATOM      8  O   UNL     1       9.835   8.046  43.211  1.00  0.00    -0.544 OA
ENDBRANCH   1   6
TORSDOF 2
ENDMDL
MODEL 5
REMARK VINA RESULT:    -2.143      9.306      9.716
REMARK INTER + INTRA:          -2.331
REMARK INTER:                  -2.331
REMARK INTRA:                   0.000
REMARK UNBOUND:                 0.000
REMARK SMILES [NH3+]CC(=O)[O-]
REMARK SMILES IDX 2 1 1 2 3 6 4 7 5 8
REMARK H PARENT 1 3 1 4 1 5
REMARK Flexibility Score: inf
ROOT
ATOM      1  C   UNL     1       7.553  -2.390  42.623  1.00  0.00     0.312 C 
ENDROOT
BRANCH   1   2
ATOM      2  N   UNL     1       8.691  -1.473  42.634  1.00  0.00    -0.353 N 
ATOM      3  H   UNL     1       8.403  -0.546  43.025  1.00  0.00     0.344 HD
ATOM      4  H   UNL     1       9.447  -1.874  43.236  1.00  0.00     0.344 HD
ATOM      5  H   UNL     1       9.062  -1.348  41.664  1.00  0.00     0.344 HD
ENDBRANCH   1   2
BRANCH   1   6
ATOM      6  C   UNL     1       6.970  -2.490  41.247  1.00  0.00     0.096 C 
ATOM      7  O   UNL     1       5.900  -3.126  41.058  1.00  0.00    -0.544 OA
ATOM      8  O   UNL     1       7.635  -1.924  40.167  1.00  0.00    -0.544 OA
ENDBRANCH   1   6
TORSDOF 2
ENDMDL
MODEL 6
REMARK VINA RESULT:    -2.131      9.386      9.925
REMARK INTER + INTRA:          -2.318
REMARK INTER:                  -2.318
REMARK INTRA:                   0.000
REMARK UNBOUND:                 0.000
REMARK SMILES [NH3+]CC(=O)[O-]
REMARK SMILES IDX 2 1 1 2 3 6 4 7 5 8
REMARK H PARENT 1 3 1 4 1 5
REMARK Flexibility Score: inf
ROOT
ATOM      1  C   UNL     1       5.714  -1.884  43.237  1.00  0.00     0.312 C 
ENDROOT
BRANCH   1   2
ATOM      2  N   UNL     1       6.053  -0.937  44.297  1.00  0.00    -0.353 N 
ATOM      3  H   UNL     1       6.558  -1.428  45.071  1.00  0.00     0.344 HD
ATOM      4  H   UNL     1       6.674  -0.192  43.905  1.00  0.00     0.344 HD
ATOM      5  H   UNL     1       5.183  -0.489  44.670  1.00  0.00     0.344 HD
ENDBRANCH   1   2
BRANCH   1   6
ATOM      6  C   UNL     1       6.954  -2.491  42.656  1.00  0.00     0.096 C 
ATOM      7  O   UNL     1       6.954  -3.692  42.278  1.00  0.00    -0.544 OA
ATOM      8  O   UNL     1       8.122  -1.745  42.578  1.00  0.00    -0.544 OA
ENDBRANCH   1   6
TORSDOF 2
ENDMDL
MODEL 7
REMARK VINA RESULT:    -1.996      2.055      2.243
REMARK INTER + INTRA:          -2.171
REMARK INTER:                  -2.171
REMARK INTRA:                   0.000
REMARK UNBOUND:                 0.000
REMARK SMILES [NH3+]CC(=O)[O-]
REMARK SMILES IDX 2 1 1 2 3 6 4 7 5 8
REMARK H PARENT 1 3 1 4 1 5
REMARK Flexibility Score: inf
ROOT
ATOM      1  C   UNL     1       9.053   6.319  40.928  1.00  0.00     0.312 C 
ENDROOT
BRANCH   1   2
ATOM      2  N   UNL     1       9.278   6.343  39.484  1.00  0.00    -0.353 N 
ATOM      3  H   UNL     1       9.948   5.587  39.212  1.00  0.00     0.344 HD
ATOM      4  H   UNL     1       8.368   6.182  38.994  1.00  0.00     0.344 HD
ATOM      5  H   UNL     1       9.658   7.274  39.195  1.00  0.00     0.344 HD
ENDBRANCH   1   2
BRANCH   1   6
ATOM      6  C   UNL     1      10.274   6.783  41.660  1.00  0.00     0.096 C 
ATOM      7  O   UNL     1      11.411   6.352  41.333  1.00  0.00    -0.544 OA
ATOM      8  O   UNL     1      10.151   7.654  42.735  1.00  0.00    -0.544 OA
ENDBRANCH   1   6
TORSDOF 2
ENDMDL
MODEL 8
REMARK VINA RESULT:    -1.991     11.262     11.387
REMARK INTER + INTRA:          -2.166
REMARK INTER:                  -2.166
REMARK INTRA:                   0.000
REMARK UNBOUND:                 0.000
REMARK SMILES [NH3+]CC(=O)[O-]
REMARK SMILES IDX 2 1 1 2 3 6 4 7 5 8
REMARK H PARENT 1 3 1 4 1 5
REMARK Flexibility Score: inf
ROOT
ATOM      1  C   UNL     1       6.315  -1.344  35.223  1.00  0.00     0.312 C 
ENDROOT
BRANCH   1   2
ATOM      2  N   UNL     1       6.331  -0.278  36.223  1.00  0.00    -0.353 N 
ATOM      3  H   UNL     1       7.258  -0.253  36.707  1.00  0.00     0.344 HD
ATOM      4  H   UNL     1       6.172   0.639  35.747  1.00  0.00     0.344 HD
ATOM      5  H   UNL     1       5.569  -0.432  36.924  1.00  0.00     0.344 HD
ENDBRANCH   1   2
BRANCH   1   6
ATOM      6  C   UNL     1       7.710  -1.761  34.873  1.00  0.00     0.096 C 
ATOM      7  O   UNL     1       8.402  -1.059  34.090  1.00  0.00    -0.544 OA
ATOM      8  O   UNL     1       8.226  -2.949  35.372  1.00  0.00    -0.544 OA
ENDBRANCH   1   6
TORSDOF 2
ENDMDL
MODEL 9
REMARK VINA RESULT:    -1.972      9.978     10.419
REMARK INTER + INTRA:          -2.145
REMARK INTER:                  -2.145
REMARK INTRA:                   0.000
REMARK UNBOUND:                 0.000
REMARK SMILES [NH3+]CC(=O)[O-]
REMARK SMILES IDX 2 1 1 2 3 6 4 7 5 8
REMARK H PARENT 1 3 1 4 1 5
REMARK Flexibility Score: inf
ROOT
ATOM      1  C   UNL     1       7.178  -0.164  36.618  1.00  0.00     0.312 C 
ENDROOT
BRANCH   1   2
ATOM      2  N   UNL     1       6.497   0.907  37.343  1.00  0.00    -0.353 N 
ATOM      3  H   UNL     1       6.596   0.763  38.374  1.00  0.00     0.344 HD
ATOM      4  H   UNL     1       6.930   1.824  37.085  1.00  0.00     0.344 HD
ATOM      5  H   UNL     1       5.483   0.928  37.084  1.00  0.00     0.344 HD
ENDBRANCH   1   2
BRANCH   1   6
ATOM      6  C   UNL     1       6.200  -1.208  36.177  1.00  0.00     0.096 C 
ATOM      7  O   UNL     1       6.135  -1.543  34.965  1.00  0.00    -0.544 OA
ATOM      8  O   UNL     1       5.326  -1.774  37.096  1.00  0.00    -0.544 OA
ENDBRANCH   1   6
TORSDOF 2
ENDMDL
