MODEL 1
REMARK VINA RESULT:    -6.507      0.000      0.000
REMARK INTER + INTRA:         -10.172
REMARK INTER:                  -8.789
REMARK INTRA:                  -1.383
REMARK UNBOUND:                -1.383
REMARK SMILES CC[C@@H](CC[C@@H](C)[C@@H]1CC[C@@H]2[C@@H]3CC(=O)C4=CC(=O)CC[C@]4(C)[C@@H]3CC[C@]21C)C(C)C
REMARK SMILES IDX 4 1 3 2 2 3 1 4 29 5 30 6 31 7 5 8 6 9 7 10 8 11 9 12 27 13
REMARK SMILES IDX 10 14 11 15 26 16 28 17 12 18 25 19 24 20 13 21 22 22 14 23
REMARK SMILES IDX 16 24 21 25 23 26 15 27 17 28 20 29 18 30 19 31
REMARK H PARENT
REMARK Flexibility Score: inf
ROOT
ATOM      1  C   UNL     1      18.299  27.485  27.787  1.00  0.00     0.004 C 
ENDROOT
BRANCH   1   2
ATOM      2  C   UNL     1      18.449  25.972  27.435  1.00  0.00    -0.009 C 
BRANCH   2   3
ATOM      3  C   UNL     1      17.412  25.178  28.280  1.00  0.00     0.000 C 
ATOM      4  C   UNL     1      16.336  24.464  27.462  1.00  0.00     0.004 C 
ENDBRANCH   2   3
BRANCH   2   5
ATOM      5  C   UNL     1      19.934  25.474  27.566  1.00  0.00    -0.014 C 
ATOM      6  C   UNL     1      20.181  24.127  26.868  1.00  0.00     0.007 C 
ATOM      7  C   UNL     1      20.457  25.447  29.011  1.00  0.00     0.007 C 
ENDBRANCH   2   5
ENDBRANCH   1   2
BRANCH   1   8
ATOM      8  C   UNL     1      17.149  27.870  28.747  1.00  0.00     0.004 C 
BRANCH   8   9
ATOM      9  C   UNL     1      17.288  29.253  29.441  1.00  0.00    -0.011 C 
ATOM     10  C   UNL     1      15.891  29.840  29.738  1.00  0.00     0.008 C 
BRANCH   9  11
ATOM     11  C   UNL     1      18.232  29.143  30.694  1.00  0.00    -0.002 C 
ATOM     12  C   UNL     1      17.662  29.610  32.060  1.00  0.00     0.005 C 
ATOM     13  C   UNL     1      19.625  29.827  30.598  1.00  0.00    -0.026 C 
ATOM     14  C   UNL     1      18.874  30.029  32.915  1.00  0.00     0.005 C 
ATOM     15  C   UNL     1      20.086  29.680  32.055  1.00  0.00    -0.001 C 
ATOM     16  C   UNL     1      20.644  29.076  29.716  1.00  0.00     0.007 C 
ATOM     17  C   UNL     1      19.489  31.300  30.121  1.00  0.00     0.012 C 
ATOM     18  C   UNL     1      21.479  30.266  32.385  1.00  0.00     0.004 C 
ATOM     19  C   UNL     1      22.085  29.599  29.929  1.00  0.00     0.005 C 
ATOM     20  C   UNL     1      22.558  29.642  31.424  1.00  0.00     0.003 C 
ATOM     21  C   UNL     1      21.540  31.816  32.550  1.00  0.00     0.085 C 
ATOM     22  C   UNL     1      23.971  30.319  31.617  1.00  0.00    -0.000 C 
ATOM     23  C   UNL     1      22.583  32.498  31.709  1.00  0.00     0.159 C 
ATOM     24  C   UNL     1      23.852  31.817  31.364  1.00  0.00     0.005 C 
ATOM     25  C   UNL     1      25.026  29.697  30.643  1.00  0.00     0.020 C 
ATOM     26  C   UNL     1      24.460  30.104  33.075  1.00  0.00     0.017 C 
ATOM     27  O   UNL     1      22.381  33.690  31.347  1.00  0.00    -0.295 OA
ATOM     28  C   UNL     1      24.901  32.533  30.913  1.00  0.00     0.055 C 
ATOM     29  C   UNL     1      26.379  30.418  30.684  1.00  0.00     0.081 C 
ATOM     30  C   UNL     1      26.189  31.902  30.573  1.00  0.00     0.156 C 
ATOM     31  O   UNL     1      27.156  32.625  30.212  1.00  0.00    -0.295 OA
ENDBRANCH   9  11
ENDBRANCH   8   9
ENDBRANCH   1   8
TORSDOF 6
ENDMDL
MODEL 2
REMARK VINA RESULT:    -6.498      1.414      2.081
REMARK INTER + INTRA:         -10.160
REMARK INTER:                  -8.626
REMARK INTRA:                  -1.534
REMARK UNBOUND:                -1.383
REMARK SMILES CC[C@@H](CC[C@@H](C)[C@@H]1CC[C@@H]2[C@@H]3CC(=O)C4=CC(=O)CC[C@]4(C)[C@@H]3CC[C@]21C)C(C)C
REMARK SMILES IDX 4 1 3 2 2 3 1 4 29 5 30 6 31 7 5 8 6 9 7 10 8 11 9 12 27 13
REMARK SMILES IDX 10 14 11 15 26 16 28 17 12 18 25 19 24 20 13 21 22 22 14 23
REMARK SMILES IDX 16 24 21 25 23 26 15 27 17 28 20 29 18 30 19 31
REMARK H PARENT
REMARK Flexibility Score: inf
ROOT
ATOM      1  C   UNL     1      16.490  28.747  30.009  1.00  0.00     0.004 C 
ENDROOT
BRANCH   1   2
ATOM      2  C   UNL     1      16.427  27.528  29.037  1.00  0.00    -0.009 C 
BRANCH   2   3
ATOM      3  C   UNL     1      15.538  26.435  29.695  1.00  0.00     0.000 C 
ATOM      4  C   UNL     1      15.374  26.572  31.209  1.00  0.00     0.004 C 
ENDBRANCH   2   3
BRANCH   2   5
ATOM      5  C   UNL     1      17.855  27.046  28.593  1.00  0.00    -0.014 C 
ATOM      6  C   UNL     1      18.462  27.911  27.476  1.00  0.00     0.007 C 
ATOM      7  C   UNL     1      17.923  25.554  28.227  1.00  0.00     0.007 C 
ENDBRANCH   2   5
ENDBRANCH   1   2
BRANCH   1   8
ATOM      8  C   UNL     1      15.907  30.085  29.496  1.00  0.00     0.004 C 
BRANCH   8   9
ATOM      9  C   UNL     1      16.845  31.317  29.616  1.00  0.00    -0.011 C 
ATOM     10  C   UNL     1      16.012  32.617  29.639  1.00  0.00     0.008 C 
BRANCH   9  11
ATOM     11  C   UNL     1      17.821  31.143  30.837  1.00  0.00    -0.002 C 
ATOM     12  C   UNL     1      17.568  32.030  32.085  1.00  0.00     0.005 C 
ATOM     13  C   UNL     1      19.344  31.289  30.557  1.00  0.00    -0.026 C 
ATOM     14  C   UNL     1      18.927  32.177  32.797  1.00  0.00     0.005 C 
ATOM     15  C   UNL     1      19.873  31.282  31.998  1.00  0.00    -0.001 C 
ATOM     16  C   UNL     1      19.976  30.085  29.830  1.00  0.00     0.007 C 
ATOM     17  C   UNL     1      19.642  32.601  29.778  1.00  0.00     0.012 C 
ATOM     18  C   UNL     1      21.405  31.422  32.156  1.00  0.00     0.004 C 
ATOM     19  C   UNL     1      21.522  30.127  29.885  1.00  0.00     0.005 C 
ATOM     20  C   UNL     1      22.127  30.298  31.323  1.00  0.00     0.003 C 
ATOM     21  C   UNL     1      21.977  32.862  31.981  1.00  0.00     0.085 C 
ATOM     22  C   UNL     1      23.695  30.488  31.326  1.00  0.00    -0.000 C 
ATOM     23  C   UNL     1      23.096  32.979  30.984  1.00  0.00     0.159 C 
ATOM     24  C   UNL     1      24.039  31.859  30.760  1.00  0.00     0.005 C 
ATOM     25  C   UNL     1      24.394  29.372  30.481  1.00  0.00     0.020 C 
ATOM     26  C   UNL     1      24.229  30.409  32.782  1.00  0.00     0.017 C 
ATOM     27  O   UNL     1      23.253  34.075  30.380  1.00  0.00    -0.295 OA
ATOM     28  C   UNL     1      25.213  32.081  30.136  1.00  0.00     0.055 C 
ATOM     29  C   UNL     1      25.904  29.593  30.328  1.00  0.00     0.081 C 
ATOM     30  C   UNL     1      26.191  31.003  29.905  1.00  0.00     0.156 C 
ATOM     31  O   UNL     1      27.299  31.275  29.369  1.00  0.00    -0.295 OA
ENDBRANCH   9  11
ENDBRANCH   8   9
ENDBRANCH   1   8
TORSDOF 6
ENDMDL
MODEL 3
REMARK VINA RESULT:    -6.370      1.239      2.159
REMARK INTER + INTRA:          -9.987
REMARK INTER:                  -8.339
REMARK INTRA:                  -1.648
REMARK UNBOUND:                -1.383
REMARK SMILES CC[C@@H](CC[C@@H](C)[C@@H]1CC[C@@H]2[C@@H]3CC(=O)C4=CC(=O)CC[C@]4(C)[C@@H]3CC[C@]21C)C(C)C
REMARK SMILES IDX 4 1 3 2 2 3 1 4 29 5 30 6 31 7 5 8 6 9 7 10 8 11 9 12 27 13
REMARK SMILES IDX 10 14 11 15 26 16 28 17 12 18 25 19 24 20 13 21 22 22 14 23
REMARK SMILES IDX 16 24 21 25 23 26 15 27 17 28 20 29 18 30 19 31
REMARK H PARENT
REMARK Flexibility Score: inf
ROOT
ATOM      1  C   UNL     1      16.498  28.053  30.192  1.00  0.00     0.004 C 
ENDROOT
BRANCH   1   2
ATOM      2  C   UNL     1      16.885  26.825  29.310  1.00  0.00    -0.009 C 
BRANCH   2   3
ATOM      3  C   UNL     1      17.651  27.352  28.063  1.00  0.00     0.000 C 
ATOM      4  C   UNL     1      19.014  26.701  27.829  1.00  0.00     0.004 C 
ENDBRANCH   2   3
BRANCH   2   5
ATOM      5  C   UNL     1      15.650  25.907  28.993  1.00  0.00    -0.014 C 
ATOM      6  C   UNL     1      15.532  24.705  29.945  1.00  0.00     0.007 C 
ATOM      7  C   UNL     1      15.571  25.453  27.526  1.00  0.00     0.007 C 
ENDBRANCH   2   5
ENDBRANCH   1   2
BRANCH   1   8
ATOM      8  C   UNL     1      15.892  29.276  29.463  1.00  0.00     0.004 C 
BRANCH   8   9
ATOM      9  C   UNL     1      16.646  30.618  29.663  1.00  0.00    -0.011 C 
ATOM     10  C   UNL     1      15.639  31.785  29.752  1.00  0.00     0.008 C 
BRANCH   9  11
ATOM     11  C   UNL     1      17.635  30.513  30.882  1.00  0.00    -0.002 C 
ATOM     12  C   UNL     1      17.312  31.366  32.138  1.00  0.00     0.005 C 
ATOM     13  C   UNL     1      19.141  30.785  30.603  1.00  0.00    -0.026 C 
ATOM     14  C   UNL     1      18.657  31.616  32.850  1.00  0.00     0.005 C 
ATOM     15  C   UNL     1      19.670  30.808  32.043  1.00  0.00    -0.001 C 
ATOM     16  C   UNL     1      19.867  29.642  29.864  1.00  0.00     0.007 C 
ATOM     17  C   UNL     1      19.331  32.123  29.835  1.00  0.00     0.012 C 
ATOM     18  C   UNL     1      21.187  31.069  32.201  1.00  0.00     0.004 C 
ATOM     19  C   UNL     1      21.405  29.809  29.919  1.00  0.00     0.005 C 
ATOM     20  C   UNL     1      21.996  30.016  31.358  1.00  0.00     0.003 C 
ATOM     21  C   UNL     1      21.639  32.553  32.039  1.00  0.00     0.085 C 
ATOM     22  C   UNL     1      23.543  30.331  31.361  1.00  0.00    -0.000 C 
ATOM     23  C   UNL     1      22.744  32.769  31.042  1.00  0.00     0.159 C 
ATOM     24  C   UNL     1      23.775  31.731  30.807  1.00  0.00     0.005 C 
ATOM     25  C   UNL     1      24.329  29.283  30.506  1.00  0.00     0.020 C 
ATOM     26  C   UNL     1      24.084  30.283  32.816  1.00  0.00     0.017 C 
ATOM     27  O   UNL     1      22.812  33.880  30.448  1.00  0.00    -0.295 OA
ATOM     28  C   UNL     1      24.926  32.053  30.185  1.00  0.00     0.055 C 
ATOM     29  C   UNL     1      25.816  29.627  30.354  1.00  0.00     0.081 C 
ATOM     30  C   UNL     1      25.988  31.059  29.944  1.00  0.00     0.156 C 
ATOM     31  O   UNL     1      27.069  31.425  29.410  1.00  0.00    -0.295 OA
ENDBRANCH   9  11
ENDBRANCH   8   9
ENDBRANCH   1   8
TORSDOF 6
ENDMDL
MODEL 4
REMARK VINA RESULT:    -6.316      3.007      6.507
REMARK INTER + INTRA:          -9.915
REMARK INTER:                  -7.704
REMARK INTRA:                  -2.210
REMARK UNBOUND:                -1.383
REMARK SMILES CC[C@@H](CC[C@@H](C)[C@@H]1CC[C@@H]2[C@@H]3CC(=O)C4=CC(=O)CC[C@]4(C)[C@@H]3CC[C@]21C)C(C)C
REMARK SMILES IDX 4 1 3 2 2 3 1 4 29 5 30 6 31 7 5 8 6 9 7 10 8 11 9 12 27 13
REMARK SMILES IDX 10 14 11 15 26 16 28 17 12 18 25 19 24 20 13 21 22 22 14 23
REMARK SMILES IDX 16 24 21 25 23 26 15 27 17 28 20 29 18 30 19 31
REMARK H PARENT
REMARK Flexibility Score: inf
ROOT
ATOM      1  C   UNL     1      16.548  32.236  29.448  1.00  0.00     0.004 C 
ENDROOT
BRANCH   1   2
ATOM      2  C   UNL     1      15.613  31.883  30.646  1.00  0.00    -0.009 C 
BRANCH   2   3
ATOM      3  C   UNL     1      16.217  32.520  31.931  1.00  0.00     0.000 C 
ATOM      4  C   UNL     1      15.254  32.604  33.115  1.00  0.00     0.004 C 
ENDBRANCH   2   3
BRANCH   2   5
ATOM      5  C   UNL     1      15.322  30.342  30.742  1.00  0.00    -0.014 C 
ATOM      6  C   UNL     1      16.431  29.565  31.470  1.00  0.00     0.007 C 
ATOM      7  C   UNL     1      14.990  29.686  29.392  1.00  0.00     0.007 C 
ENDBRANCH   2   5
ENDBRANCH   1   2
BRANCH   1   8
ATOM      8  C   UNL     1      17.607  33.339  29.687  1.00  0.00     0.004 C 
BRANCH   8   9
ATOM      9  C   UNL     1      19.087  32.882  29.579  1.00  0.00    -0.011 C 
ATOM     10  C   UNL     1      20.028  34.022  30.029  1.00  0.00     0.008 C 
BRANCH   9  11
ATOM     11  C   UNL     1      19.296  31.522  30.341  1.00  0.00    -0.002 C 
ATOM     12  C   UNL     1      20.227  31.536  31.583  1.00  0.00     0.005 C 
ATOM     13  C   UNL     1      19.781  30.305  29.503  1.00  0.00    -0.026 C 
ATOM     14  C   UNL     1      20.783  30.105  31.725  1.00  0.00     0.005 C 
ATOM     15  C   UNL     1      20.066  29.309  30.636  1.00  0.00    -0.001 C 
ATOM     16  C   UNL     1      18.697  29.679  28.603  1.00  0.00     0.007 C 
ATOM     17  C   UNL     1      21.031  30.676  28.656  1.00  0.00     0.012 C 
ATOM     18  C   UNL     1      20.595  27.922  30.200  1.00  0.00     0.004 C 
ATOM     19  C   UNL     1      19.125  28.291  28.068  1.00  0.00     0.005 C 
ATOM     20  C   UNL     1      19.599  27.277  29.167  1.00  0.00     0.003 C 
ATOM     21  C   UNL     1      22.103  27.866  29.807  1.00  0.00     0.085 C 
ATOM     22  C   UNL     1      20.168  25.929  28.574  1.00  0.00    -0.000 C 
ATOM     23  C   UNL     1      22.381  27.260  28.460  1.00  0.00     0.159 C 
ATOM     24  C   UNL     1      21.510  26.197  27.906  1.00  0.00     0.005 C 
ATOM     25  C   UNL     1      19.172  25.310  27.538  1.00  0.00     0.020 C 
ATOM     26  C   UNL     1      20.385  24.903  29.720  1.00  0.00     0.017 C 
ATOM     27  O   UNL     1      23.408  27.634  27.830  1.00  0.00    -0.295 OA
ATOM     28  C   UNL     1      21.944  25.436  26.882  1.00  0.00     0.055 C 
ATOM     29  C   UNL     1      19.739  24.078  26.822  1.00  0.00     0.081 C 
ATOM     30  C   UNL     1      21.121  24.356  26.308  1.00  0.00     0.156 C 
ATOM     31  O   UNL     1      21.597  23.636  25.390  1.00  0.00    -0.295 OA
ENDBRANCH   9  11
ENDBRANCH   8   9
ENDBRANCH   1   8
TORSDOF 6
ENDMDL
MODEL 5
REMARK VINA RESULT:    -6.079      2.767      5.223
REMARK INTER + INTRA:          -9.594
REMARK INTER:                  -8.487
REMARK INTRA:                  -1.108
REMARK UNBOUND:                -1.383
REMARK SMILES CC[C@@H](CC[C@@H](C)[C@@H]1CC[C@@H]2[C@@H]3CC(=O)C4=CC(=O)CC[C@]4(C)[C@@H]3CC[C@]21C)C(C)C
REMARK SMILES IDX 4 1 3 2 2 3 1 4 29 5 30 6 31 7 5 8 6 9 7 10 8 11 9 12 27 13
REMARK SMILES IDX 10 14 11 15 26 16 28 17 12 18 25 19 24 20 13 21 22 22 14 23
REMARK SMILES IDX 16 24 21 25 23 26 15 27 17 28 20 29 18 30 19 31
REMARK H PARENT
REMARK Flexibility Score: inf
ROOT
ATOM      1  C   UNL     1      17.657  25.100  28.071  1.00  0.00     0.004 C 
ENDROOT
BRANCH   1   2
ATOM      2  C   UNL     1      16.219  25.330  27.511  1.00  0.00    -0.009 C 
BRANCH   2   3
ATOM      3  C   UNL     1      15.435  26.195  28.539  1.00  0.00     0.000 C 
ATOM      4  C   UNL     1      16.307  27.111  29.397  1.00  0.00     0.004 C 
ENDBRANCH   2   3
BRANCH   2   5
ATOM      5  C   UNL     1      15.517  23.985  27.101  1.00  0.00    -0.014 C 
ATOM      6  C   UNL     1      14.878  23.253  28.293  1.00  0.00     0.007 C 
ATOM      7  C   UNL     1      16.414  23.035  26.292  1.00  0.00     0.007 C 
ENDBRANCH   2   5
ENDBRANCH   1   2
BRANCH   1   8
ATOM      8  C   UNL     1      18.837  25.554  27.181  1.00  0.00     0.004 C 
BRANCH   8   9
ATOM      9  C   UNL     1      20.254  25.285  27.755  1.00  0.00    -0.011 C 
ATOM     10  C   UNL     1      20.943  24.153  26.961  1.00  0.00     0.008 C 
BRANCH   9  11
ATOM     11  C   UNL     1      21.076  26.624  27.833  1.00  0.00    -0.002 C 
ATOM     12  C   UNL     1      22.565  26.523  28.260  1.00  0.00     0.005 C 
ATOM     13  C   UNL     1      20.494  27.766  28.714  1.00  0.00    -0.026 C 
ATOM     14  C   UNL     1      22.930  27.884  28.886  1.00  0.00     0.005 C 
ATOM     15  C   UNL     1      21.681  28.740  28.690  1.00  0.00    -0.001 C 
ATOM     16  C   UNL     1      19.287  28.497  28.092  1.00  0.00     0.007 C 
ATOM     17  C   UNL     1      20.130  27.243  30.132  1.00  0.00     0.012 C 
ATOM     18  C   UNL     1      21.494  30.051  29.490  1.00  0.00     0.004 C 
ATOM     19  C   UNL     1      18.973  29.820  28.832  1.00  0.00     0.005 C 
ATOM     20  C   UNL     1      20.194  30.790  28.999  1.00  0.00     0.003 C 
ATOM     21  C   UNL     1      21.658  29.931  31.036  1.00  0.00     0.085 C 
ATOM     22  C   UNL     1      19.874  32.056  29.887  1.00  0.00    -0.000 C 
ATOM     23  C   UNL     1      20.509  30.481  31.836  1.00  0.00     0.159 C 
ATOM     24  C   UNL     1      19.713  31.627  31.339  1.00  0.00     0.005 C 
ATOM     25  C   UNL     1      18.571  32.768  29.394  1.00  0.00     0.020 C 
ATOM     26  C   UNL     1      21.050  33.067  29.800  1.00  0.00     0.017 C 
ATOM     27  O   UNL     1      20.271  29.983  32.970  1.00  0.00    -0.295 OA
ATOM     28  C   UNL     1      18.927  32.319  32.187  1.00  0.00     0.055 C 
ATOM     29  C   UNL     1      18.132  33.917  30.310  1.00  0.00     0.081 C 
ATOM     30  C   UNL     1      18.129  33.477  31.744  1.00  0.00     0.156 C 
ATOM     31  O   UNL     1      17.456  34.125  32.590  1.00  0.00    -0.295 OA
ENDBRANCH   9  11
ENDBRANCH   8   9
ENDBRANCH   1   8
TORSDOF 6
ENDMDL
MODEL 6
REMARK VINA RESULT:    -6.009      1.352      2.141
REMARK INTER + INTRA:          -9.499
REMARK INTER:                  -7.900
REMARK INTRA:                  -1.599
REMARK UNBOUND:                -1.383
REMARK SMILES CC[C@@H](CC[C@@H](C)[C@@H]1CC[C@@H]2[C@@H]3CC(=O)C4=CC(=O)CC[C@]4(C)[C@@H]3CC[C@]21C)C(C)C
REMARK SMILES IDX 4 1 3 2 2 3 1 4 29 5 30 6 31 7 5 8 6 9 7 10 8 11 9 12 27 13
REMARK SMILES IDX 10 14 11 15 26 16 28 17 12 18 25 19 24 20 13 21 22 22 14 23
REMARK SMILES IDX 16 24 21 25 23 26 15 27 17 28 20 29 18 30 19 31
REMARK H PARENT
REMARK Flexibility Score: inf
ROOT
ATOM      1  C   UNL     1      17.231  25.939  29.317  1.00  0.00     0.004 C 
ENDROOT
BRANCH   1   2
ATOM      2  C   UNL     1      16.122  24.862  29.100  1.00  0.00    -0.009 C 
BRANCH   2   3
ATOM      3  C   UNL     1      15.370  25.207  27.783  1.00  0.00     0.000 C 
ATOM      4  C   UNL     1      15.601  24.219  26.639  1.00  0.00     0.004 C 
ENDBRANCH   2   3
BRANCH   2   5
ATOM      5  C   UNL     1      15.205  24.689  30.364  1.00  0.00    -0.014 C 
ATOM      6  C   UNL     1      15.279  25.883  31.330  1.00  0.00     0.007 C 
ATOM      7  C   UNL     1      15.420  23.364  31.113  1.00  0.00     0.007 C 
ENDBRANCH   2   5
ENDBRANCH   1   2
BRANCH   1   8
ATOM      8  C   UNL     1      17.188  27.184  28.399  1.00  0.00     0.004 C 
BRANCH   8   9
ATOM      9  C   UNL     1      17.087  28.551  29.128  1.00  0.00    -0.011 C 
ATOM     10  C   UNL     1      15.607  28.903  29.394  1.00  0.00     0.008 C 
BRANCH   9  11
ATOM     11  C   UNL     1      18.002  28.558  30.407  1.00  0.00    -0.002 C 
ATOM     12  C   UNL     1      17.364  29.039  31.738  1.00  0.00     0.005 C 
ATOM     13  C   UNL     1      19.346  29.334  30.316  1.00  0.00    -0.026 C 
ATOM     14  C   UNL     1      18.520  29.576  32.605  1.00  0.00     0.005 C 
ATOM     15  C   UNL     1      19.776  29.278  31.789  1.00  0.00    -0.001 C 
ATOM     16  C   UNL     1      20.438  28.622  29.492  1.00  0.00     0.007 C 
ATOM     17  C   UNL     1      19.122  30.774  29.775  1.00  0.00     0.012 C 
ATOM     18  C   UNL     1      21.116  29.974  32.128  1.00  0.00     0.004 C 
ATOM     19  C   UNL     1      21.833  29.254  29.718  1.00  0.00     0.005 C 
ATOM     20  C   UNL     1      22.261  29.389  31.221  1.00  0.00     0.003 C 
ATOM     21  C   UNL     1      21.065  31.529  32.230  1.00  0.00     0.085 C 
ATOM     22  C   UNL     1      23.618  30.171  31.420  1.00  0.00    -0.000 C 
ATOM     23  C   UNL     1      22.081  32.249  31.387  1.00  0.00     0.159 C 
ATOM     24  C   UNL     1      23.403  31.645  31.102  1.00  0.00     0.005 C 
ATOM     25  C   UNL     1      24.740  29.586  30.499  1.00  0.00     0.020 C 
ATOM     26  C   UNL     1      24.081  30.049  32.897  1.00  0.00     0.017 C 
ATOM     27  O   UNL     1      21.807  33.408  30.971  1.00  0.00    -0.295 OA
ATOM     28  C   UNL     1      24.412  32.415  30.647  1.00  0.00     0.055 C 
ATOM     29  C   UNL     1      26.038  30.402  30.543  1.00  0.00     0.081 C 
ATOM     30  C   UNL     1      25.750  31.863  30.365  1.00  0.00     0.156 C 
ATOM     31  O   UNL     1      26.673  32.636  29.998  1.00  0.00    -0.295 OA
ENDBRANCH   9  11
ENDBRANCH   8   9
ENDBRANCH   1   8
TORSDOF 6
ENDMDL
MODEL 7
REMARK VINA RESULT:    -5.620      4.040      9.627
REMARK INTER + INTRA:          -8.974
REMARK INTER:                  -8.924
REMARK INTRA:                  -0.050
REMARK UNBOUND:                -1.383
REMARK SMILES CC[C@@H](CC[C@@H](C)[C@@H]1CC[C@@H]2[C@@H]3CC(=O)C4=CC(=O)CC[C@]4(C)[C@@H]3CC[C@]21C)C(C)C
REMARK SMILES IDX 4 1 3 2 2 3 1 4 29 5 30 6 31 7 5 8 6 9 7 10 8 11 9 12 27 13
REMARK SMILES IDX 10 14 11 15 26 16 28 17 12 18 25 19 24 20 13 21 22 22 14 23
REMARK SMILES IDX 16 24 21 25 23 26 15 27 17 28 20 29 18 30 19 31
REMARK H PARENT
REMARK Flexibility Score: inf
ROOT
ATOM      1  C   UNL     1      30.924  30.401  29.553  1.00  0.00     0.004 C 
ENDROOT
BRANCH   1   2
ATOM      2  C   UNL     1      31.939  31.197  28.677  1.00  0.00    -0.009 C 
BRANCH   2   3
ATOM      3  C   UNL     1      33.099  30.235  28.290  1.00  0.00     0.000 C 
ATOM      4  C   UNL     1      33.249  29.987  26.790  1.00  0.00     0.004 C 
ENDBRANCH   2   3
BRANCH   2   5
ATOM      5  C   UNL     1      32.389  32.541  29.358  1.00  0.00    -0.014 C 
ATOM      6  C   UNL     1      32.535  33.701  28.360  1.00  0.00     0.007 C 
ATOM      7  C   UNL     1      33.647  32.406  30.230  1.00  0.00     0.007 C 
ENDBRANCH   2   5
ENDBRANCH   1   2
BRANCH   1   8
ATOM      8  C   UNL     1      30.042  31.220  30.525  1.00  0.00     0.004 C 
BRANCH   8   9
ATOM      9  C   UNL     1      28.644  31.625  29.984  1.00  0.00    -0.011 C 
ATOM     10  C   UNL     1      28.268  30.744  28.772  1.00  0.00     0.008 C 
BRANCH   9  11
ATOM     11  C   UNL     1      27.586  31.623  31.148  1.00  0.00    -0.002 C 
ATOM     12  C   UNL     1      27.650  30.456  32.168  1.00  0.00     0.005 C 
ATOM     13  C   UNL     1      26.086  31.708  30.747  1.00  0.00    -0.026 C 
ATOM     14  C   UNL     1      26.227  30.298  32.739  1.00  0.00     0.005 C 
ATOM     15  C   UNL     1      25.438  31.447  32.114  1.00  0.00    -0.001 C 
ATOM     16  C   UNL     1      25.630  33.106  30.282  1.00  0.00     0.007 C 
ATOM     17  C   UNL     1      25.738  30.646  29.666  1.00  0.00     0.012 C 
ATOM     18  C   UNL     1      23.891  31.441  32.138  1.00  0.00     0.004 C 
ATOM     19  C   UNL     1      24.087  33.219  30.229  1.00  0.00     0.005 C 
ATOM     20  C   UNL     1      23.348  32.794  31.546  1.00  0.00     0.003 C 
ATOM     21  C   UNL     1      23.210  30.147  31.597  1.00  0.00     0.085 C 
ATOM     22  C   UNL     1      21.775  32.779  31.406  1.00  0.00    -0.000 C 
ATOM     23  C   UNL     1      22.174  30.379  30.532  1.00  0.00     0.159 C 
ATOM     24  C   UNL     1      21.358  31.615  30.516  1.00  0.00     0.005 C 
ATOM     25  C   UNL     1      21.255  34.125  30.802  1.00  0.00     0.020 C 
ATOM     26  C   UNL     1      21.127  32.584  32.804  1.00  0.00     0.017 C 
ATOM     27  O   UNL     1      21.971  29.471  29.680  1.00  0.00    -0.295 OA
ATOM     28  C   UNL     1      20.227  31.667  29.785  1.00  0.00     0.055 C 
ATOM     29  C   UNL     1      19.749  34.108  30.508  1.00  0.00     0.081 C 
ATOM     30  C   UNL     1      19.374  32.869  29.751  1.00  0.00     0.156 C 
ATOM     31  O   UNL     1      18.296  32.844  29.098  1.00  0.00    -0.295 OA
ENDBRANCH   9  11
ENDBRANCH   8   9
ENDBRANCH   1   8
TORSDOF 6
ENDMDL
