MODEL 1
REMARK VINA RESULT:    -4.522      0.000      0.000
REMARK INTER + INTRA:          -7.361
REMARK INTER:                  -6.108
REMARK INTRA:                  -1.252
REMARK UNBOUND:                -1.252
REMARK SMILES CC(=O)CCC=C(C)CCC=C(C)C
REMARK SMILES IDX 7 1 6 2 8 3 9 4 10 5 11 6 13 7 12 8 14 9 5 10 4 11 2 12 3 13
REMARK SMILES IDX 1 14
REMARK H PARENT
REMARK Flexibility Score: inf
ROOT
ATOM      1  C   UNL     1     -16.265  11.793 -28.123  1.00  0.00    -0.077 C 
ATOM      2  C   UNL     1     -16.752  13.049 -28.248  1.00  0.00    -0.028 C 
ATOM      3  C   UNL     1     -16.403  10.772 -29.228  1.00  0.00     0.039 C 
ENDROOT
BRANCH   1   4
ATOM      4  C   UNL     1     -15.588  11.395 -26.829  1.00  0.00     0.034 C 
BRANCH   4   5
ATOM      5  C   UNL     1     -14.122  11.023 -27.074  1.00  0.00     0.032 C 
BRANCH   5   6
ATOM      6  C   UNL     1     -13.251  12.252 -27.170  1.00  0.00    -0.028 C 
ATOM      7  C   UNL     1     -11.794  13.877 -28.341  1.00  0.00     0.039 C 
ATOM      8  C   UNL     1     -12.650  12.638 -28.317  1.00  0.00    -0.080 C 
ATOM      9  C   UNL     1     -12.808  11.854 -29.596  1.00  0.00     0.039 C 
ENDBRANCH   5   6
ENDBRANCH   4   5
ENDBRANCH   1   4
BRANCH   2  10
ATOM     10  C   UNL     1     -17.394  13.599 -29.498  1.00  0.00     0.035 C 
BRANCH  10  11
ATOM     11  C   UNL     1     -16.399  14.392 -30.355  1.00  0.00     0.079 C 
BRANCH  11  12
ATOM     12  C   UNL     1     -16.347  13.878 -31.773  1.00  0.00     0.130 C 
ATOM     13  O   UNL     1     -17.205  14.224 -32.571  1.00  0.00    -0.300 OA
ATOM     14  C   UNL     1     -15.254  12.958 -32.229  1.00  0.00     0.087 C 
ENDBRANCH  11  12
ENDBRANCH  10  11
ENDBRANCH   2  10
TORSDOF 6
ENDMDL
MODEL 2
REMARK VINA RESULT:    -4.516      1.441      3.449
REMARK INTER + INTRA:          -7.353
REMARK INTER:                  -6.276
REMARK INTRA:                  -1.077
REMARK UNBOUND:                -1.252
REMARK SMILES CC(=O)CCC=C(C)CCC=C(C)C
REMARK SMILES IDX 7 1 6 2 8 3 9 4 10 5 11 6 13 7 12 8 14 9 5 10 4 11 2 12 3 13
REMARK SMILES IDX 1 14
REMARK H PARENT
REMARK Flexibility Score: inf
ROOT
ATOM      1  C   UNL     1     -12.227  14.074 -30.041  1.00  0.00    -0.077 C 
ATOM      2  C   UNL     1     -13.506  14.494 -30.169  1.00  0.00    -0.028 C 
ATOM      3  C   UNL     1     -11.418  13.611 -31.230  1.00  0.00     0.039 C 
ENDROOT
BRANCH   1   4
ATOM      4  C   UNL     1     -11.601  14.042 -28.664  1.00  0.00     0.034 C 
BRANCH   4   5
ATOM      5  C   UNL     1     -11.677  12.634 -28.063  1.00  0.00     0.032 C 
BRANCH   5   6
ATOM      6  C   UNL     1     -12.904  12.469 -27.200  1.00  0.00    -0.028 C 
ATOM      7  C   UNL     1     -15.171  11.623 -26.670  1.00  0.00     0.039 C 
ATOM      8  C   UNL     1     -13.979  11.747 -27.583  1.00  0.00    -0.080 C 
ATOM      9  C   UNL     1     -14.028  11.049 -28.919  1.00  0.00     0.039 C 
ENDBRANCH   5   6
ENDBRANCH   4   5
ENDBRANCH   1   4
BRANCH   2  10
ATOM     10  C   UNL     1     -14.235  14.635 -31.484  1.00  0.00     0.035 C 
BRANCH  10  11
ATOM     11  C   UNL     1     -15.025  13.369 -31.842  1.00  0.00     0.079 C 
BRANCH  11  12
ATOM     12  C   UNL     1     -16.514  13.608 -31.801  1.00  0.00     0.130 C 
ATOM     13  O   UNL     1     -17.048  14.244 -32.697  1.00  0.00    -0.300 OA
ATOM     14  C   UNL     1     -17.359  13.069 -30.685  1.00  0.00     0.087 C 
ENDBRANCH  11  12
ENDBRANCH  10  11
ENDBRANCH   2  10
TORSDOF 6
ENDMDL
MODEL 3
REMARK VINA RESULT:    -4.494      2.740      5.896
REMARK INTER + INTRA:          -7.323
REMARK INTER:                  -6.602
REMARK INTRA:                  -0.721
REMARK UNBOUND:                -1.252
REMARK SMILES CC(=O)CCC=C(C)CCC=C(C)C
REMARK SMILES IDX 7 1 6 2 8 3 9 4 10 5 11 6 13 7 12 8 14 9 5 10 4 11 2 12 3 13
REMARK SMILES IDX 1 14
REMARK H PARENT
REMARK Flexibility Score: inf
ROOT
ATOM      1  C   UNL     1     -14.197  14.120 -31.040  1.00  0.00    -0.077 C 
ATOM      2  C   UNL     1     -13.181  13.434 -30.468  1.00  0.00    -0.028 C 
ATOM      3  C   UNL     1     -14.358  15.611 -30.850  1.00  0.00     0.039 C 
ENDROOT
BRANCH   1   4
ATOM      4  C   UNL     1     -15.213  13.367 -31.871  1.00  0.00     0.034 C 
BRANCH   4   5
ATOM      5  C   UNL     1     -16.603  13.999 -31.735  1.00  0.00     0.032 C 
BRANCH   5   6
ATOM      6  C   UNL     1     -17.616  12.999 -31.235  1.00  0.00    -0.028 C 
ATOM      7  C   UNL     1     -18.913  11.806 -29.494  1.00  0.00     0.039 C 
ATOM      8  C   UNL     1     -17.888  12.823 -29.924  1.00  0.00    -0.080 C 
ATOM      9  C   UNL     1     -17.186  13.625 -28.855  1.00  0.00     0.039 C 
ENDBRANCH   5   6
ENDBRANCH   4   5
ENDBRANCH   1   4
BRANCH   2  10
ATOM     10  C   UNL     1     -12.066  14.062 -29.667  1.00  0.00     0.035 C 
BRANCH  10  11
ATOM     11  C   UNL     1     -11.348  13.038 -28.778  1.00  0.00     0.079 C 
BRANCH  11  12
ATOM     12  C   UNL     1     -11.669  13.242 -27.318  1.00  0.00     0.130 C 
ATOM     13  O   UNL     1     -11.697  14.374 -26.859  1.00  0.00    -0.300 OA
ATOM     14  C   UNL     1     -11.969  12.081 -26.417  1.00  0.00     0.087 C 
ENDBRANCH  11  12
ENDBRANCH  10  11
ENDBRANCH   2  10
TORSDOF 6
ENDMDL
MODEL 4
REMARK VINA RESULT:    -4.438      1.910      3.609
REMARK INTER + INTRA:          -7.247
REMARK INTER:                  -5.927
REMARK INTRA:                  -1.320
REMARK UNBOUND:                -1.252
REMARK SMILES CC(=O)CCC=C(C)CCC=C(C)C
REMARK SMILES IDX 7 1 6 2 8 3 9 4 10 5 11 6 13 7 12 8 14 9 5 10 4 11 2 12 3 13
REMARK SMILES IDX 1 14
REMARK H PARENT
REMARK Flexibility Score: inf
ROOT
ATOM      1  C   UNL     1     -17.895  12.944 -29.928  1.00  0.00    -0.077 C 
ATOM      2  C   UNL     1     -17.624  12.918 -31.253  1.00  0.00    -0.028 C 
ATOM      3  C   UNL     1     -17.195  13.902 -28.991  1.00  0.00     0.039 C 
ENDROOT
BRANCH   1   4
ATOM      4  C   UNL     1     -18.906  11.969 -29.367  1.00  0.00     0.034 C 
BRANCH   4   5
ATOM      5  C   UNL     1     -18.347  10.542 -29.372  1.00  0.00     0.032 C 
BRANCH   5   6
ATOM      6  C   UNL     1     -17.382  10.325 -28.232  1.00  0.00    -0.028 C 
ATOM      7  C   UNL     1     -15.144   9.973 -27.229  1.00  0.00     0.039 C 
ATOM      8  C   UNL     1     -16.051  10.185 -28.413  1.00  0.00    -0.080 C 
ATOM      9  C   UNL     1     -15.430  10.235 -29.787  1.00  0.00     0.039 C 
ENDBRANCH   5   6
ENDBRANCH   4   5
ENDBRANCH   1   4
BRANCH   2  10
ATOM     10  C   UNL     1     -16.687  13.870 -31.955  1.00  0.00     0.035 C 
BRANCH  10  11
ATOM     11  C   UNL     1     -15.302  13.250 -32.184  1.00  0.00     0.079 C 
BRANCH  11  12
ATOM     12  C   UNL     1     -14.213  14.049 -31.513  1.00  0.00     0.130 C 
ATOM     13  O   UNL     1     -13.806  15.075 -32.037  1.00  0.00    -0.300 OA
ATOM     14  C   UNL     1     -13.625  13.617 -30.202  1.00  0.00     0.087 C 
ENDBRANCH  11  12
ENDBRANCH  10  11
ENDBRANCH   2  10
TORSDOF 6
ENDMDL
MODEL 5
REMARK VINA RESULT:    -4.388      1.974      3.979
REMARK INTER + INTRA:          -7.180
REMARK INTER:                  -5.899
REMARK INTRA:                  -1.280
REMARK UNBOUND:                -1.252
REMARK SMILES CC(=O)CCC=C(C)CCC=C(C)C
REMARK SMILES IDX 7 1 6 2 8 3 9 4 10 5 11 6 13 7 12 8 14 9 5 10 4 11 2 12 3 13
REMARK SMILES IDX 1 14
REMARK H PARENT
REMARK Flexibility Score: inf
ROOT
ATOM      1  C   UNL     1     -13.629  14.590 -31.629  1.00  0.00    -0.077 C 
ATOM      2  C   UNL     1     -14.534  13.640 -31.957  1.00  0.00    -0.028 C 
ATOM      3  C   UNL     1     -14.032  15.860 -30.914  1.00  0.00     0.039 C 
ENDROOT
BRANCH   1   4
ATOM      4  C   UNL     1     -12.180  14.387 -32.013  1.00  0.00     0.034 C 
BRANCH   4   5
ATOM      5  C   UNL     1     -11.563  13.232 -31.217  1.00  0.00     0.032 C 
BRANCH   5   6
ATOM      6  C   UNL     1     -11.304  13.628 -29.784  1.00  0.00    -0.028 C 
ATOM      7  C   UNL     1     -11.638  13.506 -27.332  1.00  0.00     0.039 C 
ATOM      8  C   UNL     1     -11.946  13.062 -28.739  1.00  0.00    -0.080 C 
ATOM      9  C   UNL     1     -12.981  11.982 -28.936  1.00  0.00     0.039 C 
ENDBRANCH   5   6
ENDBRANCH   4   5
ENDBRANCH   1   4
BRANCH   2  10
ATOM     10  C   UNL     1     -15.996  13.682 -31.584  1.00  0.00     0.035 C 
BRANCH  10  11
ATOM     11  C   UNL     1     -16.336  12.679 -30.474  1.00  0.00     0.079 C 
BRANCH  11  12
ATOM     12  C   UNL     1     -16.479  13.355 -29.133  1.00  0.00     0.130 C 
ATOM     13  O   UNL     1     -16.570  14.572 -29.077  1.00  0.00    -0.300 OA
ATOM     14  C   UNL     1     -16.524  12.561 -27.861  1.00  0.00     0.087 C 
ENDBRANCH  11  12
ENDBRANCH  10  11
ENDBRANCH   2  10
TORSDOF 6
ENDMDL
MODEL 6
REMARK VINA RESULT:    -4.325      9.380     11.732
REMARK INTER + INTRA:          -7.095
REMARK INTER:                  -6.226
REMARK INTRA:                  -0.869
REMARK UNBOUND:                -1.252
REMARK SMILES CC(=O)CCC=C(C)CCC=C(C)C
REMARK SMILES IDX 7 1 6 2 8 3 9 4 10 5 11 6 13 7 12 8 14 9 5 10 4 11 2 12 3 13
REMARK SMILES IDX 1 14
REMARK H PARENT
REMARK Flexibility Score: inf
ROOT
ATOM      1  C   UNL     1     -25.362  10.618 -28.844  1.00  0.00    -0.077 C 
ATOM      2  C   UNL     1     -24.993  11.913 -28.709  1.00  0.00    -0.028 C 
ATOM      3  C   UNL     1     -25.194   9.875 -30.149  1.00  0.00     0.039 C 
ENDROOT
BRANCH   1   4
ATOM      4  C   UNL     1     -25.985   9.907 -27.663  1.00  0.00     0.034 C 
BRANCH   4   5
ATOM      5  C   UNL     1     -27.422  10.386 -27.434  1.00  0.00     0.032 C 
BRANCH   5   6
ATOM      6  C   UNL     1     -28.246  10.279 -28.694  1.00  0.00    -0.028 C 
ATOM      7  C   UNL     1     -29.697  11.154 -30.501  1.00  0.00     0.039 C 
ATOM      8  C   UNL     1     -28.892  11.332 -29.239  1.00  0.00    -0.080 C 
ATOM      9  C   UNL     1     -28.836  12.705 -28.617  1.00  0.00     0.039 C 
ENDBRANCH   5   6
ENDBRANCH   4   5
ENDBRANCH   1   4
BRANCH   2  10
ATOM     10  C   UNL     1     -24.308  12.725 -29.780  1.00  0.00     0.035 C 
BRANCH  10  11
ATOM     11  C   UNL     1     -25.148  13.935 -30.212  1.00  0.00     0.079 C 
BRANCH  11  12
ATOM     12  C   UNL     1     -24.291  15.037 -30.782  1.00  0.00     0.130 C 
ATOM     13  O   UNL     1     -24.722  16.180 -30.818  1.00  0.00    -0.300 OA
ATOM     14  C   UNL     1     -22.909  14.762 -31.297  1.00  0.00     0.087 C 
ENDBRANCH  11  12
ENDBRANCH  10  11
ENDBRANCH   2  10
TORSDOF 6
ENDMDL
MODEL 7
REMARK VINA RESULT:    -4.305      2.440      4.562
REMARK INTER + INTRA:          -7.067
REMARK INTER:                  -5.973
REMARK INTRA:                  -1.094
REMARK UNBOUND:                -1.252
REMARK SMILES CC(=O)CCC=C(C)CCC=C(C)C
REMARK SMILES IDX 7 1 6 2 8 3 9 4 10 5 11 6 13 7 12 8 14 9 5 10 4 11 2 12 3 13
REMARK SMILES IDX 1 14
REMARK H PARENT
REMARK Flexibility Score: inf
ROOT
ATOM      1  C   UNL     1     -15.477  11.891 -28.451  1.00  0.00    -0.077 C 
ATOM      2  C   UNL     1     -14.454  12.131 -27.599  1.00  0.00    -0.028 C 
ATOM      3  C   UNL     1     -15.417  10.780 -29.474  1.00  0.00     0.039 C 
ENDROOT
BRANCH   1   4
ATOM      4  C   UNL     1     -16.702  12.776 -28.392  1.00  0.00     0.034 C 
BRANCH   4   5
ATOM      5  C   UNL     1     -16.909  13.510 -29.722  1.00  0.00     0.032 C 
BRANCH   5   6
ATOM      6  C   UNL     1     -15.987  14.698 -29.844  1.00  0.00    -0.028 C 
ATOM      7  C   UNL     1     -14.093  15.974 -30.806  1.00  0.00     0.039 C 
ATOM      8  C   UNL     1     -14.976  14.754 -30.738  1.00  0.00    -0.080 C 
ATOM      9  C   UNL     1     -14.694  13.616 -31.687  1.00  0.00     0.039 C 
ENDBRANCH   5   6
ENDBRANCH   4   5
ENDBRANCH   1   4
BRANCH   2  10
ATOM     10  C   UNL     1     -13.202  11.293 -27.506  1.00  0.00     0.035 C 
BRANCH  10  11
ATOM     11  C   UNL     1     -12.067  12.032 -26.784  1.00  0.00     0.079 C 
BRANCH  11  12
ATOM     12  C   UNL     1     -11.765  13.362 -27.430  1.00  0.00     0.130 C 
ATOM     13  O   UNL     1     -11.776  14.378 -26.753  1.00  0.00    -0.300 OA
ATOM     14  C   UNL     1     -11.437  13.461 -28.891  1.00  0.00     0.087 C 
ENDBRANCH  11  12
ENDBRANCH  10  11
ENDBRANCH   2  10
TORSDOF 6
ENDMDL
MODEL 8
REMARK VINA RESULT:    -4.217      1.714      2.666
REMARK INTER + INTRA:          -6.949
REMARK INTER:                  -5.466
REMARK INTRA:                  -1.483
REMARK UNBOUND:                -1.252
REMARK SMILES CC(=O)CCC=C(C)CCC=C(C)C
REMARK SMILES IDX 7 1 6 2 8 3 9 4 10 5 11 6 13 7 12 8 14 9 5 10 4 11 2 12 3 13
REMARK SMILES IDX 1 14
REMARK H PARENT
REMARK Flexibility Score: inf
ROOT
ATOM      1  C   UNL     1     -16.496  12.901 -29.596  1.00  0.00    -0.077 C 
ATOM      2  C   UNL     1     -15.964  12.385 -30.728  1.00  0.00    -0.028 C 
ATOM      3  C   UNL     1     -16.640  14.392 -29.392  1.00  0.00     0.039 C 
ENDROOT
BRANCH   1   4
ATOM      4  C   UNL     1     -16.932  11.959 -28.496  1.00  0.00     0.034 C 
BRANCH   4   5
ATOM      5  C   UNL     1     -15.774  11.051 -28.066  1.00  0.00     0.032 C 
BRANCH   5   6
ATOM      6  C   UNL     1     -14.717  11.825 -27.317  1.00  0.00    -0.028 C 
ATOM      7  C   UNL     1     -12.421  12.661 -26.910  1.00  0.00     0.039 C 
ATOM      8  C   UNL     1     -13.424  11.867 -27.705  1.00  0.00    -0.080 C 
ATOM      9  C   UNL     1     -12.942  11.131 -28.931  1.00  0.00     0.039 C 
ENDBRANCH   5   6
ENDBRANCH   4   5
ENDBRANCH   1   4
BRANCH   2  10
ATOM     10  C   UNL     1     -15.544  13.200 -31.927  1.00  0.00     0.035 C 
BRANCH  10  11
ATOM     11  C   UNL     1     -14.020  13.218 -32.107  1.00  0.00     0.079 C 
BRANCH  11  12
ATOM     12  C   UNL     1     -13.410  14.496 -31.586  1.00  0.00     0.130 C 
ATOM     13  O   UNL     1     -13.205  15.424 -32.354  1.00  0.00    -0.300 OA
ATOM     14  C   UNL     1     -13.060  14.657 -30.136  1.00  0.00     0.087 C 
ENDBRANCH  11  12
ENDBRANCH  10  11
ENDBRANCH   2  10
TORSDOF 6
ENDMDL
MODEL 9
REMARK VINA RESULT:    -4.195      2.409      4.401
REMARK INTER + INTRA:          -6.919
REMARK INTER:                  -5.566
REMARK INTRA:                  -1.353
REMARK UNBOUND:                -1.252
REMARK SMILES CC(=O)CCC=C(C)CCC=C(C)C
REMARK SMILES IDX 7 1 6 2 8 3 9 4 10 5 11 6 13 7 12 8 14 9 5 10 4 11 2 12 3 13
REMARK SMILES IDX 1 14
REMARK H PARENT
REMARK Flexibility Score: inf
ROOT
ATOM      1  C   UNL     1     -17.297  13.154 -30.316  1.00  0.00    -0.077 C 
ATOM      2  C   UNL     1     -17.702  11.865 -30.258  1.00  0.00    -0.028 C 
ATOM      3  C   UNL     1     -17.145  13.998 -29.071  1.00  0.00     0.039 C 
ENDROOT
BRANCH   1   4
ATOM      4  C   UNL     1     -17.014  13.773 -31.667  1.00  0.00     0.034 C 
BRANCH   4   5
ATOM      5  C   UNL     1     -15.677  13.274 -32.225  1.00  0.00     0.032 C 
BRANCH   5   6
ATOM      6  C   UNL     1     -14.510  13.944 -31.541  1.00  0.00    -0.028 C 
ATOM      7  C   UNL     1     -12.512  14.013 -30.078  1.00  0.00     0.039 C 
ATOM      8  C   UNL     1     -13.658  13.282 -30.729  1.00  0.00    -0.080 C 
ATOM      9  C   UNL     1     -13.818  11.809 -30.445  1.00  0.00     0.039 C 
ENDBRANCH   5   6
ENDBRANCH   4   5
ENDBRANCH   1   4
BRANCH   2  10
ATOM     10  C   UNL     1     -17.960  11.104 -28.980  1.00  0.00     0.035 C 
BRANCH  10  11
ATOM     11  C   UNL     1     -16.732  10.299 -28.532  1.00  0.00     0.079 C 
BRANCH  11  12
ATOM     12  C   UNL     1     -16.272  10.702 -27.153  1.00  0.00     0.130 C 
ATOM     13  O   UNL     1     -16.825  10.232 -26.170  1.00  0.00    -0.300 OA
ATOM     14  C   UNL     1     -15.135  11.662 -26.961  1.00  0.00     0.087 C 
ENDBRANCH  11  12
ENDBRANCH  10  11
ENDBRANCH   2  10
TORSDOF 6
ENDMDL
