MODEL 1
REMARK VINA RESULT:    -6.119      0.000      0.000
REMARK INTER + INTRA:          -8.451
REMARK INTER:                  -7.729
REMARK INTRA:                  -0.721
REMARK UNBOUND:                -0.721
REMARK SMILES O=C(C=Cc1ccc(O)cc1)c1ccc(O)cc1O
REMARK SMILES IDX 4 1 3 2 5 3 6 4 7 5 8 6 11 7 10 8 9 9 2 11 1 12 12 13 18 14
REMARK SMILES IDX 13 15 17 16 14 17 15 18 19 19 16 21
REMARK H PARENT 9 10 19 20 16 22
REMARK Flexibility Score: inf
ROOT
ATOM      1  C   UNL     1     -19.103  21.646  40.858  1.00  0.00     0.012 C 
ATOM      2  C   UNL     1     -20.301  22.236  40.970  1.00  0.00     0.053 C 
ENDROOT
BRANCH   1   3
ATOM      3  C   UNL     1     -18.506  20.790  41.912  1.00  0.00    -0.025 A 
ATOM      4  C   UNL     1     -17.964  19.518  41.640  1.00  0.00     0.012 A 
ATOM      5  C   UNL     1     -17.424  18.743  42.671  1.00  0.00     0.047 A 
ATOM      6  C   UNL     1     -17.426  19.221  43.988  1.00  0.00     0.115 A 
ATOM      7  C   UNL     1     -18.518  21.252  43.240  1.00  0.00     0.012 A 
ATOM      8  C   UNL     1     -17.976  20.474  44.268  1.00  0.00     0.047 A 
BRANCH   6   9
ATOM      9  O   UNL     1     -16.889  18.458  45.022  1.00  0.00    -0.508 OA
ATOM     10  H   UNL     1     -16.894  17.445  44.990  1.00  0.00     0.293 HD
ENDBRANCH   6   9
ENDBRANCH   1   3
BRANCH   2  11
ATOM     11  C   UNL     1     -20.871  23.071  39.890  1.00  0.00     0.189 C 
ATOM     12  O   UNL     1     -20.812  24.330  39.970  1.00  0.00    -0.289 OA
BRANCH  11  13
ATOM     13  C   UNL     1     -21.470  22.456  38.682  1.00  0.00     0.064 A 
ATOM     14  C   UNL     1     -20.988  22.737  37.385  1.00  0.00     0.130 A 
ATOM     15  C   UNL     1     -22.532  21.546  38.834  1.00  0.00     0.020 A 
ATOM     16  C   UNL     1     -21.596  22.142  36.269  1.00  0.00     0.093 A 
ATOM     17  C   UNL     1     -23.126  20.953  37.718  1.00  0.00     0.047 A 
ATOM     18  C   UNL     1     -22.664  21.251  36.434  1.00  0.00     0.119 A 
BRANCH  14  19
ATOM     19  O   UNL     1     -19.894  23.583  37.202  1.00  0.00    -0.507 OA
ATOM     20  H   UNL     1     -19.901  24.542  37.529  1.00  0.00     0.293 HD
ENDBRANCH  14  19
BRANCH  18  21
ATOM     21  O   UNL     1     -23.270  20.656  35.330  1.00  0.00    -0.508 OA
ATOM     22  H   UNL     1     -23.803  19.798  35.416  1.00  0.00     0.293 HD
ENDBRANCH  18  21
ENDBRANCH  11  13
ENDBRANCH   2  11
TORSDOF 6
ENDMDL
MODEL 2
REMARK VINA RESULT:    -5.830      1.308      2.057
REMARK INTER + INTRA:          -8.086
REMARK INTER:                  -7.546
REMARK INTRA:                  -0.540
REMARK UNBOUND:                -0.721
REMARK SMILES O=C(C=Cc1ccc(O)cc1)c1ccc(O)cc1O
REMARK SMILES IDX 4 1 3 2 5 3 6 4 7 5 8 6 11 7 10 8 9 9 2 11 1 12 12 13 18 14
REMARK SMILES IDX 13 15 17 16 14 17 15 18 19 19 16 21
REMARK H PARENT 9 10 19 20 16 22
REMARK Flexibility Score: inf
ROOT
ATOM      1  C   UNL     1     -19.757  21.504  41.149  1.00  0.00     0.012 C 
ATOM      2  C   UNL     1     -21.074  21.338  40.967  1.00  0.00     0.053 C 
ENDROOT
BRANCH   1   3
ATOM      3  C   UNL     1     -18.929  20.624  42.010  1.00  0.00    -0.025 A 
ATOM      4  C   UNL     1     -18.153  19.568  41.490  1.00  0.00     0.012 A 
ATOM      5  C   UNL     1     -17.399  18.757  42.343  1.00  0.00     0.047 A 
ATOM      6  C   UNL     1     -17.416  18.981  43.726  1.00  0.00     0.115 A 
ATOM      7  C   UNL     1     -18.951  20.828  43.400  1.00  0.00     0.012 A 
ATOM      8  C   UNL     1     -18.194  20.016  44.250  1.00  0.00     0.047 A 
BRANCH   6   9
ATOM      9  O   UNL     1     -16.666  18.180  44.585  1.00  0.00    -0.508 OA
ATOM     10  H   UNL     1     -17.000  17.273  44.890  1.00  0.00     0.293 HD
ENDBRANCH   6   9
ENDBRANCH   1   3
BRANCH   2  11
ATOM     11  C   UNL     1     -21.866  22.228  40.089  1.00  0.00     0.189 C 
ATOM     12  O   UNL     1     -22.878  22.827  40.547  1.00  0.00    -0.289 OA
BRANCH  11  13
ATOM     13  C   UNL     1     -21.462  22.472  38.684  1.00  0.00     0.064 A 
ATOM     14  C   UNL     1     -21.871  21.622  37.632  1.00  0.00     0.130 A 
ATOM     15  C   UNL     1     -20.670  23.595  38.385  1.00  0.00     0.020 A 
ATOM     16  C   UNL     1     -21.451  21.884  36.319  1.00  0.00     0.093 A 
ATOM     17  C   UNL     1     -20.264  23.852  37.074  1.00  0.00     0.047 A 
ATOM     18  C   UNL     1     -20.648  22.997  36.039  1.00  0.00     0.119 A 
BRANCH  14  19
ATOM     19  O   UNL     1     -22.710  20.537  37.882  1.00  0.00    -0.507 OA
ATOM     20  H   UNL     1     -22.841  20.169  38.817  1.00  0.00     0.293 HD
ENDBRANCH  14  19
BRANCH  18  21
ATOM     21  O   UNL     1     -20.230  23.263  34.737  1.00  0.00    -0.508 OA
ATOM     22  H   UNL     1     -20.874  23.217  33.955  1.00  0.00     0.293 HD
ENDBRANCH  18  21
ENDBRANCH  11  13
ENDBRANCH   2  11
TORSDOF 6
ENDMDL
MODEL 3
REMARK VINA RESULT:    -5.511      2.768      4.216
REMARK INTER + INTRA:          -7.682
REMARK INTER:                  -6.973
REMARK INTRA:                  -0.710
REMARK UNBOUND:                -0.721
REMARK SMILES O=C(C=Cc1ccc(O)cc1)c1ccc(O)cc1O
REMARK SMILES IDX 4 1 3 2 5 3 6 4 7 5 8 6 11 7 10 8 9 9 2 11 1 12 12 13 18 14
REMARK SMILES IDX 13 15 17 16 14 17 15 18 19 19 16 21
REMARK H PARENT 9 10 19 20 16 22
REMARK Flexibility Score: inf
ROOT
ATOM      1  C   UNL     1     -18.825  21.813  42.016  1.00  0.00     0.012 C 
ATOM      2  C   UNL     1     -19.491  21.930  40.860  1.00  0.00     0.053 C 
ENDROOT
BRANCH   1   3
ATOM      3  C   UNL     1     -18.204  20.549  42.482  1.00  0.00    -0.025 A 
ATOM      4  C   UNL     1     -17.876  19.496  41.603  1.00  0.00     0.012 A 
ATOM      5  C   UNL     1     -17.303  18.318  42.093  1.00  0.00     0.047 A 
ATOM      6  C   UNL     1     -17.059  18.169  43.464  1.00  0.00     0.115 A 
ATOM      7  C   UNL     1     -17.970  20.380  43.858  1.00  0.00     0.012 A 
ATOM      8  C   UNL     1     -17.396  19.201  44.343  1.00  0.00     0.047 A 
BRANCH   6   9
ATOM      9  O   UNL     1     -16.487  17.000  43.961  1.00  0.00    -0.508 OA
ATOM     10  H   UNL     1     -17.045  16.175  44.146  1.00  0.00     0.293 HD
ENDBRANCH   6   9
ENDBRANCH   1   3
BRANCH   2  11
ATOM     11  C   UNL     1     -20.085  23.212  40.420  1.00  0.00     0.189 C 
ATOM     12  O   UNL     1     -19.865  23.640  39.253  1.00  0.00    -0.289 OA
BRANCH  11  13
ATOM     13  C   UNL     1     -20.981  23.986  41.312  1.00  0.00     0.064 A 
ATOM     14  C   UNL     1     -20.565  25.189  41.926  1.00  0.00     0.130 A 
ATOM     15  C   UNL     1     -22.290  23.524  41.533  1.00  0.00     0.020 A 
ATOM     16  C   UNL     1     -21.443  25.879  42.774  1.00  0.00     0.093 A 
ATOM     17  C   UNL     1     -23.159  24.222  42.374  1.00  0.00     0.047 A 
ATOM     18  C   UNL     1     -22.739  25.397  43.000  1.00  0.00     0.119 A 
BRANCH  14  19
ATOM     19  O   UNL     1     -19.297  25.711  41.676  1.00  0.00    -0.507 OA
ATOM     20  H   UNL     1     -19.077  26.684  41.852  1.00  0.00     0.293 HD
ENDBRANCH  14  19
BRANCH  18  21
ATOM     21  O   UNL     1     -23.615  26.080  43.840  1.00  0.00    -0.508 OA
ATOM     22  H   UNL     1     -23.290  26.809  44.466  1.00  0.00     0.293 HD
ENDBRANCH  18  21
ENDBRANCH  11  13
ENDBRANCH   2  11
TORSDOF 6
ENDMDL
MODEL 4
REMARK VINA RESULT:    -5.201      3.829      6.857
REMARK INTER + INTRA:          -7.291
REMARK INTER:                  -6.550
REMARK INTRA:                  -0.741
REMARK UNBOUND:                -0.721
REMARK SMILES O=C(C=Cc1ccc(O)cc1)c1ccc(O)cc1O
REMARK SMILES IDX 4 1 3 2 5 3 6 4 7 5 8 6 11 7 10 8 9 9 2 11 1 12 12 13 18 14
REMARK SMILES IDX 13 15 17 16 14 17 15 18 19 19 16 21
REMARK H PARENT 9 10 19 20 16 22
REMARK Flexibility Score: inf
ROOT
ATOM      1  C   UNL     1     -21.380  24.688  41.961  1.00  0.00     0.012 C 
ATOM      2  C   UNL     1     -21.956  23.878  41.062  1.00  0.00     0.053 C 
ENDROOT
BRANCH   1   3
ATOM      3  C   UNL     1     -22.120  25.717  42.733  1.00  0.00    -0.025 A 
ATOM      4  C   UNL     1     -23.355  25.452  43.359  1.00  0.00     0.012 A 
ATOM      5  C   UNL     1     -24.020  26.459  44.065  1.00  0.00     0.047 A 
ATOM      6  C   UNL     1     -23.470  27.744  44.148  1.00  0.00     0.115 A 
ATOM      7  C   UNL     1     -21.586  27.015  42.809  1.00  0.00     0.012 A 
ATOM      8  C   UNL     1     -22.254  28.018  43.517  1.00  0.00     0.047 A 
BRANCH   6   9
ATOM      9  O   UNL     1     -24.124  28.754  44.851  1.00  0.00    -0.508 OA
ATOM     10  H   UNL     1     -24.077  29.722  44.554  1.00  0.00     0.293 HD
ENDBRANCH   6   9
ENDBRANCH   1   3
BRANCH   2  11
ATOM     11  C   UNL     1     -21.188  22.852  40.321  1.00  0.00     0.189 C 
ATOM     12  O   UNL     1     -21.314  22.756  39.069  1.00  0.00    -0.289 OA
BRANCH  11  13
ATOM     13  C   UNL     1     -20.229  21.963  41.019  1.00  0.00     0.064 A 
ATOM     14  C   UNL     1     -18.832  22.115  40.875  1.00  0.00     0.130 A 
ATOM     15  C   UNL     1     -20.723  20.957  41.867  1.00  0.00     0.020 A 
ATOM     16  C   UNL     1     -17.962  21.240  41.543  1.00  0.00     0.093 A 
ATOM     17  C   UNL     1     -19.849  20.095  42.533  1.00  0.00     0.047 A 
ATOM     18  C   UNL     1     -18.469  20.230  42.371  1.00  0.00     0.119 A 
BRANCH  14  19
ATOM     19  O   UNL     1     -18.307  23.144  40.094  1.00  0.00    -0.507 OA
ATOM     20  H   UNL     1     -18.904  23.802  39.608  1.00  0.00     0.293 HD
ENDBRANCH  14  19
BRANCH  18  21
ATOM     21  O   UNL     1     -17.609  19.360  43.038  1.00  0.00    -0.508 OA
ATOM     22  H   UNL     1     -17.069  19.661  43.841  1.00  0.00     0.293 HD
ENDBRANCH  18  21
ENDBRANCH  11  13
ENDBRANCH   2  11
TORSDOF 6
ENDMDL
MODEL 5
REMARK VINA RESULT:    -5.201      5.005      7.873
REMARK INTER + INTRA:          -7.291
REMARK INTER:                  -6.558
REMARK INTRA:                  -0.732
REMARK UNBOUND:                -0.721
REMARK SMILES O=C(C=Cc1ccc(O)cc1)c1ccc(O)cc1O
REMARK SMILES IDX 4 1 3 2 5 3 6 4 7 5 8 6 11 7 10 8 9 9 2 11 1 12 12 13 18 14
REMARK SMILES IDX 13 15 17 16 14 17 15 18 19 19 16 21
REMARK H PARENT 9 10 19 20 16 22
REMARK Flexibility Score: inf
ROOT
ATOM      1  C   UNL     1     -20.241  23.100  34.795  1.00  0.00     0.012 C 
ATOM      2  C   UNL     1     -20.006  22.746  33.524  1.00  0.00     0.053 C 
ENDROOT
BRANCH   1   3
ATOM      3  C   UNL     1     -21.198  22.392  35.681  1.00  0.00    -0.025 A 
ATOM      4  C   UNL     1     -22.276  21.633  35.181  1.00  0.00     0.012 A 
ATOM      5  C   UNL     1     -23.158  20.994  36.058  1.00  0.00     0.047 A 
ATOM      6  C   UNL     1     -22.984  21.111  37.443  1.00  0.00     0.115 A 
ATOM      7  C   UNL     1     -21.044  22.516  37.073  1.00  0.00     0.012 A 
ATOM      8  C   UNL     1     -21.928  21.874  37.946  1.00  0.00     0.047 A 
BRANCH   6   9
ATOM      9  O   UNL     1     -23.857  20.477  38.325  1.00  0.00    -0.508 OA
ATOM     10  H   UNL     1     -24.733  20.078  38.008  1.00  0.00     0.293 HD
ENDBRANCH   6   9
ENDBRANCH   1   3
BRANCH   2  11
ATOM     11  C   UNL     1     -19.033  23.467  32.674  1.00  0.00     0.189 C 
ATOM     12  O   UNL     1     -18.150  22.822  32.043  1.00  0.00    -0.289 OA
BRANCH  11  13
ATOM     13  C   UNL     1     -19.106  24.938  32.506  1.00  0.00     0.064 A 
ATOM     14  C   UNL     1     -18.001  25.775  32.780  1.00  0.00     0.130 A 
ATOM     15  C   UNL     1     -20.299  25.514  32.037  1.00  0.00     0.020 A 
ATOM     16  C   UNL     1     -18.121  27.164  32.621  1.00  0.00     0.093 A 
ATOM     17  C   UNL     1     -20.407  26.897  31.875  1.00  0.00     0.047 A 
ATOM     18  C   UNL     1     -19.322  27.726  32.170  1.00  0.00     0.119 A 
BRANCH  14  19
ATOM     19  O   UNL     1     -16.781  25.232  33.182  1.00  0.00    -0.507 OA
ATOM     20  H   UNL     1     -15.910  25.483  32.730  1.00  0.00     0.293 HD
ENDBRANCH  14  19
BRANCH  18  21
ATOM     21  O   UNL     1     -19.446  29.104  32.009  1.00  0.00    -0.508 OA
ATOM     22  H   UNL     1     -19.603  29.518  31.097  1.00  0.00     0.293 HD
ENDBRANCH  18  21
ENDBRANCH  11  13
ENDBRANCH   2  11
TORSDOF 6
ENDMDL
MODEL 6
REMARK VINA RESULT:    -5.069     11.290     12.803
REMARK INTER + INTRA:          -7.124
REMARK INTER:                  -6.511
REMARK INTRA:                  -0.613
REMARK UNBOUND:                -0.721
REMARK SMILES O=C(C=Cc1ccc(O)cc1)c1ccc(O)cc1O
REMARK SMILES IDX 4 1 3 2 5 3 6 4 7 5 8 6 11 7 10 8 9 9 2 11 1 12 12 13 18 14
REMARK SMILES IDX 13 15 17 16 14 17 15 18 19 19 16 21
REMARK H PARENT 9 10 19 20 16 22
REMARK Flexibility Score: inf
ROOT
ATOM      1  C   UNL     1      -8.494  27.672  44.009  1.00  0.00     0.012 C 
ATOM      2  C   UNL     1      -9.704  27.747  43.437  1.00  0.00     0.053 C 
ENDROOT
BRANCH   1   3
ATOM      3  C   UNL     1      -8.023  28.606  45.060  1.00  0.00    -0.025 A 
ATOM      4  C   UNL     1      -8.719  29.785  45.394  1.00  0.00     0.012 A 
ATOM      5  C   UNL     1      -8.228  30.641  46.385  1.00  0.00     0.047 A 
ATOM      6  C   UNL     1      -7.031  30.338  47.048  1.00  0.00     0.115 A 
ATOM      7  C   UNL     1      -6.815  28.322  45.721  1.00  0.00     0.012 A 
ATOM      8  C   UNL     1      -6.327  29.180  46.712  1.00  0.00     0.047 A 
BRANCH   6   9
ATOM      9  O   UNL     1      -6.534  31.184  48.038  1.00  0.00    -0.508 OA
ATOM     10  H   UNL     1      -6.888  31.154  48.987  1.00  0.00     0.293 HD
ENDBRANCH   6   9
ENDBRANCH   1   3
BRANCH   2  11
ATOM     11  C   UNL     1     -10.146  26.787  42.402  1.00  0.00     0.189 C 
ATOM     12  O   UNL     1      -9.305  26.020  41.855  1.00  0.00    -0.289 OA
BRANCH  11  13
ATOM     13  C   UNL     1     -11.575  26.671  42.026  1.00  0.00     0.064 A 
ATOM     14  C   UNL     1     -12.222  25.418  41.931  1.00  0.00     0.130 A 
ATOM     15  C   UNL     1     -12.315  27.842  41.783  1.00  0.00     0.020 A 
ATOM     16  C   UNL     1     -13.572  25.357  41.557  1.00  0.00     0.093 A 
ATOM     17  C   UNL     1     -13.661  27.770  41.418  1.00  0.00     0.047 A 
ATOM     18  C   UNL     1     -14.293  26.530  41.300  1.00  0.00     0.119 A 
BRANCH  14  19
ATOM     19  O   UNL     1     -11.536  24.241  42.230  1.00  0.00    -0.507 OA
ATOM     20  H   UNL     1     -10.733  23.941  41.691  1.00  0.00     0.293 HD
ENDBRANCH  14  19
BRANCH  18  21
ATOM     21  O   UNL     1     -15.634  26.474  40.930  1.00  0.00    -0.508 OA
ATOM     22  H   UNL     1     -16.364  26.297  41.611  1.00  0.00     0.293 HD
ENDBRANCH  18  21
ENDBRANCH  11  13
ENDBRANCH   2  11
TORSDOF 6
ENDMDL
MODEL 7
REMARK VINA RESULT:    -5.018      8.529      9.648
REMARK INTER + INTRA:          -7.059
REMARK INTER:                  -6.291
REMARK INTRA:                  -0.768
REMARK UNBOUND:                -0.721
REMARK SMILES O=C(C=Cc1ccc(O)cc1)c1ccc(O)cc1O
REMARK SMILES IDX 4 1 3 2 5 3 6 4 7 5 8 6 11 7 10 8 9 9 2 11 1 12 12 13 18 14
REMARK SMILES IDX 13 15 17 16 14 17 15 18 19 19 16 21
REMARK H PARENT 9 10 19 20 16 22
REMARK Flexibility Score: inf
ROOT
ATOM      1  C   UNL     1     -13.039  22.389  33.208  1.00  0.00     0.012 C 
ATOM      2  C   UNL     1     -13.429  22.957  34.358  1.00  0.00     0.053 C 
ENDROOT
BRANCH   1   3
ATOM      3  C   UNL     1     -12.011  21.323  33.126  1.00  0.00    -0.025 A 
ATOM      4  C   UNL     1     -11.691  20.670  31.918  1.00  0.00     0.012 A 
ATOM      5  C   UNL     1     -10.722  19.662  31.894  1.00  0.00     0.047 A 
ATOM      6  C   UNL     1     -10.068  19.283  33.074  1.00  0.00     0.115 A 
ATOM      7  C   UNL     1     -11.360  20.923  34.306  1.00  0.00     0.012 A 
ATOM      8  C   UNL     1     -10.391  19.915  34.277  1.00  0.00     0.047 A 
BRANCH   6   9
ATOM      9  O   UNL     1      -9.100  18.281  33.060  1.00  0.00    -0.508 OA
ATOM     10  H   UNL     1      -9.355  17.300  33.034  1.00  0.00     0.293 HD
ENDBRANCH   6   9
ENDBRANCH   1   3
BRANCH   2  11
ATOM     11  C   UNL     1     -14.469  24.008  34.403  1.00  0.00     0.189 C 
ATOM     12  O   UNL     1     -14.205  25.132  34.913  1.00  0.00    -0.289 OA
BRANCH  11  13
ATOM     13  C   UNL     1     -15.810  23.784  33.812  1.00  0.00     0.064 A 
ATOM     14  C   UNL     1     -16.318  24.609  32.784  1.00  0.00     0.130 A 
ATOM     15  C   UNL     1     -16.586  22.704  34.269  1.00  0.00     0.020 A 
ATOM     16  C   UNL     1     -17.599  24.367  32.265  1.00  0.00     0.093 A 
ATOM     17  C   UNL     1     -17.857  22.468  33.741  1.00  0.00     0.047 A 
ATOM     18  C   UNL     1     -18.369  23.299  32.742  1.00  0.00     0.119 A 
BRANCH  14  19
ATOM     19  O   UNL     1     -15.549  25.647  32.261  1.00  0.00    -0.507 OA
ATOM     20  H   UNL     1     -15.879  26.221  31.494  1.00  0.00     0.293 HD
ENDBRANCH  14  19
BRANCH  18  21
ATOM     21  O   UNL     1     -19.641  23.054  32.229  1.00  0.00    -0.508 OA
ATOM     22  H   UNL     1     -19.915  22.131  31.911  1.00  0.00     0.293 HD
ENDBRANCH  18  21
ENDBRANCH  11  13
ENDBRANCH   2  11
TORSDOF 6
ENDMDL
MODEL 8
REMARK VINA RESULT:    -4.996     12.855     15.915
REMARK INTER + INTRA:          -7.032
REMARK INTER:                  -6.375
REMARK INTRA:                  -0.657
REMARK UNBOUND:                -0.721
REMARK SMILES O=C(C=Cc1ccc(O)cc1)c1ccc(O)cc1O
REMARK SMILES IDX 4 1 3 2 5 3 6 4 7 5 8 6 11 7 10 8 9 9 2 11 1 12 12 13 18 14
REMARK SMILES IDX 13 15 17 16 14 17 15 18 19 19 16 21
REMARK H PARENT 9 10 19 20 16 22
REMARK Flexibility Score: inf
ROOT
ATOM      1  C   UNL     1      -9.890  27.614  44.250  1.00  0.00     0.012 C 
ATOM      2  C   UNL     1      -8.612  28.013  44.211  1.00  0.00     0.053 C 
ENDROOT
BRANCH   1   3
ATOM      3  C   UNL     1     -10.808  27.680  43.086  1.00  0.00    -0.025 A 
ATOM      4  C   UNL     1     -10.549  28.488  41.961  1.00  0.00     0.012 A 
ATOM      5  C   UNL     1     -11.451  28.526  40.894  1.00  0.00     0.047 A 
ATOM      6  C   UNL     1     -12.628  27.767  40.938  1.00  0.00     0.115 A 
ATOM      7  C   UNL     1     -12.000  26.936  43.126  1.00  0.00     0.012 A 
ATOM      8  C   UNL     1     -12.899  26.976  42.056  1.00  0.00     0.047 A 
BRANCH   6   9
ATOM      9  O   UNL     1     -13.533  27.797  39.878  1.00  0.00    -0.508 OA
ATOM     10  H   UNL     1     -13.268  27.496  38.947  1.00  0.00     0.293 HD
ENDBRANCH   6   9
ENDBRANCH   1   3
BRANCH   2  11
ATOM     11  C   UNL     1      -7.721  27.918  45.388  1.00  0.00     0.189 C 
ATOM     12  O   UNL     1      -7.334  26.787  45.795  1.00  0.00    -0.289 OA
BRANCH  11  13
ATOM     13  C   UNL     1      -7.229  29.136  46.075  1.00  0.00     0.064 A 
ATOM     14  C   UNL     1      -5.902  29.239  46.550  1.00  0.00     0.130 A 
ATOM     15  C   UNL     1      -8.098  30.229  46.236  1.00  0.00     0.020 A 
ATOM     16  C   UNL     1      -5.485  30.405  47.208  1.00  0.00     0.093 A 
ATOM     17  C   UNL     1      -7.671  31.389  46.885  1.00  0.00     0.047 A 
ATOM     18  C   UNL     1      -6.367  31.480  47.377  1.00  0.00     0.119 A 
BRANCH  14  19
ATOM     19  O   UNL     1      -4.994  28.200  46.349  1.00  0.00    -0.507 OA
ATOM     20  H   UNL     1      -4.201  28.059  46.964  1.00  0.00     0.293 HD
ENDBRANCH  14  19
BRANCH  18  21
ATOM     21  O   UNL     1      -5.957  32.641  48.028  1.00  0.00    -0.508 OA
ATOM     22  H   UNL     1      -5.522  33.405  47.523  1.00  0.00     0.293 HD
ENDBRANCH  18  21
ENDBRANCH  11  13
ENDBRANCH   2  11
TORSDOF 6
ENDMDL
MODEL 9
REMARK VINA RESULT:    -4.946      2.239      3.380
REMARK INTER + INTRA:          -6.969
REMARK INTER:                  -6.413
REMARK INTRA:                  -0.556
REMARK UNBOUND:                -0.721
REMARK SMILES O=C(C=Cc1ccc(O)cc1)c1ccc(O)cc1O
REMARK SMILES IDX 4 1 3 2 5 3 6 4 7 5 8 6 11 7 10 8 9 9 2 11 1 12 12 13 18 14
REMARK SMILES IDX 13 15 17 16 14 17 15 18 19 19 16 21
REMARK H PARENT 9 10 19 20 16 22
REMARK Flexibility Score: inf
ROOT
ATOM      1  C   UNL     1     -19.293  21.534  42.132  1.00  0.00     0.012 C 
ATOM      2  C   UNL     1     -20.521  21.458  41.600  1.00  0.00     0.053 C 
ENDROOT
BRANCH   1   3
ATOM      3  C   UNL     1     -18.491  20.349  42.522  1.00  0.00    -0.025 A 
ATOM      4  C   UNL     1     -18.092  19.365  41.594  1.00  0.00     0.012 A 
ATOM      5  C   UNL     1     -17.347  18.259  42.013  1.00  0.00     0.047 A 
ATOM      6  C   UNL     1     -16.998  18.113  43.362  1.00  0.00     0.115 A 
ATOM      7  C   UNL     1     -18.149  20.183  43.875  1.00  0.00     0.012 A 
ATOM      8  C   UNL     1     -17.403  19.076  44.290  1.00  0.00     0.047 A 
BRANCH   6   9
ATOM      9  O   UNL     1     -16.254  17.015  43.790  1.00  0.00    -0.508 OA
ATOM     10  H   UNL     1     -15.576  16.567  43.184  1.00  0.00     0.293 HD
ENDBRANCH   6   9
ENDBRANCH   1   3
BRANCH   2  11
ATOM     11  C   UNL     1     -21.286  22.662  41.209  1.00  0.00     0.189 C 
ATOM     12  O   UNL     1     -22.475  22.810  41.608  1.00  0.00    -0.289 OA
BRANCH  11  13
ATOM     13  C   UNL     1     -20.664  23.732  40.394  1.00  0.00     0.064 A 
ATOM     14  C   UNL     1     -20.503  23.606  38.995  1.00  0.00     0.130 A 
ATOM     15  C   UNL     1     -20.245  24.916  41.025  1.00  0.00     0.020 A 
ATOM     16  C   UNL     1     -19.895  24.639  38.267  1.00  0.00     0.093 A 
ATOM     17  C   UNL     1     -19.646  25.942  40.289  1.00  0.00     0.047 A 
ATOM     18  C   UNL     1     -19.465  25.806  38.912  1.00  0.00     0.119 A 
BRANCH  14  19
ATOM     19  O   UNL     1     -20.968  22.474  38.327  1.00  0.00    -0.507 OA
ATOM     20  H   UNL     1     -20.366  21.928  37.722  1.00  0.00     0.293 HD
ENDBRANCH  14  19
BRANCH  18  21
ATOM     21  O   UNL     1     -18.862  26.835  38.192  1.00  0.00    -0.508 OA
ATOM     22  H   UNL     1     -19.407  27.586  37.785  1.00  0.00     0.293 HD
ENDBRANCH  18  21
ENDBRANCH  11  13
ENDBRANCH   2  11
TORSDOF 6
ENDMDL
