MODEL 1
REMARK VINA RESULT:    -5.634      0.000      0.000
REMARK INTER + INTRA:          -6.337
REMARK INTER:                  -6.293
REMARK INTRA:                  -0.044
REMARK UNBOUND:                -0.044
REMARK SMILES O=C([O-])c1ccc(O)c(O)c1
REMARK SMILES IDX 4 1 11 2 5 3 9 4 6 5 7 6 2 7 1 8 3 9 10 10 8 12
REMARK H PARENT 10 11 8 13
REMARK Flexibility Score: inf
ROOT
ATOM      1  C   UNL     1     -31.804  -3.432 -18.116  1.00  0.00     0.001 A 
ATOM      2  C   UNL     1     -32.682  -2.916 -19.084  1.00  0.00     0.060 A 
ATOM      3  C   UNL     1     -30.420  -3.362 -18.347  1.00  0.00     0.014 A 
ATOM      4  C   UNL     1     -32.196  -2.338 -20.264  1.00  0.00     0.158 A 
ATOM      5  C   UNL     1     -29.928  -2.787 -19.520  1.00  0.00     0.051 A 
ATOM      6  C   UNL     1     -30.800  -2.273 -20.485  1.00  0.00     0.157 A 
ENDROOT
BRANCH   1   7
ATOM      7  C   UNL     1     -32.331  -4.039 -16.874  1.00  0.00     0.072 C 
ATOM      8  O   UNL     1     -31.547  -4.510 -16.008  1.00  0.00    -0.545 OA
ATOM      9  O   UNL     1     -33.702  -4.099 -16.647  1.00  0.00    -0.545 OA
ENDBRANCH   1   7
BRANCH   4  10
ATOM     10  O   UNL     1     -33.128  -1.846 -21.180  1.00  0.00    -0.504 OA
ATOM     11  H   UNL     1     -32.891  -1.258 -21.966  1.00  0.00     0.293 HD
ENDBRANCH   4  10
BRANCH   6  12
ATOM     12  O   UNL     1     -30.243  -1.712 -21.636  1.00  0.00    -0.504 OA
ATOM     13  H   UNL     1     -29.870  -0.775 -21.684  1.00  0.00     0.293 HD
ENDBRANCH   6  12
TORSDOF 3
ENDMDL
MODEL 2
REMARK VINA RESULT:    -5.282      8.103     10.681
REMARK INTER + INTRA:          -5.944
REMARK INTER:                  -5.908
REMARK INTRA:                  -0.037
REMARK UNBOUND:                -0.044
REMARK SMILES O=C([O-])c1ccc(O)c(O)c1
REMARK SMILES IDX 4 1 11 2 5 3 9 4 6 5 7 6 2 7 1 8 3 9 10 10 8 12
REMARK H PARENT 10 11 8 13
REMARK Flexibility Score: inf
ROOT
ATOM      1  C   UNL     1     -37.815  -7.202 -13.404  1.00  0.00     0.001 A 
ATOM      2  C   UNL     1     -38.351  -8.500 -13.365  1.00  0.00     0.060 A 
ATOM      3  C   UNL     1     -38.692  -6.105 -13.399  1.00  0.00     0.014 A 
ATOM      4  C   UNL     1     -39.735  -8.709 -13.323  1.00  0.00     0.158 A 
ATOM      5  C   UNL     1     -40.072  -6.304 -13.356  1.00  0.00     0.051 A 
ATOM      6  C   UNL     1     -40.608  -7.595 -13.319  1.00  0.00     0.157 A 
ENDROOT
BRANCH   1   7
ATOM      7  C   UNL     1     -36.350  -6.997 -13.448  1.00  0.00     0.072 C 
ATOM      8  O   UNL     1     -35.635  -7.271 -12.448  1.00  0.00    -0.545 OA
ATOM      9  O   UNL     1     -35.743  -6.499 -14.595  1.00  0.00    -0.545 OA
ENDBRANCH   1   7
BRANCH   4  10
ATOM     10  O   UNL     1     -40.195 -10.027 -13.287  1.00  0.00    -0.504 OA
ATOM     11  H   UNL     1     -41.025 -10.349 -13.763  1.00  0.00     0.293 HD
ENDBRANCH   4  10
BRANCH   6  12
ATOM     12  O   UNL     1     -41.998  -7.725 -13.278  1.00  0.00    -0.504 OA
ATOM     13  H   UNL     1     -42.486  -8.602 -13.384  1.00  0.00     0.293 HD
ENDBRANCH   6  12
TORSDOF 3
ENDMDL
MODEL 3
REMARK VINA RESULT:    -5.270      1.063      2.359
REMARK INTER + INTRA:          -5.930
REMARK INTER:                  -5.891
REMARK INTRA:                  -0.040
REMARK UNBOUND:                -0.044
REMARK SMILES O=C([O-])c1ccc(O)c(O)c1
REMARK SMILES IDX 4 1 11 2 5 3 9 4 6 5 7 6 2 7 1 8 3 9 10 10 8 12
REMARK H PARENT 10 11 8 13
REMARK Flexibility Score: inf
ROOT
ATOM      1  C   UNL     1     -32.038  -3.761 -17.601  1.00  0.00     0.001 A 
ATOM      2  C   UNL     1     -30.999  -3.257 -18.401  1.00  0.00     0.060 A 
ATOM      3  C   UNL     1     -33.364  -3.622 -18.042  1.00  0.00     0.014 A 
ATOM      4  C   UNL     1     -31.269  -2.622 -19.621  1.00  0.00     0.158 A 
ATOM      5  C   UNL     1     -33.643  -2.992 -19.256  1.00  0.00     0.051 A 
ATOM      6  C   UNL     1     -32.610  -2.489 -20.054  1.00  0.00     0.157 A 
ENDROOT
BRANCH   1   7
ATOM      7  C   UNL     1     -31.737  -4.429 -16.316  1.00  0.00     0.072 C 
ATOM      8  O   UNL     1     -32.384  -4.137 -15.275  1.00  0.00    -0.545 OA
ATOM      9  O   UNL     1     -30.733  -5.388 -16.239  1.00  0.00    -0.545 OA
ENDBRANCH   1   7
BRANCH   4  10
ATOM     10  O   UNL     1     -30.187  -2.147 -20.362  1.00  0.00    -0.504 OA
ATOM     11  H   UNL     1     -29.300  -1.880 -19.959  1.00  0.00     0.293 HD
ENDBRANCH   4  10
BRANCH   6  12
ATOM     12  O   UNL     1     -32.957  -1.869 -21.256  1.00  0.00    -0.504 OA
ATOM     13  H   UNL     1     -33.804  -2.065 -21.769  1.00  0.00     0.293 HD
ENDBRANCH   6  12
TORSDOF 3
ENDMDL
MODEL 4
REMARK VINA RESULT:    -5.221      7.612     10.122
REMARK INTER + INTRA:          -5.875
REMARK INTER:                  -5.838
REMARK INTRA:                  -0.038
REMARK UNBOUND:                -0.044
REMARK SMILES O=C([O-])c1ccc(O)c(O)c1
REMARK SMILES IDX 4 1 11 2 5 3 9 4 6 5 7 6 2 7 1 8 3 9 10 10 8 12
REMARK H PARENT 10 11 8 13
REMARK Flexibility Score: inf
ROOT
ATOM      1  C   UNL     1     -37.142  -7.024 -13.405  1.00  0.00     0.001 A 
ATOM      2  C   UNL     1     -38.476  -6.583 -13.419  1.00  0.00     0.060 A 
ATOM      3  C   UNL     1     -36.883  -8.403 -13.369  1.00  0.00     0.014 A 
ATOM      4  C   UNL     1     -39.538  -7.496 -13.396  1.00  0.00     0.158 A 
ATOM      5  C   UNL     1     -37.934  -9.320 -13.347  1.00  0.00     0.051 A 
ATOM      6  C   UNL     1     -39.263  -8.884 -13.360  1.00  0.00     0.157 A 
ENDROOT
BRANCH   1   7
ATOM      7  C   UNL     1     -36.031  -6.047 -13.430  1.00  0.00     0.072 C 
ATOM      8  O   UNL     1     -35.199  -6.047 -14.376  1.00  0.00    -0.545 OA
ATOM      9  O   UNL     1     -35.889  -5.116 -12.408  1.00  0.00    -0.545 OA
ENDBRANCH   1   7
BRANCH   4  10
ATOM     10  O   UNL     1     -40.837  -6.986 -13.411  1.00  0.00    -0.504 OA
ATOM     11  H   UNL     1     -41.660  -7.539 -13.602  1.00  0.00     0.293 HD
ENDBRANCH   4  10
BRANCH   6  12
ATOM     12  O   UNL     1     -40.269  -9.853 -13.336  1.00  0.00    -0.504 OA
ATOM     13  H   UNL     1     -40.276 -10.644 -12.709  1.00  0.00     0.293 HD
ENDBRANCH   6  12
TORSDOF 3
ENDMDL
MODEL 5
REMARK VINA RESULT:    -5.204      6.305      9.063
REMARK INTER + INTRA:          -5.856
REMARK INTER:                  -5.813
REMARK INTRA:                  -0.043
REMARK UNBOUND:                -0.044
REMARK SMILES O=C([O-])c1ccc(O)c(O)c1
REMARK SMILES IDX 4 1 11 2 5 3 9 4 6 5 7 6 2 7 1 8 3 9 10 10 8 12
REMARK H PARENT 10 11 8 13
REMARK Flexibility Score: inf
ROOT
ATOM      1  C   UNL     1     -36.362  -7.037 -15.108  1.00  0.00     0.001 A 
ATOM      2  C   UNL     1     -37.501  -7.577 -15.729  1.00  0.00     0.060 A 
ATOM      3  C   UNL     1     -36.054  -7.429 -13.795  1.00  0.00     0.014 A 
ATOM      4  C   UNL     1     -38.324  -8.491 -15.059  1.00  0.00     0.158 A 
ATOM      5  C   UNL     1     -36.868  -8.340 -13.120  1.00  0.00     0.051 A 
ATOM      6  C   UNL     1     -38.002  -8.878 -13.736  1.00  0.00     0.157 A 
ENDROOT
BRANCH   1   7
ATOM      7  C   UNL     1     -35.503  -6.073 -15.830  1.00  0.00     0.072 C 
ATOM      8  O   UNL     1     -35.540  -5.997 -17.087  1.00  0.00    -0.545 OA
ATOM      9  O   UNL     1     -34.641  -5.236 -15.129  1.00  0.00    -0.545 OA
ENDBRANCH   1   7
BRANCH   4  10
ATOM     10  O   UNL     1     -39.439  -8.986 -15.738  1.00  0.00    -0.504 OA
ATOM     11  H   UNL     1     -40.077  -9.668 -15.355  1.00  0.00     0.293 HD
ENDBRANCH   4  10
BRANCH   6  12
ATOM     12  O   UNL     1     -38.774  -9.784 -13.005  1.00  0.00    -0.504 OA
ATOM     13  H   UNL     1     -38.689 -10.787 -13.080  1.00  0.00     0.293 HD
ENDBRANCH   6  12
TORSDOF 3
ENDMDL
MODEL 6
REMARK VINA RESULT:    -5.099      1.851      3.143
REMARK INTER + INTRA:          -5.740
REMARK INTER:                  -5.699
REMARK INTRA:                  -0.041
REMARK UNBOUND:                -0.044
REMARK SMILES O=C([O-])c1ccc(O)c(O)c1
REMARK SMILES IDX 4 1 11 2 5 3 9 4 6 5 7 6 2 7 1 8 3 9 10 10 8 12
REMARK H PARENT 10 11 8 13
REMARK Flexibility Score: inf
ROOT
ATOM      1  C   UNL     1     -31.913  -3.732 -17.725  1.00  0.00     0.001 A 
ATOM      2  C   UNL     1     -31.960  -3.045 -18.950  1.00  0.00     0.060 A 
ATOM      3  C   UNL     1     -33.119  -4.066 -17.087  1.00  0.00     0.014 A 
ATOM      4  C   UNL     1     -33.184  -2.694 -19.535  1.00  0.00     0.158 A 
ATOM      5  C   UNL     1     -34.342  -3.722 -17.663  1.00  0.00     0.051 A 
ATOM      6  C   UNL     1     -34.391  -3.038 -18.882  1.00  0.00     0.157 A 
ENDROOT
BRANCH   1   7
ATOM      7  C   UNL     1     -30.613  -4.095 -17.120  1.00  0.00     0.072 C 
ATOM      8  O   UNL     1     -29.637  -3.301 -17.173  1.00  0.00    -0.545 OA
ATOM      9  O   UNL     1     -30.450  -5.322 -16.485  1.00  0.00    -0.545 OA
ENDBRANCH   1   7
BRANCH   4  10
ATOM     10  O   UNL     1     -33.153  -2.013 -20.753  1.00  0.00    -0.504 OA
ATOM     11  H   UNL     1     -33.493  -2.396 -21.623  1.00  0.00     0.293 HD
ENDBRANCH   4  10
BRANCH   6  12
ATOM     12  O   UNL     1     -35.648  -2.723 -19.404  1.00  0.00    -0.504 OA
ATOM     13  H   UNL     1     -36.347  -2.188 -18.909  1.00  0.00     0.293 HD
ENDBRANCH   6  12
TORSDOF 3
ENDMDL
MODEL 7
REMARK VINA RESULT:    -5.074      6.436      9.428
REMARK INTER + INTRA:          -5.711
REMARK INTER:                  -5.672
REMARK INTRA:                  -0.040
REMARK UNBOUND:                -0.044
REMARK SMILES O=C([O-])c1ccc(O)c(O)c1
REMARK SMILES IDX 4 1 11 2 5 3 9 4 6 5 7 6 2 7 1 8 3 9 10 10 8 12
REMARK H PARENT 10 11 8 13
REMARK Flexibility Score: inf
ROOT
ATOM      1  C   UNL     1     -36.996  -7.072 -15.461  1.00  0.00     0.001 A 
ATOM      2  C   UNL     1     -36.208  -7.428 -14.354  1.00  0.00     0.060 A 
ATOM      3  C   UNL     1     -38.241  -7.696 -15.639  1.00  0.00     0.014 A 
ATOM      4  C   UNL     1     -36.648  -8.391 -13.435  1.00  0.00     0.158 A 
ATOM      5  C   UNL     1     -38.688  -8.655 -14.728  1.00  0.00     0.051 A 
ATOM      6  C   UNL     1     -37.905  -9.012 -13.625  1.00  0.00     0.157 A 
ENDROOT
BRANCH   1   7
ATOM      7  C   UNL     1     -36.518  -6.054 -16.423  1.00  0.00     0.072 C 
ATOM      8  O   UNL     1     -37.287  -5.138 -16.821  1.00  0.00    -0.545 OA
ATOM      9  O   UNL     1     -35.214  -6.095 -16.902  1.00  0.00    -0.545 OA
ENDBRANCH   1   7
BRANCH   4  10
ATOM     10  O   UNL     1     -35.812  -8.694 -12.359  1.00  0.00    -0.504 OA
ATOM     11  H   UNL     1     -36.069  -9.309 -11.601  1.00  0.00     0.293 HD
ENDBRANCH   4  10
BRANCH   6  12
ATOM     12  O   UNL     1     -38.409  -9.978 -12.752  1.00  0.00    -0.504 OA
ATOM     13  H   UNL     1     -38.600  -9.812 -11.775  1.00  0.00     0.293 HD
ENDBRANCH   6  12
TORSDOF 3
ENDMDL
MODEL 8
REMARK VINA RESULT:    -4.848      1.158      4.461
REMARK INTER + INTRA:          -5.460
REMARK INTER:                  -5.416
REMARK INTRA:                  -0.043
REMARK UNBOUND:                -0.044
REMARK SMILES O=C([O-])c1ccc(O)c(O)c1
REMARK SMILES IDX 4 1 11 2 5 3 9 4 6 5 7 6 2 7 1 8 3 9 10 10 8 12
REMARK H PARENT 10 11 8 13
REMARK Flexibility Score: inf
ROOT
ATOM      1  C   UNL     1     -31.102  -2.651 -19.564  1.00  0.00     0.001 A 
ATOM      2  C   UNL     1     -30.818  -2.963 -18.224  1.00  0.00     0.060 A 
ATOM      3  C   UNL     1     -32.440  -2.644 -19.991  1.00  0.00     0.014 A 
ATOM      4  C   UNL     1     -31.845  -3.265 -17.320  1.00  0.00     0.158 A 
ATOM      5  C   UNL     1     -33.469  -2.942 -19.097  1.00  0.00     0.051 A 
ATOM      6  C   UNL     1     -33.189  -3.254 -17.763  1.00  0.00     0.157 A 
ENDROOT
BRANCH   1   7
ATOM      7  C   UNL     1     -30.007  -2.334 -20.507  1.00  0.00     0.072 C 
ATOM      8  O   UNL     1     -28.822  -2.677 -20.252  1.00  0.00    -0.545 OA
ATOM      9  O   UNL     1     -30.272  -1.652 -21.690  1.00  0.00    -0.545 OA
ENDBRANCH   1   7
BRANCH   4  10
ATOM     10  O   UNL     1     -31.487  -3.565 -16.004  1.00  0.00    -0.504 OA
ATOM     11  H   UNL     1     -31.862  -3.092 -15.195  1.00  0.00     0.293 HD
ENDBRANCH   4  10
BRANCH   6  12
ATOM     12  O   UNL     1     -34.264  -3.544 -16.920  1.00  0.00    -0.504 OA
ATOM     13  H   UNL     1     -34.212  -3.524 -15.912  1.00  0.00     0.293 HD
ENDBRANCH   6  12
TORSDOF 3
ENDMDL
MODEL 9
REMARK VINA RESULT:    -4.786      5.787      7.824
REMARK INTER + INTRA:          -5.390
REMARK INTER:                  -5.348
REMARK INTRA:                  -0.042
REMARK UNBOUND:                -0.044
REMARK SMILES O=C([O-])c1ccc(O)c(O)c1
REMARK SMILES IDX 4 1 11 2 5 3 9 4 6 5 7 6 2 7 1 8 3 9 10 10 8 12
REMARK H PARENT 10 11 8 13
REMARK Flexibility Score: inf
ROOT
ATOM      1  C   UNL     1     -36.787  -7.283 -14.658  1.00  0.00     0.001 A 
ATOM      2  C   UNL     1     -36.494  -6.583 -13.475  1.00  0.00     0.060 A 
ATOM      3  C   UNL     1     -36.140  -6.908 -15.846  1.00  0.00     0.014 A 
ATOM      4  C   UNL     1     -35.573  -5.527 -13.470  1.00  0.00     0.158 A 
ATOM      5  C   UNL     1     -35.221  -5.858 -15.851  1.00  0.00     0.051 A 
ATOM      6  C   UNL     1     -34.928  -5.160 -14.675  1.00  0.00     0.157 A 
ENDROOT
BRANCH   1   7
ATOM      7  C   UNL     1     -37.761  -8.397 -14.647  1.00  0.00     0.072 C 
ATOM      8  O   UNL     1     -38.486  -8.623 -15.652  1.00  0.00    -0.545 OA
ATOM      9  O   UNL     1     -37.889  -9.209 -13.526  1.00  0.00    -0.545 OA
ENDBRANCH   1   7
BRANCH   4  10
ATOM     10  O   UNL     1     -35.332  -4.878 -12.258  1.00  0.00    -0.504 OA
ATOM     11  H   UNL     1     -34.417  -4.591 -11.943  1.00  0.00     0.293 HD
ENDBRANCH   4  10
BRANCH   6  12
ATOM     12  O   UNL     1     -34.000  -4.119 -14.747  1.00  0.00    -0.504 OA
ATOM     13  H   UNL     1     -33.106  -4.126 -14.279  1.00  0.00     0.293 HD
ENDBRANCH   6  12
TORSDOF 3
ENDMDL
