MODEL 1
REMARK VINA RESULT:    -3.325      0.000      0.000
REMARK INTER + INTRA:          -4.932
REMARK INTER:                  -5.074
REMARK INTRA:                   0.142
REMARK UNBOUND:                 0.142
REMARK SMILES CC1=CCC[C@H](C)C(=O)C[C@@H](C(C)C)C(=O)C1
REMARK SMILES IDX 8 1 9 2 6 3 7 4 5 5 4 6 3 7 2 8 1 9 10 11 11 12 15 13 16 14
REMARK SMILES IDX 17 15 12 17 13 18 14 19
REMARK H PARENT
REMARK Flexibility Score: 70.00
ROOT
ATOM      1  C   UNL     1       5.193  37.265  69.148  1.00  0.00     0.136 C 
ATOM      2  O   UNL     1       5.394  38.253  68.457  1.00  0.00    -0.299 OA
ENDROOT
BRANCH   1   3
ATOM      3  C   UNL     1       3.777  37.023  69.645  1.00  0.00     0.053 C 
ATOM      4  C   UNL     1       3.070  38.371  69.825  1.00  0.00     0.016 C 
BRANCH   3   5
ATOM      5  C   UNL     1       2.916  36.084  68.766  1.00  0.00     0.015 C 
BRANCH   5   6
ATOM      6  C   UNL     1       3.501  34.663  68.603  1.00  0.00     0.028 C 
BRANCH   6   7
ATOM      7  C   UNL     1       3.787  34.368  67.148  1.00  0.00    -0.028 C 
ATOM      8  C   UNL     1       5.005  34.109  66.620  1.00  0.00    -0.070 CG0
ATOM      9  C   UNL     1       5.094  33.876  65.133  1.00  0.00     0.039 C 
ATOM     10  G   UNL     1       6.269  34.020  67.455  1.00  0.00     0.000 G0
ENDBRANCH   6   7
ENDBRANCH   5   6
ENDBRANCH   3   5
ENDBRANCH   1   3
BRANCH   1  11
ATOM     11  C   UNL     1       6.328  36.277  69.351  1.00  0.00     0.087 C 
BRANCH  11  12
ATOM     12  C   UNL     1       7.420  36.274  68.234  1.00  0.00     0.066 C 
BRANCH  12  13
ATOM     13  C   UNL     1       7.264  35.124  67.245  1.00  0.00     0.140 C 
ATOM     14  O   UNL     1       7.913  35.121  66.209  1.00  0.00    -0.299 OA
BRANCH  13  15
ATOM     15  C   UNL     1       6.277  34.005  67.468  1.00  0.00     0.106 CG0
ATOM     16  G   UNL     1       5.025  34.135  66.621  1.00  0.00     0.000 G0
ENDBRANCH  13  15
ENDBRANCH  12  13
BRANCH  12  17
ATOM     17  C   UNL     1       8.892  36.409  68.745  1.00  0.00    -0.006 C 
ATOM     18  C   UNL     1       9.071  36.142  70.250  1.00  0.00     0.008 C 
ATOM     19  C   UNL     1       9.492  37.778  68.386  1.00  0.00     0.008 C 
ENDBRANCH  12  17
ENDBRANCH  11  12
ENDBRANCH   1  11
TORSDOF 1
ENDMDL
MODEL 2
REMARK VINA RESULT:    -3.262      1.773      3.632
REMARK INTER + INTRA:          -4.836
REMARK INTER:                  -4.618
REMARK INTRA:                  -0.218
REMARK UNBOUND:                 0.142
REMARK SMILES CC1=CCC[C@H](C)C(=O)C[C@@H](C(C)C)C(=O)C1
REMARK SMILES IDX 8 1 9 2 6 3 7 4 5 5 4 6 3 7 2 8 1 9 10 11 11 12 15 13 16 14
REMARK SMILES IDX 17 15 12 17 13 18 14 19
REMARK H PARENT
REMARK Flexibility Score: 70.00
ROOT
ATOM      1  C   UNL     1       7.925  36.091  68.073  1.00  0.00     0.136 C 
ATOM      2  O   UNL     1       9.093  36.360  67.838  1.00  0.00    -0.299 OA
ENDROOT
BRANCH   1   3
ATOM      3  C   UNL     1       7.085  37.140  68.785  1.00  0.00     0.053 C 
ATOM      4  C   UNL     1       6.480  38.089  67.745  1.00  0.00     0.016 C 
BRANCH   3   5
ATOM      5  C   UNL     1       5.976  36.587  69.711  1.00  0.00     0.015 C 
BRANCH   5   6
ATOM      6  C   UNL     1       4.542  36.810  69.180  1.00  0.00     0.028 C 
BRANCH   6   7
ATOM      7  C   UNL     1       3.681  35.595  69.444  1.00  0.00    -0.028 C 
ATOM      8  C   UNL     1       3.254  34.713  68.512  1.00  0.00    -0.070 CG0
ATOM      9  C   UNL     1       2.366  33.582  68.965  1.00  0.00     0.039 C 
ATOM     10  G   UNL     1       3.645  34.799  67.048  1.00  0.00     0.000 G0
ENDBRANCH   6   7
ENDBRANCH   5   6
ENDBRANCH   3   5
ENDBRANCH   1   3
BRANCH   1  11
ATOM     11  C   UNL     1       7.352  34.797  67.524  1.00  0.00     0.087 C 
BRANCH  11  12
ATOM     12  C   UNL     1       6.240  34.964  66.440  1.00  0.00     0.066 C 
BRANCH  12  13
ATOM     13  C   UNL     1       4.989  34.141  66.731  1.00  0.00     0.140 C 
ATOM     14  O   UNL     1       5.036  32.922  66.668  1.00  0.00    -0.299 OA
BRANCH  13  15
ATOM     15  C   UNL     1       3.660  34.787  67.032  1.00  0.00     0.106 CG0
ATOM     16  G   UNL     1       3.263  34.684  68.493  1.00  0.00     0.000 G0
ENDBRANCH  13  15
ENDBRANCH  12  13
BRANCH  12  17
ATOM     17  C   UNL     1       6.723  34.790  64.963  1.00  0.00    -0.006 C 
ATOM     18  C   UNL     1       8.252  34.752  64.792  1.00  0.00     0.008 C 
ATOM     19  C   UNL     1       6.125  35.867  64.042  1.00  0.00     0.008 C 
ENDBRANCH  12  17
ENDBRANCH  11  12
ENDBRANCH   1  11
TORSDOF 1
ENDMDL
MODEL 3
REMARK VINA RESULT:    -3.228     10.334     11.927
REMARK INTER + INTRA:          -4.784
REMARK INTER:                  -4.571
REMARK INTRA:                  -0.214
REMARK UNBOUND:                 0.142
REMARK SMILES CC1=CCC[C@H](C)C(=O)C[C@@H](C(C)C)C(=O)C1
REMARK SMILES IDX 8 1 9 2 6 3 7 4 5 5 4 6 3 7 2 8 1 9 10 11 11 12 15 13 16 14
REMARK SMILES IDX 17 15 12 17 13 18 14 19
REMARK H PARENT
REMARK Flexibility Score: 70.00
ROOT
ATOM      1  C   UNL     1       5.267  24.648  71.103  1.00  0.00     0.136 C 
ATOM      2  O   UNL     1       4.425  24.890  71.954  1.00  0.00    -0.299 OA
ENDROOT
BRANCH   1   3
ATOM      3  C   UNL     1       5.924  23.277  71.124  1.00  0.00     0.053 C 
ATOM      4  C   UNL     1       6.772  23.145  72.393  1.00  0.00     0.016 C 
BRANCH   3   5
ATOM      5  C   UNL     1       4.956  22.075  71.003  1.00  0.00     0.015 C 
BRANCH   5   6
ATOM      6  C   UNL     1       4.522  21.759  69.554  1.00  0.00     0.028 C 
BRANCH   6   7
ATOM      7  C   UNL     1       5.647  22.047  68.586  1.00  0.00    -0.028 C 
ATOM      8  C   UNL     1       5.599  22.930  67.562  1.00  0.00    -0.070 CG0
ATOM      9  C   UNL     1       6.814  23.049  66.677  1.00  0.00     0.039 C 
ATOM     10  G   UNL     1       4.397  23.813  67.282  1.00  0.00     0.000 G0
ENDBRANCH   6   7
ENDBRANCH   5   6
ENDBRANCH   3   5
ENDBRANCH   1   3
BRANCH   1  11
ATOM     11  C   UNL     1       5.505  25.670  70.005  1.00  0.00     0.087 C 
BRANCH  11  12
ATOM     12  C   UNL     1       4.331  25.846  68.990  1.00  0.00     0.066 C 
BRANCH  12  13
ATOM     13  C   UNL     1       4.636  25.266  67.613  1.00  0.00     0.140 C 
ATOM     14  O   UNL     1       5.036  25.999  66.720  1.00  0.00    -0.299 OA
BRANCH  13  15
ATOM     15  C   UNL     1       4.396  23.814  67.286  1.00  0.00     0.106 CG0
ATOM     16  G   UNL     1       5.594  22.929  67.576  1.00  0.00     0.000 G0
ENDBRANCH  13  15
ENDBRANCH  12  13
BRANCH  12  17
ATOM     17  C   UNL     1       3.747  27.294  68.898  1.00  0.00    -0.006 C 
ATOM     18  C   UNL     1       4.670  28.391  69.457  1.00  0.00     0.008 C 
ATOM     19  C   UNL     1       2.364  27.389  69.564  1.00  0.00     0.008 C 
ENDBRANCH  12  17
ENDBRANCH  11  12
ENDBRANCH   1  11
TORSDOF 1
ENDMDL
MODEL 4
REMARK VINA RESULT:    -3.176      9.038     11.015
REMARK INTER + INTRA:          -4.705
REMARK INTER:                  -4.811
REMARK INTRA:                   0.106
REMARK UNBOUND:                 0.142
REMARK SMILES CC1=CCC[C@H](C)C(=O)C[C@@H](C(C)C)C(=O)C1
REMARK SMILES IDX 8 1 9 2 6 3 7 4 5 5 4 6 3 7 2 8 1 9 10 11 11 12 15 13 16 14
REMARK SMILES IDX 17 15 12 17 13 18 14 19
REMARK H PARENT
REMARK Flexibility Score: 70.00
ROOT
ATOM      1  C   UNL     1       5.160  24.043  69.142  1.00  0.00     0.136 C 
ATOM      2  O   UNL     1       6.139  23.373  69.434  1.00  0.00    -0.299 OA
ENDROOT
BRANCH   1   3
ATOM      3  C   UNL     1       4.578  24.952  70.213  1.00  0.00     0.053 C 
ATOM      4  C   UNL     1       5.267  24.659  71.550  1.00  0.00     0.016 C 
BRANCH   3   5
ATOM      5  C   UNL     1       4.639  26.467  69.904  1.00  0.00     0.015 C 
BRANCH   5   6
ATOM      6  C   UNL     1       3.429  26.995  69.100  1.00  0.00     0.028 C 
BRANCH   6   7
ATOM      7  C   UNL     1       3.863  28.062  68.121  1.00  0.00    -0.028 C 
ATOM      8  C   UNL     1       4.197  27.857  66.826  1.00  0.00    -0.070 CG0
ATOM      9  C   UNL     1       4.645  29.046  66.016  1.00  0.00     0.039 C 
ATOM     10  G   UNL     1       4.117  26.498  66.155  1.00  0.00     0.000 G0
ENDBRANCH   6   7
ENDBRANCH   5   6
ENDBRANCH   3   5
ENDBRANCH   1   3
BRANCH   1  11
ATOM     11  C   UNL     1       4.675  24.032  67.704  1.00  0.00     0.087 C 
BRANCH  11  12
ATOM     12  C   UNL     1       5.738  24.441  66.636  1.00  0.00     0.066 C 
BRANCH  12  13
ATOM     13  C   UNL     1       5.468  25.805  66.010  1.00  0.00     0.140 C 
ATOM     14  O   UNL     1       6.370  26.402  65.441  1.00  0.00    -0.299 OA
BRANCH  13  15
ATOM     15  C   UNL     1       4.127  26.487  66.126  1.00  0.00     0.106 CG0
ATOM     16  G   UNL     1       4.200  27.836  66.817  1.00  0.00     0.000 G0
ENDBRANCH  13  15
ENDBRANCH  12  13
BRANCH  12  17
ATOM     17  C   UNL     1       6.042  23.353  65.554  1.00  0.00    -0.006 C 
ATOM     18  C   UNL     1       4.803  22.603  65.036  1.00  0.00     0.008 C 
ATOM     19  C   UNL     1       7.091  22.343  66.048  1.00  0.00     0.008 C 
ENDBRANCH  12  17
ENDBRANCH  11  12
ENDBRANCH   1  11
TORSDOF 1
ENDMDL
MODEL 5
REMARK VINA RESULT:    -3.076      1.838      3.906
REMARK INTER + INTRA:          -4.552
REMARK INTER:                  -4.419
REMARK INTRA:                  -0.133
REMARK UNBOUND:                 0.142
REMARK SMILES CC1=CCC[C@H](C)C(=O)C[C@@H](C(C)C)C(=O)C1
REMARK SMILES IDX 8 1 9 2 6 3 7 4 5 5 4 6 3 7 2 8 1 9 10 11 11 12 15 13 16 14
REMARK SMILES IDX 17 15 12 17 13 18 14 19
REMARK H PARENT
REMARK Flexibility Score: 70.00
ROOT
ATOM      1  C   UNL     1       5.333  33.623  66.874  1.00  0.00     0.136 C 
ATOM      2  O   UNL     1       6.178  32.784  67.146  1.00  0.00    -0.299 OA
ENDROOT
BRANCH   1   3
ATOM      3  C   UNL     1       3.897  33.153  66.698  1.00  0.00     0.053 C 
ATOM      4  C   UNL     1       3.828  32.185  65.512  1.00  0.00     0.016 C 
BRANCH   3   5
ATOM      5  C   UNL     1       3.252  32.510  67.949  1.00  0.00     0.015 C 
BRANCH   5   6
ATOM      6  C   UNL     1       2.505  33.512  68.859  1.00  0.00     0.028 C 
BRANCH   6   7
ATOM      7  C   UNL     1       2.180  34.779  68.102  1.00  0.00    -0.028 C 
ATOM      8  C   UNL     1       2.715  35.998  68.337  1.00  0.00    -0.070 CG0
ATOM      9  C   UNL     1       2.233  37.155  67.498  1.00  0.00     0.039 C 
ATOM     10  G   UNL     1       3.788  36.246  69.382  1.00  0.00     0.000 G0
ENDBRANCH   6   7
ENDBRANCH   5   6
ENDBRANCH   3   5
ENDBRANCH   1   3
BRANCH   1  11
ATOM     11  C   UNL     1       5.737  35.087  66.865  1.00  0.00     0.087 C 
BRANCH  11  12
ATOM     12  C   UNL     1       6.124  35.682  68.257  1.00  0.00     0.066 C 
BRANCH  12  13
ATOM     13  C   UNL     1       5.110  36.695  68.779  1.00  0.00     0.140 C 
ATOM     14  O   UNL     1       5.382  37.886  68.771  1.00  0.00    -0.299 OA
BRANCH  13  15
ATOM     15  C   UNL     1       3.792  36.271  69.377  1.00  0.00     0.106 CG0
ATOM     16  G   UNL     1       2.722  36.003  68.334  1.00  0.00     0.000 G0
ENDBRANCH  13  15
ENDBRANCH  12  13
BRANCH  12  17
ATOM     17  C   UNL     1       7.590  36.215  68.365  1.00  0.00    -0.006 C 
ATOM     18  C   UNL     1       8.332  36.319  67.022  1.00  0.00     0.008 C 
ATOM     19  C   UNL     1       8.423  35.381  69.354  1.00  0.00     0.008 C 
ENDBRANCH  12  17
ENDBRANCH  11  12
ENDBRANCH   1  11
TORSDOF 1
ENDMDL
MODEL 6
REMARK VINA RESULT:    -3.051      1.878      4.724
REMARK INTER + INTRA:          -4.515
REMARK INTER:                  -4.272
REMARK INTRA:                  -0.243
REMARK UNBOUND:                 0.142
REMARK SMILES CC1=CCC[C@H](C)C(=O)C[C@@H](C(C)C)C(=O)C1
REMARK SMILES IDX 8 1 9 2 6 3 7 4 5 5 4 6 3 7 2 8 1 9 10 11 11 12 15 13 16 14
REMARK SMILES IDX 17 15 12 17 13 18 14 19
REMARK H PARENT
REMARK Flexibility Score: 70.00
ROOT
ATOM      1  C   UNL     1       7.801  35.508  67.829  1.00  0.00     0.136 C 
ATOM      2  O   UNL     1       8.670  35.510  66.970  1.00  0.00    -0.299 OA
ENDROOT
BRANCH   1   3
ATOM      3  C   UNL     1       7.770  36.670  68.809  1.00  0.00     0.053 C 
ATOM      4  C   UNL     1       8.995  36.586  69.726  1.00  0.00     0.016 C 
BRANCH   3   5
ATOM      5  C   UNL     1       7.679  38.076  68.170  1.00  0.00     0.015 C 
BRANCH   5   6
ATOM      6  C   UNL     1       6.259  38.463  67.698  1.00  0.00     0.028 C 
BRANCH   6   7
ATOM      7  C   UNL     1       5.257  38.281  68.816  1.00  0.00    -0.028 C 
ATOM      8  C   UNL     1       4.143  37.516  68.762  1.00  0.00    -0.070 CG0
ATOM      9  C   UNL     1       3.243  37.494  69.971  1.00  0.00     0.039 C 
ATOM     10  G   UNL     1       3.777  36.670  67.557  1.00  0.00     0.000 G0
ENDBRANCH   6   7
ENDBRANCH   5   6
ENDBRANCH   3   5
ENDBRANCH   1   3
BRANCH   1  11
ATOM     11  C   UNL     1       6.732  34.431  67.779  1.00  0.00     0.087 C 
BRANCH  11  12
ATOM     12  C   UNL     1       5.498  34.754  66.878  1.00  0.00     0.066 C 
BRANCH  12  13
ATOM     13  C   UNL     1       4.285  35.233  67.670  1.00  0.00     0.140 C 
ATOM     14  O   UNL     1       3.670  34.446  68.375  1.00  0.00    -0.299 OA
BRANCH  13  15
ATOM     15  C   UNL     1       3.768  36.645  67.562  1.00  0.00     0.106 CG0
ATOM     16  G   UNL     1       4.132  37.508  68.757  1.00  0.00     0.000 G0
ENDBRANCH  13  15
ENDBRANCH  12  13
BRANCH  12  17
ATOM     17  C   UNL     1       5.119  33.639  65.849  1.00  0.00    -0.006 C 
ATOM     18  C   UNL     1       5.982  32.368  65.938  1.00  0.00     0.008 C 
ATOM     19  C   UNL     1       5.130  34.174  64.407  1.00  0.00     0.008 C 
ENDBRANCH  12  17
ENDBRANCH  11  12
ENDBRANCH   1  11
TORSDOF 1
ENDMDL
MODEL 7
REMARK VINA RESULT:    -3.009      1.712      4.278
REMARK INTER + INTRA:          -4.450
REMARK INTER:                  -4.528
REMARK INTRA:                   0.079
REMARK UNBOUND:                 0.142
REMARK SMILES CC1=CCC[C@H](C)C(=O)C[C@@H](C(C)C)C(=O)C1
REMARK SMILES IDX 8 1 9 2 6 3 7 4 5 5 4 6 3 7 2 8 1 9 10 11 11 12 15 13 16 14
REMARK SMILES IDX 17 15 12 17 13 18 14 19
REMARK H PARENT
REMARK Flexibility Score: 70.00
ROOT
ATOM      1  C   UNL     1       6.225  36.737  68.600  1.00  0.00     0.136 C 
ATOM      2  O   UNL     1       6.321  37.223  69.717  1.00  0.00    -0.299 OA
ENDROOT
BRANCH   1   3
ATOM      3  C   UNL     1       7.397  35.919  68.080  1.00  0.00     0.053 C 
ATOM      4  C   UNL     1       8.602  36.124  69.004  1.00  0.00     0.016 C 
BRANCH   3   5
ATOM      5  C   UNL     1       7.121  34.408  67.892  1.00  0.00     0.015 C 
BRANCH   5   6
ATOM      6  C   UNL     1       6.724  34.015  66.451  1.00  0.00     0.028 C 
BRANCH   6   7
ATOM      7  C   UNL     1       5.657  32.944  66.465  1.00  0.00    -0.028 C 
ATOM      8  C   UNL     1       4.324  33.158  66.531  1.00  0.00    -0.070 CG0
ATOM      9  C   UNL     1       3.416  31.955  66.575  1.00  0.00     0.039 C 
ATOM     10  G   UNL     1       3.706  34.545  66.538  1.00  0.00     0.000 G0
ENDBRANCH   6   7
ENDBRANCH   5   6
ENDBRANCH   3   5
ENDBRANCH   1   3
BRANCH   1  11
ATOM     11  C   UNL     1       4.903  36.861  67.864  1.00  0.00     0.087 C 
BRANCH  11  12
ATOM     12  C   UNL     1       3.677  36.210  68.579  1.00  0.00     0.066 C 
BRANCH  12  13
ATOM     13  C   UNL     1       3.138  34.983  67.850  1.00  0.00     0.140 C 
ATOM     14  O   UNL     1       2.274  34.296  68.373  1.00  0.00    -0.299 OA
BRANCH  13  15
ATOM     15  C   UNL     1       3.688  34.540  66.517  1.00  0.00     0.106 CG0
ATOM     16  G   UNL     1       4.327  33.164  66.560  1.00  0.00     0.000 G0
ENDBRANCH  13  15
ENDBRANCH  12  13
BRANCH  12  17
ATOM     17  C   UNL     1       2.534  37.203  68.971  1.00  0.00    -0.006 C 
ATOM     18  C   UNL     1       2.038  38.092  67.817  1.00  0.00     0.008 C 
ATOM     19  C   UNL     1       2.935  38.082  70.168  1.00  0.00     0.008 C 
ENDBRANCH  12  17
ENDBRANCH  11  12
ENDBRANCH   1  11
TORSDOF 1
ENDMDL
MODEL 8
REMARK VINA RESULT:    -2.930      9.901     11.631
REMARK INTER + INTRA:          -4.330
REMARK INTER:                  -4.216
REMARK INTRA:                  -0.114
REMARK UNBOUND:                 0.142
REMARK SMILES CC1=CCC[C@H](C)C(=O)C[C@@H](C(C)C)C(=O)C1
REMARK SMILES IDX 8 1 9 2 6 3 7 4 5 5 4 6 3 7 2 8 1 9 10 11 11 12 15 13 16 14
REMARK SMILES IDX 17 15 12 17 13 18 14 19
REMARK H PARENT
REMARK Flexibility Score: 70.00
ROOT
ATOM      1  C   UNL     1       4.234  26.826  67.453  1.00  0.00     0.136 C 
ATOM      2  O   UNL     1       3.320  27.268  66.773  1.00  0.00    -0.299 OA
ENDROOT
BRANCH   1   3
ATOM      3  C   UNL     1       4.190  27.083  68.952  1.00  0.00     0.053 C 
ATOM      4  C   UNL     1       3.846  28.556  69.198  1.00  0.00     0.016 C 
BRANCH   3   5
ATOM      5  C   UNL     1       3.232  26.171  69.755  1.00  0.00     0.015 C 
BRANCH   5   6
ATOM      6  C   UNL     1       3.913  25.406  70.913  1.00  0.00     0.028 C 
BRANCH   6   7
ATOM      7  C   UNL     1       3.908  23.918  70.646  1.00  0.00    -0.028 C 
ATOM      8  C   UNL     1       4.870  23.230  69.990  1.00  0.00    -0.070 CG0
ATOM      9  C   UNL     1       4.666  21.750  69.788  1.00  0.00     0.039 C 
ATOM     10  G   UNL     1       6.146  23.873  69.477  1.00  0.00     0.000 G0
ENDBRANCH   6   7
ENDBRANCH   5   6
ENDBRANCH   3   5
ENDBRANCH   1   3
BRANCH   1  11
ATOM     11  C   UNL     1       5.271  25.939  66.790  1.00  0.00     0.087 C 
BRANCH  11  12
ATOM     12  C   UNL     1       5.146  24.414  67.102  1.00  0.00     0.066 C 
BRANCH  12  13
ATOM     13  C   UNL     1       6.270  23.887  67.989  1.00  0.00     0.140 C 
ATOM     14  O   UNL     1       7.275  23.415  67.479  1.00  0.00    -0.299 OA
BRANCH  13  15
ATOM     15  C   UNL     1       6.158  23.866  69.493  1.00  0.00     0.106 CG0
ATOM     16  G   UNL     1       4.878  23.218  69.988  1.00  0.00     0.000 G0
ENDBRANCH  13  15
ENDBRANCH  12  13
BRANCH  12  17
ATOM     17  C   UNL     1       4.909  23.499  65.855  1.00  0.00    -0.006 C 
ATOM     18  C   UNL     1       5.011  24.226  64.503  1.00  0.00     0.008 C 
ATOM     19  C   UNL     1       3.566  22.757  65.946  1.00  0.00     0.008 C 
ENDBRANCH  12  17
ENDBRANCH  11  12
ENDBRANCH   1  11
TORSDOF 1
ENDMDL
MODEL 9
REMARK VINA RESULT:    -2.851     10.429     12.219
REMARK INTER + INTRA:          -4.208
REMARK INTER:                  -4.305
REMARK INTRA:                   0.097
REMARK UNBOUND:                 0.142
REMARK SMILES CC1=CCC[C@H](C)C(=O)C[C@@H](C(C)C)C(=O)C1
REMARK SMILES IDX 8 1 9 2 6 3 7 4 5 5 4 6 3 7 2 8 1 9 10 11 11 12 15 13 16 14
REMARK SMILES IDX 17 15 12 17 13 18 14 19
REMARK H PARENT
REMARK Flexibility Score: 70.00
ROOT
ATOM      1  C   UNL     1       6.166  23.195  69.856  1.00  0.00     0.136 C 
ATOM      2  O   UNL     1       7.209  23.793  69.640  1.00  0.00    -0.299 OA
ENDROOT
BRANCH   1   3
ATOM      3  C   UNL     1       5.695  23.090  71.298  1.00  0.00     0.053 C 
ATOM      4  C   UNL     1       6.882  22.711  72.188  1.00  0.00     0.016 C 
BRANCH   3   5
ATOM      5  C   UNL     1       4.989  24.348  71.858  1.00  0.00     0.015 C 
BRANCH   5   6
ATOM      6  C   UNL     1       3.585  24.601  71.263  1.00  0.00     0.028 C 
BRANCH   6   7
ATOM      7  C   UNL     1       3.604  25.803  70.345  1.00  0.00    -0.028 C 
ATOM      8  C   UNL     1       3.183  25.822  69.060  1.00  0.00    -0.070 CG0
ATOM      9  C   UNL     1       3.319  27.112  68.292  1.00  0.00     0.039 C 
ATOM     10  G   UNL     1       2.563  24.619  68.373  1.00  0.00     0.000 G0
ENDBRANCH   6   7
ENDBRANCH   5   6
ENDBRANCH   3   5
ENDBRANCH   1   3
BRANCH   1  11
ATOM     11  C   UNL     1       5.343  22.718  68.673  1.00  0.00     0.087 C 
BRANCH  11  12
ATOM     12  C   UNL     1       4.976  23.817  67.626  1.00  0.00     0.066 C 
BRANCH  12  13
ATOM     13  C   UNL     1       3.475  23.939  67.383  1.00  0.00     0.140 C 
ATOM     14  O   UNL     1       2.996  23.544  66.331  1.00  0.00    -0.299 OA
BRANCH  13  15
ATOM     15  C   UNL     1       2.556  24.600  68.380  1.00  0.00     0.106 CG0
ATOM     16  G   UNL     1       3.174  25.811  69.054  1.00  0.00     0.000 G0
ENDBRANCH  13  15
ENDBRANCH  12  13
BRANCH  12  17
ATOM     17  C   UNL     1       5.780  23.751  66.287  1.00  0.00    -0.006 C 
ATOM     18  C   UNL     1       7.056  22.893  66.349  1.00  0.00     0.008 C 
ATOM     19  C   UNL     1       6.126  25.156  65.765  1.00  0.00     0.008 C 
ENDBRANCH  12  17
ENDBRANCH  11  12
ENDBRANCH   1  11
TORSDOF 1
ENDMDL
