MODEL 1
REMARK VINA RESULT:    -8.662      0.000      0.000
REMARK INTER + INTRA:         -10.377
REMARK INTER:                 -10.434
REMARK INTRA:                   0.057
REMARK UNBOUND:                 0.057
REMARK SMILES O=c1c(O)c(-c2ccc(O)c(O)c2)oc2cc(O)cc(O)c12
REMARK SMILES IDX 5 1 3 2 2 3 1 4 22 5 20 6 19 7 17 8 16 9 15 10 14 11 6 12
REMARK SMILES IDX 7 13 8 14 9 15 13 16 11 17 10 18 12 20 4 22 21 24 18 26
REMARK H PARENT 10 19 12 21 4 23 21 25 18 27
REMARK Flexibility Score: inf
ROOT
ATOM      1  C   UNL     1     -15.058 -30.967 -13.687  1.00  0.00     0.180 A 
ATOM      2  C   UNL     1     -15.177 -31.583 -12.429  1.00  0.00     0.208 A 
ATOM      3  C   UNL     1     -15.149 -32.985 -12.352  1.00  0.00     0.238 A 
ATOM      4  O   UNL     1     -15.202 -33.529 -11.218  1.00  0.00    -0.285 OA
ATOM      5  C   UNL     1     -15.019 -33.753 -13.534  1.00  0.00     0.111 A 
ATOM      6  C   UNL     1     -15.021 -35.180 -13.578  1.00  0.00     0.134 A 
ATOM      7  C   UNL     1     -14.755 -35.834 -14.787  1.00  0.00     0.093 A 
ATOM      8  C   UNL     1     -14.553 -35.116 -15.965  1.00  0.00     0.123 A 
ATOM      9  C   UNL     1     -14.609 -33.722 -15.945  1.00  0.00     0.094 A 
ATOM     10  C   UNL     1     -14.836 -33.040 -14.747  1.00  0.00     0.146 A 
ATOM     11  O   UNL     1     -14.871 -31.713 -14.769  1.00  0.00    -0.452 OA
ENDROOT
BRANCH   1  12
ATOM     12  C   UNL     1     -15.103 -29.496 -13.851  1.00  0.00     0.025 A 
ATOM     13  C   UNL     1     -16.104 -28.759 -13.205  1.00  0.00     0.016 A 
ATOM     14  C   UNL     1     -16.153 -27.370 -13.330  1.00  0.00     0.051 A 
ATOM     15  C   UNL     1     -15.196 -26.688 -14.089  1.00  0.00     0.157 A 
ATOM     16  C   UNL     1     -14.126 -28.812 -14.597  1.00  0.00     0.062 A 
ATOM     17  C   UNL     1     -14.165 -27.418 -14.726  1.00  0.00     0.158 A 
BRANCH  15  18
ATOM     18  O   UNL     1     -15.304 -25.298 -14.181  1.00  0.00    -0.504 OA
ATOM     19  H   UNL     1     -14.944 -24.753 -14.950  1.00  0.00     0.293 HD
ENDBRANCH  15  18
BRANCH  17  20
ATOM     20  O   UNL     1     -13.164 -26.805 -15.482  1.00  0.00    -0.504 OA
ATOM     21  H   UNL     1     -12.218 -27.150 -15.552  1.00  0.00     0.293 HD
ENDBRANCH  17  20
ENDBRANCH   1  12
BRANCH   2  22
ATOM     22  O   UNL     1     -15.281 -30.805 -11.272  1.00  0.00    -0.502 OA
ATOM     23  H   UNL     1     -16.175 -30.553 -10.866  1.00  0.00     0.293 HD
ENDBRANCH   2  22
BRANCH   6  24
ATOM     24  O   UNL     1     -15.302 -35.994 -12.477  1.00  0.00    -0.507 OA
ATOM     25  H   UNL     1     -14.630 -36.589 -12.015  1.00  0.00     0.293 HD
ENDBRANCH   6  24
BRANCH   8  26
ATOM     26  O   UNL     1     -14.307 -35.800 -17.153  1.00  0.00    -0.508 OA
ATOM     27  H   UNL     1     -14.655 -35.461 -18.042  1.00  0.00     0.293 HD
ENDBRANCH   8  26
TORSDOF 6
ENDMDL
MODEL 2
REMARK VINA RESULT:    -8.437      3.946      7.010
REMARK INTER + INTRA:         -10.107
REMARK INTER:                 -10.572
REMARK INTRA:                   0.465
REMARK UNBOUND:                 0.057
REMARK SMILES O=c1c(O)c(-c2ccc(O)c(O)c2)oc2cc(O)cc(O)c12
REMARK SMILES IDX 5 1 3 2 2 3 1 4 22 5 20 6 19 7 17 8 16 9 15 10 14 11 6 12
REMARK SMILES IDX 7 13 8 14 9 15 13 16 11 17 10 18 12 20 4 22 21 24 18 26
REMARK H PARENT 10 19 12 21 4 23 21 25 18 27
REMARK Flexibility Score: inf
ROOT
ATOM      1  C   UNL     1     -12.896 -30.375 -10.962  1.00  0.00     0.180 A 
ATOM      2  C   UNL     1     -14.085 -31.066 -11.254  1.00  0.00     0.208 A 
ATOM      3  C   UNL     1     -15.029 -30.466 -12.102  1.00  0.00     0.238 A 
ATOM      4  O   UNL     1     -16.067 -31.112 -12.404  1.00  0.00    -0.285 OA
ATOM      5  C   UNL     1     -14.781 -29.178 -12.635  1.00  0.00     0.111 A 
ATOM      6  C   UNL     1     -15.686 -28.459 -13.472  1.00  0.00     0.134 A 
ATOM      7  C   UNL     1     -15.281 -27.248 -14.046  1.00  0.00     0.093 A 
ATOM      8  C   UNL     1     -14.032 -26.698 -13.762  1.00  0.00     0.123 A 
ATOM      9  C   UNL     1     -13.162 -27.363 -12.897  1.00  0.00     0.094 A 
ATOM     10  C   UNL     1     -13.523 -28.591 -12.338  1.00  0.00     0.146 A 
ATOM     11  O   UNL     1     -12.663 -29.197 -11.529  1.00  0.00    -0.452 OA
ENDROOT
BRANCH   1  12
ATOM     12  C   UNL     1     -11.864 -30.931 -10.056  1.00  0.00     0.025 A 
ATOM     13  C   UNL     1     -11.847 -32.307  -9.791  1.00  0.00     0.016 A 
ATOM     14  C   UNL     1     -10.871 -32.854  -8.956  1.00  0.00     0.051 A 
ATOM     15  C   UNL     1      -9.886 -32.043  -8.383  1.00  0.00     0.157 A 
ATOM     16  C   UNL     1     -10.861 -30.116  -9.501  1.00  0.00     0.062 A 
ATOM     17  C   UNL     1      -9.876 -30.656  -8.665  1.00  0.00     0.158 A 
BRANCH  15  18
ATOM     18  O   UNL     1      -8.942 -32.651  -7.552  1.00  0.00    -0.504 OA
ATOM     19  H   UNL     1      -8.947 -32.581  -6.546  1.00  0.00     0.293 HD
ENDBRANCH  15  18
BRANCH  17  20
ATOM     20  O   UNL     1      -8.913 -29.789  -8.147  1.00  0.00    -0.504 OA
ATOM     21  H   UNL     1      -9.059 -29.198  -7.341  1.00  0.00     0.293 HD
ENDBRANCH  17  20
ENDBRANCH   1  12
BRANCH   2  22
ATOM     22  O   UNL     1     -14.299 -32.346 -10.736  1.00  0.00    -0.502 OA
ATOM     23  H   UNL     1     -13.590 -32.845 -10.211  1.00  0.00     0.293 HD
ENDBRANCH   2  22
BRANCH   6  24
ATOM     24  O   UNL     1     -16.993 -28.873 -13.747  1.00  0.00    -0.507 OA
ATOM     25  H   UNL     1     -17.423 -29.706 -13.371  1.00  0.00     0.293 HD
ENDBRANCH   6  24
BRANCH   8  26
ATOM     26  O   UNL     1     -13.668 -25.483 -14.339  1.00  0.00    -0.508 OA
ATOM     27  H   UNL     1     -13.095 -24.811 -13.842  1.00  0.00     0.293 HD
ENDBRANCH   8  26
TORSDOF 6
ENDMDL
MODEL 3
REMARK VINA RESULT:    -7.516      3.592      4.835
REMARK INTER + INTRA:          -8.997
REMARK INTER:                  -8.686
REMARK INTRA:                  -0.311
REMARK UNBOUND:                 0.057
REMARK SMILES O=c1c(O)c(-c2ccc(O)c(O)c2)oc2cc(O)cc(O)c12
REMARK SMILES IDX 5 1 3 2 2 3 1 4 22 5 20 6 19 7 17 8 16 9 15 10 14 11 6 12
REMARK SMILES IDX 7 13 8 14 9 15 13 16 11 17 10 18 12 20 4 22 21 24 18 26
REMARK H PARENT 10 19 12 21 4 23 21 25 18 27
REMARK Flexibility Score: inf
ROOT
ATOM      1  C   UNL     1     -13.540 -29.522 -11.709  1.00  0.00     0.180 A 
ATOM      2  C   UNL     1     -14.459 -30.543 -11.409  1.00  0.00     0.208 A 
ATOM      3  C   UNL     1     -14.057 -31.593 -10.569  1.00  0.00     0.238 A 
ATOM      4  O   UNL     1     -14.900 -32.476 -10.261  1.00  0.00    -0.285 OA
ATOM      5  C   UNL     1     -12.740 -31.619 -10.051  1.00  0.00     0.111 A 
ATOM      6  C   UNL     1     -12.214 -32.656  -9.224  1.00  0.00     0.134 A 
ATOM      7  C   UNL     1     -10.938 -32.512  -8.663  1.00  0.00     0.093 A 
ATOM      8  C   UNL     1     -10.146 -31.402  -8.953  1.00  0.00     0.123 A 
ATOM      9  C   UNL     1     -10.626 -30.411  -9.809  1.00  0.00     0.094 A 
ATOM     10  C   UNL     1     -11.909 -30.508 -10.354  1.00  0.00     0.146 A 
ATOM     11  O   UNL     1     -12.333 -29.539 -11.155  1.00  0.00    -0.452 OA
ENDROOT
BRANCH   1  12
ATOM     12  C   UNL     1     -13.881 -28.394 -12.607  1.00  0.00     0.025 A 
ATOM     13  C   UNL     1     -14.184 -27.141 -12.057  1.00  0.00     0.016 A 
ATOM     14  C   UNL     1     -14.489 -26.060 -12.886  1.00  0.00     0.051 A 
ATOM     15  C   UNL     1     -14.482 -26.204 -14.278  1.00  0.00     0.157 A 
ATOM     16  C   UNL     1     -13.851 -28.537 -14.005  1.00  0.00     0.062 A 
ATOM     17  C   UNL     1     -14.152 -27.457 -14.845  1.00  0.00     0.158 A 
BRANCH  15  18
ATOM     18  O   UNL     1     -14.802 -25.086 -15.051  1.00  0.00    -0.504 OA
ATOM     19  H   UNL     1     -14.150 -24.617 -15.662  1.00  0.00     0.293 HD
ENDBRANCH  15  18
BRANCH  17  20
ATOM     20  O   UNL     1     -14.105 -27.671 -16.224  1.00  0.00    -0.504 OA
ATOM     21  H   UNL     1     -13.434 -28.271 -16.680  1.00  0.00     0.293 HD
ENDBRANCH  17  20
ENDBRANCH   1  12
BRANCH   2  22
ATOM     22  O   UNL     1     -15.761 -30.486 -11.912  1.00  0.00    -0.502 OA
ATOM     23  H   UNL     1     -16.475 -31.156 -11.649  1.00  0.00     0.293 HD
ENDBRANCH   2  22
BRANCH   6  24
ATOM     24  O   UNL     1     -12.886 -33.849  -8.945  1.00  0.00    -0.507 OA
ATOM     25  H   UNL     1     -13.441 -34.366  -9.612  1.00  0.00     0.293 HD
ENDBRANCH   6  24
BRANCH   8  26
ATOM     26  O   UNL     1      -8.875 -31.299  -8.390  1.00  0.00    -0.508 OA
ATOM     27  H   UNL     1      -8.099 -31.854  -8.729  1.00  0.00     0.293 HD
ENDBRANCH   8  26
TORSDOF 6
ENDMDL
MODEL 4
REMARK VINA RESULT:    -7.239      1.353      6.822
REMARK INTER + INTRA:          -8.663
REMARK INTER:                  -9.072
REMARK INTRA:                   0.409
REMARK UNBOUND:                 0.057
REMARK SMILES O=c1c(O)c(-c2ccc(O)c(O)c2)oc2cc(O)cc(O)c12
REMARK SMILES IDX 5 1 3 2 2 3 1 4 22 5 20 6 19 7 17 8 16 9 15 10 14 11 6 12
REMARK SMILES IDX 7 13 8 14 9 15 13 16 11 17 10 18 12 20 4 22 21 24 18 26
REMARK H PARENT 10 19 12 21 4 23 21 25 18 27
REMARK Flexibility Score: inf
ROOT
ATOM      1  C   UNL     1     -14.980 -30.901 -13.500  1.00  0.00     0.180 A 
ATOM      2  C   UNL     1     -15.273 -30.517 -12.179  1.00  0.00     0.208 A 
ATOM      3  C   UNL     1     -15.190 -29.159 -11.832  1.00  0.00     0.238 A 
ATOM      4  O   UNL     1     -15.506 -28.815 -10.663  1.00  0.00    -0.285 OA
ATOM      5  C   UNL     1     -14.801 -28.205 -12.802  1.00  0.00     0.111 A 
ATOM      6  C   UNL     1     -14.644 -26.809 -12.549  1.00  0.00     0.134 A 
ATOM      7  C   UNL     1     -14.382 -25.940 -13.615  1.00  0.00     0.093 A 
ATOM      8  C   UNL     1     -14.205 -26.422 -14.911  1.00  0.00     0.123 A 
ATOM      9  C   UNL     1     -14.295 -27.792 -15.160  1.00  0.00     0.094 A 
ATOM     10  C   UNL     1     -14.593 -28.680 -14.123  1.00  0.00     0.146 A 
ATOM     11  O   UNL     1     -14.682 -29.975 -14.403  1.00  0.00    -0.452 OA
ENDROOT
BRANCH   1  12
ATOM     12  C   UNL     1     -15.021 -32.316 -13.936  1.00  0.00     0.025 A 
ATOM     13  C   UNL     1     -14.950 -32.619 -15.303  1.00  0.00     0.016 A 
ATOM     14  C   UNL     1     -14.967 -33.947 -15.734  1.00  0.00     0.051 A 
ATOM     15  C   UNL     1     -15.040 -34.996 -14.812  1.00  0.00     0.157 A 
ATOM     16  C   UNL     1     -15.071 -33.368 -13.005  1.00  0.00     0.062 A 
ATOM     17  C   UNL     1     -15.086 -34.703 -13.428  1.00  0.00     0.158 A 
BRANCH  15  18
ATOM     18  O   UNL     1     -15.060 -36.301 -15.308  1.00  0.00    -0.504 OA
ATOM     19  H   UNL     1     -14.242 -36.887 -15.389  1.00  0.00     0.293 HD
ENDBRANCH  15  18
BRANCH  17  20
ATOM     20  O   UNL     1     -15.138 -35.697 -12.449  1.00  0.00    -0.504 OA
ATOM     21  H   UNL     1     -15.025 -35.523 -11.461  1.00  0.00     0.293 HD
ENDBRANCH  17  20
ENDBRANCH   1  12
BRANCH   2  22
ATOM     22  O   UNL     1     -15.678 -31.473 -11.243  1.00  0.00    -0.502 OA
ATOM     23  H   UNL     1     -15.017 -31.995 -10.680  1.00  0.00     0.293 HD
ENDBRANCH   2  22
BRANCH   6  24
ATOM     24  O   UNL     1     -14.710 -26.234 -11.277  1.00  0.00    -0.507 OA
ATOM     25  H   UNL     1     -15.327 -25.478 -11.019  1.00  0.00     0.293 HD
ENDBRANCH   6  24
BRANCH   8  26
ATOM     26  O   UNL     1     -13.928 -25.530 -15.945  1.00  0.00    -0.508 OA
ATOM     27  H   UNL     1     -12.979 -25.353 -16.253  1.00  0.00     0.293 HD
ENDBRANCH   8  26
TORSDOF 6
ENDMDL
MODEL 5
REMARK VINA RESULT:    -6.264      1.519      6.462
REMARK INTER + INTRA:          -7.489
REMARK INTER:                  -7.825
REMARK INTRA:                   0.336
REMARK UNBOUND:                 0.057
REMARK SMILES O=c1c(O)c(-c2ccc(O)c(O)c2)oc2cc(O)cc(O)c12
REMARK SMILES IDX 5 1 3 2 2 3 1 4 22 5 20 6 19 7 17 8 16 9 15 10 14 11 6 12
REMARK SMILES IDX 7 13 8 14 9 15 13 16 11 17 10 18 12 20 4 22 21 24 18 26
REMARK H PARENT 10 19 12 21 4 23 21 25 18 27
REMARK Flexibility Score: inf
ROOT
ATOM      1  C   UNL     1     -14.991 -33.063 -13.419  1.00  0.00     0.180 A 
ATOM      2  C   UNL     1     -15.125 -33.387 -12.057  1.00  0.00     0.208 A 
ATOM      3  C   UNL     1     -15.250 -32.348 -11.121  1.00  0.00     0.238 A 
ATOM      4  O   UNL     1     -15.424 -32.645  -9.910  1.00  0.00    -0.285 OA
ATOM      5  C   UNL     1     -15.224 -31.001 -11.554  1.00  0.00     0.111 A 
ATOM      6  C   UNL     1     -15.301 -29.869 -10.688  1.00  0.00     0.134 A 
ATOM      7  C   UNL     1     -15.397 -28.584 -11.238  1.00  0.00     0.093 A 
ATOM      8  C   UNL     1     -15.352 -28.386 -12.617  1.00  0.00     0.123 A 
ATOM      9  C   UNL     1     -15.216 -29.481 -13.471  1.00  0.00     0.094 A 
ATOM     10  C   UNL     1     -15.155 -30.777 -12.954  1.00  0.00     0.146 A 
ATOM     11  O   UNL     1     -15.036 -31.793 -13.801  1.00  0.00    -0.452 OA
ENDROOT
BRANCH   1  12
ATOM     12  C   UNL     1     -14.830 -34.102 -14.463  1.00  0.00     0.025 A 
ATOM     13  C   UNL     1     -15.414 -35.362 -14.279  1.00  0.00     0.016 A 
ATOM     14  C   UNL     1     -15.291 -36.348 -15.259  1.00  0.00     0.051 A 
ATOM     15  C   UNL     1     -14.596 -36.092 -16.447  1.00  0.00     0.157 A 
ATOM     16  C   UNL     1     -14.151 -33.833 -15.665  1.00  0.00     0.062 A 
ATOM     17  C   UNL     1     -14.024 -34.814 -16.655  1.00  0.00     0.158 A 
BRANCH  15  18
ATOM     18  O   UNL     1     -14.504 -37.123 -17.385  1.00  0.00    -0.504 OA
ATOM     19  H   UNL     1     -15.158 -37.888 -17.449  1.00  0.00     0.293 HD
ENDBRANCH  15  18
BRANCH  17  20
ATOM     20  O   UNL     1     -13.336 -34.478 -17.822  1.00  0.00    -0.504 OA
ATOM     21  H   UNL     1     -13.781 -34.147 -18.665  1.00  0.00     0.293 HD
ENDBRANCH  17  20
ENDBRANCH   1  12
BRANCH   2  22
ATOM     22  O   UNL     1     -15.171 -34.724 -11.654  1.00  0.00    -0.502 OA
ATOM     23  H   UNL     1     -16.044 -35.210 -11.484  1.00  0.00     0.293 HD
ENDBRANCH   2  22
BRANCH   6  24
ATOM     24  O   UNL     1     -15.261 -29.949  -9.293  1.00  0.00    -0.507 OA
ATOM     25  H   UNL     1     -14.539 -30.417  -8.765  1.00  0.00     0.293 HD
ENDBRANCH   6  24
BRANCH   8  26
ATOM     26  O   UNL     1     -15.434 -27.093 -13.128  1.00  0.00    -0.508 OA
ATOM     27  H   UNL     1     -14.943 -26.824 -13.973  1.00  0.00     0.293 HD
ENDBRANCH   8  26
TORSDOF 6
ENDMDL
MODEL 6
REMARK VINA RESULT:    -6.164      3.208      4.309
REMARK INTER + INTRA:          -7.369
REMARK INTER:                  -7.472
REMARK INTRA:                   0.104
REMARK UNBOUND:                 0.057
REMARK SMILES O=c1c(O)c(-c2ccc(O)c(O)c2)oc2cc(O)cc(O)c12
REMARK SMILES IDX 5 1 3 2 2 3 1 4 22 5 20 6 19 7 17 8 16 9 15 10 14 11 6 12
REMARK SMILES IDX 7 13 8 14 9 15 13 16 11 17 10 18 12 20 4 22 21 24 18 26
REMARK H PARENT 10 19 12 21 4 23 21 25 18 27
REMARK Flexibility Score: inf
ROOT
ATOM      1  C   UNL     1     -14.091 -29.172 -12.637  1.00  0.00     0.180 A 
ATOM      2  C   UNL     1     -15.288 -29.909 -12.629  1.00  0.00     0.208 A 
ATOM      3  C   UNL     1     -15.369 -31.066 -11.838  1.00  0.00     0.238 A 
ATOM      4  O   UNL     1     -16.462 -31.690 -11.792  1.00  0.00    -0.285 OA
ATOM      5  C   UNL     1     -14.250 -31.481 -11.078  1.00  0.00     0.111 A 
ATOM      6  C   UNL     1     -14.207 -32.659 -10.274  1.00  0.00     0.134 A 
ATOM      7  C   UNL     1     -13.091 -32.902  -9.463  1.00  0.00     0.093 A 
ATOM      8  C   UNL     1     -11.991 -32.047  -9.478  1.00  0.00     0.123 A 
ATOM      9  C   UNL     1     -11.996 -30.924 -10.305  1.00  0.00     0.094 A 
ATOM     10  C   UNL     1     -13.110 -30.635 -11.098  1.00  0.00     0.146 A 
ATOM     11  O   UNL     1     -13.080 -29.550 -11.863  1.00  0.00    -0.452 OA
ENDROOT
BRANCH   1  12
ATOM     12  C   UNL     1     -13.920 -27.955 -13.464  1.00  0.00     0.025 A 
ATOM     13  C   UNL     1     -12.758 -27.801 -14.233  1.00  0.00     0.016 A 
ATOM     14  C   UNL     1     -12.586 -26.671 -15.035  1.00  0.00     0.051 A 
ATOM     15  C   UNL     1     -13.574 -25.683 -15.097  1.00  0.00     0.157 A 
ATOM     16  C   UNL     1     -14.925 -26.976 -13.542  1.00  0.00     0.062 A 
ATOM     17  C   UNL     1     -14.763 -25.840 -14.346  1.00  0.00     0.158 A 
BRANCH  15  18
ATOM     18  O   UNL     1     -13.339 -24.574 -15.913  1.00  0.00    -0.504 OA
ATOM     19  H   UNL     1     -13.712 -23.654 -15.737  1.00  0.00     0.293 HD
ENDBRANCH  15  18
BRANCH  17  20
ATOM     20  O   UNL     1     -15.802 -24.908 -14.374  1.00  0.00    -0.504 OA
ATOM     21  H   UNL     1     -16.772 -25.138 -14.220  1.00  0.00     0.293 HD
ENDBRANCH  17  20
ENDBRANCH   1  12
BRANCH   2  22
ATOM     22  O   UNL     1     -16.389 -29.468 -13.368  1.00  0.00    -0.502 OA
ATOM     23  H   UNL     1     -17.118 -28.891 -12.965  1.00  0.00     0.293 HD
ENDBRANCH   2  22
BRANCH   6  24
ATOM     24  O   UNL     1     -15.215 -33.628 -10.255  1.00  0.00    -0.507 OA
ATOM     25  H   UNL     1     -16.169 -33.460  -9.974  1.00  0.00     0.293 HD
ENDBRANCH   6  24
BRANCH   8  26
ATOM     26  O   UNL     1     -10.891 -32.328  -8.670  1.00  0.00    -0.508 OA
ATOM     27  H   UNL     1     -10.157 -31.647  -8.519  1.00  0.00     0.293 HD
ENDBRANCH   8  26
TORSDOF 6
ENDMDL
MODEL 7
REMARK VINA RESULT:    -5.743      1.492      2.944
REMARK INTER + INTRA:          -6.862
REMARK INTER:                  -7.272
REMARK INTRA:                   0.410
REMARK UNBOUND:                 0.057
REMARK SMILES O=c1c(O)c(-c2ccc(O)c(O)c2)oc2cc(O)cc(O)c12
REMARK SMILES IDX 5 1 3 2 2 3 1 4 22 5 20 6 19 7 17 8 16 9 15 10 14 11 6 12
REMARK SMILES IDX 7 13 8 14 9 15 13 16 11 17 10 18 12 20 4 22 21 24 18 26
REMARK H PARENT 10 19 12 21 4 23 21 25 18 27
REMARK Flexibility Score: inf
ROOT
ATOM      1  C   UNL     1     -14.709 -30.552 -14.118  1.00  0.00     0.180 A 
ATOM      2  C   UNL     1     -14.447 -30.693 -15.492  1.00  0.00     0.208 A 
ATOM      3  C   UNL     1     -14.386 -31.982 -16.044  1.00  0.00     0.238 A 
ATOM      4  O   UNL     1     -14.205 -32.100 -17.284  1.00  0.00    -0.285 OA
ATOM      5  C   UNL     1     -14.570 -33.114 -15.214  1.00  0.00     0.111 A 
ATOM      6  C   UNL     1     -14.488 -34.468 -15.660  1.00  0.00     0.134 A 
ATOM      7  C   UNL     1     -14.817 -35.505 -14.779  1.00  0.00     0.093 A 
ATOM      8  C   UNL     1     -15.160 -35.243 -13.453  1.00  0.00     0.123 A 
ATOM      9  C   UNL     1     -15.185 -33.927 -12.991  1.00  0.00     0.094 A 
ATOM     10  C   UNL     1     -14.898 -32.868 -13.856  1.00  0.00     0.146 A 
ATOM     11  O   UNL     1     -14.943 -31.630 -13.379  1.00  0.00    -0.452 OA
ENDROOT
BRANCH   1  12
ATOM     12  C   UNL     1     -14.765 -29.227 -13.458  1.00  0.00     0.025 A 
ATOM     13  C   UNL     1     -15.273 -29.125 -12.156  1.00  0.00     0.016 A 
ATOM     14  C   UNL     1     -15.316 -27.889 -11.509  1.00  0.00     0.051 A 
ATOM     15  C   UNL     1     -14.840 -26.735 -12.141  1.00  0.00     0.157 A 
ATOM     16  C   UNL     1     -14.264 -28.074 -14.088  1.00  0.00     0.062 A 
ATOM     17  C   UNL     1     -14.300 -26.830 -13.445  1.00  0.00     0.158 A 
BRANCH  15  18
ATOM     18  O   UNL     1     -14.917 -25.528 -11.442  1.00  0.00    -0.504 OA
ATOM     19  H   UNL     1     -15.769 -25.003 -11.316  1.00  0.00     0.293 HD
ENDBRANCH  15  18
BRANCH  17  20
ATOM     20  O   UNL     1     -13.787 -25.727 -14.131  1.00  0.00    -0.504 OA
ATOM     21  H   UNL     1     -12.884 -25.316 -13.945  1.00  0.00     0.293 HD
ENDBRANCH  17  20
ENDBRANCH   1  12
BRANCH   2  22
ATOM     22  O   UNL     1     -14.291 -29.561 -16.297  1.00  0.00    -0.502 OA
ATOM     23  H   UNL     1     -13.605 -28.843 -16.097  1.00  0.00     0.293 HD
ENDBRANCH   2  22
BRANCH   6  24
ATOM     24  O   UNL     1     -14.067 -34.845 -16.938  1.00  0.00    -0.507 OA
ATOM     25  H   UNL     1     -13.462 -34.294 -17.530  1.00  0.00     0.293 HD
ENDBRANCH   6  24
BRANCH   8  26
ATOM     26  O   UNL     1     -15.465 -36.301 -12.600  1.00  0.00    -0.508 OA
ATOM     27  H   UNL     1     -14.870 -36.539 -11.817  1.00  0.00     0.293 HD
ENDBRANCH   8  26
TORSDOF 6
ENDMDL
