MODEL 1
REMARK VINA RESULT:    -3.266      0.000      0.000
REMARK INTER + INTRA:          -3.881
REMARK INTER:                  -4.603
REMARK INTRA:                   0.722
REMARK UNBOUND:                 0.722
REMARK SMILES CC1=CCC(=C(C)C)C(=O)CC(C)=CCC1
REMARK SMILES IDX 12 1 14 2 13 3 15 4 16 5 2 6 1 7 3 8 11 10 9 11 10 12 5 13
REMARK SMILES IDX 6 14 7 15 8 16 4 17
REMARK H PARENT
REMARK Flexibility Score: 60.00
ROOT
ATOM      1  C   UNL     1      14.013 -47.642  -2.899  1.00  0.00    -0.070 C 
ATOM      2  C   UNL     1      13.285 -47.705  -4.039  1.00  0.00    -0.027 C 
ATOM      3  C   UNL     1      13.339 -48.069  -1.619  1.00  0.00     0.039 C 
ENDROOT
BRANCH   2   4
ATOM      4  C   UNL     1      13.785 -47.430  -5.436  1.00  0.00     0.032 C 
BRANCH   4   5
ATOM      5  C   UNL     1      14.054 -48.721  -6.233  1.00  0.00     0.034 C 
BRANCH   5   6
ATOM      6  C   UNL     1      15.500 -48.828  -6.679  1.00  0.00    -0.077 C 
ATOM      7  C   UNL     1      15.862 -48.334  -8.057  1.00  0.00     0.039 C 
ATOM      8  C   UNL     1      16.481 -49.367  -5.921  1.00  0.00    -0.023 CG0
ATOM      9  G   UNL     1      16.310 -49.944  -4.537  1.00  0.00     0.000 G0
ENDBRANCH   5   6
ENDBRANCH   4   5
ENDBRANCH   2   4
BRANCH   1  10
ATOM     10  C   UNL     1      15.475 -47.232  -2.853  1.00  0.00     0.111 C 
BRANCH  10  11
ATOM     11  C   UNL     1      16.366 -48.393  -2.484  1.00  0.00     0.163 C 
ATOM     12  O   UNL     1      16.488 -48.683  -1.263  1.00  0.00    -0.294 OA
BRANCH  11  13
ATOM     13  C   UNL     1      17.135 -49.159  -3.513  1.00  0.00    -0.002 C 
ATOM     14  C   UNL     1      18.502 -49.203  -3.504  1.00  0.00    -0.069 C 
ATOM     15  C   UNL     1      19.309 -48.539  -2.411  1.00  0.00     0.039 C 
ATOM     16  C   UNL     1      19.275 -49.949  -4.571  1.00  0.00     0.039 C 
BRANCH  13  17
ATOM     17  C   UNL     1      16.331 -49.952  -4.528  1.00  0.00     0.066 CG0
ATOM     18  G   UNL     1      16.506 -49.351  -5.902  1.00  0.00     0.000 G0
ENDBRANCH  13  17
ENDBRANCH  11  13
ENDBRANCH  10  11
ENDBRANCH   1  10
TORSDOF 0
ENDMDL
MODEL 2
REMARK VINA RESULT:    -3.249     11.352     13.248
REMARK INTER + INTRA:          -3.857
REMARK INTER:                  -4.673
REMARK INTRA:                   0.816
REMARK UNBOUND:                 0.722
REMARK SMILES CC1=CCC(=C(C)C)C(=O)CC(C)=CCC1
REMARK SMILES IDX 12 1 14 2 13 3 15 4 16 5 2 6 1 7 3 8 11 10 9 11 10 12 5 13
REMARK SMILES IDX 6 14 7 15 8 16 4 17
REMARK H PARENT
REMARK Flexibility Score: 60.00
ROOT
ATOM      1  C   UNL     1      25.357 -44.655  -8.627  1.00  0.00    -0.070 C 
ATOM      2  C   UNL     1      25.674 -43.342  -8.731  1.00  0.00    -0.027 C 
ATOM      3  C   UNL     1      24.887 -45.153  -7.282  1.00  0.00     0.039 C 
ENDROOT
BRANCH   2   4
ATOM      4  C   UNL     1      26.062 -42.614  -9.995  1.00  0.00     0.032 C 
BRANCH   4   5
ATOM      5  C   UNL     1      27.580 -42.371 -10.096  1.00  0.00     0.034 C 
BRANCH   5   6
ATOM      6  C   UNL     1      28.268 -43.406 -10.966  1.00  0.00    -0.077 C 
ATOM      7  C   UNL     1      28.352 -43.152 -12.450  1.00  0.00     0.039 C 
ATOM      8  C   UNL     1      28.790 -44.559 -10.490  1.00  0.00    -0.023 CG0
ATOM      9  G   UNL     1      28.773 -45.006  -9.049  1.00  0.00     0.000 G0
ENDBRANCH   5   6
ENDBRANCH   4   5
ENDBRANCH   2   4
BRANCH   1  10
ATOM     10  C   UNL     1      25.387 -45.626  -9.795  1.00  0.00     0.111 C 
BRANCH  10  11
ATOM     11  C   UNL     1      26.732 -46.298  -9.925  1.00  0.00     0.163 C 
ATOM     12  O   UNL     1      26.931 -47.041 -10.924  1.00  0.00    -0.294 OA
BRANCH  11  13
ATOM     13  C   UNL     1      27.796 -46.147  -8.884  1.00  0.00    -0.002 C 
ATOM     14  C   UNL     1      27.944 -47.054  -7.870  1.00  0.00    -0.069 C 
ATOM     15  C   UNL     1      27.087 -48.297  -7.787  1.00  0.00     0.039 C 
ATOM     16  C   UNL     1      28.999 -46.874  -6.800  1.00  0.00     0.039 C 
BRANCH  13  17
ATOM     17  C   UNL     1      28.757 -44.983  -9.042  1.00  0.00     0.066 CG0
ATOM     18  G   UNL     1      28.796 -44.544 -10.486  1.00  0.00     0.000 G0
ENDBRANCH  13  17
ENDBRANCH  11  13
ENDBRANCH  10  11
ENDBRANCH   1  10
TORSDOF 0
ENDMDL
MODEL 3
REMARK VINA RESULT:    -3.187      2.130      4.431
REMARK INTER + INTRA:          -3.769
REMARK INTER:                  -4.345
REMARK INTRA:                   0.576
REMARK UNBOUND:                 0.722
REMARK SMILES CC1=CCC(=C(C)C)C(=O)CC(C)=CCC1
REMARK SMILES IDX 12 1 14 2 13 3 15 4 16 5 2 6 1 7 3 8 11 10 9 11 10 12 5 13
REMARK SMILES IDX 6 14 7 15 8 16 4 17
REMARK H PARENT
REMARK Flexibility Score: 60.00
ROOT
ATOM      1  C   UNL     1      16.289 -48.863  -3.616  1.00  0.00    -0.070 C 
ATOM      2  C   UNL     1      16.877 -49.031  -4.825  1.00  0.00    -0.027 C 
ATOM      3  C   UNL     1      17.125 -48.263  -2.513  1.00  0.00     0.039 C 
ENDROOT
BRANCH   2   4
ATOM      4  C   UNL     1      16.204 -49.510  -6.088  1.00  0.00     0.032 C 
BRANCH   4   5
ATOM      5  C   UNL     1      15.788 -48.350  -7.013  1.00  0.00     0.034 C 
BRANCH   5   6
ATOM      6  C   UNL     1      14.464 -48.615  -7.704  1.00  0.00    -0.077 C 
ATOM      7  C   UNL     1      14.471 -49.411  -8.985  1.00  0.00     0.039 C 
ATOM      8  C   UNL     1      13.276 -48.155  -7.250  1.00  0.00    -0.023 CG0
ATOM      9  G   UNL     1      13.068 -47.316  -6.013  1.00  0.00     0.000 G0
ENDBRANCH   5   6
ENDBRANCH   4   5
ENDBRANCH   2   4
BRANCH   1  10
ATOM     10  C   UNL     1      14.830 -49.182  -3.336  1.00  0.00     0.111 C 
BRANCH  10  11
ATOM     11  C   UNL     1      13.928 -48.032  -3.709  1.00  0.00     0.163 C 
ATOM     12  O   UNL     1      14.040 -46.955  -3.061  1.00  0.00    -0.294 OA
BRANCH  11  13
ATOM     13  C   UNL     1      12.886 -48.155  -4.775  1.00  0.00    -0.002 C 
ATOM     14  C   UNL     1      11.787 -48.954  -4.618  1.00  0.00    -0.069 C 
ATOM     15  C   UNL     1      11.527 -49.699  -3.328  1.00  0.00     0.039 C 
ATOM     16  C   UNL     1      10.757 -49.103  -5.717  1.00  0.00     0.039 C 
BRANCH  13  17
ATOM     17  C   UNL     1      13.061 -47.296  -6.014  1.00  0.00     0.066 CG0
ATOM     18  G   UNL     1      13.255 -48.176  -7.225  1.00  0.00     0.000 G0
ENDBRANCH  13  17
ENDBRANCH  11  13
ENDBRANCH  10  11
ENDBRANCH   1  10
TORSDOF 0
ENDMDL
MODEL 4
REMARK VINA RESULT:    -3.102     20.289     21.648
REMARK INTER + INTRA:          -3.649
REMARK INTER:                  -4.030
REMARK INTRA:                   0.381
REMARK UNBOUND:                 0.722
REMARK SMILES CC1=CCC(=C(C)C)C(=O)CC(C)=CCC1
REMARK SMILES IDX 12 1 14 2 13 3 15 4 16 5 2 6 1 7 3 8 11 10 9 11 10 12 5 13
REMARK SMILES IDX 6 14 7 15 8 16 4 17
REMARK H PARENT
REMARK Flexibility Score: 60.00
ROOT
ATOM      1  C   UNL     1      24.952 -33.814 -14.720  1.00  0.00    -0.070 C 
ATOM      2  C   UNL     1      23.897 -33.757 -13.871  1.00  0.00    -0.027 C 
ATOM      3  C   UNL     1      25.081 -35.042 -15.586  1.00  0.00     0.039 C 
ENDROOT
BRANCH   2   4
ATOM      4  C   UNL     1      23.516 -32.587 -12.996  1.00  0.00     0.032 C 
BRANCH   4   5
ATOM      5  C   UNL     1      24.179 -32.647 -11.607  1.00  0.00     0.034 C 
BRANCH   5   6
ATOM      6  C   UNL     1      24.859 -31.342 -11.240  1.00  0.00    -0.077 C 
ATOM      7  C   UNL     1      23.993 -30.164 -10.868  1.00  0.00     0.039 C 
ATOM      8  C   UNL     1      26.199 -31.165 -11.251  1.00  0.00    -0.023 CG0
ATOM      9  G   UNL     1      27.224 -32.207 -11.627  1.00  0.00     0.000 G0
ENDBRANCH   5   6
ENDBRANCH   4   5
ENDBRANCH   2   4
BRANCH   1  10
ATOM     10  C   UNL     1      25.960 -32.691 -14.890  1.00  0.00     0.111 C 
BRANCH  10  11
ATOM     11  C   UNL     1      27.216 -32.947 -14.094  1.00  0.00     0.163 C 
ATOM     12  O   UNL     1      27.829 -34.032 -14.285  1.00  0.00    -0.294 OA
BRANCH  11  13
ATOM     13  C   UNL     1      27.711 -31.982 -13.063  1.00  0.00    -0.002 C 
ATOM     14  C   UNL     1      28.488 -30.907 -13.398  1.00  0.00    -0.069 C 
ATOM     15  C   UNL     1      28.830 -30.594 -14.837  1.00  0.00     0.039 C 
ATOM     16  C   UNL     1      29.016 -29.957 -12.344  1.00  0.00     0.039 C 
BRANCH  13  17
ATOM     17  C   UNL     1      27.250 -32.203 -11.634  1.00  0.00     0.066 CG0
ATOM     18  G   UNL     1      26.199 -31.182 -11.271  1.00  0.00     0.000 G0
ENDBRANCH  13  17
ENDBRANCH  11  13
ENDBRANCH  10  11
ENDBRANCH   1  10
TORSDOF 0
ENDMDL
MODEL 5
REMARK VINA RESULT:    -3.100     11.613     13.726
REMARK INTER + INTRA:          -3.647
REMARK INTER:                  -4.061
REMARK INTRA:                   0.414
REMARK UNBOUND:                 0.722
REMARK SMILES CC1=CCC(=C(C)C)C(=O)CC(C)=CCC1
REMARK SMILES IDX 12 1 14 2 13 3 15 4 16 5 2 6 1 7 3 8 11 10 9 11 10 12 5 13
REMARK SMILES IDX 6 14 7 15 8 16 4 17
REMARK H PARENT
REMARK Flexibility Score: 60.00
ROOT
ATOM      1  C   UNL     1      25.278 -44.777  -8.120  1.00  0.00    -0.070 C 
ATOM      2  C   UNL     1      25.952 -45.634  -7.316  1.00  0.00    -0.027 C 
ATOM      3  C   UNL     1      24.376 -43.765  -7.458  1.00  0.00     0.039 C 
ENDROOT
BRANCH   2   4
ATOM      4  C   UNL     1      26.980 -46.649  -7.753  1.00  0.00     0.032 C 
BRANCH   4   5
ATOM      5  C   UNL     1      28.295 -45.996  -8.219  1.00  0.00     0.034 C 
BRANCH   5   6
ATOM      6  C   UNL     1      28.737 -46.504  -9.578  1.00  0.00    -0.077 C 
ATOM      7  C   UNL     1      28.999 -47.980  -9.739  1.00  0.00     0.039 C 
ATOM      8  C   UNL     1      28.936 -45.705 -10.650  1.00  0.00    -0.023 CG0
ATOM      9  G   UNL     1      28.761 -44.205 -10.677  1.00  0.00     0.000 G0
ENDBRANCH   5   6
ENDBRANCH   4   5
ENDBRANCH   2   4
BRANCH   1  10
ATOM     10  C   UNL     1      25.433 -44.739  -9.631  1.00  0.00     0.111 C 
BRANCH  10  11
ATOM     11  C   UNL     1      26.345 -43.620 -10.068  1.00  0.00     0.163 C 
ATOM     12  O   UNL     1      26.186 -42.484  -9.543  1.00  0.00    -0.294 OA
BRANCH  11  13
ATOM     13  C   UNL     1      27.381 -43.812 -11.131  1.00  0.00    -0.002 C 
ATOM     14  C   UNL     1      27.105 -43.591 -12.452  1.00  0.00    -0.069 C 
ATOM     15  C   UNL     1      25.759 -43.072 -12.905  1.00  0.00     0.039 C 
ATOM     16  C   UNL     1      28.147 -43.824 -13.525  1.00  0.00     0.039 C 
BRANCH  13  17
ATOM     17  C   UNL     1      28.778 -44.189 -10.674  1.00  0.00     0.066 CG0
ATOM     18  G   UNL     1      28.920 -45.692 -10.647  1.00  0.00     0.000 G0
ENDBRANCH  13  17
ENDBRANCH  11  13
ENDBRANCH  10  11
ENDBRANCH   1  10
TORSDOF 0
ENDMDL
MODEL 6
REMARK VINA RESULT:    -3.052     11.472     13.555
REMARK INTER + INTRA:          -3.579
REMARK INTER:                  -4.235
REMARK INTRA:                   0.656
REMARK UNBOUND:                 0.722
REMARK SMILES CC1=CCC(=C(C)C)C(=O)CC(C)=CCC1
REMARK SMILES IDX 12 1 14 2 13 3 15 4 16 5 2 6 1 7 3 8 11 10 9 11 10 12 5 13
REMARK SMILES IDX 6 14 7 15 8 16 4 17
REMARK H PARENT
REMARK Flexibility Score: 60.00
ROOT
ATOM      1  C   UNL     1      27.294 -46.556 -10.838  1.00  0.00    -0.070 C 
ATOM      2  C   UNL     1      27.078 -46.122 -12.103  1.00  0.00    -0.027 C 
ATOM      3  C   UNL     1      26.283 -47.506 -10.246  1.00  0.00     0.039 C 
ENDROOT
BRANCH   2   4
ATOM      4  C   UNL     1      28.006 -45.260 -12.923  1.00  0.00     0.032 C 
BRANCH   4   5
ATOM      5  C   UNL     1      28.028 -43.795 -12.447  1.00  0.00     0.034 C 
BRANCH   5   6
ATOM      6  C   UNL     1      26.651 -43.303 -12.046  1.00  0.00    -0.077 C 
ATOM      7  C   UNL     1      25.617 -43.106 -13.126  1.00  0.00     0.039 C 
ATOM      8  C   UNL     1      26.302 -43.004 -10.774  1.00  0.00    -0.023 CG0
ATOM      9  G   UNL     1      27.202 -43.101  -9.566  1.00  0.00     0.000 G0
ENDBRANCH   5   6
ENDBRANCH   4   5
ENDBRANCH   2   4
BRANCH   1  10
ATOM     10  C   UNL     1      28.521 -46.193 -10.019  1.00  0.00     0.111 C 
BRANCH  10  11
ATOM     11  C   UNL     1      28.157 -45.371  -8.808  1.00  0.00     0.163 C 
ATOM     12  O   UNL     1      28.821 -45.547  -7.750  1.00  0.00    -0.294 OA
BRANCH  11  13
ATOM     13  C   UNL     1      27.011 -44.410  -8.818  1.00  0.00    -0.002 C 
ATOM     14  C   UNL     1      25.850 -44.667  -8.142  1.00  0.00    -0.069 C 
ATOM     15  C   UNL     1      25.688 -45.903  -7.287  1.00  0.00     0.039 C 
ATOM     16  C   UNL     1      24.681 -43.706  -8.189  1.00  0.00     0.039 C 
BRANCH  13  17
ATOM     17  C   UNL     1      27.218 -43.097  -9.551  1.00  0.00     0.066 CG0
ATOM     18  G   UNL     1      26.307 -43.031 -10.752  1.00  0.00     0.000 G0
ENDBRANCH  13  17
ENDBRANCH  11  13
ENDBRANCH  10  11
ENDBRANCH   1  10
TORSDOF 0
ENDMDL
MODEL 7
REMARK VINA RESULT:    -2.929     20.236     21.657
REMARK INTER + INTRA:          -3.405
REMARK INTER:                  -4.108
REMARK INTRA:                   0.703
REMARK UNBOUND:                 0.722
REMARK SMILES CC1=CCC(=C(C)C)C(=O)CC(C)=CCC1
REMARK SMILES IDX 12 1 14 2 13 3 15 4 16 5 2 6 1 7 3 8 11 10 9 11 10 12 5 13
REMARK SMILES IDX 6 14 7 15 8 16 4 17
REMARK H PARENT
REMARK Flexibility Score: 60.00
ROOT
ATOM      1  C   UNL     1      25.056 -33.372 -14.898  1.00  0.00    -0.070 C 
ATOM      2  C   UNL     1      26.281 -33.533 -15.453  1.00  0.00    -0.027 C 
ATOM      3  C   UNL     1      24.057 -34.488 -15.081  1.00  0.00     0.039 C 
ENDROOT
BRANCH   2   4
ATOM      4  C   UNL     1      27.458 -32.600 -15.307  1.00  0.00     0.032 C 
BRANCH   4   5
ATOM      5  C   UNL     1      28.032 -32.592 -13.877  1.00  0.00     0.034 C 
BRANCH   5   6
ATOM      6  C   UNL     1      28.027 -31.204 -13.266  1.00  0.00    -0.077 C 
ATOM      7  C   UNL     1      28.784 -30.108 -13.973  1.00  0.00     0.039 C 
ATOM      8  C   UNL     1      27.402 -30.896 -12.107  1.00  0.00    -0.023 CG0
ATOM      9  G   UNL     1      26.626 -31.858 -11.241  1.00  0.00     0.000 G0
ENDBRANCH   5   6
ENDBRANCH   4   5
ENDBRANCH   2   4
BRANCH   1  10
ATOM     10  C   UNL     1      24.662 -32.172 -14.054  1.00  0.00     0.111 C 
BRANCH  10  11
ATOM     11  C   UNL     1      24.536 -32.536 -12.596  1.00  0.00     0.163 C 
ATOM     12  O   UNL     1      23.862 -33.558 -12.295  1.00  0.00    -0.294 OA
BRANCH  11  13
ATOM     13  C   UNL     1      25.136 -31.694 -11.514  1.00  0.00    -0.002 C 
ATOM     14  C   UNL     1      24.373 -30.859 -10.745  1.00  0.00    -0.069 C 
ATOM     15  C   UNL     1      22.870 -30.794 -10.897  1.00  0.00     0.039 C 
ATOM     16  C   UNL     1      24.993 -29.982  -9.678  1.00  0.00     0.039 C 
BRANCH  13  17
ATOM     17  C   UNL     1      26.622 -31.861 -11.253  1.00  0.00     0.066 CG0
ATOM     18  G   UNL     1      27.404 -30.893 -12.107  1.00  0.00     0.000 G0
ENDBRANCH  13  17
ENDBRANCH  11  13
ENDBRANCH  10  11
ENDBRANCH   1  10
TORSDOF 0
ENDMDL
MODEL 8
REMARK VINA RESULT:    -2.906     11.035     12.863
REMARK INTER + INTRA:          -3.374
REMARK INTER:                  -4.054
REMARK INTRA:                   0.680
REMARK UNBOUND:                 0.722
REMARK SMILES CC1=CCC(=C(C)C)C(=O)CC(C)=CCC1
REMARK SMILES IDX 12 1 14 2 13 3 15 4 16 5 2 6 1 7 3 8 11 10 9 11 10 12 5 13
REMARK SMILES IDX 6 14 7 15 8 16 4 17
REMARK H PARENT
REMARK Flexibility Score: 60.00
ROOT
ATOM      1  C   UNL     1      25.584 -44.162  -7.979  1.00  0.00    -0.070 C 
ATOM      2  C   UNL     1      25.371 -43.126  -8.826  1.00  0.00    -0.027 C 
ATOM      3  C   UNL     1      24.431 -44.597  -7.108  1.00  0.00     0.039 C 
ENDROOT
BRANCH   2   4
ATOM      4  C   UNL     1      26.341 -42.598  -9.854  1.00  0.00     0.032 C 
BRANCH   4   5
ATOM      5  C   UNL     1      26.101 -43.194 -11.255  1.00  0.00     0.034 C 
BRANCH   5   6
ATOM      6  C   UNL     1      27.323 -43.919 -11.786  1.00  0.00    -0.077 C 
ATOM      7  C   UNL     1      28.359 -43.121 -12.536  1.00  0.00     0.039 C 
ATOM      8  C   UNL     1      27.525 -45.248 -11.648  1.00  0.00    -0.023 CG0
ATOM      9  G   UNL     1      26.591 -46.217 -10.963  1.00  0.00     0.000 G0
ENDBRANCH   5   6
ENDBRANCH   4   5
ENDBRANCH   2   4
BRANCH   1  10
ATOM     10  C   UNL     1      26.887 -44.940  -7.909  1.00  0.00     0.111 C 
BRANCH  10  11
ATOM     11  C   UNL     1      26.715 -46.356  -8.400  1.00  0.00     0.163 C 
ATOM     12  O   UNL     1      26.147 -47.185  -7.638  1.00  0.00    -0.294 OA
BRANCH  11  13
ATOM     13  C   UNL     1      27.242 -46.803  -9.727  1.00  0.00    -0.002 C 
ATOM     14  C   UNL     1      28.232 -47.742  -9.828  1.00  0.00    -0.069 C 
ATOM     15  C   UNL     1      28.796 -48.434  -8.608  1.00  0.00     0.039 C 
ATOM     16  C   UNL     1      28.786 -48.162 -11.173  1.00  0.00     0.039 C 
BRANCH  13  17
ATOM     17  C   UNL     1      26.579 -46.226 -10.964  1.00  0.00     0.066 CG0
ATOM     18  G   UNL     1      27.521 -45.266 -11.650  1.00  0.00     0.000 G0
ENDBRANCH  13  17
ENDBRANCH  11  13
ENDBRANCH  10  11
ENDBRANCH   1  10
TORSDOF 0
ENDMDL
MODEL 9
REMARK VINA RESULT:    -2.828     20.302     21.572
REMARK INTER + INTRA:          -3.263
REMARK INTER:                  -3.984
REMARK INTRA:                   0.721
REMARK UNBOUND:                 0.722
REMARK SMILES CC1=CCC(=C(C)C)C(=O)CC(C)=CCC1
REMARK SMILES IDX 12 1 14 2 13 3 15 4 16 5 2 6 1 7 3 8 11 10 9 11 10 12 5 13
REMARK SMILES IDX 6 14 7 15 8 16 4 17
REMARK H PARENT
REMARK Flexibility Score: 60.00
ROOT
ATOM      1  C   UNL     1      24.367 -32.690 -13.671  1.00  0.00    -0.070 C 
ATOM      2  C   UNL     1      23.620 -32.532 -12.552  1.00  0.00    -0.027 C 
ATOM      3  C   UNL     1      24.464 -34.079 -14.252  1.00  0.00     0.039 C 
ENDROOT
BRANCH   2   4
ATOM      4  C   UNL     1      23.301 -31.226 -11.867  1.00  0.00     0.032 C 
BRANCH   4   5
ATOM      5  C   UNL     1      24.555 -30.366 -11.619  1.00  0.00     0.034 C 
BRANCH   5   6
ATOM      6  C   UNL     1      25.518 -31.025 -10.650  1.00  0.00    -0.077 C 
ATOM      7  C   UNL     1      25.004 -31.424  -9.289  1.00  0.00     0.039 C 
ATOM      8  C   UNL     1      26.822 -31.252 -10.925  1.00  0.00    -0.023 CG0
ATOM      9  G   UNL     1      27.527 -30.894 -12.211  1.00  0.00     0.000 G0
ENDBRANCH   5   6
ENDBRANCH   4   5
ENDBRANCH   2   4
BRANCH   1  10
ATOM     10  C   UNL     1      25.050 -31.545 -14.398  1.00  0.00     0.111 C 
BRANCH  10  11
ATOM     11  C   UNL     1      26.546 -31.732 -14.450  1.00  0.00     0.163 C 
ATOM     12  O   UNL     1      27.113 -31.673 -15.575  1.00  0.00    -0.294 OA
BRANCH  11  13
ATOM     13  C   UNL     1      27.349 -32.036 -13.225  1.00  0.00    -0.002 C 
ATOM     14  C   UNL     1      27.957 -33.248 -13.046  1.00  0.00    -0.069 C 
ATOM     15  C   UNL     1      27.913 -34.322 -14.109  1.00  0.00     0.039 C 
ATOM     16  C   UNL     1      28.737 -33.561 -11.786  1.00  0.00     0.039 C 
BRANCH  13  17
ATOM     17  C   UNL     1      27.525 -30.913 -12.219  1.00  0.00     0.066 CG0
ATOM     18  G   UNL     1      26.807 -31.258 -10.936  1.00  0.00     0.000 G0
ENDBRANCH  13  17
ENDBRANCH  11  13
ENDBRANCH  10  11
ENDBRANCH   1  10
TORSDOF 0
ENDMDL
