MODEL 1
REMARK VINA RESULT:    -3.834      0.000      0.000
REMARK INTER + INTRA:          -5.209
REMARK INTER:                  -4.955
REMARK INTRA:                  -0.254
REMARK UNBOUND:                -0.254
REMARK SMILES CCO[C@@H]1O[C@H](CO)[C@@H](O)[C@@H](O)[C@H]1O
REMARK SMILES IDX 4 1 13 2 11 3 9 4 6 5 5 6 3 7 2 8 1 9 14 10 12 12 7 14 8 15
REMARK SMILES IDX 10 17
REMARK H PARENT 14 11 12 13 8 16 10 18
REMARK Flexibility Score: inf
ROOT
ATOM      1  C   UNL     1      -6.526  -9.944  -6.256  1.00  0.00     0.281 C 
ATOM      2  C   UNL     1      -6.279  -8.435  -5.941  1.00  0.00     0.202 C 
ATOM      3  C   UNL     1      -4.812  -8.056  -6.219  1.00  0.00     0.179 C 
ATOM      4  C   UNL     1      -4.377  -8.496  -7.634  1.00  0.00     0.177 C 
ATOM      5  C   UNL     1      -4.969  -9.891  -7.991  1.00  0.00     0.178 C 
ATOM      6  O   UNL     1      -5.389 -10.584  -6.828  1.00  0.00    -0.341 OA
ENDROOT
BRANCH   1   7
ATOM      7  O   UNL     1      -6.982 -10.637  -5.103  1.00  0.00    -0.350 OA
BRANCH   7   8
ATOM      8  C   UNL     1      -8.381 -10.520  -4.927  1.00  0.00     0.160 C 
ATOM      9  C   UNL     1      -9.060 -10.594  -6.287  1.00  0.00     0.035 C 
ENDBRANCH   7   8
ENDBRANCH   1   7
BRANCH   2  10
ATOM     10  O   UNL     1      -7.124  -7.630  -6.725  1.00  0.00    -0.385 OA
ATOM     11  H   UNL     1      -8.053  -7.935  -6.547  1.00  0.00     0.211 HD
ENDBRANCH   2  10
BRANCH   3  12
ATOM     12  O   UNL     1      -4.617  -6.673  -6.058  1.00  0.00    -0.387 OA
ATOM     13  H   UNL     1      -5.002  -6.234  -6.861  1.00  0.00     0.211 HD
ENDBRANCH   3  12
BRANCH   5  14
ATOM     14  C   UNL     1      -3.954 -10.758  -8.752  1.00  0.00     0.191 C 
BRANCH  14  15
ATOM     15  O   UNL     1      -3.863 -10.368 -10.098  1.00  0.00    -0.394 OA
ATOM     16  H   UNL     1      -4.665  -9.817 -10.292  1.00  0.00     0.210 HD
ENDBRANCH  14  15
ENDBRANCH   5  14
BRANCH   4  17
ATOM     17  O   UNL     1      -4.806  -7.562  -8.595  1.00  0.00    -0.387 OA
ATOM     18  H   UNL     1      -4.469  -6.672  -8.311  1.00  0.00     0.211 HD
ENDBRANCH   4  17
TORSDOF 7
ENDMDL
MODEL 2
REMARK VINA RESULT:    -3.410      7.268      9.978
REMARK INTER + INTRA:          -4.660
REMARK INTER:                  -4.444
REMARK INTRA:                  -0.216
REMARK UNBOUND:                -0.254
REMARK SMILES CCO[C@@H]1O[C@H](CO)[C@@H](O)[C@@H](O)[C@H]1O
REMARK SMILES IDX 4 1 13 2 11 3 9 4 6 5 5 6 3 7 2 8 1 9 14 10 12 12 7 14 8 15
REMARK SMILES IDX 10 17
REMARK H PARENT 14 11 12 13 8 16 10 18
REMARK Flexibility Score: inf
ROOT
ATOM      1  C   UNL     1     -13.777  -8.384  -6.273  1.00  0.00     0.281 C 
ATOM      2  C   UNL     1     -14.401  -9.734  -5.795  1.00  0.00     0.202 C 
ATOM      3  C   UNL     1     -15.925  -9.595  -5.618  1.00  0.00     0.179 C 
ATOM      4  C   UNL     1     -16.583  -8.993  -6.879  1.00  0.00     0.177 C 
ATOM      5  C   UNL     1     -15.700  -7.865  -7.486  1.00  0.00     0.178 C 
ATOM      6  O   UNL     1     -14.757  -7.386  -6.542  1.00  0.00    -0.341 OA
ENDROOT
BRANCH   1   7
ATOM      7  O   UNL     1     -12.805  -7.917  -5.349  1.00  0.00    -0.350 OA
BRANCH   7   8
ATOM      8  C   UNL     1     -11.539  -8.511  -5.559  1.00  0.00     0.160 C 
ATOM      9  C   UNL     1     -11.189  -8.426  -7.037  1.00  0.00     0.035 C 
ENDBRANCH   7   8
ENDBRANCH   1   7
BRANCH   2  10
ATOM     10  O   UNL     1     -14.132 -10.751  -6.728  1.00  0.00    -0.385 OA
ATOM     11  H   UNL     1     -13.615 -11.449  -6.247  1.00  0.00     0.211 HD
ENDBRANCH   2  10
BRANCH   3  12
ATOM     12  O   UNL     1     -16.505 -10.838  -5.311  1.00  0.00    -0.387 OA
ATOM     13  H   UNL     1     -16.647 -11.308  -6.174  1.00  0.00     0.211 HD
ENDBRANCH   3  12
BRANCH   5  14
ATOM     14  C   UNL     1     -16.551  -6.687  -7.987  1.00  0.00     0.191 C 
BRANCH  14  15
ATOM     15  O   UNL     1     -16.141  -6.272  -9.264  1.00  0.00    -0.394 OA
ATOM     16  H   UNL     1     -16.007  -5.290  -9.217  1.00  0.00     0.210 HD
ENDBRANCH  14  15
ENDBRANCH   5  14
BRANCH   4  17
ATOM     17  O   UNL     1     -16.783  -9.988  -7.854  1.00  0.00    -0.387 OA
ATOM     18  H   UNL     1     -16.073 -10.670  -7.728  1.00  0.00     0.211 HD
ENDBRANCH   4  17
TORSDOF 7
ENDMDL
MODEL 3
REMARK VINA RESULT:    -3.267      1.736      3.559
REMARK INTER + INTRA:          -4.476
REMARK INTER:                  -4.297
REMARK INTRA:                  -0.178
REMARK UNBOUND:                -0.254
REMARK SMILES CCO[C@@H]1O[C@H](CO)[C@@H](O)[C@@H](O)[C@H]1O
REMARK SMILES IDX 4 1 13 2 11 3 9 4 6 5 5 6 3 7 2 8 1 9 14 10 12 12 7 14 8 15
REMARK SMILES IDX 10 17
REMARK H PARENT 14 11 12 13 8 16 10 18
REMARK Flexibility Score: inf
ROOT
ATOM      1  C   UNL     1      -7.300  -9.427  -6.401  1.00  0.00     0.281 C 
ATOM      2  C   UNL     1      -6.326 -10.045  -7.453  1.00  0.00     0.202 C 
ATOM      3  C   UNL     1      -5.345  -8.978  -7.976  1.00  0.00     0.179 C 
ATOM      4  C   UNL     1      -4.650  -8.237  -6.812  1.00  0.00     0.177 C 
ATOM      5  C   UNL     1      -5.647  -7.966  -5.648  1.00  0.00     0.178 C 
ATOM      6  O   UNL     1      -6.991  -8.073  -6.086  1.00  0.00    -0.341 OA
ENDROOT
BRANCH   1   7
ATOM      7  O   UNL     1      -8.652  -9.564  -6.817  1.00  0.00    -0.350 OA
BRANCH   7   8
ATOM      8  C   UNL     1      -9.410  -8.397  -6.564  1.00  0.00     0.160 C 
ATOM      9  C   UNL     1     -10.794  -8.561  -7.176  1.00  0.00     0.035 C 
ENDBRANCH   7   8
ENDBRANCH   1   7
BRANCH   2  10
ATOM     10  O   UNL     1      -5.599 -11.103  -6.880  1.00  0.00    -0.385 OA
ATOM     11  H   UNL     1      -4.732 -11.147  -7.362  1.00  0.00     0.211 HD
ENDBRANCH   2  10
BRANCH   3  12
ATOM     12  O   UNL     1      -4.387  -9.558  -8.826  1.00  0.00    -0.387 OA
ATOM     13  H   UNL     1      -4.391  -9.027  -9.665  1.00  0.00     0.211 HD
ENDBRANCH   3  12
BRANCH   5  14
ATOM     14  C   UNL     1      -5.430  -6.576  -5.030  1.00  0.00     0.191 C 
BRANCH  14  15
ATOM     15  O   UNL     1      -6.520  -5.730  -5.289  1.00  0.00    -0.394 OA
ATOM     16  H   UNL     1      -6.692  -5.220  -4.455  1.00  0.00     0.210 HD
ENDBRANCH  14  15
ENDBRANCH   5  14
BRANCH   4  17
ATOM     17  O   UNL     1      -3.571  -8.994  -6.320  1.00  0.00    -0.387 OA
ATOM     18  H   UNL     1      -2.772  -8.404  -6.323  1.00  0.00     0.211 HD
ENDBRANCH   4  17
TORSDOF 7
ENDMDL
MODEL 4
REMARK VINA RESULT:    -3.136      6.221      8.303
REMARK INTER + INTRA:          -4.307
REMARK INTER:                  -3.903
REMARK INTRA:                  -0.404
REMARK UNBOUND:                -0.254
REMARK SMILES CCO[C@@H]1O[C@H](CO)[C@@H](O)[C@@H](O)[C@H]1O
REMARK SMILES IDX 4 1 13 2 11 3 9 4 6 5 5 6 3 7 2 8 1 9 14 10 12 12 7 14 8 15
REMARK SMILES IDX 10 17
REMARK H PARENT 14 11 12 13 8 16 10 18
REMARK Flexibility Score: inf
ROOT
ATOM      1  C   UNL     1     -15.033  -9.360  -6.028  1.00  0.00     0.281 C 
ATOM      2  C   UNL     1     -14.719  -7.853  -6.292  1.00  0.00     0.202 C 
ATOM      3  C   UNL     1     -13.357  -7.468  -5.682  1.00  0.00     0.179 C 
ATOM      4  C   UNL     1     -12.247  -8.445  -6.129  1.00  0.00     0.177 C 
ATOM      5  C   UNL     1     -12.771  -9.910  -6.161  1.00  0.00     0.178 C 
ATOM      6  O   UNL     1     -13.958 -10.048  -5.397  1.00  0.00    -0.341 OA
ENDROOT
BRANCH   1   7
ATOM      7  O   UNL     1     -16.241  -9.506  -5.294  1.00  0.00    -0.350 OA
BRANCH   7   8
ATOM      8  C   UNL     1     -17.362  -9.683  -6.138  1.00  0.00     0.160 C 
ATOM      9  C   UNL     1     -16.948 -10.510  -7.346  1.00  0.00     0.035 C 
ENDBRANCH   7   8
ENDBRANCH   1   7
BRANCH   2  10
ATOM     10  O   UNL     1     -14.699  -7.596  -7.674  1.00  0.00    -0.385 OA
ATOM     11  H   UNL     1     -15.169  -6.732  -7.809  1.00  0.00     0.211 HD
ENDBRANCH   2  10
BRANCH   3  12
ATOM     12  O   UNL     1     -13.014  -6.149  -6.027  1.00  0.00    -0.387 OA
ATOM     13  H   UNL     1     -13.544  -5.917  -6.834  1.00  0.00     0.211 HD
ENDBRANCH   3  12
BRANCH   5  14
ATOM     14  C   UNL     1     -11.719 -10.899  -5.636  1.00  0.00     0.191 C 
BRANCH  14  15
ATOM     15  O   UNL     1     -10.419 -10.465  -5.940  1.00  0.00    -0.394 OA
ATOM     16  H   UNL     1     -10.225 -10.766  -6.865  1.00  0.00     0.210 HD
ENDBRANCH  14  15
ENDBRANCH   5  14
BRANCH   4  17
ATOM     17  O   UNL     1     -11.775  -8.103  -7.410  1.00  0.00    -0.387 OA
ATOM     18  H   UNL     1     -10.976  -8.664  -7.588  1.00  0.00     0.211 HD
ENDBRANCH   4  17
TORSDOF 7
ENDMDL
MODEL 5
REMARK VINA RESULT:    -3.098      7.369      9.619
REMARK INTER + INTRA:          -4.257
REMARK INTER:                  -4.070
REMARK INTRA:                  -0.187
REMARK UNBOUND:                -0.254
REMARK SMILES CCO[C@@H]1O[C@H](CO)[C@@H](O)[C@@H](O)[C@H]1O
REMARK SMILES IDX 4 1 13 2 11 3 9 4 6 5 5 6 3 7 2 8 1 9 14 10 12 12 7 14 8 15
REMARK SMILES IDX 10 17
REMARK H PARENT 14 11 12 13 8 16 10 18
REMARK Flexibility Score: inf
ROOT
ATOM      1  C   UNL     1     -15.581  -7.768  -6.766  1.00  0.00     0.281 C 
ATOM      2  C   UNL     1     -14.154  -7.147  -6.887  1.00  0.00     0.202 C 
ATOM      3  C   UNL     1     -13.196  -7.782  -5.861  1.00  0.00     0.179 C 
ATOM      4  C   UNL     1     -13.235  -9.324  -5.937  1.00  0.00     0.177 C 
ATOM      5  C   UNL     1     -14.688  -9.836  -6.163  1.00  0.00     0.178 C 
ATOM      6  O   UNL     1     -15.641  -8.840  -5.830  1.00  0.00    -0.341 OA
ENDROOT
BRANCH   1   7
ATOM      7  O   UNL     1     -16.547  -6.770  -6.468  1.00  0.00    -0.350 OA
BRANCH   7   8
ATOM      8  C   UNL     1     -17.215  -7.019  -5.246  1.00  0.00     0.160 C 
ATOM      9  C   UNL     1     -18.109  -5.832  -4.918  1.00  0.00     0.035 C 
ENDBRANCH   7   8
ENDBRANCH   1   7
BRANCH   2  10
ATOM     10  O   UNL     1     -13.646  -7.347  -8.183  1.00  0.00    -0.385 OA
ATOM     11  H   UNL     1     -13.429  -6.448  -8.545  1.00  0.00     0.211 HD
ENDBRANCH   2  10
BRANCH   3  12
ATOM     12  O   UNL     1     -11.884  -7.317  -6.052  1.00  0.00    -0.387 OA
ATOM     13  H   UNL     1     -11.727  -6.613  -5.370  1.00  0.00     0.211 HD
ENDBRANCH   3  12
BRANCH   5  14
ATOM     14  C   UNL     1     -14.976 -11.101  -5.340  1.00  0.00     0.191 C 
BRANCH  14  15
ATOM     15  O   UNL     1     -16.301 -11.113  -4.875  1.00  0.00    -0.394 OA
ATOM     16  H   UNL     1     -16.378 -11.879  -4.248  1.00  0.00     0.210 HD
ENDBRANCH  14  15
ENDBRANCH   5  14
BRANCH   4  17
ATOM     17  O   UNL     1     -12.422  -9.786  -6.988  1.00  0.00    -0.387 OA
ATOM     18  H   UNL     1     -12.524  -9.148  -7.741  1.00  0.00     0.211 HD
ENDBRANCH   4  17
TORSDOF 7
ENDMDL
MODEL 6
REMARK VINA RESULT:    -3.067      1.988      4.882
REMARK INTER + INTRA:          -4.217
REMARK INTER:                  -4.019
REMARK INTRA:                  -0.198
REMARK UNBOUND:                -0.254
REMARK SMILES CCO[C@@H]1O[C@H](CO)[C@@H](O)[C@@H](O)[C@H]1O
REMARK SMILES IDX 4 1 13 2 11 3 9 4 6 5 5 6 3 7 2 8 1 9 14 10 12 12 7 14 8 15
REMARK SMILES IDX 10 17
REMARK H PARENT 14 11 12 13 8 16 10 18
REMARK Flexibility Score: inf
ROOT
ATOM      1  C   UNL     1      -6.382  -9.148  -6.337  1.00  0.00     0.281 C 
ATOM      2  C   UNL     1      -7.475 -10.260  -6.264  1.00  0.00     0.202 C 
ATOM      3  C   UNL     1      -8.472  -9.968  -5.126  1.00  0.00     0.179 C 
ATOM      4  C   UNL     1      -9.024  -8.528  -5.221  1.00  0.00     0.177 C 
ATOM      5  C   UNL     1      -7.908  -7.528  -5.641  1.00  0.00     0.178 C 
ATOM      6  O   UNL     1      -6.618  -8.078  -5.428  1.00  0.00    -0.341 OA
ENDROOT
BRANCH   1   7
ATOM      7  O   UNL     1      -5.084  -9.698  -6.160  1.00  0.00    -0.350 OA
BRANCH   7   8
ATOM      8  C   UNL     1      -4.142  -9.147  -7.061  1.00  0.00     0.160 C 
ATOM      9  C   UNL     1      -4.740  -9.136  -8.460  1.00  0.00     0.035 C 
ENDBRANCH   7   8
ENDBRANCH   1   7
BRANCH   2  10
ATOM     10  O   UNL     1      -8.171 -10.339  -7.483  1.00  0.00    -0.385 OA
ATOM     11  H   UNL     1      -9.117 -10.109  -7.286  1.00  0.00     0.211 HD
ENDBRANCH   2  10
BRANCH   3  12
ATOM     12  O   UNL     1      -9.527 -10.897  -5.139  1.00  0.00    -0.387 OA
ATOM     13  H   UNL     1      -9.515 -11.356  -4.258  1.00  0.00     0.211 HD
ENDBRANCH   3  12
BRANCH   5  14
ATOM     14  C   UNL     1      -8.021  -6.201  -4.875  1.00  0.00     0.191 C 
BRANCH  14  15
ATOM     15  O   UNL     1      -6.969  -5.332  -5.209  1.00  0.00    -0.394 OA
ATOM     16  H   UNL     1      -7.355  -4.419  -5.256  1.00  0.00     0.210 HD
ENDBRANCH  14  15
ENDBRANCH   5  14
BRANCH   4  17
ATOM     17  O   UNL     1     -10.070  -8.463  -6.161  1.00  0.00    -0.387 OA
ATOM     18  H   UNL     1     -10.918  -8.385  -5.651  1.00  0.00     0.211 HD
ENDBRANCH   4  17
TORSDOF 7
ENDMDL
MODEL 7
REMARK VINA RESULT:    -3.057      2.441      4.923
REMARK INTER + INTRA:          -4.205
REMARK INTER:                  -3.854
REMARK INTRA:                  -0.351
REMARK UNBOUND:                -0.254
REMARK SMILES CCO[C@@H]1O[C@H](CO)[C@@H](O)[C@@H](O)[C@H]1O
REMARK SMILES IDX 4 1 13 2 11 3 9 4 6 5 5 6 3 7 2 8 1 9 14 10 12 12 7 14 8 15
REMARK SMILES IDX 10 17
REMARK H PARENT 14 11 12 13 8 16 10 18
REMARK Flexibility Score: inf
ROOT
ATOM      1  C   UNL     1      -7.723 -10.080  -6.620  1.00  0.00     0.281 C 
ATOM      2  C   UNL     1      -7.303  -8.619  -6.262  1.00  0.00     0.202 C 
ATOM      3  C   UNL     1      -8.380  -7.617  -6.719  1.00  0.00     0.179 C 
ATOM      4  C   UNL     1      -9.779  -8.026  -6.209  1.00  0.00     0.177 C 
ATOM      5  C   UNL     1      -9.974  -9.568  -6.292  1.00  0.00     0.178 C 
ATOM      6  O   UNL     1      -9.033 -10.159  -7.173  1.00  0.00    -0.341 OA
ENDROOT
BRANCH   1   7
ATOM      7  O   UNL     1      -6.766 -10.690  -7.474  1.00  0.00    -0.350 OA
BRANCH   7   8
ATOM      8  C   UNL     1      -5.583  -9.922  -7.587  1.00  0.00     0.160 C 
ATOM      9  C   UNL     1      -4.740 -10.473  -8.727  1.00  0.00     0.035 C 
ENDBRANCH   7   8
ENDBRANCH   1   7
BRANCH   2  10
ATOM     10  O   UNL     1      -7.110  -8.495  -4.875  1.00  0.00    -0.385 OA
ATOM     11  H   UNL     1      -7.978  -8.200  -4.493  1.00  0.00     0.211 HD
ENDBRANCH   2  10
BRANCH   3  12
ATOM     12  O   UNL     1      -8.064  -6.317  -6.286  1.00  0.00    -0.387 OA
ATOM     13  H   UNL     1      -8.836  -5.740  -6.525  1.00  0.00     0.211 HD
ENDBRANCH   3  12
BRANCH   5  14
ATOM     14  C   UNL     1     -11.393  -9.935  -6.754  1.00  0.00     0.191 C 
BRANCH  14  15
ATOM     15  O   UNL     1     -12.333  -8.996  -6.300  1.00  0.00    -0.394 OA
ATOM     16  H   UNL     1     -12.707  -8.551  -7.105  1.00  0.00     0.210 HD
ENDBRANCH  14  15
ENDBRANCH   5  14
BRANCH   4  17
ATOM     17  O   UNL     1      -9.957  -7.617  -4.875  1.00  0.00    -0.387 OA
ATOM     18  H   UNL     1     -10.935  -7.567  -4.711  1.00  0.00     0.211 HD
ENDBRANCH   4  17
TORSDOF 7
ENDMDL
MODEL 8
REMARK VINA RESULT:    -2.917      1.655      4.484
REMARK INTER + INTRA:          -4.024
REMARK INTER:                  -3.716
REMARK INTRA:                  -0.308
REMARK UNBOUND:                -0.254
REMARK SMILES CCO[C@@H]1O[C@H](CO)[C@@H](O)[C@@H](O)[C@H]1O
REMARK SMILES IDX 4 1 13 2 11 3 9 4 6 5 5 6 3 7 2 8 1 9 14 10 12 12 7 14 8 15
REMARK SMILES IDX 10 17
REMARK H PARENT 14 11 12 13 8 16 10 18
REMARK Flexibility Score: inf
ROOT
ATOM      1  C   UNL     1      -5.117  -7.643  -5.991  1.00  0.00     0.281 C 
ATOM      2  C   UNL     1      -4.308  -8.273  -7.168  1.00  0.00     0.202 C 
ATOM      3  C   UNL     1      -4.224  -9.804  -7.011  1.00  0.00     0.179 C 
ATOM      4  C   UNL     1      -5.623 -10.421  -6.789  1.00  0.00     0.177 C 
ATOM      5  C   UNL     1      -6.488  -9.525  -5.856  1.00  0.00     0.178 C 
ATOM      6  O   UNL     1      -5.681  -8.619  -5.121  1.00  0.00    -0.341 OA
ENDROOT
BRANCH   1   7
ATOM      7  O   UNL     1      -4.325  -6.708  -5.272  1.00  0.00    -0.350 OA
BRANCH   7   8
ATOM      8  C   UNL     1      -3.127  -6.387  -5.952  1.00  0.00     0.160 C 
ATOM      9  C   UNL     1      -2.007  -6.223  -4.935  1.00  0.00     0.035 C 
ENDBRANCH   7   8
ENDBRANCH   1   7
BRANCH   2  10
ATOM     10  O   UNL     1      -4.916  -7.964  -8.397  1.00  0.00    -0.385 OA
ATOM     11  H   UNL     1      -5.325  -8.805  -8.731  1.00  0.00     0.211 HD
ENDBRANCH   2  10
BRANCH   3  12
ATOM     12  O   UNL     1      -3.607 -10.385  -8.133  1.00  0.00    -0.387 OA
ATOM     13  H   UNL     1      -2.684 -10.625  -7.859  1.00  0.00     0.211 HD
ENDBRANCH   3  12
BRANCH   5  14
ATOM     14  C   UNL     1      -7.319 -10.366  -4.875  1.00  0.00     0.191 C 
BRANCH  14  15
ATOM     15  O   UNL     1      -8.287 -11.125  -5.552  1.00  0.00    -0.394 OA
ATOM     16  H   UNL     1      -8.271 -12.033  -5.153  1.00  0.00     0.210 HD
ENDBRANCH  14  15
ENDBRANCH   5  14
BRANCH   4  17
ATOM     17  O   UNL     1      -6.293 -10.579  -8.017  1.00  0.00    -0.387 OA
ATOM     18  H   UNL     1      -6.930 -11.332  -7.909  1.00  0.00     0.211 HD
ENDBRANCH   4  17
TORSDOF 7
ENDMDL
MODEL 9
REMARK VINA RESULT:    -2.336      2.290      4.431
REMARK INTER + INTRA:          -3.272
REMARK INTER:                  -2.981
REMARK INTRA:                  -0.291
REMARK UNBOUND:                -0.254
REMARK SMILES CCO[C@@H]1O[C@H](CO)[C@@H](O)[C@@H](O)[C@H]1O
REMARK SMILES IDX 4 1 13 2 11 3 9 4 6 5 5 6 3 7 2 8 1 9 14 10 12 12 7 14 8 15
REMARK SMILES IDX 10 17
REMARK H PARENT 14 11 12 13 8 16 10 18
REMARK Flexibility Score: inf
ROOT
ATOM      1  C   UNL     1      -9.417  -8.633  -6.423  1.00  0.00     0.281 C 
ATOM      2  C   UNL     1      -8.447  -9.792  -6.816  1.00  0.00     0.202 C 
ATOM      3  C   UNL     1      -7.031  -9.248  -7.087  1.00  0.00     0.179 C 
ATOM      4  C   UNL     1      -6.538  -8.364  -5.920  1.00  0.00     0.177 C 
ATOM      5  C   UNL     1      -7.690  -7.476  -5.366  1.00  0.00     0.178 C 
ATOM      6  O   UNL     1      -8.756  -7.378  -6.296  1.00  0.00    -0.341 OA
ENDROOT
BRANCH   1   7
ATOM      7  O   UNL     1     -10.507  -8.552  -7.331  1.00  0.00    -0.350 OA
BRANCH   7   8
ATOM      8  C   UNL     1     -11.730  -8.933  -6.732  1.00  0.00     0.160 C 
ATOM      9  C   UNL     1     -12.651  -7.723  -6.671  1.00  0.00     0.035 C 
ENDBRANCH   7   8
ENDBRANCH   1   7
BRANCH   2  10
ATOM     10  O   UNL     1      -8.389 -10.747  -5.785  1.00  0.00    -0.385 OA
ATOM     11  H   UNL     1      -7.883 -10.329  -5.039  1.00  0.00     0.211 HD
ENDBRANCH   2  10
BRANCH   3  12
ATOM     12  O   UNL     1      -6.129 -10.301  -7.315  1.00  0.00    -0.387 OA
ATOM     13  H   UNL     1      -5.255  -9.886  -7.538  1.00  0.00     0.211 HD
ENDBRANCH   3  12
BRANCH   5  14
ATOM     14  C   UNL     1      -7.198  -6.063  -5.016  1.00  0.00     0.191 C 
BRANCH  14  15
ATOM     15  O   UNL     1      -5.817  -5.938  -5.239  1.00  0.00    -0.394 OA
ATOM     16  H   UNL     1      -5.572  -5.004  -5.008  1.00  0.00     0.210 HD
ENDBRANCH  14  15
ENDBRANCH   5  14
BRANCH   4  17
ATOM     17  O   UNL     1      -6.036  -9.161  -4.875  1.00  0.00    -0.387 OA
ATOM     18  H   UNL     1      -5.074  -9.319  -5.062  1.00  0.00     0.211 HD
ENDBRANCH   4  17
TORSDOF 7
ENDMDL
