MODEL 1
REMARK VINA RESULT:    24.006      0.000      0.000
REMARK INTER + INTRA:          54.083
REMARK INTER:                  54.880
REMARK INTRA:                  -0.797
REMARK UNBOUND:                -0.797
REMARK SMILES CCCCCCCCCCCCCCCCCCCCCCCC(=O)[O-]
REMARK SMILES IDX 13 1 14 2 15 3 16 4 17 5 18 6 19 7 20 8 21 9 22 10 23 11
REMARK SMILES IDX 24 12 25 13 26 14 12 15 11 16 10 17 9 18 8 19 7 20 6 21 5 22
REMARK SMILES IDX 4 23 3 24 2 25 1 26
REMARK H PARENT
REMARK Flexibility Score: inf
ROOT
ATOM      1  C   UNL     1     -16.789  -7.068 -24.831  1.00  0.00     0.000 C 
ENDROOT
BRANCH   1   2
ATOM      2  C   UNL     1     -17.949  -6.489 -25.660  1.00  0.00     0.000 C 
BRANCH   2   3
ATOM      3  C   UNL     1     -18.022  -7.085 -27.076  1.00  0.00     0.000 C 
BRANCH   3   4
ATOM      4  C   UNL     1     -19.467  -7.333 -27.564  1.00  0.00     0.000 C 
BRANCH   4   5
ATOM      5  C   UNL     1     -19.564  -8.374 -28.694  1.00  0.00     0.000 C 
BRANCH   5   6
ATOM      6  C   UNL     1     -18.242  -8.510 -29.472  1.00  0.00     0.000 C 
BRANCH   6   7
ATOM      7  C   UNL     1     -18.389  -9.343 -30.758  1.00  0.00     0.000 C 
BRANCH   7   8
ATOM      8  C   UNL     1     -17.504 -10.603 -30.820  1.00  0.00     0.000 C 
BRANCH   8   9
ATOM      9  C   UNL     1     -17.457 -11.395 -29.497  1.00  0.00     0.000 C 
BRANCH   9  10
ATOM     10  C   UNL     1     -16.105 -11.249 -28.782  1.00  0.00     0.006 C 
BRANCH  10  11
ATOM     11  C   UNL     1     -15.319 -10.052 -29.326  1.00  0.00     0.053 C 
BRANCH  11  12
ATOM     12  C   UNL     1     -14.069 -10.507 -30.012  1.00  0.00     0.041 C 
ATOM     13  O   UNL     1     -12.956 -10.399 -29.434  1.00  0.00    -0.550 OA
ATOM     14  O   UNL     1     -14.130 -11.032 -31.297  1.00  0.00    -0.550 OA
ENDBRANCH  11  12
ENDBRANCH  10  11
ENDBRANCH   9  10
ENDBRANCH   8   9
ENDBRANCH   7   8
ENDBRANCH   6   7
ENDBRANCH   5   6
ENDBRANCH   4   5
ENDBRANCH   3   4
ENDBRANCH   2   3
ENDBRANCH   1   2
BRANCH   1  15
ATOM     15  C   UNL     1     -16.526  -6.277 -23.540  1.00  0.00     0.000 C 
BRANCH  15  16
ATOM     16  C   UNL     1     -17.822  -5.879 -22.814  1.00  0.00     0.000 C 
BRANCH  16  17
ATOM     17  C   UNL     1     -17.711  -4.521 -22.097  1.00  0.00     0.000 C 
BRANCH  17  18
ATOM     18  C   UNL     1     -18.483  -4.414 -20.764  1.00  0.00    -0.000 C 
BRANCH  18  19
ATOM     19  C   UNL     1     -17.634  -4.633 -19.498  1.00  0.00    -0.000 C 
BRANCH  19  20
ATOM     20  C   UNL     1     -18.370  -4.372 -18.170  1.00  0.00    -0.000 C 
BRANCH  20  21
ATOM     21  C   UNL     1     -19.379  -3.205 -18.238  1.00  0.00    -0.000 C 
BRANCH  21  22
ATOM     22  C   UNL     1     -19.797  -2.707 -16.843  1.00  0.00    -0.000 C 
BRANCH  22  23
ATOM     23  C   UNL     1     -19.998  -1.181 -16.784  1.00  0.00    -0.000 C 
BRANCH  23  24
ATOM     24  C   UNL     1     -18.942  -0.417 -15.965  1.00  0.00    -0.000 C 
BRANCH  24  25
ATOM     25  C   UNL     1     -19.482   0.101 -14.624  1.00  0.00    -0.003 C 
ATOM     26  C   UNL     1     -20.114   1.480 -14.783  1.00  0.00     0.004 C 
ENDBRANCH  24  25
ENDBRANCH  23  24
ENDBRANCH  22  23
ENDBRANCH  21  22
ENDBRANCH  20  21
ENDBRANCH  19  20
ENDBRANCH  18  19
ENDBRANCH  17  18
ENDBRANCH  16  17
ENDBRANCH  15  16
ENDBRANCH   1  15
TORSDOF 22
ENDMDL
MODEL 2
REMARK VINA RESULT:    24.127      1.905      3.396
REMARK INTER + INTRA:          54.360
REMARK INTER:                  54.764
REMARK INTRA:                  -0.404
REMARK UNBOUND:                -0.797
REMARK SMILES CCCCCCCCCCCCCCCCCCCCCCCC(=O)[O-]
REMARK SMILES IDX 13 1 14 2 15 3 16 4 17 5 18 6 19 7 20 8 21 9 22 10 23 11
REMARK SMILES IDX 24 12 25 13 26 14 12 15 11 16 10 17 9 18 8 19 7 20 6 21 5 22
REMARK SMILES IDX 4 23 3 24 2 25 1 26
REMARK H PARENT
REMARK Flexibility Score: inf
ROOT
ATOM      1  C   UNL     1     -16.495  -5.918 -22.207  1.00  0.00     0.000 C 
ENDROOT
BRANCH   1   2
ATOM      2  C   UNL     1     -17.243  -7.000 -23.005  1.00  0.00     0.000 C 
BRANCH   2   3
ATOM      3  C   UNL     1     -17.297  -6.694 -24.512  1.00  0.00     0.000 C 
BRANCH   3   4
ATOM      4  C   UNL     1     -16.100  -5.853 -25.010  1.00  0.00     0.000 C 
BRANCH   4   5
ATOM      5  C   UNL     1     -15.850  -5.978 -26.524  1.00  0.00     0.000 C 
BRANCH   5   6
ATOM      6  C   UNL     1     -16.020  -7.425 -27.023  1.00  0.00     0.000 C 
BRANCH   6   7
ATOM      7  C   UNL     1     -14.967  -7.823 -28.073  1.00  0.00     0.000 C 
BRANCH   7   8
ATOM      8  C   UNL     1     -14.202  -9.124 -27.764  1.00  0.00     0.000 C 
BRANCH   8   9
ATOM      9  C   UNL     1     -14.287 -10.177 -28.889  1.00  0.00     0.000 C 
BRANCH   9  10
ATOM     10  C   UNL     1     -15.275  -9.767 -29.993  1.00  0.00     0.006 C 
BRANCH  10  11
ATOM     11  C   UNL     1     -16.716  -9.773 -29.473  1.00  0.00     0.053 C 
BRANCH  11  12
ATOM     12  C   UNL     1     -17.574 -10.676 -30.303  1.00  0.00     0.041 C 
ATOM     13  O   UNL     1     -17.499 -11.925 -30.163  1.00  0.00    -0.550 OA
ATOM     14  O   UNL     1     -18.445 -10.139 -31.244  1.00  0.00    -0.550 OA
ENDBRANCH  11  12
ENDBRANCH  10  11
ENDBRANCH   9  10
ENDBRANCH   8   9
ENDBRANCH   7   8
ENDBRANCH   6   7
ENDBRANCH   5   6
ENDBRANCH   4   5
ENDBRANCH   3   4
ENDBRANCH   2   3
ENDBRANCH   1   2
BRANCH   1  15
ATOM     15  C   UNL     1     -17.144  -5.629 -20.844  1.00  0.00     0.000 C 
BRANCH  15  16
ATOM     16  C   UNL     1     -18.155  -4.471 -20.902  1.00  0.00     0.000 C 
BRANCH  16  17
ATOM     17  C   UNL     1     -18.875  -4.240 -19.561  1.00  0.00     0.000 C 
BRANCH  17  18
ATOM     18  C   UNL     1     -18.961  -2.768 -19.102  1.00  0.00    -0.000 C 
BRANCH  18  19
ATOM     19  C   UNL     1     -20.013  -2.482 -18.016  1.00  0.00    -0.000 C 
BRANCH  19  20
ATOM     20  C   UNL     1     -19.541  -1.548 -16.885  1.00  0.00    -0.000 C 
BRANCH  20  21
ATOM     21  C   UNL     1     -20.116  -1.909 -15.499  1.00  0.00    -0.000 C 
BRANCH  21  22
ATOM     22  C   UNL     1     -19.723  -0.891 -14.415  1.00  0.00    -0.000 C 
BRANCH  22  23
ATOM     23  C   UNL     1     -19.474   0.521 -14.979  1.00  0.00    -0.000 C 
BRANCH  23  24
ATOM     24  C   UNL     1     -19.327   1.628 -13.919  1.00  0.00    -0.000 C 
BRANCH  24  25
ATOM     25  C   UNL     1     -17.917   2.236 -13.876  1.00  0.00    -0.003 C 
ATOM     26  C   UNL     1     -16.898   1.303 -14.522  1.00  0.00     0.004 C 
ENDBRANCH  24  25
ENDBRANCH  23  24
ENDBRANCH  22  23
ENDBRANCH  21  22
ENDBRANCH  20  21
ENDBRANCH  19  20
ENDBRANCH  18  19
ENDBRANCH  17  18
ENDBRANCH  16  17
ENDBRANCH  15  16
ENDBRANCH   1  15
TORSDOF 22
ENDMDL
MODEL 3
REMARK VINA RESULT:    25.351      4.008      6.453
REMARK INTER + INTRA:          57.157
REMARK INTER:                  57.613
REMARK INTRA:                  -0.456
REMARK UNBOUND:                -0.797
REMARK SMILES CCCCCCCCCCCCCCCCCCCCCCCC(=O)[O-]
REMARK SMILES IDX 13 1 14 2 15 3 16 4 17 5 18 6 19 7 20 8 21 9 22 10 23 11
REMARK SMILES IDX 24 12 25 13 26 14 12 15 11 16 10 17 9 18 8 19 7 20 6 21 5 22
REMARK SMILES IDX 4 23 3 24 2 25 1 26
REMARK H PARENT
REMARK Flexibility Score: inf
ROOT
ATOM      1  C   UNL     1     -16.496  -6.408 -26.579  1.00  0.00     0.000 C 
ENDROOT
BRANCH   1   2
ATOM      2  C   UNL     1     -17.992  -6.747 -26.697  1.00  0.00     0.000 C 
BRANCH   2   3
ATOM      3  C   UNL     1     -18.452  -6.899 -28.156  1.00  0.00     0.000 C 
BRANCH   3   4
ATOM      4  C   UNL     1     -17.823  -8.115 -28.873  1.00  0.00     0.000 C 
BRANCH   4   5
ATOM      5  C   UNL     1     -17.832  -7.995 -30.408  1.00  0.00     0.000 C 
BRANCH   5   6
ATOM      6  C   UNL     1     -17.472  -9.324 -31.097  1.00  0.00     0.000 C 
BRANCH   6   7
ATOM      7  C   UNL     1     -18.529 -10.420 -30.872  1.00  0.00     0.000 C 
BRANCH   7   8
ATOM      8  C   UNL     1     -17.962 -11.803 -30.498  1.00  0.00     0.000 C 
BRANCH   8   9
ATOM      9  C   UNL     1     -17.501 -11.908 -29.029  1.00  0.00     0.000 C 
BRANCH   9  10
ATOM     10  C   UNL     1     -15.995 -11.643 -28.874  1.00  0.00     0.006 C 
BRANCH  10  11
ATOM     11  C   UNL     1     -15.445 -10.867 -30.074  1.00  0.00     0.053 C 
BRANCH  11  12
ATOM     12  C   UNL     1     -14.075 -10.340 -29.780  1.00  0.00     0.041 C 
ATOM     13  O   UNL     1     -13.176 -10.390 -30.660  1.00  0.00    -0.550 OA
ATOM     14  O   UNL     1     -13.786  -9.808 -28.529  1.00  0.00    -0.550 OA
ENDBRANCH  11  12
ENDBRANCH  10  11
ENDBRANCH   9  10
ENDBRANCH   8   9
ENDBRANCH   7   8
ENDBRANCH   6   7
ENDBRANCH   5   6
ENDBRANCH   4   5
ENDBRANCH   3   4
ENDBRANCH   2   3
ENDBRANCH   1   2
BRANCH   1  15
ATOM     15  C   UNL     1     -16.103  -5.927 -25.172  1.00  0.00     0.000 C 
BRANCH  15  16
ATOM     16  C   UNL     1     -17.304  -5.398 -24.369  1.00  0.00     0.000 C 
BRANCH  16  17
ATOM     17  C   UNL     1     -16.905  -4.868 -22.980  1.00  0.00     0.000 C 
BRANCH  17  18
ATOM     18  C   UNL     1     -17.470  -5.664 -21.784  1.00  0.00    -0.000 C 
BRANCH  18  19
ATOM     19  C   UNL     1     -16.488  -6.661 -21.140  1.00  0.00    -0.000 C 
BRANCH  19  20
ATOM     20  C   UNL     1     -15.611  -7.442 -22.138  1.00  0.00    -0.000 C 
BRANCH  20  21
ATOM     21  C   UNL     1     -14.119  -7.500 -21.741  1.00  0.00    -0.000 C 
BRANCH  21  22
ATOM     22  C   UNL     1     -13.717  -8.867 -21.162  1.00  0.00    -0.000 C 
BRANCH  22  23
ATOM     23  C   UNL     1     -13.906 -10.023 -22.163  1.00  0.00    -0.000 C 
BRANCH  23  24
ATOM     24  C   UNL     1     -14.563 -11.287 -21.580  1.00  0.00    -0.000 C 
BRANCH  24  25
ATOM     25  C   UNL     1     -14.650 -12.439 -22.592  1.00  0.00    -0.003 C 
ATOM     26  C   UNL     1     -16.094 -12.688 -23.018  1.00  0.00     0.004 C 
ENDBRANCH  24  25
ENDBRANCH  23  24
ENDBRANCH  22  23
ENDBRANCH  21  22
ENDBRANCH  20  21
ENDBRANCH  19  20
ENDBRANCH  18  19
ENDBRANCH  17  18
ENDBRANCH  16  17
ENDBRANCH  15  16
ENDBRANCH   1  15
TORSDOF 22
ENDMDL
MODEL 4
REMARK VINA RESULT:    25.477      3.844      6.721
REMARK INTER + INTRA:          57.446
REMARK INTER:                  57.210
REMARK INTRA:                   0.236
REMARK UNBOUND:                -0.797
REMARK SMILES CCCCCCCCCCCCCCCCCCCCCCCC(=O)[O-]
REMARK SMILES IDX 13 1 14 2 15 3 16 4 17 5 18 6 19 7 20 8 21 9 22 10 23 11
REMARK SMILES IDX 24 12 25 13 26 14 12 15 11 16 10 17 9 18 8 19 7 20 6 21 5 22
REMARK SMILES IDX 4 23 3 24 2 25 1 26
REMARK H PARENT
REMARK Flexibility Score: inf
ROOT
ATOM      1  C   UNL     1     -16.801  -6.144 -25.510  1.00  0.00     0.000 C 
ENDROOT
BRANCH   1   2
ATOM      2  C   UNL     1     -18.275  -6.126 -25.951  1.00  0.00     0.000 C 
BRANCH   2   3
ATOM      3  C   UNL     1     -18.490  -6.779 -27.327  1.00  0.00     0.000 C 
BRANCH   3   4
ATOM      4  C   UNL     1     -19.946  -7.236 -27.569  1.00  0.00     0.000 C 
BRANCH   4   5
ATOM      5  C   UNL     1     -20.056  -8.501 -28.439  1.00  0.00     0.000 C 
BRANCH   5   6
ATOM      6  C   UNL     1     -18.734  -8.828 -29.158  1.00  0.00     0.000 C 
BRANCH   6   7
ATOM      7  C   UNL     1     -18.936  -9.692 -30.415  1.00  0.00     0.000 C 
BRANCH   7   8
ATOM      8  C   UNL     1     -17.807  -9.592 -31.460  1.00  0.00     0.000 C 
BRANCH   8   9
ATOM      9  C   UNL     1     -16.509 -10.315 -31.043  1.00  0.00     0.000 C 
BRANCH   9  10
ATOM     10  C   UNL     1     -16.690 -11.136 -29.757  1.00  0.00     0.006 C 
BRANCH  10  11
ATOM     11  C   UNL     1     -15.339 -11.451 -29.109  1.00  0.00     0.053 C 
BRANCH  11  12
ATOM     12  C   UNL     1     -14.305 -10.452 -29.529  1.00  0.00     0.041 C 
ATOM     13  O   UNL     1     -14.141  -9.395 -28.865  1.00  0.00    -0.550 OA
ATOM     14  O   UNL     1     -13.535 -10.681 -30.663  1.00  0.00    -0.550 OA
ENDBRANCH  11  12
ENDBRANCH  10  11
ENDBRANCH   9  10
ENDBRANCH   8   9
ENDBRANCH   7   8
ENDBRANCH   6   7
ENDBRANCH   5   6
ENDBRANCH   4   5
ENDBRANCH   3   4
ENDBRANCH   2   3
ENDBRANCH   1   2
BRANCH   1  15
ATOM     15  C   UNL     1     -16.636  -6.327 -23.992  1.00  0.00     0.000 C 
BRANCH  15  16
ATOM     16  C   UNL     1     -17.773  -5.673 -23.189  1.00  0.00     0.000 C 
BRANCH  16  17
ATOM     17  C   UNL     1     -17.297  -5.093 -21.845  1.00  0.00     0.000 C 
BRANCH  17  18
ATOM     18  C   UNL     1     -16.496  -6.065 -20.953  1.00  0.00    -0.000 C 
BRANCH  18  19
ATOM     19  C   UNL     1     -15.390  -6.856 -21.677  1.00  0.00    -0.000 C 
BRANCH  19  20
ATOM     20  C   UNL     1     -14.928  -8.136 -20.954  1.00  0.00    -0.000 C 
BRANCH  20  21
ATOM     21  C   UNL     1     -13.689  -8.799 -21.593  1.00  0.00    -0.000 C 
BRANCH  21  22
ATOM     22  C   UNL     1     -13.552 -10.282 -21.208  1.00  0.00    -0.000 C 
BRANCH  22  23
ATOM     23  C   UNL     1     -14.038 -11.238 -22.313  1.00  0.00    -0.000 C 
BRANCH  23  24
ATOM     24  C   UNL     1     -15.491 -11.724 -22.162  1.00  0.00    -0.000 C 
BRANCH  24  25
ATOM     25  C   UNL     1     -15.725 -13.116 -22.766  1.00  0.00    -0.003 C 
ATOM     26  C   UNL     1     -16.439 -13.018 -24.110  1.00  0.00     0.004 C 
ENDBRANCH  24  25
ENDBRANCH  23  24
ENDBRANCH  22  23
ENDBRANCH  21  22
ENDBRANCH  20  21
ENDBRANCH  19  20
ENDBRANCH  18  19
ENDBRANCH  17  18
ENDBRANCH  16  17
ENDBRANCH  15  16
ENDBRANCH   1  15
TORSDOF 22
ENDMDL
MODEL 5
REMARK VINA RESULT:    26.138     11.213     15.252
REMARK INTER + INTRA:          58.956
REMARK INTER:                  60.055
REMARK INTRA:                  -1.099
REMARK UNBOUND:                -0.797
REMARK SMILES CCCCCCCCCCCCCCCCCCCCCCCC(=O)[O-]
REMARK SMILES IDX 13 1 14 2 15 3 16 4 17 5 18 6 19 7 20 8 21 9 22 10 23 11
REMARK SMILES IDX 24 12 25 13 26 14 12 15 11 16 10 17 9 18 8 19 7 20 6 21 5 22
REMARK SMILES IDX 4 23 3 24 2 25 1 26
REMARK H PARENT
REMARK Flexibility Score: inf
ROOT
ATOM      1  C   UNL     1     -10.092  -5.758 -21.747  1.00  0.00     0.000 C 
ENDROOT
BRANCH   1   2
ATOM      2  C   UNL     1      -9.049  -4.697 -21.354  1.00  0.00     0.000 C 
BRANCH   2   3
ATOM      3  C   UNL     1      -9.690  -3.370 -20.914  1.00  0.00     0.000 C 
BRANCH   3   4
ATOM      4  C   UNL     1      -8.686  -2.197 -20.845  1.00  0.00     0.000 C 
BRANCH   4   5
ATOM      5  C   UNL     1      -9.180  -1.015 -19.992  1.00  0.00     0.000 C 
BRANCH   5   6
ATOM      6  C   UNL     1      -8.985   0.336 -20.704  1.00  0.00     0.000 C 
BRANCH   6   7
ATOM      7  C   UNL     1      -9.279   0.265 -22.213  1.00  0.00     0.000 C 
BRANCH   7   8
ATOM      8  C   UNL     1      -9.616   1.616 -22.874  1.00  0.00     0.000 C 
BRANCH   8   9
ATOM      9  C   UNL     1      -8.779   1.915 -24.136  1.00  0.00     0.000 C 
BRANCH   9  10
ATOM     10  C   UNL     1      -9.173   3.248 -24.790  1.00  0.00     0.006 C 
BRANCH  10  11
ATOM     11  C   UNL     1      -9.361   3.087 -26.301  1.00  0.00     0.053 C 
BRANCH  11  12
ATOM     12  C   UNL     1     -10.424   2.075 -26.598  1.00  0.00     0.041 C 
ATOM     13  O   UNL     1     -10.159   1.070 -27.308  1.00  0.00    -0.550 OA
ATOM     14  O   UNL     1     -11.710   2.251 -26.104  1.00  0.00    -0.550 OA
ENDBRANCH  11  12
ENDBRANCH  10  11
ENDBRANCH   9  10
ENDBRANCH   8   9
ENDBRANCH   7   8
ENDBRANCH   6   7
ENDBRANCH   5   6
ENDBRANCH   4   5
ENDBRANCH   3   4
ENDBRANCH   2   3
ENDBRANCH   1   2
BRANCH   1  15
ATOM     15  C   UNL     1      -9.817  -7.128 -21.106  1.00  0.00     0.000 C 
BRANCH  15  16
ATOM     16  C   UNL     1      -8.315  -7.415 -20.940  1.00  0.00     0.000 C 
BRANCH  16  17
ATOM     17  C   UNL     1      -8.018  -8.902 -20.671  1.00  0.00     0.000 C 
BRANCH  17  18
ATOM     18  C   UNL     1      -6.528  -9.250 -20.469  1.00  0.00    -0.000 C 
BRANCH  18  19
ATOM     19  C   UNL     1      -6.211 -10.053 -19.194  1.00  0.00    -0.000 C 
BRANCH  19  20
ATOM     20  C   UNL     1      -5.441 -11.367 -19.429  1.00  0.00    -0.000 C 
BRANCH  20  21
ATOM     21  C   UNL     1      -4.887 -11.515 -20.863  1.00  0.00    -0.000 C 
BRANCH  21  22
ATOM     22  C   UNL     1      -3.353 -11.426 -20.912  1.00  0.00    -0.000 C 
BRANCH  22  23
ATOM     23  C   UNL     1      -2.773 -11.784 -22.294  1.00  0.00    -0.000 C 
BRANCH  23  24
ATOM     24  C   UNL     1      -2.499 -10.583 -23.217  1.00  0.00    -0.000 C 
BRANCH  24  25
ATOM     25  C   UNL     1      -1.602  -9.519 -22.567  1.00  0.00    -0.003 C 
ATOM     26  C   UNL     1      -2.233  -8.134 -22.666  1.00  0.00     0.004 C 
ENDBRANCH  24  25
ENDBRANCH  23  24
ENDBRANCH  22  23
ENDBRANCH  21  22
ENDBRANCH  20  21
ENDBRANCH  19  20
ENDBRANCH  18  19
ENDBRANCH  17  18
ENDBRANCH  16  17
ENDBRANCH  15  16
ENDBRANCH   1  15
TORSDOF 22
ENDMDL
MODEL 6
REMARK VINA RESULT:    26.169      7.768     10.482
REMARK INTER + INTRA:          59.029
REMARK INTER:                  59.810
REMARK INTRA:                  -0.781
REMARK UNBOUND:                -0.797
REMARK SMILES CCCCCCCCCCCCCCCCCCCCCCCC(=O)[O-]
REMARK SMILES IDX 13 1 14 2 15 3 16 4 17 5 18 6 19 7 20 8 21 9 22 10 23 11
REMARK SMILES IDX 24 12 25 13 26 14 12 15 11 16 10 17 9 18 8 19 7 20 6 21 5 22
REMARK SMILES IDX 4 23 3 24 2 25 1 26
REMARK H PARENT
REMARK Flexibility Score: inf
ROOT
ATOM      1  C   UNL     1     -10.002  -5.099 -21.445  1.00  0.00     0.000 C 
ENDROOT
BRANCH   1   2
ATOM      2  C   UNL     1      -9.661  -6.596 -21.346  1.00  0.00     0.000 C 
BRANCH   2   3
ATOM      3  C   UNL     1     -10.647  -7.481 -22.127  1.00  0.00     0.000 C 
BRANCH   3   4
ATOM      4  C   UNL     1     -11.837  -7.976 -21.274  1.00  0.00     0.000 C 
BRANCH   4   5
ATOM      5  C   UNL     1     -12.650  -9.098 -21.945  1.00  0.00     0.000 C 
BRANCH   5   6
ATOM      6  C   UNL     1     -14.159  -8.966 -21.668  1.00  0.00     0.000 C 
BRANCH   6   7
ATOM      7  C   UNL     1     -14.640  -7.504 -21.662  1.00  0.00     0.000 C 
BRANCH   7   8
ATOM      8  C   UNL     1     -15.930  -7.242 -22.464  1.00  0.00     0.000 C 
BRANCH   8   9
ATOM      9  C   UNL     1     -16.818  -6.132 -21.864  1.00  0.00     0.000 C 
BRANCH   9  10
ATOM     10  C   UNL     1     -17.713  -5.470 -22.923  1.00  0.00     0.006 C 
BRANCH  10  11
ATOM     11  C   UNL     1     -16.873  -4.818 -24.025  1.00  0.00     0.053 C 
BRANCH  11  12
ATOM     12  C   UNL     1     -16.659  -5.771 -25.161  1.00  0.00     0.041 C 
ATOM     13  O   UNL     1     -17.613  -6.476 -25.582  1.00  0.00    -0.550 OA
ATOM     14  O   UNL     1     -15.403  -5.892 -25.742  1.00  0.00    -0.550 OA
ENDBRANCH  11  12
ENDBRANCH  10  11
ENDBRANCH   9  10
ENDBRANCH   8   9
ENDBRANCH   7   8
ENDBRANCH   6   7
ENDBRANCH   5   6
ENDBRANCH   4   5
ENDBRANCH   3   4
ENDBRANCH   2   3
ENDBRANCH   1   2
BRANCH   1  15
ATOM     15  C   UNL     1      -8.768  -4.196 -21.294  1.00  0.00     0.000 C 
BRANCH  15  16
ATOM     16  C   UNL     1      -8.993  -3.045 -20.299  1.00  0.00     0.000 C 
BRANCH  16  17
ATOM     17  C   UNL     1      -9.378  -1.725 -20.990  1.00  0.00     0.000 C 
BRANCH  17  18
ATOM     18  C   UNL     1      -8.963  -0.441 -20.239  1.00  0.00    -0.000 C 
BRANCH  18  19
ATOM     19  C   UNL     1      -9.185   0.871 -21.014  1.00  0.00    -0.000 C 
BRANCH  19  20
ATOM     20  C   UNL     1      -9.421   0.698 -22.527  1.00  0.00    -0.000 C 
BRANCH  20  21
ATOM     21  C   UNL     1      -8.938   1.896 -23.373  1.00  0.00    -0.000 C 
BRANCH  21  22
ATOM     22  C   UNL     1     -10.097   2.792 -23.840  1.00  0.00    -0.000 C 
BRANCH  22  23
ATOM     23  C   UNL     1      -9.736   3.655 -25.063  1.00  0.00    -0.000 C 
BRANCH  23  24
ATOM     24  C   UNL     1      -9.449   2.867 -26.354  1.00  0.00    -0.000 C 
BRANCH  24  25
ATOM     25  C   UNL     1     -10.708   2.230 -26.962  1.00  0.00    -0.003 C 
ATOM     26  C   UNL     1     -10.508   0.737 -27.197  1.00  0.00     0.004 C 
ENDBRANCH  24  25
ENDBRANCH  23  24
ENDBRANCH  22  23
ENDBRANCH  21  22
ENDBRANCH  20  21
ENDBRANCH  19  20
ENDBRANCH  18  19
ENDBRANCH  17  18
ENDBRANCH  16  17
ENDBRANCH  15  16
ENDBRANCH   1  15
TORSDOF 22
ENDMDL
MODEL 7
REMARK VINA RESULT:    26.301     12.222     16.041
REMARK INTER + INTRA:          59.331
REMARK INTER:                  60.416
REMARK INTRA:                  -1.085
REMARK UNBOUND:                -0.797
REMARK SMILES CCCCCCCCCCCCCCCCCCCCCCCC(=O)[O-]
REMARK SMILES IDX 13 1 14 2 15 3 16 4 17 5 18 6 19 7 20 8 21 9 22 10 23 11
REMARK SMILES IDX 24 12 25 13 26 14 12 15 11 16 10 17 9 18 8 19 7 20 6 21 5 22
REMARK SMILES IDX 4 23 3 24 2 25 1 26
REMARK H PARENT
REMARK Flexibility Score: inf
ROOT
ATOM      1  C   UNL     1      -6.902  -4.862 -16.294  1.00  0.00     0.000 C 
ENDROOT
BRANCH   1   2
ATOM      2  C   UNL     1      -6.626  -3.502 -16.960  1.00  0.00     0.000 C 
BRANCH   2   3
ATOM      3  C   UNL     1      -6.361  -3.625 -18.470  1.00  0.00     0.000 C 
BRANCH   3   4
ATOM      4  C   UNL     1      -6.939  -2.450 -19.291  1.00  0.00     0.000 C 
BRANCH   4   5
ATOM      5  C   UNL     1      -8.063  -2.871 -20.256  1.00  0.00     0.000 C 
BRANCH   5   6
ATOM      6  C   UNL     1      -9.187  -1.821 -20.330  1.00  0.00     0.000 C 
BRANCH   6   7
ATOM      7  C   UNL     1      -8.662  -0.377 -20.245  1.00  0.00     0.000 C 
BRANCH   7   8
ATOM      8  C   UNL     1      -9.390   0.633 -21.153  1.00  0.00     0.000 C 
BRANCH   8   9
ATOM      9  C   UNL     1      -8.880   0.639 -22.609  1.00  0.00     0.000 C 
BRANCH   9  10
ATOM     10  C   UNL     1      -9.546   1.736 -23.454  1.00  0.00     0.006 C 
BRANCH  10  11
ATOM     11  C   UNL     1      -8.770   1.981 -24.751  1.00  0.00     0.053 C 
BRANCH  11  12
ATOM     12  C   UNL     1      -9.606   2.741 -25.733  1.00  0.00     0.041 C 
ATOM     13  O   UNL     1     -10.331   2.124 -26.557  1.00  0.00    -0.550 OA
ATOM     14  O   UNL     1      -9.571   4.130 -25.750  1.00  0.00    -0.550 OA
ENDBRANCH  11  12
ENDBRANCH  10  11
ENDBRANCH   9  10
ENDBRANCH   8   9
ENDBRANCH   7   8
ENDBRANCH   6   7
ENDBRANCH   5   6
ENDBRANCH   4   5
ENDBRANCH   3   4
ENDBRANCH   2   3
ENDBRANCH   1   2
BRANCH   1  15
ATOM     15  C   UNL     1      -5.620  -5.561 -15.812  1.00  0.00     0.000 C 
BRANCH  15  16
ATOM     16  C   UNL     1      -5.830  -7.059 -15.534  1.00  0.00     0.000 C 
BRANCH  16  17
ATOM     17  C   UNL     1      -6.235  -7.848 -16.793  1.00  0.00     0.000 C 
BRANCH  17  18
ATOM     18  C   UNL     1      -5.710  -9.298 -16.859  1.00  0.00    -0.000 C 
BRANCH  18  19
ATOM     19  C   UNL     1      -6.371 -10.185 -17.930  1.00  0.00    -0.000 C 
BRANCH  19  20
ATOM     20  C   UNL     1      -6.455  -9.554 -19.333  1.00  0.00    -0.000 C 
BRANCH  20  21
ATOM     21  C   UNL     1      -6.088 -10.526 -20.475  1.00  0.00    -0.000 C 
BRANCH  21  22
ATOM     22  C   UNL     1      -5.078 -11.598 -20.033  1.00  0.00    -0.000 C 
BRANCH  22  23
ATOM     23  C   UNL     1      -3.703 -11.444 -20.709  1.00  0.00    -0.000 C 
BRANCH  23  24
ATOM     24  C   UNL     1      -3.598 -12.051 -22.120  1.00  0.00    -0.000 C 
BRANCH  24  25
ATOM     25  C   UNL     1      -2.356 -11.575 -22.888  1.00  0.00    -0.003 C 
ATOM     26  C   UNL     1      -2.162 -10.070 -22.740  1.00  0.00     0.004 C 
ENDBRANCH  24  25
ENDBRANCH  23  24
ENDBRANCH  22  23
ENDBRANCH  21  22
ENDBRANCH  20  21
ENDBRANCH  19  20
ENDBRANCH  18  19
ENDBRANCH  17  18
ENDBRANCH  16  17
ENDBRANCH  15  16
ENDBRANCH   1  15
TORSDOF 22
ENDMDL
MODEL 8
REMARK VINA RESULT:    26.394     10.857     13.054
REMARK INTER + INTRA:          59.543
REMARK INTER:                  59.919
REMARK INTRA:                  -0.376
REMARK UNBOUND:                -0.797
REMARK SMILES CCCCCCCCCCCCCCCCCCCCCCCC(=O)[O-]
REMARK SMILES IDX 13 1 14 2 15 3 16 4 17 5 18 6 19 7 20 8 21 9 22 10 23 11
REMARK SMILES IDX 24 12 25 13 26 14 12 15 11 16 10 17 9 18 8 19 7 20 6 21 5 22
REMARK SMILES IDX 4 23 3 24 2 25 1 26
REMARK H PARENT
REMARK Flexibility Score: inf
ROOT
ATOM      1  C   UNL     1      -9.055  -3.862 -21.453  1.00  0.00     0.000 C 
ENDROOT
BRANCH   1   2
ATOM      2  C   UNL     1      -9.974  -5.019 -21.022  1.00  0.00     0.000 C 
BRANCH   2   3
ATOM      3  C   UNL     1      -9.642  -6.338 -21.739  1.00  0.00     0.000 C 
BRANCH   3   4
ATOM      4  C   UNL     1      -9.676  -7.569 -20.806  1.00  0.00     0.000 C 
BRANCH   4   5
ATOM      5  C   UNL     1      -8.761  -8.717 -21.269  1.00  0.00     0.000 C 
BRANCH   5   6
ATOM      6  C   UNL     1      -7.477  -8.815 -20.424  1.00  0.00     0.000 C 
BRANCH   6   7
ATOM      7  C   UNL     1      -6.870 -10.229 -20.421  1.00  0.00     0.000 C 
BRANCH   7   8
ATOM      8  C   UNL     1      -5.840 -10.491 -19.305  1.00  0.00     0.000 C 
BRANCH   8   9
ATOM      9  C   UNL     1      -4.687 -11.423 -19.730  1.00  0.00     0.000 C 
BRANCH   9  10
ATOM     10  C   UNL     1      -4.690 -11.696 -21.242  1.00  0.00     0.006 C 
BRANCH  10  11
ATOM     11  C   UNL     1      -3.349 -12.277 -21.700  1.00  0.00     0.053 C 
BRANCH  11  12
ATOM     12  C   UNL     1      -2.368 -11.183 -21.988  1.00  0.00     0.041 C 
ATOM     13  O   UNL     1      -1.463 -10.911 -21.157  1.00  0.00    -0.550 OA
ATOM     14  O   UNL     1      -2.465 -10.451 -23.165  1.00  0.00    -0.550 OA
ENDBRANCH  11  12
ENDBRANCH  10  11
ENDBRANCH   9  10
ENDBRANCH   8   9
ENDBRANCH   7   8
ENDBRANCH   6   7
ENDBRANCH   5   6
ENDBRANCH   4   5
ENDBRANCH   3   4
ENDBRANCH   2   3
ENDBRANCH   1   2
BRANCH   1  15
ATOM     15  C   UNL     1      -8.869  -2.807 -20.350  1.00  0.00     0.000 C 
BRANCH  15  16
ATOM     16  C   UNL     1      -9.664  -1.519 -20.622  1.00  0.00     0.000 C 
BRANCH  16  17
ATOM     17  C   UNL     1      -8.759  -0.290 -20.819  1.00  0.00     0.000 C 
BRANCH  17  18
ATOM     18  C   UNL     1      -9.486   1.072 -20.817  1.00  0.00    -0.000 C 
BRANCH  18  19
ATOM     19  C   UNL     1      -9.314   1.907 -22.099  1.00  0.00    -0.000 C 
BRANCH  19  20
ATOM     20  C   UNL     1      -9.249   1.088 -23.402  1.00  0.00    -0.000 C 
BRANCH  20  21
ATOM     21  C   UNL     1      -8.281   1.671 -24.455  1.00  0.00    -0.000 C 
BRANCH  21  22
ATOM     22  C   UNL     1      -8.534   3.164 -24.725  1.00  0.00    -0.000 C 
BRANCH  22  23
ATOM     23  C   UNL     1     -10.029   3.534 -24.704  1.00  0.00    -0.000 C 
BRANCH  23  24
ATOM     24  C   UNL     1     -10.945   2.592 -25.507  1.00  0.00    -0.000 C 
BRANCH  24  25
ATOM     25  C   UNL     1     -10.457   2.362 -26.944  1.00  0.00    -0.003 C 
ATOM     26  C   UNL     1     -10.665   0.912 -27.369  1.00  0.00     0.004 C 
ENDBRANCH  24  25
ENDBRANCH  23  24
ENDBRANCH  22  23
ENDBRANCH  21  22
ENDBRANCH  20  21
ENDBRANCH  19  20
ENDBRANCH  18  19
ENDBRANCH  17  18
ENDBRANCH  16  17
ENDBRANCH  15  16
ENDBRANCH   1  15
TORSDOF 22
ENDMDL
MODEL 9
REMARK VINA RESULT:    26.779      8.062     11.785
REMARK INTER + INTRA:          60.422
REMARK INTER:                  60.921
REMARK INTRA:                  -0.499
REMARK UNBOUND:                -0.797
REMARK SMILES CCCCCCCCCCCCCCCCCCCCCCCC(=O)[O-]
REMARK SMILES IDX 13 1 14 2 15 3 16 4 17 5 18 6 19 7 20 8 21 9 22 10 23 11
REMARK SMILES IDX 24 12 25 13 26 14 12 15 11 16 10 17 9 18 8 19 7 20 6 21 5 22
REMARK SMILES IDX 4 23 3 24 2 25 1 26
REMARK H PARENT
REMARK Flexibility Score: inf
ROOT
ATOM      1  C   UNL     1     -10.001  -5.334 -21.095  1.00  0.00     0.000 C 
ENDROOT
BRANCH   1   2
ATOM      2  C   UNL     1      -9.388  -4.058 -21.698  1.00  0.00     0.000 C 
BRANCH   2   3
ATOM      3  C   UNL     1      -8.926  -3.058 -20.625  1.00  0.00     0.000 C 
BRANCH   3   4
ATOM      4  C   UNL     1      -9.641  -1.691 -20.710  1.00  0.00     0.000 C 
BRANCH   4   5
ATOM      5  C   UNL     1      -8.774  -0.513 -20.232  1.00  0.00     0.000 C 
BRANCH   5   6
ATOM      6  C   UNL     1      -9.116   0.796 -20.967  1.00  0.00     0.000 C 
BRANCH   6   7
ATOM      7  C   UNL     1      -9.163   0.628 -22.496  1.00  0.00     0.000 C 
BRANCH   7   8
ATOM      8  C   UNL     1      -9.379   1.933 -23.287  1.00  0.00     0.000 C 
BRANCH   8   9
ATOM      9  C   UNL     1      -8.427   2.094 -24.490  1.00  0.00     0.000 C 
BRANCH   9  10
ATOM     10  C   UNL     1      -8.980   3.070 -25.540  1.00  0.00     0.006 C 
BRANCH  10  11
ATOM     11  C   UNL     1     -10.445   2.760 -25.863  1.00  0.00     0.053 C 
BRANCH  11  12
ATOM     12  C   UNL     1     -10.551   1.941 -27.112  1.00  0.00     0.041 C 
ATOM     13  O   UNL     1     -10.424   0.690 -27.060  1.00  0.00    -0.550 OA
ATOM     14  O   UNL     1     -10.773   2.562 -28.335  1.00  0.00    -0.550 OA
ENDBRANCH  11  12
ENDBRANCH  10  11
ENDBRANCH   9  10
ENDBRANCH   8   9
ENDBRANCH   7   8
ENDBRANCH   6   7
ENDBRANCH   5   6
ENDBRANCH   4   5
ENDBRANCH   3   4
ENDBRANCH   2   3
ENDBRANCH   1   2
BRANCH   1  15
ATOM     15  C   UNL     1      -9.471  -6.618 -21.753  1.00  0.00     0.000 C 
BRANCH  15  16
ATOM     16  C   UNL     1     -10.259  -7.870 -21.331  1.00  0.00     0.000 C 
BRANCH  16  17
ATOM     17  C   UNL     1     -11.776  -7.621 -21.252  1.00  0.00     0.000 C 
BRANCH  17  18
ATOM     18  C   UNL     1     -12.663  -8.834 -21.606  1.00  0.00    -0.000 C 
BRANCH  18  19
ATOM     19  C   UNL     1     -14.172  -8.630 -21.376  1.00  0.00    -0.000 C 
BRANCH  19  20
ATOM     20  C   UNL     1     -14.805  -7.488 -22.194  1.00  0.00    -0.000 C 
BRANCH  20  21
ATOM     21  C   UNL     1     -15.890  -6.701 -21.427  1.00  0.00    -0.000 C 
BRANCH  21  22
ATOM     22  C   UNL     1     -17.038  -6.240 -22.341  1.00  0.00    -0.000 C 
BRANCH  22  23
ATOM     23  C   UNL     1     -17.129  -7.049 -23.648  1.00  0.00    -0.000 C 
BRANCH  23  24
ATOM     24  C   UNL     1     -16.716  -6.284 -24.918  1.00  0.00    -0.000 C 
BRANCH  24  25
ATOM     25  C   UNL     1     -16.889  -4.764 -24.787  1.00  0.00    -0.003 C 
ATOM     26  C   UNL     1     -18.282  -4.412 -24.277  1.00  0.00     0.004 C 
ENDBRANCH  24  25
ENDBRANCH  23  24
ENDBRANCH  22  23
ENDBRANCH  21  22
ENDBRANCH  20  21
ENDBRANCH  19  20
ENDBRANCH  18  19
ENDBRANCH  17  18
ENDBRANCH  16  17
ENDBRANCH  15  16
ENDBRANCH   1  15
TORSDOF 22
ENDMDL
