MODEL 1
REMARK VINA RESULT:    -5.493      0.000      0.000
REMARK INTER + INTRA:          -8.264
REMARK INTER:                  -7.419
REMARK INTRA:                  -0.845
REMARK UNBOUND:                -0.845
REMARK SMILES CC(=O)CCC=C(C)CCC=C(C)C
REMARK SMILES IDX 7 1 6 2 8 3 9 4 10 5 11 6 13 7 12 8 14 9 5 10 4 11 2 12 3 13
REMARK SMILES IDX 1 14
REMARK H PARENT
REMARK Flexibility Score: inf
ROOT
ATOM      1  C   UNL     1      12.720 -35.112 -31.546  1.00  0.00    -0.077 C 
ATOM      2  C   UNL     1      13.341 -33.922 -31.711  1.00  0.00    -0.028 C 
ATOM      3  C   UNL     1      11.337 -35.371 -32.096  1.00  0.00     0.039 C 
ENDROOT
BRANCH   1   4
ATOM      4  C   UNL     1      13.436 -36.218 -30.801  1.00  0.00     0.034 C 
BRANCH   4   5
ATOM      5  C   UNL     1      12.815 -36.436 -29.417  1.00  0.00     0.032 C 
BRANCH   5   6
ATOM      6  C   UNL     1      13.346 -35.439 -28.416  1.00  0.00    -0.028 C 
ATOM      7  C   UNL     1      11.212 -34.142 -28.443  1.00  0.00     0.039 C 
ATOM      8  C   UNL     1      12.624 -34.391 -27.966  1.00  0.00    -0.080 C 
ATOM      9  C   UNL     1      13.250 -33.455 -26.965  1.00  0.00     0.039 C 
ENDBRANCH   5   6
ENDBRANCH   4   5
ENDBRANCH   1   4
BRANCH   2  10
ATOM     10  C   UNL     1      12.731 -32.727 -32.399  1.00  0.00     0.035 C 
BRANCH  10  11
ATOM     11  C   UNL     1      13.756 -32.043 -33.310  1.00  0.00     0.079 C 
BRANCH  11  12
ATOM     12  C   UNL     1      15.065 -31.852 -32.589  1.00  0.00     0.130 C 
ATOM     13  O   UNL     1      16.063 -32.428 -32.996  1.00  0.00    -0.300 OA
ATOM     14  C   UNL     1      15.175 -30.961 -31.388  1.00  0.00     0.087 C 
ENDBRANCH  11  12
ENDBRANCH  10  11
ENDBRANCH   2  10
TORSDOF 6
ENDMDL
MODEL 2
REMARK VINA RESULT:    -5.365      1.838      4.487
REMARK INTER + INTRA:          -8.092
REMARK INTER:                  -7.477
REMARK INTRA:                  -0.615
REMARK UNBOUND:                -0.845
REMARK SMILES CC(=O)CCC=C(C)CCC=C(C)C
REMARK SMILES IDX 7 1 6 2 8 3 9 4 10 5 11 6 13 7 12 8 14 9 5 10 4 11 2 12 3 13
REMARK SMILES IDX 1 14
REMARK H PARENT
REMARK Flexibility Score: inf
ROOT
ATOM      1  C   UNL     1      13.239 -36.379 -29.364  1.00  0.00    -0.077 C 
ATOM      2  C   UNL     1      12.419 -35.381 -28.961  1.00  0.00    -0.028 C 
ATOM      3  C   UNL     1      14.317 -36.935 -28.462  1.00  0.00     0.039 C 
ENDROOT
BRANCH   1   4
ATOM      4  C   UNL     1      13.064 -36.960 -30.749  1.00  0.00     0.034 C 
BRANCH   4   5
ATOM      5  C   UNL     1      12.613 -35.883 -31.742  1.00  0.00     0.032 C 
BRANCH   5   6
ATOM      6  C   UNL     1      13.568 -34.714 -31.752  1.00  0.00    -0.028 C 
ATOM      7  C   UNL     1      11.773 -33.141 -32.489  1.00  0.00     0.039 C 
ATOM      8  C   UNL     1      13.194 -33.462 -32.091  1.00  0.00    -0.080 C 
ATOM      9  C   UNL     1      14.228 -32.366 -32.066  1.00  0.00     0.039 C 
ENDBRANCH   5   6
ENDBRANCH   4   5
ENDBRANCH   1   4
BRANCH   2  10
ATOM     10  C   UNL     1      12.506 -34.688 -27.625  1.00  0.00     0.035 C 
BRANCH  10  11
ATOM     11  C   UNL     1      11.402 -33.635 -27.486  1.00  0.00     0.079 C 
BRANCH  11  12
ATOM     12  C   UNL     1      11.426 -32.682 -28.653  1.00  0.00     0.130 C 
ATOM     13  O   UNL     1      12.474 -32.132 -28.958  1.00  0.00    -0.300 OA
ATOM     14  C   UNL     1      10.193 -32.401 -29.459  1.00  0.00     0.087 C 
ENDBRANCH  11  12
ENDBRANCH  10  11
ENDBRANCH   2  10
TORSDOF 6
ENDMDL
MODEL 3
REMARK VINA RESULT:    -5.239      2.786      4.869
REMARK INTER + INTRA:          -7.922
REMARK INTER:                  -6.875
REMARK INTRA:                  -1.046
REMARK UNBOUND:                -0.845
REMARK SMILES CC(=O)CCC=C(C)CCC=C(C)C
REMARK SMILES IDX 7 1 6 2 8 3 9 4 10 5 11 6 13 7 12 8 14 9 5 10 4 11 2 12 3 13
REMARK SMILES IDX 1 14
REMARK H PARENT
REMARK Flexibility Score: inf
ROOT
ATOM      1  C   UNL     1      11.833 -32.956 -31.210  1.00  0.00    -0.077 C 
ATOM      2  C   UNL     1      12.052 -32.788 -29.885  1.00  0.00    -0.028 C 
ATOM      3  C   UNL     1      10.437 -33.062 -31.779  1.00  0.00     0.039 C 
ENDROOT
BRANCH   1   4
ATOM      4  C   UNL     1      13.019 -33.026 -32.147  1.00  0.00     0.034 C 
BRANCH   4   5
ATOM      5  C   UNL     1      13.959 -34.171 -31.755  1.00  0.00     0.032 C 
BRANCH   5   6
ATOM      6  C   UNL     1      13.298 -35.514 -31.951  1.00  0.00    -0.028 C 
ATOM      7  C   UNL     1      13.559 -36.094 -29.537  1.00  0.00     0.039 C 
ATOM      8  C   UNL     1      13.112 -36.396 -30.947  1.00  0.00    -0.080 C 
ATOM      9  C   UNL     1      12.439 -37.709 -31.252  1.00  0.00     0.039 C 
ENDBRANCH   5   6
ENDBRANCH   4   5
ENDBRANCH   1   4
BRANCH   2  10
ATOM     10  C   UNL     1      10.967 -32.737 -28.838  1.00  0.00     0.035 C 
BRANCH  10  11
ATOM     11  C   UNL     1      10.931 -34.039 -28.031  1.00  0.00     0.079 C 
BRANCH  11  12
ATOM     12  C   UNL     1      11.733 -33.902 -26.763  1.00  0.00     0.130 C 
ATOM     13  O   UNL     1      11.201 -34.135 -25.688  1.00  0.00    -0.300 OA
ATOM     14  C   UNL     1      13.176 -33.495 -26.790  1.00  0.00     0.087 C 
ENDBRANCH  11  12
ENDBRANCH  10  11
ENDBRANCH   2  10
TORSDOF 6
ENDMDL
MODEL 4
REMARK VINA RESULT:    -5.197      1.407      2.456
REMARK INTER + INTRA:          -7.865
REMARK INTER:                  -7.014
REMARK INTRA:                  -0.851
REMARK UNBOUND:                -0.845
REMARK SMILES CC(=O)CCC=C(C)CCC=C(C)C
REMARK SMILES IDX 7 1 6 2 8 3 9 4 10 5 11 6 13 7 12 8 14 9 5 10 4 11 2 12 3 13
REMARK SMILES IDX 1 14
REMARK H PARENT
REMARK Flexibility Score: inf
ROOT
ATOM      1  C   UNL     1      11.881 -32.787 -30.297  1.00  0.00    -0.077 C 
ATOM      2  C   UNL     1      12.979 -32.962 -31.068  1.00  0.00    -0.028 C 
ATOM      3  C   UNL     1      10.494 -32.709 -30.893  1.00  0.00     0.039 C 
ENDROOT
BRANCH   1   4
ATOM      4  C   UNL     1      12.046 -32.680 -28.797  1.00  0.00     0.034 C 
BRANCH   4   5
ATOM      5  C   UNL     1      11.656 -33.993 -28.109  1.00  0.00     0.032 C 
BRANCH   5   6
ATOM      6  C   UNL     1      12.847 -34.910 -27.964  1.00  0.00    -0.028 C 
ATOM      7  C   UNL     1      12.130 -36.296 -29.913  1.00  0.00     0.039 C 
ATOM      8  C   UNL     1      13.071 -35.961 -28.781  1.00  0.00    -0.080 C 
ATOM      9  C   UNL     1      14.293 -36.811 -28.548  1.00  0.00     0.039 C 
ENDBRANCH   5   6
ENDBRANCH   4   5
ENDBRANCH   1   4
BRANCH   2  10
ATOM     10  C   UNL     1      12.963 -33.047 -32.574  1.00  0.00     0.035 C 
BRANCH  10  11
ATOM     11  C   UNL     1      13.766 -31.898 -33.191  1.00  0.00     0.079 C 
BRANCH  11  12
ATOM     12  C   UNL     1      15.206 -31.960 -32.753  1.00  0.00     0.130 C 
ATOM     13  O   UNL     1      15.609 -31.178 -31.905  1.00  0.00    -0.300 OA
ATOM     14  C   UNL     1      16.156 -32.969 -33.325  1.00  0.00     0.087 C 
ENDBRANCH  11  12
ENDBRANCH  10  11
ENDBRANCH   2  10
TORSDOF 6
ENDMDL
MODEL 5
REMARK VINA RESULT:    -5.181      2.260      4.835
REMARK INTER + INTRA:          -7.844
REMARK INTER:                  -6.695
REMARK INTRA:                  -1.149
REMARK UNBOUND:                -0.845
REMARK SMILES CC(=O)CCC=C(C)CCC=C(C)C
REMARK SMILES IDX 7 1 6 2 8 3 9 4 10 5 11 6 13 7 12 8 14 9 5 10 4 11 2 12 3 13
REMARK SMILES IDX 1 14
REMARK H PARENT
REMARK Flexibility Score: inf
ROOT
ATOM      1  C   UNL     1      10.715 -34.945 -31.727  1.00  0.00    -0.077 C 
ATOM      2  C   UNL     1      11.723 -35.797 -32.022  1.00  0.00    -0.028 C 
ATOM      3  C   UNL     1      10.002 -34.986 -30.395  1.00  0.00     0.039 C 
ENDROOT
BRANCH   1   4
ATOM      4  C   UNL     1      10.299 -33.915 -32.755  1.00  0.00     0.034 C 
BRANCH   4   5
ATOM      5  C   UNL     1      10.927 -32.551 -32.448  1.00  0.00     0.032 C 
BRANCH   5   6
ATOM      6  C   UNL     1      12.346 -32.475 -32.959  1.00  0.00    -0.028 C 
ATOM      7  C   UNL     1      13.280 -32.622 -30.648  1.00  0.00     0.039 C 
ATOM      8  C   UNL     1      13.423 -32.507 -32.147  1.00  0.00    -0.080 C 
ATOM      9  C   UNL     1      14.797 -32.426 -32.762  1.00  0.00     0.039 C 
ENDBRANCH   5   6
ENDBRANCH   4   5
ENDBRANCH   1   4
BRANCH   2  10
ATOM     10  C   UNL     1      12.214 -36.892 -31.108  1.00  0.00     0.035 C 
BRANCH  10  11
ATOM     11  C   UNL     1      13.601 -36.555 -30.552  1.00  0.00     0.079 C 
BRANCH  11  12
ATOM     12  C   UNL     1      13.557 -36.429 -29.052  1.00  0.00     0.130 C 
ATOM     13  O   UNL     1      14.087 -37.287 -28.362  1.00  0.00    -0.300 OA
ATOM     14  C   UNL     1      12.887 -35.266 -28.383  1.00  0.00     0.087 C 
ENDBRANCH  11  12
ENDBRANCH  10  11
ENDBRANCH   2  10
TORSDOF 6
ENDMDL
MODEL 6
REMARK VINA RESULT:    -5.178      2.346      4.054
REMARK INTER + INTRA:          -7.839
REMARK INTER:                  -6.720
REMARK INTRA:                  -1.118
REMARK UNBOUND:                -0.845
REMARK SMILES CC(=O)CCC=C(C)CCC=C(C)C
REMARK SMILES IDX 7 1 6 2 8 3 9 4 10 5 11 6 13 7 12 8 14 9 5 10 4 11 2 12 3 13
REMARK SMILES IDX 1 14
REMARK H PARENT
REMARK Flexibility Score: inf
ROOT
ATOM      1  C   UNL     1      11.881 -33.485 -28.756  1.00  0.00    -0.077 C 
ATOM      2  C   UNL     1      10.720 -33.664 -29.428  1.00  0.00    -0.028 C 
ATOM      3  C   UNL     1      12.705 -32.228 -28.912  1.00  0.00     0.039 C 
ENDROOT
BRANCH   1   4
ATOM      4  C   UNL     1      12.359 -34.568 -27.813  1.00  0.00     0.034 C 
BRANCH   4   5
ATOM      5  C   UNL     1      13.490 -35.385 -28.448  1.00  0.00     0.032 C 
BRANCH   5   6
ATOM      6  C   UNL     1      12.944 -36.485 -29.326  1.00  0.00    -0.028 C 
ATOM      7  C   UNL     1      13.630 -35.287 -31.406  1.00  0.00     0.039 C 
ATOM      8  C   UNL     1      13.003 -36.449 -30.673  1.00  0.00    -0.080 C 
ATOM      9  C   UNL     1      12.429 -37.603 -31.455  1.00  0.00     0.039 C 
ENDBRANCH   5   6
ENDBRANCH   4   5
ENDBRANCH   1   4
BRANCH   2  10
ATOM     10  C   UNL     1      10.147 -32.686 -30.422  1.00  0.00     0.035 C 
BRANCH  10  11
ATOM     11  C   UNL     1       9.875 -33.373 -31.765  1.00  0.00     0.079 C 
BRANCH  11  12
ATOM     12  C   UNL     1      10.628 -32.688 -32.875  1.00  0.00     0.130 C 
ATOM     13  O   UNL     1      10.008 -32.193 -33.804  1.00  0.00    -0.300 OA
ATOM     14  C   UNL     1      12.124 -32.588 -32.860  1.00  0.00     0.087 C 
ENDBRANCH  11  12
ENDBRANCH  10  11
ENDBRANCH   2  10
TORSDOF 6
ENDMDL
MODEL 7
REMARK VINA RESULT:    -5.111      2.115      4.104
REMARK INTER + INTRA:          -7.749
REMARK INTER:                  -6.733
REMARK INTRA:                  -1.015
REMARK UNBOUND:                -0.845
REMARK SMILES CC(=O)CCC=C(C)CCC=C(C)C
REMARK SMILES IDX 7 1 6 2 8 3 9 4 10 5 11 6 13 7 12 8 14 9 5 10 4 11 2 12 3 13
REMARK SMILES IDX 1 14
REMARK H PARENT
REMARK Flexibility Score: inf
ROOT
ATOM      1  C   UNL     1      11.072 -33.841 -31.767  1.00  0.00    -0.077 C 
ATOM      2  C   UNL     1      10.992 -35.192 -31.747  1.00  0.00    -0.028 C 
ATOM      3  C   UNL     1      12.318 -33.124 -32.232  1.00  0.00     0.039 C 
ENDROOT
BRANCH   1   4
ATOM      4  C   UNL     1       9.875 -33.028 -31.324  1.00  0.00     0.034 C 
BRANCH   4   5
ATOM      5  C   UNL     1      10.175 -32.277 -30.022  1.00  0.00     0.032 C 
BRANCH   5   6
ATOM      6  C   UNL     1      10.570 -33.230 -28.920  1.00  0.00    -0.028 C 
ATOM      7  C   UNL     1      12.853 -32.232 -28.754  1.00  0.00     0.039 C 
ATOM      8  C   UNL     1      11.787 -33.217 -28.337  1.00  0.00    -0.080 C 
ATOM      9  C   UNL     1      12.078 -34.213 -27.243  1.00  0.00     0.039 C 
ENDBRANCH   5   6
ENDBRANCH   4   5
ENDBRANCH   1   4
BRANCH   2  10
ATOM     10  C   UNL     1      12.118 -36.121 -32.126  1.00  0.00     0.035 C 
BRANCH  10  11
ATOM     11  C   UNL     1      12.407 -37.113 -30.994  1.00  0.00     0.079 C 
BRANCH  11  12
ATOM     12  C   UNL     1      13.344 -36.507 -29.982  1.00  0.00     0.130 C 
ATOM     13  O   UNL     1      13.765 -35.374 -30.157  1.00  0.00    -0.300 OA
ATOM     14  C   UNL     1      13.764 -37.261 -28.756  1.00  0.00     0.087 C 
ENDBRANCH  11  12
ENDBRANCH  10  11
ENDBRANCH   2  10
TORSDOF 6
ENDMDL
MODEL 8
REMARK VINA RESULT:    -5.053      1.353      2.145
REMARK INTER + INTRA:          -7.670
REMARK INTER:                  -7.012
REMARK INTRA:                  -0.658
REMARK UNBOUND:                -0.845
REMARK SMILES CC(=O)CCC=C(C)CCC=C(C)C
REMARK SMILES IDX 7 1 6 2 8 3 9 4 10 5 11 6 13 7 12 8 14 9 5 10 4 11 2 12 3 13
REMARK SMILES IDX 1 14
REMARK H PARENT
REMARK Flexibility Score: inf
ROOT
ATOM      1  C   UNL     1      12.905 -35.881 -30.405  1.00  0.00    -0.077 C 
ATOM      2  C   UNL     1      13.522 -34.750 -30.819  1.00  0.00    -0.028 C 
ATOM      3  C   UNL     1      12.256 -36.835 -31.380  1.00  0.00     0.039 C 
ENDROOT
BRANCH   1   4
ATOM      4  C   UNL     1      12.878 -36.204 -28.927  1.00  0.00     0.034 C 
BRANCH   4   5
ATOM      5  C   UNL     1      12.632 -34.941 -28.095  1.00  0.00     0.032 C 
BRANCH   5   6
ATOM      6  C   UNL     1      11.404 -34.202 -28.571  1.00  0.00    -0.028 C 
ATOM      7  C   UNL     1      12.669 -32.060 -28.787  1.00  0.00     0.039 C 
ATOM      8  C   UNL     1      11.412 -32.891 -28.889  1.00  0.00    -0.080 C 
ATOM      9  C   UNL     1      10.130 -32.251 -29.356  1.00  0.00     0.039 C 
ENDBRANCH   5   6
ENDBRANCH   4   5
ENDBRANCH   1   4
BRANCH   2  10
ATOM     10  C   UNL     1      13.592 -34.289 -32.253  1.00  0.00     0.035 C 
BRANCH  10  11
ATOM     11  C   UNL     1      13.385 -32.774 -32.347  1.00  0.00     0.079 C 
BRANCH  11  12
ATOM     12  C   UNL     1      14.703 -32.049 -32.260  1.00  0.00     0.130 C 
ATOM     13  O   UNL     1      14.836 -31.139 -31.456  1.00  0.00    -0.300 OA
ATOM     14  C   UNL     1      15.862 -32.428 -33.132  1.00  0.00     0.087 C 
ENDBRANCH  11  12
ENDBRANCH  10  11
ENDBRANCH   2  10
TORSDOF 6
ENDMDL
MODEL 9
REMARK VINA RESULT:    -4.922      2.474      5.325
REMARK INTER + INTRA:          -7.494
REMARK INTER:                  -6.527
REMARK INTRA:                  -0.966
REMARK UNBOUND:                -0.845
REMARK SMILES CC(=O)CCC=C(C)CCC=C(C)C
REMARK SMILES IDX 7 1 6 2 8 3 9 4 10 5 11 6 13 7 12 8 14 9 5 10 4 11 2 12 3 13
REMARK SMILES IDX 1 14
REMARK H PARENT
REMARK Flexibility Score: inf
ROOT
ATOM      1  C   UNL     1      10.228 -32.854 -30.477  1.00  0.00    -0.077 C 
ATOM      2  C   UNL     1      10.752 -34.038 -30.083  1.00  0.00    -0.028 C 
ATOM      3  C   UNL     1       9.875 -31.770 -29.485  1.00  0.00     0.039 C 
ENDROOT
BRANCH   1   4
ATOM      4  C   UNL     1      10.002 -32.605 -31.953  1.00  0.00     0.034 C 
BRANCH   4   5
ATOM      5  C   UNL     1      11.117 -33.239 -32.792  1.00  0.00     0.032 C 
BRANCH   5   6
ATOM      6  C   UNL     1      12.344 -32.360 -32.825  1.00  0.00    -0.028 C 
ATOM      7  C   UNL     1      13.743 -34.122 -31.742  1.00  0.00     0.039 C 
ATOM      8  C   UNL     1      13.544 -32.753 -32.349  1.00  0.00    -0.080 C 
ATOM      9  C   UNL     1      14.705 -31.797 -32.433  1.00  0.00     0.039 C 
ENDBRANCH   5   6
ENDBRANCH   4   5
ENDBRANCH   1   4
BRANCH   2  10
ATOM     10  C   UNL     1      10.995 -34.431 -28.648  1.00  0.00     0.035 C 
BRANCH  10  11
ATOM     11  C   UNL     1      12.459 -34.198 -28.261  1.00  0.00     0.079 C 
BRANCH  11  12
ATOM     12  C   UNL     1      12.566 -33.749 -26.828  1.00  0.00     0.130 C 
ATOM     13  O   UNL     1      13.599 -33.227 -26.438  1.00  0.00    -0.300 OA
ATOM     14  C   UNL     1      11.426 -33.918 -25.868  1.00  0.00     0.087 C 
ENDBRANCH  11  12
ENDBRANCH  10  11
ENDBRANCH   2  10
TORSDOF 6
ENDMDL
