MODEL 1
REMARK VINA RESULT:    -5.877      0.000      0.000
REMARK INTER + INTRA:          -6.441
REMARK INTER:                  -6.221
REMARK INTRA:                  -0.220
REMARK UNBOUND:                -0.220
REMARK SMILES O=c1cc(-c2ccccc2)oc2ccccc12
REMARK SMILES IDX 4 1 3 2 2 3 1 4 17 5 16 6 15 7 14 8 13 9 12 10 11 11 5 12
REMARK SMILES IDX 8 13 7 14 9 15 6 16 10 17
REMARK H PARENT
REMARK Flexibility Score: inf
ROOT
ATOM      1  C   UNL     1    -118.404  -2.189  77.133  1.00  0.00     0.138 A 
ATOM      2  C   UNL     1    -118.625  -0.850  77.518  1.00  0.00     0.100 A 
ATOM      3  C   UNL     1    -117.606  -0.140  78.156  1.00  0.00     0.193 A 
ATOM      4  O   UNL     1    -117.804   1.057  78.500  1.00  0.00    -0.289 OA
ATOM      5  C   UNL     1    -116.379  -0.768  78.405  1.00  0.00     0.065 A 
ATOM      6  C   UNL     1    -115.311  -0.110  79.043  1.00  0.00     0.016 A 
ATOM      7  C   UNL     1    -114.106  -0.784  79.267  1.00  0.00     0.001 A 
ATOM      8  C   UNL     1    -113.957  -2.112  78.859  1.00  0.00     0.004 A 
ATOM      9  C   UNL     1    -115.012  -2.774  78.224  1.00  0.00     0.048 A 
ATOM     10  C   UNL     1    -116.223  -2.109  77.994  1.00  0.00     0.138 A 
ATOM     11  O   UNL     1    -117.220  -2.746  77.390  1.00  0.00    -0.456 OA
ENDROOT
BRANCH   1  12
ATOM     12  C   UNL     1    -119.440  -3.021  76.446  1.00  0.00     0.017 A 
ATOM     13  C   UNL     1    -121.357  -4.563  75.062  1.00  0.00     0.000 A 
ATOM     14  C   UNL     1    -120.403  -3.835  74.353  1.00  0.00     0.001 A 
ATOM     15  C   UNL     1    -121.363  -4.528  76.457  1.00  0.00     0.001 A 
ATOM     16  C   UNL     1    -119.453  -3.071  75.035  1.00  0.00     0.012 A 
ATOM     17  C   UNL     1    -120.415  -3.765  77.147  1.00  0.00     0.012 A 
ENDBRANCH   1  12
TORSDOF 1
ENDMDL
MODEL 2
REMARK VINA RESULT:    -5.842      1.484      1.912
REMARK INTER + INTRA:          -6.404
REMARK INTER:                  -6.160
REMARK INTRA:                  -0.244
REMARK UNBOUND:                -0.220
REMARK SMILES O=c1cc(-c2ccccc2)oc2ccccc12
REMARK SMILES IDX 4 1 3 2 2 3 1 4 17 5 16 6 15 7 14 8 13 9 12 10 11 11 5 12
REMARK SMILES IDX 8 13 7 14 9 15 6 16 10 17
REMARK H PARENT
REMARK Flexibility Score: inf
ROOT
ATOM      1  C   UNL     1    -118.457  -2.127  77.779  1.00  0.00     0.138 A 
ATOM      2  C   UNL     1    -118.153  -0.773  77.522  1.00  0.00     0.100 A 
ATOM      3  C   UNL     1    -117.295  -0.084  78.383  1.00  0.00     0.193 A 
ATOM      4  O   UNL     1    -117.024   1.125  78.153  1.00  0.00    -0.289 OA
ATOM      5  C   UNL     1    -116.750  -0.748  79.490  1.00  0.00     0.065 A 
ATOM      6  C   UNL     1    -115.880  -0.114  80.396  1.00  0.00     0.016 A 
ATOM      7  C   UNL     1    -115.364  -0.824  81.485  1.00  0.00     0.001 A 
ATOM      8  C   UNL     1    -115.708  -2.164  81.678  1.00  0.00     0.004 A 
ATOM      9  C   UNL     1    -116.571  -2.803  80.783  1.00  0.00     0.048 A 
ATOM     10  C   UNL     1    -117.094  -2.102  79.690  1.00  0.00     0.138 A 
ATOM     11  O   UNL     1    -117.914  -2.718  78.845  1.00  0.00    -0.456 OA
ENDROOT
BRANCH   1  12
ATOM     12  C   UNL     1    -119.364  -2.937  76.908  1.00  0.00     0.017 A 
ATOM     13  C   UNL     1    -121.122  -4.498  75.346  1.00  0.00     0.000 A 
ATOM     14  C   UNL     1    -121.236  -4.497  76.735  1.00  0.00     0.001 A 
ATOM     15  C   UNL     1    -120.136  -3.727  74.729  1.00  0.00     0.001 A 
ATOM     16  C   UNL     1    -120.368  -3.724  77.511  1.00  0.00     0.012 A 
ATOM     17  C   UNL     1    -119.263  -2.951  75.498  1.00  0.00     0.012 A 
ENDBRANCH   1  12
TORSDOF 1
ENDMDL
MODEL 3
REMARK VINA RESULT:    -5.717      2.185      3.193
REMARK INTER + INTRA:          -6.271
REMARK INTER:                  -6.005
REMARK INTRA:                  -0.266
REMARK UNBOUND:                -0.220
REMARK SMILES O=c1cc(-c2ccccc2)oc2ccccc12
REMARK SMILES IDX 4 1 3 2 2 3 1 4 17 5 16 6 15 7 14 8 13 9 12 10 11 11 5 12
REMARK SMILES IDX 8 13 7 14 9 15 6 16 10 17
REMARK H PARENT
REMARK Flexibility Score: inf
ROOT
ATOM      1  C   UNL     1    -116.334  -1.737  78.011  1.00  0.00     0.138 A 
ATOM      2  C   UNL     1    -115.834  -1.478  79.305  1.00  0.00     0.100 A 
ATOM      3  C   UNL     1    -114.543  -0.970  79.456  1.00  0.00     0.193 A 
ATOM      4  O   UNL     1    -114.097  -0.739  80.613  1.00  0.00    -0.289 OA
ATOM      5  C   UNL     1    -113.761  -0.724  78.320  1.00  0.00     0.065 A 
ATOM      6  C   UNL     1    -112.452  -0.212  78.402  1.00  0.00     0.016 A 
ATOM      7  C   UNL     1    -111.715   0.015  77.235  1.00  0.00     0.001 A 
ATOM      8  C   UNL     1    -112.273  -0.264  75.985  1.00  0.00     0.004 A 
ATOM      9  C   UNL     1    -113.572  -0.772  75.894  1.00  0.00     0.048 A 
ATOM     10  C   UNL     1    -114.319  -1.004  77.055  1.00  0.00     0.138 A 
ATOM     11  O   UNL     1    -115.553  -1.487  76.958  1.00  0.00    -0.456 OA
ENDROOT
BRANCH   1  12
ATOM     12  C   UNL     1    -117.704  -2.280  77.760  1.00  0.00     0.017 A 
ATOM     13  C   UNL     1    -120.306  -3.309  77.383  1.00  0.00     0.000 A 
ATOM     14  C   UNL     1    -119.823  -3.087  78.671  1.00  0.00     0.001 A 
ATOM     15  C   UNL     1    -119.501  -3.022  76.280  1.00  0.00     0.001 A 
ATOM     16  C   UNL     1    -118.535  -2.577  78.861  1.00  0.00     0.012 A 
ATOM     17  C   UNL     1    -118.211  -2.512  76.461  1.00  0.00     0.012 A 
ENDBRANCH   1  12
TORSDOF 1
ENDMDL
MODEL 4
REMARK VINA RESULT:    -5.685      7.828     10.982
REMARK INTER + INTRA:          -6.238
REMARK INTER:                  -5.995
REMARK INTRA:                  -0.243
REMARK UNBOUND:                -0.220
REMARK SMILES O=c1cc(-c2ccccc2)oc2ccccc12
REMARK SMILES IDX 4 1 3 2 2 3 1 4 17 5 16 6 15 7 14 8 13 9 12 10 11 11 5 12
REMARK SMILES IDX 8 13 7 14 9 15 6 16 10 17
REMARK H PARENT
REMARK Flexibility Score: inf
ROOT
ATOM      1  C   UNL     1    -108.428  -3.258  74.274  1.00  0.00     0.138 A 
ATOM      2  C   UNL     1    -109.108  -3.761  75.403  1.00  0.00     0.100 A 
ATOM      3  C   UNL     1    -110.454  -3.443  75.594  1.00  0.00     0.193 A 
ATOM      4  O   UNL     1    -111.062  -3.893  76.603  1.00  0.00    -0.289 OA
ATOM      5  C   UNL     1    -111.110  -2.630  74.660  1.00  0.00     0.065 A 
ATOM      6  C   UNL     1    -112.466  -2.273  74.792  1.00  0.00     0.016 A 
ATOM      7  C   UNL     1    -113.071  -1.458  73.831  1.00  0.00     0.001 A 
ATOM      8  C   UNL     1    -112.336  -0.996  72.736  1.00  0.00     0.004 A 
ATOM      9  C   UNL     1    -110.990  -1.346  72.596  1.00  0.00     0.048 A 
ATOM     10  C   UNL     1    -110.373  -2.161  73.553  1.00  0.00     0.138 A 
ATOM     11  O   UNL     1    -109.093  -2.488  73.411  1.00  0.00    -0.456 OA
ENDROOT
BRANCH   1  12
ATOM     12  C   UNL     1    -106.988  -3.549  73.994  1.00  0.00     0.017 A 
ATOM     13  C   UNL     1    -104.255  -4.003  73.449  1.00  0.00     0.000 A 
ATOM     14  C   UNL     1    -104.776  -2.712  73.380  1.00  0.00     0.001 A 
ATOM     15  C   UNL     1    -105.087  -5.071  73.787  1.00  0.00     0.001 A 
ATOM     16  C   UNL     1    -106.129  -2.484  73.649  1.00  0.00     0.012 A 
ATOM     17  C   UNL     1    -106.442  -4.851  74.059  1.00  0.00     0.012 A 
ENDBRANCH   1  12
TORSDOF 1
ENDMDL
MODEL 5
REMARK VINA RESULT:    -5.585      2.810      3.294
REMARK INTER + INTRA:          -6.132
REMARK INTER:                  -5.881
REMARK INTRA:                  -0.250
REMARK UNBOUND:                -0.220
REMARK SMILES O=c1cc(-c2ccccc2)oc2ccccc12
REMARK SMILES IDX 4 1 3 2 2 3 1 4 17 5 16 6 15 7 14 8 13 9 12 10 11 11 5 12
REMARK SMILES IDX 8 13 7 14 9 15 6 16 10 17
REMARK H PARENT
REMARK Flexibility Score: inf
ROOT
ATOM      1  C   UNL     1    -117.300  -1.922  79.495  1.00  0.00     0.138 A 
ATOM      2  C   UNL     1    -116.521  -0.756  79.339  1.00  0.00     0.100 A 
ATOM      3  C   UNL     1    -115.631  -0.382  80.348  1.00  0.00     0.193 A 
ATOM      4  O   UNL     1    -114.935   0.660  80.208  1.00  0.00    -0.289 OA
ATOM      5  C   UNL     1    -115.525  -1.170  81.502  1.00  0.00     0.065 A 
ATOM      6  C   UNL     1    -114.649  -0.850  82.556  1.00  0.00     0.016 A 
ATOM      7  C   UNL     1    -114.583  -1.672  83.685  1.00  0.00     0.001 A 
ATOM      8  C   UNL     1    -115.385  -2.812  83.773  1.00  0.00     0.004 A 
ATOM      9  C   UNL     1    -116.258  -3.139  82.731  1.00  0.00     0.048 A 
ATOM     10  C   UNL     1    -116.332  -2.323  81.596  1.00  0.00     0.138 A 
ATOM     11  O   UNL     1    -117.166  -2.641  80.611  1.00  0.00    -0.456 OA
ENDROOT
BRANCH   1  12
ATOM     12  C   UNL     1    -118.275  -2.394  78.465  1.00  0.00     0.017 A 
ATOM     13  C   UNL     1    -120.054  -3.257  76.450  1.00  0.00     0.000 A 
ATOM     14  C   UNL     1    -118.835  -2.677  76.103  1.00  0.00     0.001 A 
ATOM     15  C   UNL     1    -120.395  -3.409  77.794  1.00  0.00     0.001 A 
ATOM     16  C   UNL     1    -117.951  -2.250  77.099  1.00  0.00     0.012 A 
ATOM     17  C   UNL     1    -119.516  -2.983  78.797  1.00  0.00     0.012 A 
ENDBRANCH   1  12
TORSDOF 1
ENDMDL
MODEL 6
REMARK VINA RESULT:    -5.578      6.680      9.798
REMARK INTER + INTRA:          -6.124
REMARK INTER:                  -5.899
REMARK INTRA:                  -0.226
REMARK UNBOUND:                -0.220
REMARK SMILES O=c1cc(-c2ccccc2)oc2ccccc12
REMARK SMILES IDX 4 1 3 2 2 3 1 4 17 5 16 6 15 7 14 8 13 9 12 10 11 11 5 12
REMARK SMILES IDX 8 13 7 14 9 15 6 16 10 17
REMARK H PARENT
REMARK Flexibility Score: inf
ROOT
ATOM      1  C   UNL     1    -109.814  -2.231  74.066  1.00  0.00     0.138 A 
ATOM      2  C   UNL     1    -110.613  -1.489  73.171  1.00  0.00     0.100 A 
ATOM      3  C   UNL     1    -112.004  -1.531  73.292  1.00  0.00     0.193 A 
ATOM      4  O   UNL     1    -112.717  -0.867  72.493  1.00  0.00    -0.289 OA
ATOM      5  C   UNL     1    -112.585  -2.310  74.301  1.00  0.00     0.065 A 
ATOM      6  C   UNL     1    -113.979  -2.396  74.478  1.00  0.00     0.016 A 
ATOM      7  C   UNL     1    -114.507  -3.189  75.502  1.00  0.00     0.001 A 
ATOM      8  C   UNL     1    -113.655  -3.899  76.352  1.00  0.00     0.004 A 
ATOM      9  C   UNL     1    -112.270  -3.819  76.184  1.00  0.00     0.048 A 
ATOM     10  C   UNL     1    -111.730  -3.029  75.163  1.00  0.00     0.138 A 
ATOM     11  O   UNL     1    -110.412  -2.960  75.011  1.00  0.00    -0.456 OA
ENDROOT
BRANCH   1  12
ATOM     12  C   UNL     1    -108.320  -2.243  74.007  1.00  0.00     0.017 A 
ATOM     13  C   UNL     1    -105.503  -2.353  73.855  1.00  0.00     0.000 A 
ATOM     14  C   UNL     1    -106.269  -3.428  73.408  1.00  0.00     0.001 A 
ATOM     15  C   UNL     1    -106.131  -1.222  74.378  1.00  0.00     0.001 A 
ATOM     16  C   UNL     1    -107.664  -3.377  73.482  1.00  0.00     0.012 A 
ATOM     17  C   UNL     1    -107.526  -1.162  74.455  1.00  0.00     0.012 A 
ENDBRANCH   1  12
TORSDOF 1
ENDMDL
MODEL 7
REMARK VINA RESULT:    -5.566      2.589      5.772
REMARK INTER + INTRA:          -6.112
REMARK INTER:                  -5.860
REMARK INTRA:                  -0.252
REMARK UNBOUND:                -0.220
REMARK SMILES O=c1cc(-c2ccccc2)oc2ccccc12
REMARK SMILES IDX 4 1 3 2 2 3 1 4 17 5 16 6 15 7 14 8 13 9 12 10 11 11 5 12
REMARK SMILES IDX 8 13 7 14 9 15 6 16 10 17
REMARK H PARENT
REMARK Flexibility Score: inf
ROOT
ATOM      1  C   UNL     1    -115.272  -1.850  77.222  1.00  0.00     0.138 A 
ATOM      2  C   UNL     1    -115.231  -1.738  78.628  1.00  0.00     0.100 A 
ATOM      3  C   UNL     1    -116.392  -1.963  79.370  1.00  0.00     0.193 A 
ATOM      4  O   UNL     1    -116.355  -1.863  80.626  1.00  0.00    -0.289 OA
ATOM      5  C   UNL     1    -117.581  -2.296  78.708  1.00  0.00     0.065 A 
ATOM      6  C   UNL     1    -118.786  -2.536  79.395  1.00  0.00     0.016 A 
ATOM      7  C   UNL     1    -119.944  -2.865  78.684  1.00  0.00     0.001 A 
ATOM      8  C   UNL     1    -119.911  -2.958  77.291  1.00  0.00     0.004 A 
ATOM      9  C   UNL     1    -118.720  -2.722  76.599  1.00  0.00     0.048 A 
ATOM     10  C   UNL     1    -117.554  -2.392  77.300  1.00  0.00     0.138 A 
ATOM     11  O   UNL     1    -116.426  -2.169  76.634  1.00  0.00    -0.456 OA
ENDROOT
BRANCH   1  12
ATOM     12  C   UNL     1    -114.076  -1.626  76.352  1.00  0.00     0.017 A 
ATOM     13  C   UNL     1    -111.789  -1.134  74.772  1.00  0.00     0.000 A 
ATOM     14  C   UNL     1    -112.009  -0.393  75.932  1.00  0.00     0.001 A 
ATOM     15  C   UNL     1    -112.701  -2.119  74.393  1.00  0.00     0.001 A 
ATOM     16  C   UNL     1    -113.140  -0.634  76.717  1.00  0.00     0.012 A 
ATOM     17  C   UNL     1    -113.836  -2.367  75.173  1.00  0.00     0.012 A 
ENDBRANCH   1  12
TORSDOF 1
ENDMDL
MODEL 8
REMARK VINA RESULT:    -5.527      8.443     10.667
REMARK INTER + INTRA:          -6.070
REMARK INTER:                  -5.839
REMARK INTRA:                  -0.231
REMARK UNBOUND:                -0.220
REMARK SMILES O=c1cc(-c2ccccc2)oc2ccccc12
REMARK SMILES IDX 4 1 3 2 2 3 1 4 17 5 16 6 15 7 14 8 13 9 12 10 11 11 5 12
REMARK SMILES IDX 8 13 7 14 9 15 6 16 10 17
REMARK H PARENT
REMARK Flexibility Score: inf
ROOT
ATOM      1  C   UNL     1    -108.863  -2.686  73.878  1.00  0.00     0.138 A 
ATOM      2  C   UNL     1    -108.465  -4.037  73.801  1.00  0.00     0.100 A 
ATOM      3  C   UNL     1    -107.107  -4.359  73.861  1.00  0.00     0.193 A 
ATOM      4  O   UNL     1    -106.752  -5.567  73.792  1.00  0.00    -0.289 OA
ATOM      5  C   UNL     1    -106.160  -3.335  73.997  1.00  0.00     0.065 A 
ATOM      6  C   UNL     1    -104.778  -3.591  74.064  1.00  0.00     0.016 A 
ATOM      7  C   UNL     1    -103.876  -2.531  74.200  1.00  0.00     0.001 A 
ATOM      8  C   UNL     1    -104.341  -1.216  74.270  1.00  0.00     0.004 A 
ATOM      9  C   UNL     1    -105.713  -0.952  74.205  1.00  0.00     0.048 A 
ATOM     10  C   UNL     1    -106.625  -2.005  74.068  1.00  0.00     0.138 A 
ATOM     11  O   UNL     1    -107.926  -1.744  74.007  1.00  0.00    -0.456 OA
ENDROOT
BRANCH   1  12
ATOM     12  C   UNL     1    -110.294  -2.254  73.822  1.00  0.00     0.017 A 
ATOM     13  C   UNL     1    -113.011  -1.489  73.798  1.00  0.00     0.000 A 
ATOM     14  C   UNL     1    -112.527  -2.313  74.813  1.00  0.00     0.001 A 
ATOM     15  C   UNL     1    -112.151  -1.043  72.795  1.00  0.00     0.001 A 
ATOM     16  C   UNL     1    -111.181  -2.693  74.827  1.00  0.00     0.012 A 
ATOM     17  C   UNL     1    -110.803  -1.419  72.802  1.00  0.00     0.012 A 
ENDBRANCH   1  12
TORSDOF 1
ENDMDL
MODEL 9
REMARK VINA RESULT:    -5.401      8.298     10.296
REMARK INTER + INTRA:          -5.937
REMARK INTER:                  -5.707
REMARK INTRA:                  -0.230
REMARK UNBOUND:                -0.220
REMARK SMILES O=c1cc(-c2ccccc2)oc2ccccc12
REMARK SMILES IDX 4 1 3 2 2 3 1 4 17 5 16 6 15 7 14 8 13 9 12 10 11 11 5 12
REMARK SMILES IDX 8 13 7 14 9 15 6 16 10 17
REMARK H PARENT
REMARK Flexibility Score: inf
ROOT
ATOM      1  C   UNL     1    -108.942  -2.286  74.082  1.00  0.00     0.138 A 
ATOM      2  C   UNL     1    -108.073  -1.185  74.229  1.00  0.00     0.100 A 
ATOM      3  C   UNL     1    -106.693  -1.393  74.238  1.00  0.00     0.193 A 
ATOM      4  O   UNL     1    -105.917  -0.408  74.369  1.00  0.00    -0.289 OA
ATOM      5  C   UNL     1    -106.190  -2.694  74.102  1.00  0.00     0.065 A 
ATOM      6  C   UNL     1    -104.811  -2.973  74.102  1.00  0.00     0.016 A 
ATOM      7  C   UNL     1    -104.363  -4.291  73.963  1.00  0.00     0.001 A 
ATOM      8  C   UNL     1    -105.281  -5.334  73.822  1.00  0.00     0.004 A 
ATOM      9  C   UNL     1    -106.653  -5.067  73.819  1.00  0.00     0.048 A 
ATOM     10  C   UNL     1    -107.113  -3.752  73.959  1.00  0.00     0.138 A 
ATOM     11  O   UNL     1    -108.419  -3.507  73.956  1.00  0.00    -0.456 OA
ENDROOT
BRANCH   1  12
ATOM     12  C   UNL     1    -110.432  -2.152  74.062  1.00  0.00     0.017 A 
ATOM     13  C   UNL     1    -113.236  -1.845  73.942  1.00  0.00     0.000 A 
ATOM     14  C   UNL     1    -112.426  -1.256  72.972  1.00  0.00     0.001 A 
ATOM     15  C   UNL     1    -112.658  -2.587  74.973  1.00  0.00     0.001 A 
ATOM     16  C   UNL     1    -111.038  -1.406  73.028  1.00  0.00     0.012 A 
ATOM     17  C   UNL     1    -111.268  -2.742  75.037  1.00  0.00     0.012 A 
ENDBRANCH   1  12
TORSDOF 1
ENDMDL
