MODEL 1
REMARK VINA RESULT:    -4.737      0.000      0.000
REMARK INTER + INTRA:          -6.053
REMARK INTER:                  -5.845
REMARK INTRA:                  -0.209
REMARK UNBOUND:                -0.209
REMARK SMILES CCCCCC(=O)[O-]
REMARK SMILES IDX 4 1 5 2 6 3 7 4 8 5 3 6 2 7 1 8
REMARK H PARENT
REMARK Flexibility Score: inf
ROOT
ATOM      1  C   UNL     1      -1.479   2.057  -2.540  1.00  0.00     0.006 C 
ENDROOT
BRANCH   1   2
ATOM      2  C   UNL     1      -0.081   2.224  -3.151  1.00  0.00     0.053 C 
BRANCH   2   3
ATOM      3  C   UNL     1       0.400   3.640  -3.056  1.00  0.00     0.041 C 
ATOM      4  O   UNL     1      -0.164   4.451  -2.275  1.00  0.00    -0.550 OA
ATOM      5  O   UNL     1       1.493   4.054  -3.807  1.00  0.00    -0.550 OA
ENDBRANCH   2   3
ENDBRANCH   1   2
BRANCH   1   6
ATOM      6  C   UNL     1      -1.450   1.252  -1.232  1.00  0.00     0.000 C 
BRANCH   6   7
ATOM      7  C   UNL     1      -1.762   2.149  -0.030  1.00  0.00    -0.003 C 
ATOM      8  C   UNL     1      -2.764   3.238  -0.400  1.00  0.00     0.004 C 
ENDBRANCH   6   7
ENDBRANCH   1   6
TORSDOF 4
ENDMDL
MODEL 2
REMARK VINA RESULT:    -4.634      0.452      1.172
REMARK INTER + INTRA:          -5.926
REMARK INTER:                  -5.732
REMARK INTRA:                  -0.194
REMARK UNBOUND:                -0.209
REMARK SMILES CCCCCC(=O)[O-]
REMARK SMILES IDX 4 1 5 2 6 3 7 4 8 5 3 6 2 7 1 8
REMARK H PARENT
REMARK Flexibility Score: inf
ROOT
ATOM      1  C   UNL     1      -1.268   2.284  -2.557  1.00  0.00     0.006 C 
ENDROOT
BRANCH   1   2
ATOM      2  C   UNL     1       0.045   2.249  -3.350  1.00  0.00     0.053 C 
BRANCH   2   3
ATOM      3  C   UNL     1       0.840   3.504  -3.162  1.00  0.00     0.041 C 
ATOM      4  O   UNL     1       1.554   3.949  -4.100  1.00  0.00    -0.550 OA
ATOM      5  O   UNL     1       0.768   4.200  -1.963  1.00  0.00    -0.550 OA
ENDBRANCH   2   3
ENDBRANCH   1   2
BRANCH   1   6
ATOM      6  C   UNL     1      -1.234   1.353  -1.335  1.00  0.00     0.000 C 
BRANCH   6   7
ATOM      7  C   UNL     1      -1.816   2.050  -0.100  1.00  0.00    -0.003 C 
ATOM      8  C   UNL     1      -2.585   3.309  -0.489  1.00  0.00     0.004 C 
ENDBRANCH   6   7
ENDBRANCH   1   6
TORSDOF 4
ENDMDL
MODEL 3
REMARK VINA RESULT:    -4.533      2.286      3.848
REMARK INTER + INTRA:          -5.802
REMARK INTER:                  -5.611
REMARK INTRA:                  -0.191
REMARK UNBOUND:                -0.209
REMARK SMILES CCCCCC(=O)[O-]
REMARK SMILES IDX 4 1 5 2 6 3 7 4 8 5 3 6 2 7 1 8
REMARK H PARENT
REMARK Flexibility Score: inf
ROOT
ATOM      1  C   UNL     1       0.426   2.790  -1.353  1.00  0.00     0.006 C 
ENDROOT
BRANCH   1   2
ATOM      2  C   UNL     1      -0.754   2.589  -0.393  1.00  0.00     0.053 C 
BRANCH   2   3
ATOM      3  C   UNL     1      -2.066   2.598  -1.118  1.00  0.00     0.041 C 
ATOM      4  O   UNL     1      -3.017   3.308  -0.699  1.00  0.00    -0.550 OA
ATOM      5  O   UNL     1      -2.226   1.846  -2.274  1.00  0.00    -0.550 OA
ENDBRANCH   2   3
ENDBRANCH   1   2
BRANCH   1   6
ATOM      6  C   UNL     1       0.265   4.050  -2.217  1.00  0.00     0.000 C 
BRANCH   6   7
ATOM      7  C   UNL     1       0.822   3.823  -3.626  1.00  0.00    -0.003 C 
ATOM      8  C   UNL     1       0.840   2.339  -3.978  1.00  0.00     0.004 C 
ENDBRANCH   6   7
ENDBRANCH   1   6
TORSDOF 4
ENDMDL
MODEL 4
REMARK VINA RESULT:    -4.472      1.136      1.285
REMARK INTER + INTRA:          -5.726
REMARK INTER:                  -5.666
REMARK INTRA:                  -0.060
REMARK UNBOUND:                -0.209
REMARK SMILES CCCCCC(=O)[O-]
REMARK SMILES IDX 4 1 5 2 6 3 7 4 8 5 3 6 2 7 1 8
REMARK H PARENT
REMARK Flexibility Score: inf
ROOT
ATOM      1  C   UNL     1      -0.222   2.661  -1.223  1.00  0.00     0.006 C 
ENDROOT
BRANCH   1   2
ATOM      2  C   UNL     1      -0.380   2.305  -2.707  1.00  0.00     0.053 C 
BRANCH   2   3
ATOM      3  C   UNL     1       0.587   3.063  -3.565  1.00  0.00     0.041 C 
ATOM      4  O   UNL     1       1.097   4.137  -3.150  1.00  0.00    -0.550 OA
ATOM      5  O   UNL     1       0.949   2.565  -4.810  1.00  0.00    -0.550 OA
ENDBRANCH   2   3
ENDBRANCH   1   2
BRANCH   1   6
ATOM      6  C   UNL     1      -1.161   1.841  -0.326  1.00  0.00     0.000 C 
BRANCH   6   7
ATOM      7  C   UNL     1      -2.581   2.419  -0.347  1.00  0.00    -0.003 C 
ATOM      8  C   UNL     1      -2.554   3.944  -0.377  1.00  0.00     0.004 C 
ENDBRANCH   6   7
ENDBRANCH   1   6
TORSDOF 4
ENDMDL
MODEL 5
REMARK VINA RESULT:    -4.025     11.795     12.834
REMARK INTER + INTRA:          -5.175
REMARK INTER:                  -5.038
REMARK INTRA:                  -0.136
REMARK UNBOUND:                -0.209
REMARK SMILES CCCCCC(=O)[O-]
REMARK SMILES IDX 4 1 5 2 6 3 7 4 8 5 3 6 2 7 1 8
REMARK H PARENT
REMARK Flexibility Score: inf
ROOT
ATOM      1  C   UNL     1      -1.262  -8.235  -1.007  1.00  0.00     0.006 C 
ENDROOT
BRANCH   1   2
ATOM      2  C   UNL     1      -1.340  -9.718  -0.621  1.00  0.00     0.053 C 
BRANCH   2   3
ATOM      3  C   UNL     1      -1.502  -9.899   0.858  1.00  0.00     0.041 C 
ATOM      4  O   UNL     1      -0.498 -10.125   1.583  1.00  0.00    -0.550 OA
ATOM      5  O   UNL     1      -2.759  -9.785   1.438  1.00  0.00    -0.550 OA
ENDBRANCH   2   3
ENDBRANCH   1   2
BRANCH   1   6
ATOM      6  C   UNL     1       0.186  -7.762  -1.207  1.00  0.00     0.000 C 
BRANCH   6   7
ATOM      7  C   UNL     1       1.138  -8.955  -1.344  1.00  0.00    -0.003 C 
ATOM      8  C   UNL     1       1.871  -8.925  -2.681  1.00  0.00     0.004 C 
ENDBRANCH   6   7
ENDBRANCH   1   6
TORSDOF 4
ENDMDL
MODEL 6
REMARK VINA RESULT:    -3.988     11.992     12.967
REMARK INTER + INTRA:          -5.130
REMARK INTER:                  -4.993
REMARK INTRA:                  -0.137
REMARK UNBOUND:                -0.209
REMARK SMILES CCCCCC(=O)[O-]
REMARK SMILES IDX 4 1 5 2 6 3 7 4 8 5 3 6 2 7 1 8
REMARK H PARENT
REMARK Flexibility Score: inf
ROOT
ATOM      1  C   UNL     1       0.362 -10.047   0.673  1.00  0.00     0.006 C 
ENDROOT
BRANCH   1   2
ATOM      2  C   UNL     1      -0.933 -10.120  -0.145  1.00  0.00     0.053 C 
BRANCH   2   3
ATOM      3  C   UNL     1      -2.029  -9.309   0.477  1.00  0.00     0.041 C 
ATOM      4  O   UNL     1      -2.332  -8.183   0.002  1.00  0.00    -0.550 OA
ATOM      5  O   UNL     1      -2.736  -9.811   1.561  1.00  0.00    -0.550 OA
ENDBRANCH   2   3
ENDBRANCH   1   2
BRANCH   1   6
ATOM      6  C   UNL     1       1.495  -9.346  -0.092  1.00  0.00     0.000 C 
BRANCH   6   7
ATOM      7  C   UNL     1       0.989  -8.784  -1.426  1.00  0.00    -0.003 C 
ATOM      8  C   UNL     1       2.015  -8.991  -2.535  1.00  0.00     0.004 C 
ENDBRANCH   6   7
ENDBRANCH   1   6
TORSDOF 4
ENDMDL
MODEL 7
REMARK VINA RESULT:    -3.686     11.348     12.225
REMARK INTER + INTRA:          -4.756
REMARK INTER:                  -4.573
REMARK INTRA:                  -0.183
REMARK UNBOUND:                -0.209
REMARK SMILES CCCCCC(=O)[O-]
REMARK SMILES IDX 4 1 5 2 6 3 7 4 8 5 3 6 2 7 1 8
REMARK H PARENT
REMARK Flexibility Score: inf
ROOT
ATOM      1  C   UNL     1      -0.067  -7.850  -1.010  1.00  0.00     0.006 C 
ENDROOT
BRANCH   1   2
ATOM      2  C   UNL     1       0.961  -8.983  -0.896  1.00  0.00     0.053 C 
BRANCH   2   3
ATOM      3  C   UNL     1       1.500  -9.380  -2.237  1.00  0.00     0.041 C 
ATOM      4  O   UNL     1       2.675  -9.066  -2.566  1.00  0.00    -0.550 OA
ATOM      5  O   UNL     1       0.716 -10.123  -3.109  1.00  0.00    -0.550 OA
ENDBRANCH   2   3
ENDBRANCH   1   2
BRANCH   1   6
ATOM      6  C   UNL     1      -1.512  -8.372  -0.987  1.00  0.00     0.000 C 
BRANCH   6   7
ATOM      7  C   UNL     1      -1.607  -9.688  -0.207  1.00  0.00    -0.003 C 
ATOM      8  C   UNL     1      -2.259  -9.474   1.156  1.00  0.00     0.004 C 
ENDBRANCH   6   7
ENDBRANCH   1   6
TORSDOF 4
ENDMDL
MODEL 8
REMARK VINA RESULT:    -3.676     12.523     13.338
REMARK INTER + INTRA:          -4.745
REMARK INTER:                  -4.673
REMARK INTRA:                  -0.071
REMARK UNBOUND:                -0.209
REMARK SMILES CCCCCC(=O)[O-]
REMARK SMILES IDX 4 1 5 2 6 3 7 4 8 5 3 6 2 7 1 8
REMARK H PARENT
REMARK Flexibility Score: inf
ROOT
ATOM      1  C   UNL     1       0.969  -9.183  -0.397  1.00  0.00     0.006 C 
ENDROOT
BRANCH   1   2
ATOM      2  C   UNL     1       0.188 -10.071   0.580  1.00  0.00     0.053 C 
BRANCH   2   3
ATOM      3  C   UNL     1      -1.268  -9.717   0.608  1.00  0.00     0.041 C 
ATOM      4  O   UNL     1      -1.844  -9.319  -0.439  1.00  0.00    -0.550 OA
ATOM      5  O   UNL     1      -1.995  -9.858   1.783  1.00  0.00    -0.550 OA
ENDBRANCH   2   3
ENDBRANCH   1   2
BRANCH   1   6
ATOM      6  C   UNL     1       1.470  -9.966  -1.620  1.00  0.00     0.000 C 
BRANCH   6   7
ATOM      7  C   UNL     1       2.379  -9.094  -2.494  1.00  0.00    -0.003 C 
ATOM      8  C   UNL     1       2.631  -9.747  -3.849  1.00  0.00     0.004 C 
ENDBRANCH   6   7
ENDBRANCH   1   6
TORSDOF 4
ENDMDL
MODEL 9
REMARK VINA RESULT:    -3.554     11.856     12.768
REMARK INTER + INTRA:          -4.595
REMARK INTER:                  -4.488
REMARK INTRA:                  -0.106
REMARK UNBOUND:                -0.209
REMARK SMILES CCCCCC(=O)[O-]
REMARK SMILES IDX 4 1 5 2 6 3 7 4 8 5 3 6 2 7 1 8
REMARK H PARENT
REMARK Flexibility Score: inf
ROOT
ATOM      1  C   UNL     1       2.878  -9.040  -2.986  1.00  0.00     0.006 C 
ENDROOT
BRANCH   1   2
ATOM      2  C   UNL     1       1.826  -9.841  -2.207  1.00  0.00     0.053 C 
BRANCH   2   3
ATOM      3  C   UNL     1       1.165  -9.009  -1.151  1.00  0.00     0.041 C 
ATOM      4  O   UNL     1       1.192  -9.375   0.054  1.00  0.00    -0.550 OA
ATOM      5  O   UNL     1       0.546  -7.814  -1.494  1.00  0.00    -0.550 OA
ENDBRANCH   2   3
ENDBRANCH   1   2
BRANCH   1   6
ATOM      6  C   UNL     1       2.592  -9.021  -4.496  1.00  0.00     0.000 C 
BRANCH   6   7
ATOM      7  C   UNL     1       3.645  -8.193  -5.241  1.00  0.00    -0.003 C 
ATOM      8  C   UNL     1       4.963  -8.157  -4.473  1.00  0.00     0.004 C 
ENDBRANCH   6   7
ENDBRANCH   1   6
TORSDOF 4
ENDMDL
