MODEL 1
REMARK VINA RESULT:    -7.901      0.000      0.000
REMARK INTER + INTRA:          -9.551
REMARK INTER:                  -9.287
REMARK INTRA:                  -0.265
REMARK UNBOUND:                -0.265
REMARK SMILES O=c1cc(-c2ccc(O)c(O)c2)oc2cc(O)cc(O)c12
REMARK SMILES IDX 4 1 3 2 2 3 1 4 21 5 19 6 18 7 16 8 15 9 14 10 13 11 5 12
REMARK SMILES IDX 6 13 7 14 8 15 12 16 10 17 9 18 11 20 20 22 17 24
REMARK H PARENT 9 19 11 21 20 23 17 25
REMARK Flexibility Score: inf
ROOT
ATOM      1  C   UNL     1     -42.324  11.585   8.832  1.00  0.00     0.138 A 
ATOM      2  C   UNL     1     -41.829  12.898   8.779  1.00  0.00     0.100 A 
ATOM      3  C   UNL     1     -41.871  13.695   9.924  1.00  0.00     0.197 A 
ATOM      4  O   UNL     1     -41.423  14.872   9.867  1.00  0.00    -0.289 OA
ATOM      5  C   UNL     1     -42.405  13.170  11.117  1.00  0.00     0.107 A 
ATOM      6  C   UNL     1     -42.485  13.909  12.321  1.00  0.00     0.134 A 
ATOM      7  C   UNL     1     -43.026  13.311  13.469  1.00  0.00     0.093 A 
ATOM      8  C   UNL     1     -43.486  11.993  13.437  1.00  0.00     0.123 A 
ATOM      9  C   UNL     1     -43.408  11.256  12.250  1.00  0.00     0.094 A 
ATOM     10  C   UNL     1     -42.873  11.834  11.095  1.00  0.00     0.146 A 
ATOM     11  O   UNL     1     -42.813  11.116   9.978  1.00  0.00    -0.456 OA
ENDROOT
BRANCH   1  12
ATOM     12  C   UNL     1     -42.304  10.691   7.646  1.00  0.00     0.021 A 
ATOM     13  C   UNL     1     -41.420   9.598   7.618  1.00  0.00     0.016 A 
ATOM     14  C   UNL     1     -41.387   8.739   6.517  1.00  0.00     0.051 A 
ATOM     15  C   UNL     1     -42.244   8.950   5.431  1.00  0.00     0.157 A 
ATOM     16  C   UNL     1     -43.173  10.890   6.556  1.00  0.00     0.062 A 
ATOM     17  C   UNL     1     -43.141  10.025   5.452  1.00  0.00     0.158 A 
BRANCH  15  18
ATOM     18  O   UNL     1     -42.214   8.095   4.331  1.00  0.00    -0.504 OA
ATOM     19  H   UNL     1     -41.517   7.364   4.246  1.00  0.00     0.293 HD
ENDBRANCH  15  18
BRANCH  17  20
ATOM     20  O   UNL     1     -44.000  10.226   4.372  1.00  0.00    -0.504 OA
ATOM     21  H   UNL     1     -43.656  10.525   3.468  1.00  0.00     0.293 HD
ENDBRANCH  17  20
ENDBRANCH   1  12
BRANCH   6  22
ATOM     22  O   UNL     1     -42.034  15.228  12.384  1.00  0.00    -0.507 OA
ATOM     23  H   UNL     1     -41.303  15.571  11.772  1.00  0.00     0.293 HD
ENDBRANCH   6  22
BRANCH   8  24
ATOM     24  O   UNL     1     -44.018  11.423  14.591  1.00  0.00    -0.508 OA
ATOM     25  H   UNL     1     -45.019  11.344  14.730  1.00  0.00     0.293 HD
ENDBRANCH   8  24
TORSDOF 5
ENDMDL
MODEL 2
REMARK VINA RESULT:    -7.405      1.680      3.035
REMARK INTER + INTRA:          -8.968
REMARK INTER:                  -8.703
REMARK INTRA:                  -0.265
REMARK UNBOUND:                -0.265
REMARK SMILES O=c1cc(-c2ccc(O)c(O)c2)oc2cc(O)cc(O)c12
REMARK SMILES IDX 4 1 3 2 2 3 1 4 21 5 19 6 18 7 16 8 15 9 14 10 13 11 5 12
REMARK SMILES IDX 6 13 7 14 8 15 12 16 10 17 9 18 11 20 20 22 17 24
REMARK H PARENT 9 19 11 21 20 23 17 25
REMARK Flexibility Score: inf
ROOT
ATOM      1  C   UNL     1     -41.906  11.388   8.811  1.00  0.00     0.138 A 
ATOM      2  C   UNL     1     -42.038  10.489   9.882  1.00  0.00     0.100 A 
ATOM      3  C   UNL     1     -42.287  10.981  11.165  1.00  0.00     0.197 A 
ATOM      4  O   UNL     1     -42.405  10.166  12.120  1.00  0.00    -0.289 OA
ATOM      5  C   UNL     1     -42.405  12.370  11.365  1.00  0.00     0.107 A 
ATOM      6  C   UNL     1     -42.657  12.951  12.631  1.00  0.00     0.134 A 
ATOM      7  C   UNL     1     -42.768  14.345  12.747  1.00  0.00     0.093 A 
ATOM      8  C   UNL     1     -42.634  15.166  11.625  1.00  0.00     0.123 A 
ATOM      9  C   UNL     1     -42.386  14.597  10.371  1.00  0.00     0.094 A 
ATOM     10  C   UNL     1     -42.272  13.211  10.235  1.00  0.00     0.146 A 
ATOM     11  O   UNL     1     -42.034  12.694   9.034  1.00  0.00    -0.456 OA
ENDROOT
BRANCH   1  12
ATOM     12  C   UNL     1     -41.642  10.923   7.425  1.00  0.00     0.021 A 
ATOM     13  C   UNL     1     -42.719  10.545   6.606  1.00  0.00     0.016 A 
ATOM     14  C   UNL     1     -42.497  10.110   5.296  1.00  0.00     0.051 A 
ATOM     15  C   UNL     1     -41.198  10.057   4.781  1.00  0.00     0.157 A 
ATOM     16  C   UNL     1     -40.337  10.879   6.896  1.00  0.00     0.062 A 
ATOM     17  C   UNL     1     -40.116  10.445   5.580  1.00  0.00     0.158 A 
BRANCH  15  18
ATOM     18  O   UNL     1     -40.973   9.623   3.475  1.00  0.00    -0.504 OA
ATOM     19  H   UNL     1     -41.736   9.492   2.821  1.00  0.00     0.293 HD
ENDBRANCH  15  18
BRANCH  17  20
ATOM     20  O   UNL     1     -38.823  10.400   5.060  1.00  0.00    -0.504 OA
ATOM     21  H   UNL     1     -38.526   9.656   4.440  1.00  0.00     0.293 HD
ENDBRANCH  17  20
ENDBRANCH   1  12
BRANCH   6  22
ATOM     22  O   UNL     1     -42.795  12.157  13.770  1.00  0.00    -0.507 OA
ATOM     23  H   UNL     1     -42.780  12.555  14.703  1.00  0.00     0.293 HD
ENDBRANCH   6  22
BRANCH   8  24
ATOM     24  O   UNL     1     -42.748  16.547  11.767  1.00  0.00    -0.508 OA
ATOM     25  H   UNL     1     -43.376  17.089  11.185  1.00  0.00     0.293 HD
ENDBRANCH   8  24
TORSDOF 5
ENDMDL
MODEL 3
REMARK VINA RESULT:    -7.365     12.536     14.926
REMARK INTER + INTRA:          -8.922
REMARK INTER:                  -8.649
REMARK INTRA:                  -0.273
REMARK UNBOUND:                -0.265
REMARK SMILES O=c1cc(-c2ccc(O)c(O)c2)oc2cc(O)cc(O)c12
REMARK SMILES IDX 4 1 3 2 2 3 1 4 21 5 19 6 18 7 16 8 15 9 14 10 13 11 5 12
REMARK SMILES IDX 6 13 7 14 8 15 12 16 10 17 9 18 11 20 20 22 17 24
REMARK H PARENT 9 19 11 21 20 23 17 25
REMARK Flexibility Score: inf
ROOT
ATOM      1  C   UNL     1     -31.246  13.284   0.743  1.00  0.00     0.138 A 
ATOM      2  C   UNL     1     -31.199  12.227  -0.181  1.00  0.00     0.100 A 
ATOM      3  C   UNL     1     -32.290  11.363  -0.292  1.00  0.00     0.197 A 
ATOM      4  O   UNL     1     -32.239  10.418  -1.125  1.00  0.00    -0.289 OA
ATOM      5  C   UNL     1     -33.422  11.565   0.522  1.00  0.00     0.107 A 
ATOM      6  C   UNL     1     -34.568  10.736   0.474  1.00  0.00     0.134 A 
ATOM      7  C   UNL     1     -35.658  11.007   1.314  1.00  0.00     0.093 A 
ATOM      8  C   UNL     1     -35.625  12.088   2.198  1.00  0.00     0.123 A 
ATOM      9  C   UNL     1     -34.495  12.912   2.249  1.00  0.00     0.094 A 
ATOM     10  C   UNL     1     -33.398  12.658   1.421  1.00  0.00     0.146 A 
ATOM     11  O   UNL     1     -32.335  13.452   1.490  1.00  0.00    -0.456 OA
ENDROOT
BRANCH   1  12
ATOM     12  C   UNL     1     -30.117  14.235   0.904  1.00  0.00     0.021 A 
ATOM     13  C   UNL     1     -29.594  14.478   2.186  1.00  0.00     0.016 A 
ATOM     14  C   UNL     1     -28.528  15.363   2.362  1.00  0.00     0.051 A 
ATOM     15  C   UNL     1     -27.960  16.013   1.261  1.00  0.00     0.157 A 
ATOM     16  C   UNL     1     -29.532  14.883  -0.202  1.00  0.00     0.062 A 
ATOM     17  C   UNL     1     -28.460  15.770  -0.024  1.00  0.00     0.158 A 
BRANCH  15  18
ATOM     18  O   UNL     1     -26.897  16.897   1.433  1.00  0.00    -0.504 OA
ATOM     19  H   UNL     1     -26.962  17.867   1.146  1.00  0.00     0.293 HD
ENDBRANCH  15  18
BRANCH  17  20
ATOM     20  O   UNL     1     -27.885  16.411  -1.121  1.00  0.00    -0.504 OA
ATOM     21  H   UNL     1     -27.019  16.928  -1.038  1.00  0.00     0.293 HD
ENDBRANCH  17  20
ENDBRANCH   1  12
BRANCH   6  22
ATOM     22  O   UNL     1     -34.631   9.648  -0.398  1.00  0.00    -0.507 OA
ATOM     23  H   UNL     1     -34.772   9.772  -1.395  1.00  0.00     0.293 HD
ENDBRANCH   6  22
BRANCH   8  24
ATOM     24  O   UNL     1     -36.721  12.336   3.021  1.00  0.00    -0.508 OA
ATOM     25  H   UNL     1     -36.838  13.224   3.495  1.00  0.00     0.293 HD
ENDBRANCH   8  24
TORSDOF 5
ENDMDL
MODEL 4
REMARK VINA RESULT:    -7.315     12.559     14.792
REMARK INTER + INTRA:          -8.862
REMARK INTER:                  -8.590
REMARK INTRA:                  -0.273
REMARK UNBOUND:                -0.265
REMARK SMILES O=c1cc(-c2ccc(O)c(O)c2)oc2cc(O)cc(O)c12
REMARK SMILES IDX 4 1 3 2 2 3 1 4 21 5 19 6 18 7 16 8 15 9 14 10 13 11 5 12
REMARK SMILES IDX 6 13 7 14 8 15 12 16 10 17 9 18 11 20 20 22 17 24
REMARK H PARENT 9 19 11 21 20 23 17 25
REMARK Flexibility Score: inf
ROOT
ATOM      1  C   UNL     1     -31.661  14.114   1.013  1.00  0.00     0.138 A 
ATOM      2  C   UNL     1     -32.447  14.567   2.086  1.00  0.00     0.100 A 
ATOM      3  C   UNL     1     -33.616  13.881   2.419  1.00  0.00     0.197 A 
ATOM      4  O   UNL     1     -34.314  14.295   3.384  1.00  0.00    -0.289 OA
ATOM      5  C   UNL     1     -33.990  12.744   1.677  1.00  0.00     0.107 A 
ATOM      6  C   UNL     1     -35.158  11.992   1.948  1.00  0.00     0.134 A 
ATOM      7  C   UNL     1     -35.458  10.867   1.165  1.00  0.00     0.093 A 
ATOM      8  C   UNL     1     -34.614  10.479   0.122  1.00  0.00     0.123 A 
ATOM      9  C   UNL     1     -33.457  11.218  -0.150  1.00  0.00     0.094 A 
ATOM     10  C   UNL     1     -33.141  12.343   0.618  1.00  0.00     0.146 A 
ATOM     11  O   UNL     1     -32.038  13.030   0.339  1.00  0.00    -0.456 OA
ENDROOT
BRANCH   1  12
ATOM     12  C   UNL     1     -30.407  14.802   0.614  1.00  0.00     0.021 A 
ATOM     13  C   UNL     1     -30.225  15.185  -0.726  1.00  0.00     0.016 A 
ATOM     14  C   UNL     1     -29.057  15.840  -1.125  1.00  0.00     0.051 A 
ATOM     15  C   UNL     1     -28.057  16.132  -0.191  1.00  0.00     0.157 A 
ATOM     16  C   UNL     1     -29.402  15.111   1.552  1.00  0.00     0.062 A 
ATOM     17  C   UNL     1     -28.231  15.770   1.151  1.00  0.00     0.158 A 
BRANCH  15  18
ATOM     18  O   UNL     1     -26.890  16.784  -0.585  1.00  0.00    -0.504 OA
ATOM     19  H   UNL     1     -26.661  16.915  -1.564  1.00  0.00     0.293 HD
ENDBRANCH  15  18
BRANCH  17  20
ATOM     20  O   UNL     1     -27.237  16.072   2.081  1.00  0.00    -0.504 OA
ATOM     21  H   UNL     1     -26.673  15.347   2.508  1.00  0.00     0.293 HD
ENDBRANCH  17  20
ENDBRANCH   1  12
BRANCH   6  22
ATOM     22  O   UNL     1     -36.020  12.355   2.983  1.00  0.00    -0.507 OA
ATOM     23  H   UNL     1     -36.344  11.681   3.668  1.00  0.00     0.293 HD
ENDBRANCH   6  22
BRANCH   8  24
ATOM     24  O   UNL     1     -34.934   9.358  -0.640  1.00  0.00    -0.508 OA
ATOM     25  H   UNL     1     -35.896   9.083  -0.799  1.00  0.00     0.293 HD
ENDBRANCH   8  24
TORSDOF 5
ENDMDL
MODEL 5
REMARK VINA RESULT:    -7.270      1.455      7.225
REMARK INTER + INTRA:          -8.810
REMARK INTER:                  -8.541
REMARK INTRA:                  -0.269
REMARK UNBOUND:                -0.265
REMARK SMILES O=c1cc(-c2ccc(O)c(O)c2)oc2cc(O)cc(O)c12
REMARK SMILES IDX 4 1 3 2 2 3 1 4 21 5 19 6 18 7 16 8 15 9 14 10 13 11 5 12
REMARK SMILES IDX 6 13 7 14 8 15 12 16 10 17 9 18 11 20 20 22 17 24
REMARK H PARENT 9 19 11 21 20 23 17 25
REMARK Flexibility Score: inf
ROOT
ATOM      1  C   UNL     1     -41.909  11.656   9.161  1.00  0.00     0.138 A 
ATOM      2  C   UNL     1     -40.882  10.706   9.281  1.00  0.00     0.100 A 
ATOM      3  C   UNL     1     -40.693   9.766   8.266  1.00  0.00     0.197 A 
ATOM      4  O   UNL     1     -39.768   8.918   8.382  1.00  0.00    -0.289 OA
ATOM      5  C   UNL     1     -41.533   9.787   7.134  1.00  0.00     0.107 A 
ATOM      6  C   UNL     1     -41.410   8.871   6.062  1.00  0.00     0.134 A 
ATOM      7  C   UNL     1     -42.283   8.962   4.968  1.00  0.00     0.093 A 
ATOM      8  C   UNL     1     -43.271   9.948   4.924  1.00  0.00     0.123 A 
ATOM      9  C   UNL     1     -43.397  10.856   5.981  1.00  0.00     0.094 A 
ATOM     10  C   UNL     1     -42.538  10.782   7.081  1.00  0.00     0.146 A 
ATOM     11  O   UNL     1     -42.678  11.654   8.074  1.00  0.00    -0.456 OA
ENDROOT
BRANCH   1  12
ATOM     12  C   UNL     1     -42.156  12.680  10.207  1.00  0.00     0.021 A 
ATOM     13  C   UNL     1     -42.103  14.043   9.867  1.00  0.00     0.016 A 
ATOM     14  C   UNL     1     -42.338  15.026  10.832  1.00  0.00     0.051 A 
ATOM     15  C   UNL     1     -42.641  14.664  12.150  1.00  0.00     0.157 A 
ATOM     16  C   UNL     1     -42.473  12.323  11.532  1.00  0.00     0.062 A 
ATOM     17  C   UNL     1     -42.712  13.310  12.499  1.00  0.00     0.158 A 
BRANCH  15  18
ATOM     18  O   UNL     1     -42.876  15.641  13.115  1.00  0.00    -0.504 OA
ATOM     19  H   UNL     1     -43.312  15.416  14.002  1.00  0.00     0.293 HD
ENDBRANCH  15  18
BRANCH  17  20
ATOM     20  O   UNL     1     -43.023  12.952  13.811  1.00  0.00    -0.504 OA
ATOM     21  H   UNL     1     -42.704  12.079  14.212  1.00  0.00     0.293 HD
ENDBRANCH  17  20
ENDBRANCH   1  12
BRANCH   6  22
ATOM     22  O   UNL     1     -40.433   7.876   6.078  1.00  0.00    -0.507 OA
ATOM     23  H   UNL     1     -40.628   6.942   6.421  1.00  0.00     0.293 HD
ENDBRANCH   6  22
BRANCH   8  24
ATOM     24  O   UNL     1     -44.125  10.016   3.825  1.00  0.00    -0.508 OA
ATOM     25  H   UNL     1     -44.032   9.380   3.042  1.00  0.00     0.293 HD
ENDBRANCH   8  24
TORSDOF 5
ENDMDL
MODEL 6
REMARK VINA RESULT:    -7.159      2.500      3.698
REMARK INTER + INTRA:          -8.679
REMARK INTER:                  -8.378
REMARK INTRA:                  -0.301
REMARK UNBOUND:                -0.265
REMARK SMILES O=c1cc(-c2ccc(O)c(O)c2)oc2cc(O)cc(O)c12
REMARK SMILES IDX 4 1 3 2 2 3 1 4 21 5 19 6 18 7 16 8 15 9 14 10 13 11 5 12
REMARK SMILES IDX 6 13 7 14 8 15 12 16 10 17 9 18 11 20 20 22 17 24
REMARK H PARENT 9 19 11 21 20 23 17 25
REMARK Flexibility Score: inf
ROOT
ATOM      1  C   UNL     1     -41.926  10.245   6.511  1.00  0.00     0.138 A 
ATOM      2  C   UNL     1     -42.965  11.139   6.815  1.00  0.00     0.100 A 
ATOM      3  C   UNL     1     -43.176  11.521   8.141  1.00  0.00     0.197 A 
ATOM      4  O   UNL     1     -44.111  12.325   8.405  1.00  0.00    -0.289 OA
ATOM      5  C   UNL     1     -42.342  11.007   9.154  1.00  0.00     0.107 A 
ATOM      6  C   UNL     1     -42.487  11.342  10.521  1.00  0.00     0.134 A 
ATOM      7  C   UNL     1     -41.611  10.792  11.469  1.00  0.00     0.093 A 
ATOM      8  C   UNL     1     -40.595   9.917  11.077  1.00  0.00     0.123 A 
ATOM      9  C   UNL     1     -40.446   9.583   9.726  1.00  0.00     0.094 A 
ATOM     10  C   UNL     1     -41.309  10.120   8.767  1.00  0.00     0.146 A 
ATOM     11  O   UNL     1     -41.149   9.786   7.490  1.00  0.00    -0.456 OA
ENDROOT
BRANCH   1  12
ATOM     12  C   UNL     1     -41.653   9.804   5.119  1.00  0.00     0.021 A 
ATOM     13  C   UNL     1     -42.727   9.608   4.233  1.00  0.00     0.016 A 
ATOM     14  C   UNL     1     -42.496   9.200   2.917  1.00  0.00     0.051 A 
ATOM     15  C   UNL     1     -41.190   8.992   2.461  1.00  0.00     0.157 A 
ATOM     16  C   UNL     1     -40.340   9.605   4.650  1.00  0.00     0.062 A 
ATOM     17  C   UNL     1     -40.110   9.198   3.327  1.00  0.00     0.158 A 
BRANCH  15  18
ATOM     18  O   UNL     1     -40.956   8.584   1.149  1.00  0.00    -0.504 OA
ATOM     19  H   UNL     1     -40.189   8.962   0.605  1.00  0.00     0.293 HD
ENDBRANCH  15  18
BRANCH  17  20
ATOM     20  O   UNL     1     -38.809   8.999   2.867  1.00  0.00    -0.504 OA
ATOM     21  H   UNL     1     -38.046   8.800   3.502  1.00  0.00     0.293 HD
ENDBRANCH  17  20
ENDBRANCH   1  12
BRANCH   6  22
ATOM     22  O   UNL     1     -43.492  12.213  10.943  1.00  0.00    -0.507 OA
ATOM     23  H   UNL     1     -44.472  11.952  10.913  1.00  0.00     0.293 HD
ENDBRANCH   6  22
BRANCH   8  24
ATOM     24  O   UNL     1     -39.738   9.385  12.037  1.00  0.00    -0.508 OA
ATOM     25  H   UNL     1     -40.073   8.749  12.751  1.00  0.00     0.293 HD
ENDBRANCH   8  24
TORSDOF 5
ENDMDL
MODEL 7
REMARK VINA RESULT:    -6.923      2.213      7.670
REMARK INTER + INTRA:          -8.402
REMARK INTER:                  -8.125
REMARK INTRA:                  -0.278
REMARK UNBOUND:                -0.265
REMARK SMILES O=c1cc(-c2ccc(O)c(O)c2)oc2cc(O)cc(O)c12
REMARK SMILES IDX 4 1 3 2 2 3 1 4 21 5 19 6 18 7 16 8 15 9 14 10 13 11 5 12
REMARK SMILES IDX 6 13 7 14 8 15 12 16 10 17 9 18 11 20 20 22 17 24
REMARK H PARENT 9 19 11 21 20 23 17 25
REMARK Flexibility Score: inf
ROOT
ATOM      1  C   UNL     1     -41.843  10.607   7.037  1.00  0.00     0.138 A 
ATOM      2  C   UNL     1     -40.480  10.614   6.695  1.00  0.00     0.100 A 
ATOM      3  C   UNL     1     -40.089  10.196   5.422  1.00  0.00     0.197 A 
ATOM      4  O   UNL     1     -38.864  10.208   5.125  1.00  0.00    -0.289 OA
ATOM      5  C   UNL     1     -41.065   9.776   4.497  1.00  0.00     0.107 A 
ATOM      6  C   UNL     1     -40.754   9.338   3.188  1.00  0.00     0.134 A 
ATOM      7  C   UNL     1     -41.785   8.941   2.325  1.00  0.00     0.093 A 
ATOM      8  C   UNL     1     -43.118   8.976   2.742  1.00  0.00     0.123 A 
ATOM      9  C   UNL     1     -43.432   9.409   4.035  1.00  0.00     0.094 A 
ATOM     10  C   UNL     1     -42.418   9.808   4.911  1.00  0.00     0.146 A 
ATOM     11  O   UNL     1     -42.741  10.213   6.135  1.00  0.00    -0.456 OA
ENDROOT
BRANCH   1  12
ATOM     12  C   UNL     1     -42.319  11.041   8.374  1.00  0.00     0.021 A 
ATOM     13  C   UNL     1     -43.425  11.904   8.468  1.00  0.00     0.016 A 
ATOM     14  C   UNL     1     -43.895  12.322   9.716  1.00  0.00     0.051 A 
ATOM     15  C   UNL     1     -43.277  11.877  10.890  1.00  0.00     0.157 A 
ATOM     16  C   UNL     1     -41.709  10.587   9.560  1.00  0.00     0.062 A 
ATOM     17  C   UNL     1     -42.184  11.005  10.812  1.00  0.00     0.158 A 
BRANCH  15  18
ATOM     18  O   UNL     1     -43.743  12.292  12.135  1.00  0.00    -0.504 OA
ATOM     19  H   UNL     1     -43.148  12.279  12.956  1.00  0.00     0.293 HD
ENDBRANCH  15  18
BRANCH  17  20
ATOM     20  O   UNL     1     -41.576  10.556  11.983  1.00  0.00    -0.504 OA
ATOM     21  H   UNL     1     -40.984  11.160  12.539  1.00  0.00     0.293 HD
ENDBRANCH  17  20
ENDBRANCH   1  12
BRANCH   6  22
ATOM     22  O   UNL     1     -39.433   9.292   2.743  1.00  0.00    -0.507 OA
ATOM     23  H   UNL     1     -38.847   8.477   2.891  1.00  0.00     0.293 HD
ENDBRANCH   6  22
BRANCH   8  24
ATOM     24  O   UNL     1     -44.123   8.577   1.865  1.00  0.00    -0.508 OA
ATOM     25  H   UNL     1     -43.952   7.890   1.140  1.00  0.00     0.293 HD
ENDBRANCH   8  24
TORSDOF 5
ENDMDL
MODEL 8
REMARK VINA RESULT:    -6.783     12.497     14.958
REMARK INTER + INTRA:          -8.237
REMARK INTER:                  -7.956
REMARK INTRA:                  -0.281
REMARK UNBOUND:                -0.265
REMARK SMILES O=c1cc(-c2ccc(O)c(O)c2)oc2cc(O)cc(O)c12
REMARK SMILES IDX 4 1 3 2 2 3 1 4 21 5 19 6 18 7 16 8 15 9 14 10 13 11 5 12
REMARK SMILES IDX 6 13 7 14 8 15 12 16 10 17 9 18 11 20 20 22 17 24
REMARK H PARENT 9 19 11 21 20 23 17 25
REMARK Flexibility Score: inf
ROOT
ATOM      1  C   UNL     1     -32.606  12.782   0.309  1.00  0.00     0.138 A 
ATOM      2  C   UNL     1     -32.702  14.171   0.120  1.00  0.00     0.100 A 
ATOM      3  C   UNL     1     -31.575  14.888  -0.286  1.00  0.00     0.197 A 
ATOM      4  O   UNL     1     -31.671  16.134  -0.454  1.00  0.00    -0.289 OA
ATOM      5  C   UNL     1     -30.360  14.209  -0.504  1.00  0.00     0.107 A 
ATOM      6  C   UNL     1     -29.173  14.860  -0.917  1.00  0.00     0.134 A 
ATOM      7  C   UNL     1     -28.004  14.110  -1.118  1.00  0.00     0.093 A 
ATOM      8  C   UNL     1     -28.000  12.728  -0.918  1.00  0.00     0.123 A 
ATOM      9  C   UNL     1     -29.171  12.079  -0.511  1.00  0.00     0.094 A 
ATOM     10  C   UNL     1     -30.346  12.808  -0.304  1.00  0.00     0.146 A 
ATOM     11  O   UNL     1     -31.445  12.170   0.085  1.00  0.00    -0.456 OA
ENDROOT
BRANCH   1  12
ATOM     12  C   UNL     1     -33.770  11.968   0.740  1.00  0.00     0.021 A 
ATOM     13  C   UNL     1     -34.438  12.292   1.934  1.00  0.00     0.016 A 
ATOM     14  C   UNL     1     -35.540  11.545   2.357  1.00  0.00     0.051 A 
ATOM     15  C   UNL     1     -36.000  10.469   1.589  1.00  0.00     0.157 A 
ATOM     16  C   UNL     1     -34.247  10.891  -0.034  1.00  0.00     0.062 A 
ATOM     17  C   UNL     1     -35.355  10.144   0.390  1.00  0.00     0.158 A 
BRANCH  15  18
ATOM     18  O   UNL     1     -37.099   9.721   2.008  1.00  0.00    -0.504 OA
ATOM     19  H   UNL     1     -37.047   8.714   2.112  1.00  0.00     0.293 HD
ENDBRANCH  15  18
BRANCH  17  20
ATOM     20  O   UNL     1     -35.822   9.077  -0.377  1.00  0.00    -0.504 OA
ATOM     21  H   UNL     1     -36.592   9.187  -1.025  1.00  0.00     0.293 HD
ENDBRANCH  17  20
ENDBRANCH   1  12
BRANCH   6  22
ATOM     22  O   UNL     1     -29.146  16.239  -1.125  1.00  0.00    -0.507 OA
ATOM     23  H   UNL     1     -29.922  16.728  -1.556  1.00  0.00     0.293 HD
ENDBRANCH   6  22
BRANCH   8  24
ATOM     24  O   UNL     1     -26.826  12.007  -1.125  1.00  0.00    -0.508 OA
ATOM     25  H   UNL     1     -26.174  12.257  -1.860  1.00  0.00     0.293 HD
ENDBRANCH   8  24
TORSDOF 5
ENDMDL
