MODEL 1
REMARK VINA RESULT:    -3.388      0.000      0.000
REMARK INTER + INTRA:          -9.069
REMARK INTER:                  -6.556
REMARK INTRA:                  -2.513
REMARK UNBOUND:                -2.513
REMARK SMILES CCCCCCCCCCCCCCCCCC(=O)[O-]
REMARK SMILES IDX 10 1 11 2 12 3 13 4 14 5 15 6 16 7 17 8 18 9 19 10 20 11
REMARK SMILES IDX 9 12 8 13 7 14 6 15 5 16 4 17 3 18 2 19 1 20
REMARK H PARENT
REMARK Flexibility Score: inf
ROOT
ATOM      1  C   UNL     1       6.536  -7.980   5.802  1.00  0.00     0.000 C 
ENDROOT
BRANCH   1   2
ATOM      2  C   UNL     1       6.439  -8.130   4.275  1.00  0.00     0.000 C 
BRANCH   2   3
ATOM      3  C   UNL     1       5.232  -8.980   3.841  1.00  0.00     0.000 C 
BRANCH   3   4
ATOM      4  C   UNL     1       4.921 -10.112   4.834  1.00  0.00     0.000 C 
BRANCH   4   5
ATOM      5  C   UNL     1       3.496 -10.023   5.407  1.00  0.00     0.000 C 
BRANCH   5   6
ATOM      6  C   UNL     1       3.462 -10.137   6.941  1.00  0.00     0.000 C 
BRANCH   6   7
ATOM      7  C   UNL     1       2.304  -9.381   7.625  1.00  0.00     0.006 C 
BRANCH   7   8
ATOM      8  C   UNL     1       2.635  -8.838   9.024  1.00  0.00     0.053 C 
BRANCH   8   9
ATOM      9  C   UNL     1       1.743  -7.698   9.409  1.00  0.00     0.041 C 
ATOM     10  O   UNL     1       0.625  -7.922   9.944  1.00  0.00    -0.550 OA
ATOM     11  O   UNL     1       2.130  -6.390   9.145  1.00  0.00    -0.550 OA
ENDBRANCH   8   9
ENDBRANCH   7   8
ENDBRANCH   6   7
ENDBRANCH   5   6
ENDBRANCH   4   5
ENDBRANCH   3   4
ENDBRANCH   2   3
ENDBRANCH   1   2
BRANCH   1  12
ATOM     12  C   UNL     1       7.848  -8.542   6.370  1.00  0.00     0.000 C 
BRANCH  12  13
ATOM     13  C   UNL     1       7.612  -9.224   7.723  1.00  0.00    -0.000 C 
BRANCH  13  14
ATOM     14  C   UNL     1       6.245  -8.843   8.302  1.00  0.00    -0.000 C 
BRANCH  14  15
ATOM     15  C   UNL     1       6.401  -8.057   9.610  1.00  0.00    -0.000 C 
BRANCH  15  16
ATOM     16  C   UNL     1       5.746  -6.671   9.503  1.00  0.00    -0.000 C 
BRANCH  16  17
ATOM     17  C   UNL     1       6.780  -5.530   9.554  1.00  0.00    -0.000 C 
BRANCH  17  18
ATOM     18  C   UNL     1       7.491  -5.263   8.213  1.00  0.00    -0.000 C 
BRANCH  18  19
ATOM     19  C   UNL     1       9.022  -5.122   8.328  1.00  0.00    -0.003 C 
ATOM     20  C   UNL     1       9.688  -6.377   8.895  1.00  0.00     0.004 C 
ENDBRANCH  18  19
ENDBRANCH  17  18
ENDBRANCH  16  17
ENDBRANCH  15  16
ENDBRANCH  14  15
ENDBRANCH  13  14
ENDBRANCH  12  13
ENDBRANCH   1  12
TORSDOF 16
ENDMDL
MODEL 2
REMARK VINA RESULT:    -3.279     16.578     19.120
REMARK INTER + INTRA:          -8.859
REMARK INTER:                  -6.928
REMARK INTRA:                  -1.931
REMARK UNBOUND:                -2.513
REMARK SMILES CCCCCCCCCCCCCCCCCC(=O)[O-]
REMARK SMILES IDX 10 1 11 2 12 3 13 4 14 5 15 6 16 7 17 8 18 9 19 10 20 11
REMARK SMILES IDX 9 12 8 13 7 14 6 15 5 16 4 17 3 18 2 19 1 20
REMARK H PARENT
REMARK Flexibility Score: inf
ROOT
ATOM      1  C   UNL     1      -4.974  -8.977  -6.371  1.00  0.00     0.000 C 
ENDROOT
BRANCH   1   2
ATOM      2  C   UNL     1      -4.155  -9.526  -7.550  1.00  0.00     0.000 C 
BRANCH   2   3
ATOM      3  C   UNL     1      -4.891 -10.641  -8.312  1.00  0.00     0.000 C 
BRANCH   3   4
ATOM      4  C   UNL     1      -5.780 -10.095  -9.442  1.00  0.00     0.000 C 
BRANCH   4   5
ATOM      5  C   UNL     1      -7.281 -10.221  -9.130  1.00  0.00     0.000 C 
BRANCH   5   6
ATOM      6  C   UNL     1      -8.043  -8.898  -9.318  1.00  0.00     0.000 C 
BRANCH   6   7
ATOM      7  C   UNL     1      -7.202  -7.625  -9.092  1.00  0.00     0.006 C 
BRANCH   7   8
ATOM      8  C   UNL     1      -8.020  -6.327  -9.006  1.00  0.00     0.053 C 
BRANCH   8   9
ATOM      9  C   UNL     1      -7.594  -5.470  -7.855  1.00  0.00     0.041 C 
ATOM     10  O   UNL     1      -6.391  -5.462  -7.482  1.00  0.00    -0.550 OA
ATOM     11  O   UNL     1      -8.531  -4.704  -7.171  1.00  0.00    -0.550 OA
ENDBRANCH   8   9
ENDBRANCH   7   8
ENDBRANCH   6   7
ENDBRANCH   5   6
ENDBRANCH   4   5
ENDBRANCH   3   4
ENDBRANCH   2   3
ENDBRANCH   1   2
BRANCH   1  12
ATOM     12  C   UNL     1      -5.087  -9.978  -5.211  1.00  0.00     0.000 C 
BRANCH  12  13
ATOM     13  C   UNL     1      -6.544 -10.398  -4.990  1.00  0.00    -0.000 C 
BRANCH  13  14
ATOM     14  C   UNL     1      -7.511  -9.410  -5.652  1.00  0.00    -0.000 C 
BRANCH  14  15
ATOM     15  C   UNL     1      -8.760  -9.198  -4.788  1.00  0.00    -0.000 C 
BRANCH  15  16
ATOM     16  C   UNL     1      -8.407  -9.224  -3.292  1.00  0.00    -0.000 C 
BRANCH  16  17
ATOM     17  C   UNL     1      -9.554  -9.785  -2.429  1.00  0.00    -0.000 C 
BRANCH  17  18
ATOM     18  C   UNL     1      -9.229 -11.125  -1.743  1.00  0.00    -0.000 C 
BRANCH  18  19
ATOM     19  C   UNL     1      -8.058 -11.052  -0.741  1.00  0.00    -0.003 C 
ATOM     20  C   UNL     1      -8.527 -10.820   0.695  1.00  0.00     0.004 C 
ENDBRANCH  18  19
ENDBRANCH  17  18
ENDBRANCH  16  17
ENDBRANCH  15  16
ENDBRANCH  14  15
ENDBRANCH  13  14
ENDBRANCH  12  13
ENDBRANCH   1  12
TORSDOF 16
ENDMDL
MODEL 3
REMARK VINA RESULT:    -3.220      2.102      5.699
REMARK INTER + INTRA:          -8.745
REMARK INTER:                  -6.786
REMARK INTRA:                  -1.958
REMARK UNBOUND:                -2.513
REMARK SMILES CCCCCCCCCCCCCCCCCC(=O)[O-]
REMARK SMILES IDX 10 1 11 2 12 3 13 4 14 5 15 6 16 7 17 8 18 9 19 10 20 11
REMARK SMILES IDX 9 12 8 13 7 14 6 15 5 16 4 17 3 18 2 19 1 20
REMARK H PARENT
REMARK Flexibility Score: inf
ROOT
ATOM      1  C   UNL     1       6.626  -7.995   4.218  1.00  0.00     0.000 C 
ENDROOT
BRANCH   1   2
ATOM      2  C   UNL     1       6.621  -7.865   5.749  1.00  0.00     0.000 C 
BRANCH   2   3
ATOM      3  C   UNL     1       7.839  -8.540   6.403  1.00  0.00     0.000 C 
BRANCH   3   4
ATOM      4  C   UNL     1       7.458  -9.380   7.633  1.00  0.00     0.000 C 
BRANCH   4   5
ATOM      5  C   UNL     1       8.435  -9.193   8.806  1.00  0.00     0.000 C 
BRANCH   5   6
ATOM      6  C   UNL     1       9.473  -8.087   8.547  1.00  0.00     0.000 C 
BRANCH   6   7
ATOM      7  C   UNL     1       9.259  -6.791   9.355  1.00  0.00     0.006 C 
BRANCH   7   8
ATOM      8  C   UNL     1       9.183  -5.513   8.503  1.00  0.00     0.053 C 
BRANCH   8   9
ATOM      9  C   UNL     1       7.790  -4.970   8.429  1.00  0.00     0.041 C 
ATOM     10  O   UNL     1       7.597  -3.755   8.161  1.00  0.00    -0.550 OA
ATOM     11  O   UNL     1       6.704  -5.798   8.689  1.00  0.00    -0.550 OA
ENDBRANCH   8   9
ENDBRANCH   7   8
ENDBRANCH   6   7
ENDBRANCH   5   6
ENDBRANCH   4   5
ENDBRANCH   3   4
ENDBRANCH   2   3
ENDBRANCH   1   2
BRANCH   1  12
ATOM     12  C   UNL     1       5.421  -8.785   3.686  1.00  0.00     0.000 C 
BRANCH  12  13
ATOM     13  C   UNL     1       5.070  -9.947   4.623  1.00  0.00    -0.000 C 
BRANCH  13  14
ATOM     14  C   UNL     1       3.574 -10.276   4.558  1.00  0.00    -0.000 C 
BRANCH  14  15
ATOM     15  C   UNL     1       2.983 -10.435   5.964  1.00  0.00    -0.000 C 
BRANCH  15  16
ATOM     16  C   UNL     1       4.009 -10.048   7.041  1.00  0.00    -0.000 C 
BRANCH  16  17
ATOM     17  C   UNL     1       3.634  -8.740   7.764  1.00  0.00    -0.000 C 
BRANCH  17  18
ATOM     18  C   UNL     1       2.125  -8.572   8.020  1.00  0.00    -0.000 C 
BRANCH  18  19
ATOM     19  C   UNL     1       1.776  -8.091   9.443  1.00  0.00    -0.003 C 
ATOM     20  C   UNL     1       2.039  -6.597   9.640  1.00  0.00     0.004 C 
ENDBRANCH  18  19
ENDBRANCH  17  18
ENDBRANCH  16  17
ENDBRANCH  15  16
ENDBRANCH  14  15
ENDBRANCH  13  14
ENDBRANCH  12  13
ENDBRANCH   1  12
TORSDOF 16
ENDMDL
MODEL 4
REMARK VINA RESULT:    -3.170      2.413      5.262
REMARK INTER + INTRA:          -8.648
REMARK INTER:                  -6.334
REMARK INTRA:                  -2.314
REMARK UNBOUND:                -2.513
REMARK SMILES CCCCCCCCCCCCCCCCCC(=O)[O-]
REMARK SMILES IDX 10 1 11 2 12 3 13 4 14 5 15 6 16 7 17 8 18 9 19 10 20 11
REMARK SMILES IDX 9 12 8 13 7 14 6 15 5 16 4 17 3 18 2 19 1 20
REMARK H PARENT
REMARK Flexibility Score: inf
ROOT
ATOM      1  C   UNL     1       5.335  -8.900   3.450  1.00  0.00     0.000 C 
ENDROOT
BRANCH   1   2
ATOM      2  C   UNL     1       6.548  -8.116   3.978  1.00  0.00     0.000 C 
BRANCH   2   3
ATOM      3  C   UNL     1       6.420  -7.765   5.471  1.00  0.00     0.000 C 
BRANCH   3   4
ATOM      4  C   UNL     1       7.375  -8.585   6.353  1.00  0.00     0.000 C 
BRANCH   4   5
ATOM      5  C   UNL     1       6.687  -9.151   7.607  1.00  0.00     0.000 C 
BRANCH   5   6
ATOM      6  C   UNL     1       5.731  -8.143   8.268  1.00  0.00     0.000 C 
BRANCH   6   7
ATOM      7  C   UNL     1       6.302  -7.416   9.503  1.00  0.00     0.006 C 
BRANCH   7   8
ATOM      8  C   UNL     1       6.322  -5.884   9.389  1.00  0.00     0.053 C 
BRANCH   8   9
ATOM      9  C   UNL     1       7.539  -5.391   8.668  1.00  0.00     0.041 C 
ATOM     10  O   UNL     1       8.564  -6.117   8.587  1.00  0.00    -0.550 OA
ATOM     11  O   UNL     1       7.552  -4.117   8.114  1.00  0.00    -0.550 OA
ENDBRANCH   8   9
ENDBRANCH   7   8
ENDBRANCH   6   7
ENDBRANCH   5   6
ENDBRANCH   4   5
ENDBRANCH   3   4
ENDBRANCH   2   3
ENDBRANCH   1   2
BRANCH   1  12
ATOM     12  C   UNL     1       5.027 -10.150   4.288  1.00  0.00     0.000 C 
BRANCH  12  13
ATOM     13  C   UNL     1       3.655 -10.730   3.925  1.00  0.00    -0.000 C 
BRANCH  13  14
ATOM     14  C   UNL     1       2.809 -10.974   5.179  1.00  0.00    -0.000 C 
BRANCH  14  15
ATOM     15  C   UNL     1       3.377 -10.213   6.383  1.00  0.00    -0.000 C 
BRANCH  15  16
ATOM     16  C   UNL     1       2.253  -9.739   7.317  1.00  0.00    -0.000 C 
BRANCH  16  17
ATOM     17  C   UNL     1       2.567 -10.016   8.800  1.00  0.00    -0.000 C 
BRANCH  17  18
ATOM     18  C   UNL     1       2.273  -8.830   9.738  1.00  0.00    -0.000 C 
BRANCH  18  19
ATOM     19  C   UNL     1       2.062  -7.488   9.010  1.00  0.00    -0.003 C 
ATOM     20  C   UNL     1       2.356  -6.281   9.902  1.00  0.00     0.004 C 
ENDBRANCH  18  19
ENDBRANCH  17  18
ENDBRANCH  16  17
ENDBRANCH  15  16
ENDBRANCH  14  15
ENDBRANCH  13  14
ENDBRANCH  12  13
ENDBRANCH   1  12
TORSDOF 16
ENDMDL
MODEL 5
REMARK VINA RESULT:    -3.169      1.152      2.081
REMARK INTER + INTRA:          -8.646
REMARK INTER:                  -6.532
REMARK INTRA:                  -2.114
REMARK UNBOUND:                -2.513
REMARK SMILES CCCCCCCCCCCCCCCCCC(=O)[O-]
REMARK SMILES IDX 10 1 11 2 12 3 13 4 14 5 15 6 16 7 17 8 18 9 19 10 20 11
REMARK SMILES IDX 9 12 8 13 7 14 6 15 5 16 4 17 3 18 2 19 1 20
REMARK H PARENT
REMARK Flexibility Score: inf
ROOT
ATOM      1  C   UNL     1       6.127  -8.127   3.939  1.00  0.00     0.000 C 
ENDROOT
BRANCH   1   2
ATOM      2  C   UNL     1       5.058  -9.193   3.647  1.00  0.00     0.000 C 
BRANCH   2   3
ATOM      3  C   UNL     1       4.846 -10.155   4.828  1.00  0.00     0.000 C 
BRANCH   3   4
ATOM      4  C   UNL     1       3.460  -9.999   5.474  1.00  0.00     0.000 C 
BRANCH   4   5
ATOM      5  C   UNL     1       3.534  -9.798   6.998  1.00  0.00     0.000 C 
BRANCH   5   6
ATOM      6  C   UNL     1       2.270  -9.136   7.575  1.00  0.00     0.000 C 
BRANCH   6   7
ATOM      7  C   UNL     1       2.268  -8.962   9.107  1.00  0.00     0.006 C 
BRANCH   7   8
ATOM      8  C   UNL     1       3.464  -8.172   9.661  1.00  0.00     0.053 C 
BRANCH   8   9
ATOM      9  C   UNL     1       3.172  -6.706   9.758  1.00  0.00     0.041 C 
ATOM     10  O   UNL     1       2.025  -6.269   9.479  1.00  0.00    -0.550 OA
ATOM     11  O   UNL     1       4.177  -5.818  10.125  1.00  0.00    -0.550 OA
ENDBRANCH   8   9
ENDBRANCH   7   8
ENDBRANCH   6   7
ENDBRANCH   5   6
ENDBRANCH   4   5
ENDBRANCH   3   4
ENDBRANCH   2   3
ENDBRANCH   1   2
BRANCH   1  12
ATOM     12  C   UNL     1       6.856  -8.367   5.269  1.00  0.00     0.000 C 
BRANCH  12  13
ATOM     13  C   UNL     1       6.389  -7.370   6.337  1.00  0.00    -0.000 C 
BRANCH  13  14
ATOM     14  C   UNL     1       6.632  -7.919   7.747  1.00  0.00    -0.000 C 
BRANCH  14  15
ATOM     15  C   UNL     1       7.811  -8.899   7.762  1.00  0.00    -0.000 C 
BRANCH  15  16
ATOM     16  C   UNL     1       9.046  -8.267   8.421  1.00  0.00    -0.000 C 
BRANCH  16  17
ATOM     17  C   UNL     1       8.674  -7.326   9.584  1.00  0.00    -0.000 C 
BRANCH  17  18
ATOM     18  C   UNL     1       9.399  -5.967   9.551  1.00  0.00    -0.000 C 
BRANCH  18  19
ATOM     19  C   UNL     1       9.172  -5.163   8.255  1.00  0.00    -0.003 C 
ATOM     20  C   UNL     1       7.866  -4.369   8.275  1.00  0.00     0.004 C 
ENDBRANCH  18  19
ENDBRANCH  17  18
ENDBRANCH  16  17
ENDBRANCH  15  16
ENDBRANCH  14  15
ENDBRANCH  13  14
ENDBRANCH  12  13
ENDBRANCH   1  12
TORSDOF 16
ENDMDL
MODEL 6
REMARK VINA RESULT:    -3.055      1.620      2.808
REMARK INTER + INTRA:          -8.425
REMARK INTER:                  -6.465
REMARK INTRA:                  -1.959
REMARK UNBOUND:                -2.513
REMARK SMILES CCCCCCCCCCCCCCCCCC(=O)[O-]
REMARK SMILES IDX 10 1 11 2 12 3 13 4 14 5 15 6 16 7 17 8 18 9 19 10 20 11
REMARK SMILES IDX 9 12 8 13 7 14 6 15 5 16 4 17 3 18 2 19 1 20
REMARK H PARENT
REMARK Flexibility Score: inf
ROOT
ATOM      1  C   UNL     1       5.231  -9.037   4.073  1.00  0.00     0.000 C 
ENDROOT
BRANCH   1   2
ATOM      2  C   UNL     1       4.969 -10.172   5.077  1.00  0.00     0.000 C 
BRANCH   2   3
ATOM      3  C   UNL     1       3.515 -10.194   5.579  1.00  0.00     0.000 C 
BRANCH   3   4
ATOM      4  C   UNL     1       3.417 -10.050   7.106  1.00  0.00     0.000 C 
BRANCH   4   5
ATOM      5  C   UNL     1       3.198  -8.594   7.552  1.00  0.00     0.000 C 
BRANCH   5   6
ATOM      6  C   UNL     1       2.103  -8.456   8.624  1.00  0.00     0.000 C 
BRANCH   6   7
ATOM      7  C   UNL     1       1.289  -9.739   8.891  1.00  0.00     0.006 C 
BRANCH   7   8
ATOM      8  C   UNL     1      -0.015  -9.516   9.673  1.00  0.00     0.053 C 
BRANCH   8   9
ATOM      9  C   UNL     1      -1.220  -9.590   8.787  1.00  0.00     0.041 C 
ATOM     10  O   UNL     1      -1.170 -10.227   7.702  1.00  0.00    -0.550 OA
ATOM     11  O   UNL     1      -2.389  -8.929   9.143  1.00  0.00    -0.550 OA
ENDBRANCH   8   9
ENDBRANCH   7   8
ENDBRANCH   6   7
ENDBRANCH   5   6
ENDBRANCH   4   5
ENDBRANCH   3   4
ENDBRANCH   2   3
ENDBRANCH   1   2
BRANCH   1  12
ATOM     12  C   UNL     1       6.397  -8.131   4.494  1.00  0.00     0.000 C 
BRANCH  12  13
ATOM     13  C   UNL     1       6.561  -8.120   6.018  1.00  0.00    -0.000 C 
BRANCH  13  14
ATOM     14  C   UNL     1       7.921  -8.694   6.431  1.00  0.00    -0.000 C 
BRANCH  14  15
ATOM     15  C   UNL     1       7.926  -9.089   7.913  1.00  0.00    -0.000 C 
BRANCH  15  16
ATOM     16  C   UNL     1       6.582  -8.752   8.578  1.00  0.00    -0.000 C 
BRANCH  16  17
ATOM     17  C   UNL     1       6.761  -8.006   9.915  1.00  0.00    -0.000 C 
BRANCH  17  18
ATOM     18  C   UNL     1       7.545  -6.685   9.799  1.00  0.00    -0.000 C 
BRANCH  18  19
ATOM     19  C   UNL     1       6.874  -5.632   8.893  1.00  0.00    -0.003 C 
ATOM     20  C   UNL     1       7.888  -4.728   8.191  1.00  0.00     0.004 C 
ENDBRANCH  18  19
ENDBRANCH  17  18
ENDBRANCH  16  17
ENDBRANCH  15  16
ENDBRANCH  14  15
ENDBRANCH  13  14
ENDBRANCH  12  13
ENDBRANCH   1  12
TORSDOF 16
ENDMDL
MODEL 7
REMARK VINA RESULT:    -3.039     17.011     19.567
REMARK INTER + INTRA:          -8.395
REMARK INTER:                  -6.494
REMARK INTRA:                  -1.902
REMARK UNBOUND:                -2.513
REMARK SMILES CCCCCCCCCCCCCCCCCC(=O)[O-]
REMARK SMILES IDX 10 1 11 2 12 3 13 4 14 5 15 6 16 7 17 8 18 9 19 10 20 11
REMARK SMILES IDX 9 12 8 13 7 14 6 15 5 16 4 17 3 18 2 19 1 20
REMARK H PARENT
REMARK Flexibility Score: inf
ROOT
ATOM      1  C   UNL     1      -6.074  -9.331  -7.978  1.00  0.00     0.000 C 
ENDROOT
BRANCH   1   2
ATOM      2  C   UNL     1      -6.616 -10.195  -9.128  1.00  0.00     0.000 C 
BRANCH   2   3
ATOM      3  C   UNL     1      -7.982 -10.825  -8.801  1.00  0.00     0.000 C 
BRANCH   3   4
ATOM      4  C   UNL     1      -9.142  -9.830  -8.961  1.00  0.00     0.000 C 
BRANCH   4   5
ATOM      5  C   UNL     1      -9.685  -9.328  -7.612  1.00  0.00     0.000 C 
BRANCH   5   6
ATOM      6  C   UNL     1      -9.480  -7.816  -7.411  1.00  0.00     0.000 C 
BRANCH   6   7
ATOM      7  C   UNL     1      -9.339  -7.000  -8.712  1.00  0.00     0.006 C 
BRANCH   7   8
ATOM      8  C   UNL     1      -7.940  -6.409  -8.946  1.00  0.00     0.053 C 
BRANCH   8   9
ATOM      9  C   UNL     1      -7.525  -5.494  -7.836  1.00  0.00     0.041 C 
ATOM     10  O   UNL     1      -6.331  -5.486  -7.435  1.00  0.00    -0.550 OA
ATOM     11  O   UNL     1      -8.463  -4.674  -7.221  1.00  0.00    -0.550 OA
ENDBRANCH   8   9
ENDBRANCH   7   8
ENDBRANCH   6   7
ENDBRANCH   5   6
ENDBRANCH   4   5
ENDBRANCH   3   4
ENDBRANCH   2   3
ENDBRANCH   1   2
BRANCH   1  12
ATOM     12  C   UNL     1      -4.663  -9.748  -7.538  1.00  0.00     0.000 C 
BRANCH  12  13
ATOM     13  C   UNL     1      -4.495  -9.601  -6.021  1.00  0.00    -0.000 C 
BRANCH  13  14
ATOM     14  C   UNL     1      -5.560 -10.407  -5.268  1.00  0.00    -0.000 C 
BRANCH  14  15
ATOM     15  C   UNL     1      -6.251  -9.546  -4.203  1.00  0.00    -0.000 C 
BRANCH  15  16
ATOM     16  C   UNL     1      -7.748  -9.385  -4.510  1.00  0.00    -0.000 C 
BRANCH  16  17
ATOM     17  C   UNL     1      -8.565  -9.004  -3.260  1.00  0.00    -0.000 C 
BRANCH  17  18
ATOM     18  C   UNL     1      -9.750  -9.945  -2.973  1.00  0.00    -0.000 C 
BRANCH  18  19
ATOM     19  C   UNL     1      -9.633 -10.719  -1.644  1.00  0.00    -0.003 C 
ATOM     20  C   UNL     1      -8.185 -10.869  -1.176  1.00  0.00     0.004 C 
ENDBRANCH  18  19
ENDBRANCH  17  18
ENDBRANCH  16  17
ENDBRANCH  15  16
ENDBRANCH  14  15
ENDBRANCH  13  14
ENDBRANCH  12  13
ENDBRANCH   1  12
TORSDOF 16
ENDMDL
MODEL 8
REMARK VINA RESULT:    -3.022     17.094     19.416
REMARK INTER + INTRA:          -8.362
REMARK INTER:                  -6.524
REMARK INTRA:                  -1.837
REMARK UNBOUND:                -2.513
REMARK SMILES CCCCCCCCCCCCCCCCCC(=O)[O-]
REMARK SMILES IDX 10 1 11 2 12 3 13 4 14 5 15 6 16 7 17 8 18 9 19 10 20 11
REMARK SMILES IDX 9 12 8 13 7 14 6 15 5 16 4 17 3 18 2 19 1 20
REMARK H PARENT
REMARK Flexibility Score: inf
ROOT
ATOM      1  C   UNL     1      -4.706  -9.207  -7.594  1.00  0.00     0.000 C 
ENDROOT
BRANCH   1   2
ATOM      2  C   UNL     1      -4.368 -10.409  -8.491  1.00  0.00     0.000 C 
BRANCH   2   3
ATOM      3  C   UNL     1      -5.501 -10.749  -9.474  1.00  0.00     0.000 C 
BRANCH   3   4
ATOM      4  C   UNL     1      -6.873 -10.833  -8.786  1.00  0.00     0.000 C 
BRANCH   4   5
ATOM      5  C   UNL     1      -7.973 -10.088  -9.562  1.00  0.00     0.000 C 
BRANCH   5   6
ATOM      6  C   UNL     1      -8.740  -9.078  -8.690  1.00  0.00     0.000 C 
BRANCH   6   7
ATOM      7  C   UNL     1      -7.906  -7.877  -8.200  1.00  0.00     0.006 C 
BRANCH   7   8
ATOM      8  C   UNL     1      -8.397  -6.511  -8.705  1.00  0.00     0.053 C 
BRANCH   8   9
ATOM      9  C   UNL     1      -7.807  -5.379  -7.922  1.00  0.00     0.041 C 
ATOM     10  O   UNL     1      -8.537  -4.683  -7.168  1.00  0.00    -0.550 OA
ATOM     11  O   UNL     1      -6.459  -5.070  -8.052  1.00  0.00    -0.550 OA
ENDBRANCH   8   9
ENDBRANCH   7   8
ENDBRANCH   6   7
ENDBRANCH   5   6
ENDBRANCH   4   5
ENDBRANCH   3   4
ENDBRANCH   2   3
ENDBRANCH   1   2
BRANCH   1  12
ATOM     12  C   UNL     1      -3.984  -9.257  -6.239  1.00  0.00     0.000 C 
BRANCH  12  13
ATOM     13  C   UNL     1      -4.833  -9.987  -5.192  1.00  0.00    -0.000 C 
BRANCH  13  14
ATOM     14  C   UNL     1      -6.236  -9.378  -5.096  1.00  0.00    -0.000 C 
BRANCH  14  15
ATOM     15  C   UNL     1      -6.636  -9.142  -3.635  1.00  0.00    -0.000 C 
BRANCH  15  16
ATOM     16  C   UNL     1      -7.409 -10.345  -3.073  1.00  0.00    -0.000 C 
BRANCH  16  17
ATOM     17  C   UNL     1      -8.614  -9.918  -2.212  1.00  0.00    -0.000 C 
BRANCH  17  18
ATOM     18  C   UNL     1      -9.949  -9.865  -2.980  1.00  0.00    -0.000 C 
BRANCH  18  19
ATOM     19  C   UNL     1     -10.110  -8.623  -3.880  1.00  0.00    -0.003 C 
ATOM     20  C   UNL     1     -10.106  -8.970  -5.369  1.00  0.00     0.004 C 
ENDBRANCH  18  19
ENDBRANCH  17  18
ENDBRANCH  16  17
ENDBRANCH  15  16
ENDBRANCH  14  15
ENDBRANCH  13  14
ENDBRANCH  12  13
ENDBRANCH   1  12
TORSDOF 16
ENDMDL
MODEL 9
REMARK VINA RESULT:    -2.971      2.760      5.343
REMARK INTER + INTRA:          -8.262
REMARK INTER:                  -6.224
REMARK INTRA:                  -2.038
REMARK UNBOUND:                -2.513
REMARK SMILES CCCCCCCCCCCCCCCCCC(=O)[O-]
REMARK SMILES IDX 10 1 11 2 12 3 13 4 14 5 15 6 16 7 17 8 18 9 19 10 20 11
REMARK SMILES IDX 9 12 8 13 7 14 6 15 5 16 4 17 3 18 2 19 1 20
REMARK H PARENT
REMARK Flexibility Score: inf
ROOT
ATOM      1  C   UNL     1       9.101  -6.930   9.195  1.00  0.00     0.000 C 
ENDROOT
BRANCH   1   2
ATOM      2  C   UNL     1       9.463  -8.090   8.253  1.00  0.00     0.000 C 
BRANCH   2   3
ATOM      3  C   UNL     1       8.225  -8.850   7.749  1.00  0.00     0.000 C 
BRANCH   3   4
ATOM      4  C   UNL     1       7.973  -8.636   6.248  1.00  0.00     0.000 C 
BRANCH   4   5
ATOM      5  C   UNL     1       6.511  -8.274   5.936  1.00  0.00     0.000 C 
BRANCH   5   6
ATOM      6  C   UNL     1       5.515  -9.338   6.430  1.00  0.00     0.000 C 
BRANCH   6   7
ATOM      7  C   UNL     1       5.126 -10.402   5.383  1.00  0.00     0.006 C 
BRANCH   7   8
ATOM      8  C   UNL     1       3.833 -10.094   4.611  1.00  0.00     0.053 C 
BRANCH   8   9
ATOM      9  C   UNL     1       4.104  -9.750   3.179  1.00  0.00     0.041 C 
ATOM     10  O   UNL     1       5.179  -9.181   2.856  1.00  0.00    -0.550 OA
ATOM     11  O   UNL     1       3.152 -10.028   2.204  1.00  0.00    -0.550 OA
ENDBRANCH   8   9
ENDBRANCH   7   8
ENDBRANCH   6   7
ENDBRANCH   5   6
ENDBRANCH   4   5
ENDBRANCH   3   4
ENDBRANCH   2   3
ENDBRANCH   1   2
BRANCH   1  12
ATOM     12  C   UNL     1       7.839  -6.177   8.749  1.00  0.00     0.000 C 
BRANCH  12  13
ATOM     13  C   UNL     1       7.150  -5.507   9.943  1.00  0.00    -0.000 C 
BRANCH  13  14
ATOM     14  C   UNL     1       5.674  -5.910  10.027  1.00  0.00    -0.000 C 
BRANCH  14  15
ATOM     15  C   UNL     1       5.456  -7.322   9.468  1.00  0.00    -0.000 C 
BRANCH  15  16
ATOM     16  C   UNL     1       4.139  -7.922   9.983  1.00  0.00    -0.000 C 
BRANCH  16  17
ATOM     17  C   UNL     1       2.907  -7.336   9.266  1.00  0.00    -0.000 C 
BRANCH  17  18
ATOM     18  C   UNL     1       2.259  -8.292   8.247  1.00  0.00    -0.000 C 
BRANCH  18  19
ATOM     19  C   UNL     1       1.953  -9.697   8.806  1.00  0.00    -0.003 C 
ATOM     20  C   UNL     1       2.162 -10.801   7.769  1.00  0.00     0.004 C 
ENDBRANCH  18  19
ENDBRANCH  17  18
ENDBRANCH  16  17
ENDBRANCH  15  16
ENDBRANCH  14  15
ENDBRANCH  13  14
ENDBRANCH  12  13
ENDBRANCH   1  12
TORSDOF 16
ENDMDL
