MODEL 1
REMARK VINA RESULT:    -4.012      0.000      0.000
REMARK INTER + INTRA:          -4.703
REMARK INTER:                  -4.482
REMARK INTRA:                  -0.222
REMARK UNBOUND:                -0.222
REMARK SMILES CC(C)c1ccc(C(=O)[O-])cc1
REMARK SMILES IDX 7 1 6 2 11 3 5 4 12 5 4 6 8 7 9 8 10 9 2 10 1 11 3 12
REMARK H PARENT
REMARK Flexibility Score: inf
ROOT
ATOM      1  C   UNL     1       8.560  28.251  35.690  1.00  0.00    -0.003 A 
ATOM      2  C   UNL     1       7.314  28.371  35.051  1.00  0.00     0.010 A 
ATOM      3  C   UNL     1       9.726  28.243  34.907  1.00  0.00     0.010 A 
ATOM      4  C   UNL     1       7.236  28.480  33.660  1.00  0.00     0.004 A 
ATOM      5  C   UNL     1       9.649  28.352  33.516  1.00  0.00     0.004 A 
ATOM      6  C   UNL     1       8.402  28.472  32.876  1.00  0.00    -0.045 A 
ENDROOT
BRANCH   1   7
ATOM      7  C   UNL     1       8.647  28.135  37.162  1.00  0.00     0.071 C 
ATOM      8  O   UNL     1       7.614  28.243  37.875  1.00  0.00    -0.545 OA
ATOM      9  O   UNL     1       9.871  27.906  37.780  1.00  0.00    -0.545 OA
ENDBRANCH   1   7
BRANCH   6  10
ATOM     10  C   UNL     1       8.302  28.591  31.367  1.00  0.00     0.013 C 
ATOM     11  C   UNL     1       6.937  28.109  30.863  1.00  0.00     0.012 C 
ATOM     12  C   UNL     1       9.444  27.835  30.676  1.00  0.00     0.012 C 
ENDBRANCH   6  10
TORSDOF 2
ENDMDL
MODEL 2
REMARK VINA RESULT:    -3.982     18.659     19.759
REMARK INTER + INTRA:          -4.669
REMARK INTER:                  -4.457
REMARK INTRA:                  -0.212
REMARK UNBOUND:                -0.222
REMARK SMILES CC(C)c1ccc(C(=O)[O-])cc1
REMARK SMILES IDX 7 1 6 2 11 3 5 4 12 5 4 6 8 7 9 8 10 9 2 10 1 11 3 12
REMARK H PARENT
REMARK Flexibility Score: inf
ROOT
ATOM      1  C   UNL     1      23.465  25.131  46.235  1.00  0.00    -0.003 A 
ATOM      2  C   UNL     1      23.507  25.509  44.882  1.00  0.00     0.010 A 
ATOM      3  C   UNL     1      24.323  24.112  46.683  1.00  0.00     0.010 A 
ATOM      4  C   UNL     1      24.387  24.882  43.997  1.00  0.00     0.004 A 
ATOM      5  C   UNL     1      25.205  23.486  45.798  1.00  0.00     0.004 A 
ATOM      6  C   UNL     1      25.247  23.864  44.443  1.00  0.00    -0.045 A 
ENDROOT
BRANCH   1   7
ATOM      7  C   UNL     1      22.535  25.791  47.176  1.00  0.00     0.071 C 
ATOM      8  O   UNL     1      21.549  26.448  46.747  1.00  0.00    -0.545 OA
ATOM      9  O   UNL     1      22.734  25.695  48.549  1.00  0.00    -0.545 OA
ENDBRANCH   1   7
BRANCH   6  10
ATOM     10  C   UNL     1      26.198  23.192  43.470  1.00  0.00     0.013 C 
ATOM     11  C   UNL     1      26.596  24.148  42.338  1.00  0.00     0.012 C 
ATOM     12  C   UNL     1      25.596  21.896  42.913  1.00  0.00     0.012 C 
ENDBRANCH   6  10
TORSDOF 2
ENDMDL
MODEL 3
REMARK VINA RESULT:    -3.981     14.557     15.256
REMARK INTER + INTRA:          -4.668
REMARK INTER:                  -4.449
REMARK INTRA:                  -0.219
REMARK UNBOUND:                -0.222
REMARK SMILES CC(C)c1ccc(C(=O)[O-])cc1
REMARK SMILES IDX 7 1 6 2 11 3 5 4 12 5 4 6 8 7 9 8 10 9 2 10 1 11 3 12
REMARK H PARENT
REMARK Flexibility Score: inf
ROOT
ATOM      1  C   UNL     1      11.460  34.853  46.750  1.00  0.00    -0.003 A 
ATOM      2  C   UNL     1      10.866  36.043  46.297  1.00  0.00     0.010 A 
ATOM      3  C   UNL     1      10.690  33.953  47.505  1.00  0.00     0.010 A 
ATOM      4  C   UNL     1       9.530  36.327  46.592  1.00  0.00     0.004 A 
ATOM      5  C   UNL     1       9.354  34.236  47.800  1.00  0.00     0.004 A 
ATOM      6  C   UNL     1       8.758  35.428  47.347  1.00  0.00    -0.045 A 
ENDROOT
BRANCH   1   7
ATOM      7  C   UNL     1      12.874  34.548  46.439  1.00  0.00     0.071 C 
ATOM      8  O   UNL     1      13.576  33.875  47.241  1.00  0.00    -0.545 OA
ATOM      9  O   UNL     1      13.450  35.001  45.257  1.00  0.00    -0.545 OA
ENDBRANCH   1   7
BRANCH   6  10
ATOM     10  C   UNL     1       7.309  35.748  47.660  1.00  0.00     0.013 C 
ATOM     11  C   UNL     1       7.068  37.263  47.671  1.00  0.00     0.012 C 
ATOM     12  C   UNL     1       6.875  35.111  48.986  1.00  0.00     0.012 C 
ENDBRANCH   6  10
TORSDOF 2
ENDMDL
MODEL 4
REMARK VINA RESULT:    -3.789     12.467     14.188
REMARK INTER + INTRA:          -4.453
REMARK INTER:                  -4.236
REMARK INTRA:                  -0.217
REMARK UNBOUND:                -0.222
REMARK SMILES CC(C)c1ccc(C(=O)[O-])cc1
REMARK SMILES IDX 7 1 6 2 11 3 5 4 12 5 4 6 8 7 9 8 10 9 2 10 1 11 3 12
REMARK H PARENT
REMARK Flexibility Score: inf
ROOT
ATOM      1  C   UNL     1       9.739  36.740  43.705  1.00  0.00    -0.003 A 
ATOM      2  C   UNL     1      10.977  36.922  44.344  1.00  0.00     0.010 A 
ATOM      3  C   UNL     1       8.766  35.939  44.325  1.00  0.00     0.010 A 
ATOM      4  C   UNL     1      11.236  36.316  45.576  1.00  0.00     0.004 A 
ATOM      5  C   UNL     1       9.024  35.333  45.557  1.00  0.00     0.004 A 
ATOM      6  C   UNL     1      10.264  35.515  46.197  1.00  0.00    -0.045 A 
ENDROOT
BRANCH   1   7
ATOM      7  C   UNL     1       9.461  37.379  42.400  1.00  0.00     0.071 C 
ATOM      8  O   UNL     1       8.394  37.128  41.779  1.00  0.00    -0.545 OA
ATOM      9  O   UNL     1      10.373  38.267  41.841  1.00  0.00    -0.545 OA
ENDBRANCH   1   7
BRANCH   6  10
ATOM     10  C   UNL     1      10.559  34.863  47.535  1.00  0.00     0.013 C 
ATOM     11  C   UNL     1      11.791  33.955  47.448  1.00  0.00     0.012 C 
ATOM     12  C   UNL     1       9.339  34.091  48.055  1.00  0.00     0.012 C 
ENDBRANCH   6  10
TORSDOF 2
ENDMDL
MODEL 5
REMARK VINA RESULT:    -3.750     12.331     13.495
REMARK INTER + INTRA:          -4.410
REMARK INTER:                  -4.192
REMARK INTRA:                  -0.218
REMARK UNBOUND:                -0.222
REMARK SMILES CC(C)c1ccc(C(=O)[O-])cc1
REMARK SMILES IDX 7 1 6 2 11 3 5 4 12 5 4 6 8 7 9 8 10 9 2 10 1 11 3 12
REMARK H PARENT
REMARK Flexibility Score: inf
ROOT
ATOM      1  C   UNL     1       9.872  35.181  46.154  1.00  0.00    -0.003 A 
ATOM      2  C   UNL     1      10.980  35.995  45.865  1.00  0.00     0.010 A 
ATOM      3  C   UNL     1       8.718  35.298  45.361  1.00  0.00     0.010 A 
ATOM      4  C   UNL     1      10.936  36.906  44.807  1.00  0.00     0.004 A 
ATOM      5  C   UNL     1       8.673  36.209  44.302  1.00  0.00     0.004 A 
ATOM      6  C   UNL     1       9.783  37.024  44.013  1.00  0.00    -0.045 A 
ENDROOT
BRANCH   1   7
ATOM      7  C   UNL     1       9.914  34.215  47.273  1.00  0.00     0.071 C 
ATOM      8  O   UNL     1       8.896  34.020  47.990  1.00  0.00    -0.545 OA
ATOM      9  O   UNL     1      11.079  33.509  47.551  1.00  0.00    -0.545 OA
ENDBRANCH   1   7
BRANCH   6  10
ATOM     10  C   UNL     1       9.748  38.018  42.867  1.00  0.00     0.013 C 
ATOM     11  C   UNL     1       8.894  37.492  41.706  1.00  0.00     0.012 C 
ATOM     12  C   UNL     1      11.165  38.368  42.396  1.00  0.00     0.012 C 
ENDBRANCH   6  10
TORSDOF 2
ENDMDL
MODEL 6
REMARK VINA RESULT:    -3.750      3.138      5.241
REMARK INTER + INTRA:          -4.410
REMARK INTER:                  -4.190
REMARK INTRA:                  -0.220
REMARK UNBOUND:                -0.222
REMARK SMILES CC(C)c1ccc(C(=O)[O-])cc1
REMARK SMILES IDX 7 1 6 2 11 3 5 4 12 5 4 6 8 7 9 8 10 9 2 10 1 11 3 12
REMARK H PARENT
REMARK Flexibility Score: inf
ROOT
ATOM      1  C   UNL     1       8.648  28.381  32.491  1.00  0.00    -0.003 A 
ATOM      2  C   UNL     1       9.862  28.322  33.196  1.00  0.00     0.010 A 
ATOM      3  C   UNL     1       7.444  28.442  33.214  1.00  0.00     0.010 A 
ATOM      4  C   UNL     1       9.872  28.324  34.593  1.00  0.00     0.004 A 
ATOM      5  C   UNL     1       7.455  28.445  34.611  1.00  0.00     0.004 A 
ATOM      6  C   UNL     1       8.670  28.385  35.318  1.00  0.00    -0.045 A 
ENDROOT
BRANCH   1   7
ATOM      7  C   UNL     1       8.632  28.378  31.012  1.00  0.00     0.071 C 
ATOM      8  O   UNL     1       7.638  28.827  30.382  1.00  0.00    -0.545 OA
ATOM      9  O   UNL     1       9.715  27.880  30.296  1.00  0.00    -0.545 OA
ENDBRANCH   1   7
BRANCH   6  10
ATOM     10  C   UNL     1       8.696  28.387  36.835  1.00  0.00     0.013 C 
ATOM     11  C   UNL     1       9.855  27.536  37.368  1.00  0.00     0.012 C 
ATOM     12  C   UNL     1       7.355  27.917  37.411  1.00  0.00     0.012 C 
ENDBRANCH   6  10
TORSDOF 2
ENDMDL
MODEL 7
REMARK VINA RESULT:    -3.719      7.921     10.004
REMARK INTER + INTRA:          -4.376
REMARK INTER:                  -4.166
REMARK INTRA:                  -0.210
REMARK UNBOUND:                -0.222
REMARK SMILES CC(C)c1ccc(C(=O)[O-])cc1
REMARK SMILES IDX 7 1 6 2 11 3 5 4 12 5 4 6 8 7 9 8 10 9 2 10 1 11 3 12
REMARK H PARENT
REMARK Flexibility Score: inf
ROOT
ATOM      1  C   UNL     1       9.995  34.003  38.751  1.00  0.00    -0.003 A 
ATOM      2  C   UNL     1       9.127  34.291  39.817  1.00  0.00     0.010 A 
ATOM      3  C   UNL     1      11.298  34.529  38.773  1.00  0.00     0.010 A 
ATOM      4  C   UNL     1       9.552  35.088  40.883  1.00  0.00     0.004 A 
ATOM      5  C   UNL     1      11.724  35.325  39.840  1.00  0.00     0.004 A 
ATOM      6  C   UNL     1      10.855  35.614  40.908  1.00  0.00    -0.045 A 
ENDROOT
BRANCH   1   7
ATOM      7  C   UNL     1       9.549  33.161  37.620  1.00  0.00     0.071 C 
ATOM      8  O   UNL     1       9.280  31.942  37.795  1.00  0.00    -0.545 OA
ATOM      9  O   UNL     1       9.421  33.702  36.345  1.00  0.00    -0.545 OA
ENDBRANCH   1   7
BRANCH   6  10
ATOM     10  C   UNL     1      11.303  36.477  42.072  1.00  0.00     0.013 C 
ATOM     11  C   UNL     1      10.214  36.563  43.148  1.00  0.00     0.012 C 
ATOM     12  C   UNL     1      11.721  37.874  41.597  1.00  0.00     0.012 C 
ENDBRANCH   6  10
TORSDOF 2
ENDMDL
MODEL 8
REMARK VINA RESULT:    -3.719     12.820     14.302
REMARK INTER + INTRA:          -4.375
REMARK INTER:                  -4.166
REMARK INTRA:                  -0.209
REMARK UNBOUND:                -0.222
REMARK SMILES CC(C)c1ccc(C(=O)[O-])cc1
REMARK SMILES IDX 7 1 6 2 11 3 5 4 12 5 4 6 8 7 9 8 10 9 2 10 1 11 3 12
REMARK H PARENT
REMARK Flexibility Score: inf
ROOT
ATOM      1  C   UNL     1       9.687  36.824  43.848  1.00  0.00    -0.003 A 
ATOM      2  C   UNL     1       8.719  36.015  44.467  1.00  0.00     0.010 A 
ATOM      3  C   UNL     1      10.974  36.894  44.407  1.00  0.00     0.010 A 
ATOM      4  C   UNL     1       9.031  35.293  45.622  1.00  0.00     0.004 A 
ATOM      5  C   UNL     1      11.287  36.171  45.561  1.00  0.00     0.004 A 
ATOM      6  C   UNL     1      10.318  35.361  46.183  1.00  0.00    -0.045 A 
ENDROOT
BRANCH   1   7
ATOM      7  C   UNL     1       9.361  37.591  42.626  1.00  0.00     0.071 C 
ATOM      8  O   UNL     1      10.277  38.086  41.917  1.00  0.00    -0.545 OA
ATOM      9  O   UNL     1       8.038  37.776  42.242  1.00  0.00    -0.545 OA
ENDBRANCH   1   7
BRANCH   6  10
ATOM     10  C   UNL     1      10.643  34.571  47.436  1.00  0.00     0.013 C 
ATOM     11  C   UNL     1      10.446  35.425  48.694  1.00  0.00     0.012 C 
ATOM     12  C   UNL     1      12.064  33.997  47.375  1.00  0.00     0.012 C 
ENDBRANCH   6  10
TORSDOF 2
ENDMDL
MODEL 9
REMARK VINA RESULT:    -3.611      9.804     11.248
REMARK INTER + INTRA:          -4.255
REMARK INTER:                  -4.044
REMARK INTRA:                  -0.211
REMARK UNBOUND:                -0.222
REMARK SMILES CC(C)c1ccc(C(=O)[O-])cc1
REMARK SMILES IDX 7 1 6 2 11 3 5 4 12 5 4 6 8 7 9 8 10 9 2 10 1 11 3 12
REMARK H PARENT
REMARK Flexibility Score: inf
ROOT
ATOM      1  C   UNL     1      10.351  36.536  43.123  1.00  0.00    -0.003 A 
ATOM      2  C   UNL     1      11.587  36.787  42.501  1.00  0.00     0.010 A 
ATOM      3  C   UNL     1       9.258  36.148  42.331  1.00  0.00     0.010 A 
ATOM      4  C   UNL     1      11.725  36.651  41.118  1.00  0.00     0.004 A 
ATOM      5  C   UNL     1       9.397  36.011  40.947  1.00  0.00     0.004 A 
ATOM      6  C   UNL     1      10.633  36.262  40.324  1.00  0.00    -0.045 A 
ENDROOT
BRANCH   1   7
ATOM      7  C   UNL     1      10.200  36.679  44.588  1.00  0.00     0.071 C 
ATOM      8  O   UNL     1       9.203  37.278  45.073  1.00  0.00    -0.545 OA
ATOM      9  O   UNL     1      11.156  36.153  45.450  1.00  0.00    -0.545 OA
ENDBRANCH   1   7
BRANCH   6  10
ATOM     10  C   UNL     1      10.798  36.119  38.823  1.00  0.00     0.013 C 
ATOM     11  C   UNL     1       9.445  35.895  38.137  1.00  0.00     0.012 C 
ATOM     12  C   UNL     1      11.784  34.995  38.480  1.00  0.00     0.012 C 
ENDBRANCH   6  10
TORSDOF 2
ENDMDL
