MODEL 1
REMARK VINA RESULT:    -4.519      0.000      0.000
REMARK INTER + INTRA:         -10.223
REMARK INTER:                  -7.953
REMARK INTRA:                  -2.270
REMARK UNBOUND:                -2.270
REMARK SMILES CCCCCCCCCCCCCCC(=O)[O-]
REMARK SMILES IDX 9 1 10 2 11 3 12 4 13 5 14 6 15 7 16 8 17 9 8 10 7 11 6 12
REMARK SMILES IDX 5 13 4 14 3 15 2 16 1 17
REMARK H PARENT
REMARK Flexibility Score: inf
ROOT
ATOM      1  C   UNL     1      63.324  29.935  25.099  1.00  0.00     0.000 C 
ENDROOT
BRANCH   1   2
ATOM      2  C   UNL     1      64.335  29.913  23.938  1.00  0.00     0.000 C 
BRANCH   2   3
ATOM      3  C   UNL     1      65.402  28.819  24.096  1.00  0.00     0.000 C 
BRANCH   3   4
ATOM      4  C   UNL     1      65.140  27.976  25.352  1.00  0.00     0.000 C 
BRANCH   4   5
ATOM      5  C   UNL     1      65.069  26.467  25.055  1.00  0.00     0.006 C 
BRANCH   5   6
ATOM      6  C   UNL     1      65.111  26.112  23.561  1.00  0.00     0.053 C 
BRANCH   6   7
ATOM      7  C   UNL     1      63.741  25.888  22.998  1.00  0.00     0.041 C 
ATOM      8  O   UNL     1      62.970  25.042  23.523  1.00  0.00    -0.550 OA
ATOM      9  O   UNL     1      63.305  26.637  21.912  1.00  0.00    -0.550 OA
ENDBRANCH   6   7
ENDBRANCH   5   6
ENDBRANCH   4   5
ENDBRANCH   3   4
ENDBRANCH   2   3
ENDBRANCH   1   2
BRANCH   1  10
ATOM     10  C   UNL     1      61.855  29.695  24.694  1.00  0.00     0.000 C 
BRANCH  10  11
ATOM     11  C   UNL     1      61.448  28.217  24.544  1.00  0.00    -0.000 C 
BRANCH  11  12
ATOM     12  C   UNL     1      60.823  27.639  25.824  1.00  0.00    -0.000 C 
BRANCH  12  13
ATOM     13  C   UNL     1      61.837  26.849  26.668  1.00  0.00    -0.000 C 
BRANCH  13  14
ATOM     14  C   UNL     1      61.947  27.382  28.107  1.00  0.00    -0.000 C 
BRANCH  14  15
ATOM     15  C   UNL     1      61.241  28.737  28.300  1.00  0.00    -0.000 C 
BRANCH  15  16
ATOM     16  C   UNL     1      62.182  29.930  28.544  1.00  0.00    -0.003 C 
ATOM     17  C   UNL     1      63.620  29.509  28.841  1.00  0.00     0.004 C 
ENDBRANCH  15  16
ENDBRANCH  14  15
ENDBRANCH  13  14
ENDBRANCH  12  13
ENDBRANCH  11  12
ENDBRANCH  10  11
ENDBRANCH   1  10
TORSDOF 13
ENDMDL
MODEL 2
REMARK VINA RESULT:    -4.437      0.941      2.638
REMARK INTER + INTRA:         -10.078
REMARK INTER:                  -8.169
REMARK INTRA:                  -1.909
REMARK UNBOUND:                -2.270
REMARK SMILES CCCCCCCCCCCCCCC(=O)[O-]
REMARK SMILES IDX 9 1 10 2 11 3 12 4 13 5 14 6 15 7 16 8 17 9 8 10 7 11 6 12
REMARK SMILES IDX 5 13 4 14 3 15 2 16 1 17
REMARK H PARENT
REMARK Flexibility Score: inf
ROOT
ATOM      1  C   UNL     1      64.320  30.071  26.992  1.00  0.00     0.000 C 
ENDROOT
BRANCH   1   2
ATOM      2  C   UNL     1      65.808  29.714  26.831  1.00  0.00     0.000 C 
BRANCH   2   3
ATOM      3  C   UNL     1      66.126  29.078  25.470  1.00  0.00     0.000 C 
BRANCH   3   4
ATOM      4  C   UNL     1      64.938  28.249  24.962  1.00  0.00     0.000 C 
BRANCH   4   5
ATOM      5  C   UNL     1      65.200  26.733  25.016  1.00  0.00     0.006 C 
BRANCH   5   6
ATOM      6  C   UNL     1      65.145  26.031  23.650  1.00  0.00     0.053 C 
BRANCH   6   7
ATOM      7  C   UNL     1      63.744  25.922  23.130  1.00  0.00     0.041 C 
ATOM      8  O   UNL     1      62.917  25.159  23.693  1.00  0.00    -0.550 OA
ATOM      9  O   UNL     1      63.345  26.689  22.042  1.00  0.00    -0.550 OA
ENDBRANCH   6   7
ENDBRANCH   5   6
ENDBRANCH   4   5
ENDBRANCH   3   4
ENDBRANCH   2   3
ENDBRANCH   1   2
BRANCH   1  10
ATOM     10  C   UNL     1      63.696  29.685  28.349  1.00  0.00     0.000 C 
BRANCH  10  11
ATOM     11  C   UNL     1      62.196  30.003  28.496  1.00  0.00    -0.000 C 
BRANCH  11  12
ATOM     12  C   UNL     1      61.319  28.740  28.505  1.00  0.00    -0.000 C 
BRANCH  12  13
ATOM     13  C   UNL     1      62.139  27.453  28.321  1.00  0.00    -0.000 C 
BRANCH  13  14
ATOM     14  C   UNL     1      62.051  26.898  26.888  1.00  0.00    -0.000 C 
BRANCH  14  15
ATOM     15  C   UNL     1      60.660  27.088  26.257  1.00  0.00    -0.000 C 
BRANCH  15  16
ATOM     16  C   UNL     1      60.668  27.652  24.825  1.00  0.00    -0.003 C 
ATOM     17  C   UNL     1      61.564  28.880  24.670  1.00  0.00     0.004 C 
ENDBRANCH  15  16
ENDBRANCH  14  15
ENDBRANCH  13  14
ENDBRANCH  12  13
ENDBRANCH  11  12
ENDBRANCH  10  11
ENDBRANCH   1  10
TORSDOF 13
ENDMDL
MODEL 3
REMARK VINA RESULT:    -4.380      2.217      4.972
REMARK INTER + INTRA:          -9.979
REMARK INTER:                  -8.033
REMARK INTRA:                  -1.946
REMARK UNBOUND:                -2.270
REMARK SMILES CCCCCCCCCCCCCCC(=O)[O-]
REMARK SMILES IDX 9 1 10 2 11 3 12 4 13 5 14 6 15 7 16 8 17 9 8 10 7 11 6 12
REMARK SMILES IDX 5 13 4 14 3 15 2 16 1 17
REMARK H PARENT
REMARK Flexibility Score: inf
ROOT
ATOM      1  C   UNL     1      64.926  29.810  25.221  1.00  0.00     0.000 C 
ENDROOT
BRANCH   1   2
ATOM      2  C   UNL     1      64.531  29.148  26.554  1.00  0.00     0.000 C 
BRANCH   2   3
ATOM      3  C   UNL     1      64.552  30.127  27.736  1.00  0.00     0.000 C 
BRANCH   3   4
ATOM      4  C   UNL     1      63.127  30.549  28.124  1.00  0.00     0.000 C 
BRANCH   4   5
ATOM      5  C   UNL     1      62.349  29.433  28.846  1.00  0.00     0.006 C 
BRANCH   5   6
ATOM      6  C   UNL     1      61.148  28.886  28.059  1.00  0.00     0.053 C 
BRANCH   6   7
ATOM      7  C   UNL     1      61.039  27.396  28.164  1.00  0.00     0.041 C 
ATOM      8  O   UNL     1      61.745  26.656  27.430  1.00  0.00    -0.550 OA
ATOM      9  O   UNL     1      60.181  26.825  29.096  1.00  0.00    -0.550 OA
ENDBRANCH   6   7
ENDBRANCH   5   6
ENDBRANCH   4   5
ENDBRANCH   3   4
ENDBRANCH   2   3
ENDBRANCH   1   2
BRANCH   1  10
ATOM     10  C   UNL     1      63.819  29.835  24.148  1.00  0.00     0.000 C 
BRANCH  10  11
ATOM     11  C   UNL     1      62.392  29.582  24.670  1.00  0.00    -0.000 C 
BRANCH  11  12
ATOM     12  C   UNL     1      61.812  28.240  24.191  1.00  0.00    -0.000 C 
BRANCH  12  13
ATOM     13  C   UNL     1      62.863  27.361  23.494  1.00  0.00    -0.000 C 
BRANCH  13  14
ATOM     14  C   UNL     1      63.436  26.278  24.424  1.00  0.00    -0.000 C 
BRANCH  14  15
ATOM     15  C   UNL     1      64.951  26.075  24.244  1.00  0.00    -0.000 C 
BRANCH  15  16
ATOM     16  C   UNL     1      65.458  26.215  22.798  1.00  0.00    -0.003 C 
ATOM     17  C   UNL     1      66.320  27.458  22.583  1.00  0.00     0.004 C 
ENDBRANCH  15  16
ENDBRANCH  14  15
ENDBRANCH  13  14
ENDBRANCH  12  13
ENDBRANCH  11  12
ENDBRANCH  10  11
ENDBRANCH   1  10
TORSDOF 13
ENDMDL
MODEL 4
REMARK VINA RESULT:    -4.337     12.190     14.462
REMARK INTER + INTRA:          -9.903
REMARK INTER:                  -7.977
REMARK INTRA:                  -1.926
REMARK UNBOUND:                -2.270
REMARK SMILES CCCCCCCCCCCCCCC(=O)[O-]
REMARK SMILES IDX 9 1 10 2 11 3 12 4 13 5 14 6 15 7 16 8 17 9 8 10 7 11 6 12
REMARK SMILES IDX 5 13 4 14 3 15 2 16 1 17
REMARK H PARENT
REMARK Flexibility Score: inf
ROOT
ATOM      1  C   UNL     1      64.485  30.491  10.871  1.00  0.00     0.000 C 
ENDROOT
BRANCH   1   2
ATOM      2  C   UNL     1      64.980  31.948  10.865  1.00  0.00     0.000 C 
BRANCH   2   3
ATOM      3  C   UNL     1      64.514  32.742  12.095  1.00  0.00     0.000 C 
BRANCH   3   4
ATOM      4  C   UNL     1      63.247  32.120  12.700  1.00  0.00     0.000 C 
BRANCH   4   5
ATOM      5  C   UNL     1      62.428  33.124  13.532  1.00  0.00     0.006 C 
BRANCH   5   6
ATOM      6  C   UNL     1      60.906  33.004  13.353  1.00  0.00     0.053 C 
BRANCH   6   7
ATOM      7  C   UNL     1      60.282  32.144  14.409  1.00  0.00     0.041 C 
ATOM      8  O   UNL     1      59.031  32.023  14.470  1.00  0.00    -0.550 OA
ATOM      9  O   UNL     1      61.086  31.450  15.306  1.00  0.00    -0.550 OA
ENDBRANCH   6   7
ENDBRANCH   5   6
ENDBRANCH   4   5
ENDBRANCH   3   4
ENDBRANCH   2   3
ENDBRANCH   1   2
BRANCH   1  10
ATOM     10  C   UNL     1      63.919  29.986   9.528  1.00  0.00     0.000 C 
BRANCH  10  11
ATOM     11  C   UNL     1      63.167  28.644   9.595  1.00  0.00    -0.000 C 
BRANCH  11  12
ATOM     12  C   UNL     1      61.701  28.760   9.146  1.00  0.00    -0.000 C 
BRANCH  12  13
ATOM     13  C   UNL     1      61.090  30.130   9.483  1.00  0.00    -0.000 C 
BRANCH  13  14
ATOM     14  C   UNL     1      60.584  30.208  10.934  1.00  0.00    -0.000 C 
BRANCH  14  15
ATOM     15  C   UNL     1      60.045  28.863  11.453  1.00  0.00    -0.000 C 
BRANCH  15  16
ATOM     16  C   UNL     1      60.492  28.491  12.878  1.00  0.00    -0.003 C 
ATOM     17  C   UNL     1      61.988  28.700  13.110  1.00  0.00     0.004 C 
ENDBRANCH  15  16
ENDBRANCH  14  15
ENDBRANCH  13  14
ENDBRANCH  12  13
ENDBRANCH  11  12
ENDBRANCH  10  11
ENDBRANCH   1  10
TORSDOF 13
ENDMDL
MODEL 5
REMARK VINA RESULT:    -4.316      1.750      3.017
REMARK INTER + INTRA:          -9.866
REMARK INTER:                  -7.948
REMARK INTRA:                  -1.918
REMARK UNBOUND:                -2.270
REMARK SMILES CCCCCCCCCCCCCCC(=O)[O-]
REMARK SMILES IDX 9 1 10 2 11 3 12 4 13 5 14 6 15 7 16 8 17 9 8 10 7 11 6 12
REMARK SMILES IDX 5 13 4 14 3 15 2 16 1 17
REMARK H PARENT
REMARK Flexibility Score: inf
ROOT
ATOM      1  C   UNL     1      60.653  27.316  25.218  1.00  0.00     0.000 C 
ENDROOT
BRANCH   1   2
ATOM      2  C   UNL     1      61.518  28.481  24.705  1.00  0.00     0.000 C 
BRANCH   2   3
ATOM      3  C   UNL     1      62.616  28.026  23.733  1.00  0.00     0.000 C 
BRANCH   3   4
ATOM      4  C   UNL     1      63.036  26.577  24.020  1.00  0.00     0.000 C 
BRANCH   4   5
ATOM      5  C   UNL     1      64.485  26.463  24.526  1.00  0.00     0.006 C 
BRANCH   5   6
ATOM      6  C   UNL     1      65.425  25.688  23.590  1.00  0.00     0.053 C 
BRANCH   6   7
ATOM      7  C   UNL     1      65.908  26.534  22.452  1.00  0.00     0.041 C 
ATOM      8  O   UNL     1      66.079  26.026  21.313  1.00  0.00    -0.550 OA
ATOM      9  O   UNL     1      66.138  27.891  22.643  1.00  0.00    -0.550 OA
ENDBRANCH   6   7
ENDBRANCH   5   6
ENDBRANCH   4   5
ENDBRANCH   3   4
ENDBRANCH   2   3
ENDBRANCH   1   2
BRANCH   1  10
ATOM     10  C   UNL     1      60.564  27.192  26.753  1.00  0.00     0.000 C 
BRANCH  10  11
ATOM     11  C   UNL     1      61.877  26.801  27.457  1.00  0.00    -0.000 C 
BRANCH  11  12
ATOM     12  C   UNL     1      62.241  27.753  28.609  1.00  0.00    -0.000 C 
BRANCH  12  13
ATOM     13  C   UNL     1      61.613  29.146  28.440  1.00  0.00    -0.000 C 
BRANCH  13  14
ATOM     14  C   UNL     1      62.633  30.199  27.973  1.00  0.00    -0.000 C 
BRANCH  14  15
ATOM     15  C   UNL     1      64.064  29.641  27.868  1.00  0.00    -0.000 C 
BRANCH  15  16
ATOM     16  C   UNL     1      64.612  29.525  26.434  1.00  0.00    -0.003 C 
ATOM     17  C   UNL     1      66.133  29.642  26.363  1.00  0.00     0.004 C 
ENDBRANCH  15  16
ENDBRANCH  14  15
ENDBRANCH  13  14
ENDBRANCH  12  13
ENDBRANCH  11  12
ENDBRANCH  10  11
ENDBRANCH   1  10
TORSDOF 13
ENDMDL
MODEL 6
REMARK VINA RESULT:    -4.313      1.807      5.031
REMARK INTER + INTRA:          -9.861
REMARK INTER:                  -8.333
REMARK INTRA:                  -1.527
REMARK UNBOUND:                -2.270
REMARK SMILES CCCCCCCCCCCCCCC(=O)[O-]
REMARK SMILES IDX 9 1 10 2 11 3 12 4 13 5 14 6 15 7 16 8 17 9 8 10 7 11 6 12
REMARK SMILES IDX 5 13 4 14 3 15 2 16 1 17
REMARK H PARENT
REMARK Flexibility Score: inf
ROOT
ATOM      1  C   UNL     1      62.739  30.440  28.368  1.00  0.00     0.000 C 
ENDROOT
BRANCH   1   2
ATOM      2  C   UNL     1      62.289  29.112  29.002  1.00  0.00     0.000 C 
BRANCH   2   3
ATOM      3  C   UNL     1      60.787  28.844  28.824  1.00  0.00     0.000 C 
BRANCH   3   4
ATOM      4  C   UNL     1      60.547  27.476  28.170  1.00  0.00     0.000 C 
BRANCH   4   5
ATOM      5  C   UNL     1      61.817  26.893  27.522  1.00  0.00     0.006 C 
BRANCH   5   6
ATOM      6  C   UNL     1      61.737  26.741  25.995  1.00  0.00     0.053 C 
BRANCH   6   7
ATOM      7  C   UNL     1      60.418  27.199  25.453  1.00  0.00     0.041 C 
ATOM      8  O   UNL     1      60.306  28.342  24.937  1.00  0.00    -0.550 OA
ATOM      9  O   UNL     1      59.319  26.350  25.489  1.00  0.00    -0.550 OA
ENDBRANCH   6   7
ENDBRANCH   5   6
ENDBRANCH   4   5
ENDBRANCH   3   4
ENDBRANCH   2   3
ENDBRANCH   1   2
BRANCH   1  10
ATOM     10  C   UNL     1      63.771  30.307  27.230  1.00  0.00     0.000 C 
BRANCH  10  11
ATOM     11  C   UNL     1      63.176  30.183  25.814  1.00  0.00    -0.000 C 
BRANCH  11  12
ATOM     12  C   UNL     1      64.173  29.599  24.799  1.00  0.00    -0.000 C 
BRANCH  12  13
ATOM     13  C   UNL     1      64.865  28.329  25.319  1.00  0.00    -0.000 C 
BRANCH  13  14
ATOM     14  C   UNL     1      65.564  27.539  24.199  1.00  0.00    -0.000 C 
BRANCH  14  15
ATOM     15  C   UNL     1      65.155  26.055  24.167  1.00  0.00    -0.000 C 
BRANCH  15  16
ATOM     16  C   UNL     1      63.860  25.755  23.390  1.00  0.00    -0.003 C 
ATOM     17  C   UNL     1      63.576  26.771  22.285  1.00  0.00     0.004 C 
ENDBRANCH  15  16
ENDBRANCH  14  15
ENDBRANCH  13  14
ENDBRANCH  12  13
ENDBRANCH  11  12
ENDBRANCH  10  11
ENDBRANCH   1  10
TORSDOF 13
ENDMDL
MODEL 7
REMARK VINA RESULT:    -4.265     11.844     14.230
REMARK INTER + INTRA:          -9.776
REMARK INTER:                  -7.814
REMARK INTRA:                  -1.963
REMARK UNBOUND:                -2.270
REMARK SMILES CCCCCCCCCCCCCCC(=O)[O-]
REMARK SMILES IDX 9 1 10 2 11 3 12 4 13 5 14 6 15 7 16 8 17 9 8 10 7 11 6 12
REMARK SMILES IDX 5 13 4 14 3 15 2 16 1 17
REMARK H PARENT
REMARK Flexibility Score: inf
ROOT
ATOM      1  C   UNL     1      64.335  30.693  11.416  1.00  0.00     0.000 C 
ENDROOT
BRANCH   1   2
ATOM      2  C   UNL     1      64.128  32.121  11.951  1.00  0.00     0.000 C 
BRANCH   2   3
ATOM      3  C   UNL     1      63.161  32.178  13.142  1.00  0.00     0.000 C 
BRANCH   3   4
ATOM      4  C   UNL     1      61.720  32.418  12.668  1.00  0.00     0.000 C 
BRANCH   4   5
ATOM      5  C   UNL     1      60.735  32.630  13.832  1.00  0.00     0.006 C 
BRANCH   5   6
ATOM      6  C   UNL     1      61.048  33.847  14.715  1.00  0.00     0.053 C 
BRANCH   6   7
ATOM      7  C   UNL     1      61.525  33.446  16.077  1.00  0.00     0.041 C 
ATOM      8  O   UNL     1      62.015  34.305  16.856  1.00  0.00    -0.550 OA
ATOM      9  O   UNL     1      61.399  32.127  16.498  1.00  0.00    -0.550 OA
ENDBRANCH   6   7
ENDBRANCH   5   6
ENDBRANCH   4   5
ENDBRANCH   3   4
ENDBRANCH   2   3
ENDBRANCH   1   2
BRANCH   1  10
ATOM     10  C   UNL     1      63.993  30.496   9.924  1.00  0.00     0.000 C 
BRANCH  10  11
ATOM     11  C   UNL     1      63.715  29.042   9.501  1.00  0.00    -0.000 C 
BRANCH  11  12
ATOM     12  C   UNL     1      62.216  28.700   9.496  1.00  0.00    -0.000 C 
BRANCH  12  13
ATOM     13  C   UNL     1      61.327  29.954   9.448  1.00  0.00    -0.000 C 
BRANCH  13  14
ATOM     14  C   UNL     1      60.220  29.933  10.516  1.00  0.00    -0.000 C 
BRANCH  14  15
ATOM     15  C   UNL     1      60.242  28.656  11.376  1.00  0.00    -0.000 C 
BRANCH  15  16
ATOM     16  C   UNL     1      60.553  28.882  12.867  1.00  0.00    -0.003 C 
ATOM     17  C   UNL     1      62.024  28.657  13.212  1.00  0.00     0.004 C 
ENDBRANCH  15  16
ENDBRANCH  14  15
ENDBRANCH  13  14
ENDBRANCH  12  13
ENDBRANCH  11  12
ENDBRANCH  10  11
ENDBRANCH   1  10
TORSDOF 13
ENDMDL
MODEL 8
REMARK VINA RESULT:    -4.235     11.509     14.089
REMARK INTER + INTRA:          -9.724
REMARK INTER:                  -7.996
REMARK INTRA:                  -1.728
REMARK UNBOUND:                -2.270
REMARK SMILES CCCCCCCCCCCCCCC(=O)[O-]
REMARK SMILES IDX 9 1 10 2 11 3 12 4 13 5 14 6 15 7 16 8 17 9 8 10 7 11 6 12
REMARK SMILES IDX 5 13 4 14 3 15 2 16 1 17
REMARK H PARENT
REMARK Flexibility Score: inf
ROOT
ATOM      1  C   UNL     1      62.348  30.289  13.840  1.00  0.00     0.000 C 
ENDROOT
BRANCH   1   2
ATOM      2  C   UNL     1      62.856  31.434  12.945  1.00  0.00     0.000 C 
BRANCH   2   3
ATOM      3  C   UNL     1      61.965  32.683  13.012  1.00  0.00     0.000 C 
BRANCH   3   4
ATOM      4  C   UNL     1      60.833  32.495  14.032  1.00  0.00     0.000 C 
BRANCH   4   5
ATOM      5  C   UNL     1      60.804  33.600  15.104  1.00  0.00     0.006 C 
BRANCH   5   6
ATOM      6  C   UNL     1      62.182  33.964  15.677  1.00  0.00     0.053 C 
BRANCH   6   7
ATOM      7  C   UNL     1      62.165  34.044  17.173  1.00  0.00     0.041 C 
ATOM      8  O   UNL     1      62.542  35.094  17.756  1.00  0.00    -0.550 OA
ATOM      9  O   UNL     1      61.702  32.969  17.922  1.00  0.00    -0.550 OA
ENDBRANCH   6   7
ENDBRANCH   5   6
ENDBRANCH   4   5
ENDBRANCH   3   4
ENDBRANCH   2   3
ENDBRANCH   1   2
BRANCH   1  10
ATOM     10  C   UNL     1      61.964  28.995  13.094  1.00  0.00     0.000 C 
BRANCH  10  11
ATOM     11  C   UNL     1      60.453  28.785  12.878  1.00  0.00    -0.000 C 
BRANCH  11  12
ATOM     12  C   UNL     1      60.064  28.746  11.391  1.00  0.00    -0.000 C 
BRANCH  12  13
ATOM     13  C   UNL     1      60.397  30.058  10.661  1.00  0.00    -0.000 C 
BRANCH  13  14
ATOM     14  C   UNL     1      61.147  29.822   9.339  1.00  0.00    -0.000 C 
BRANCH  14  15
ATOM     15  C   UNL     1      62.036  28.566   9.370  1.00  0.00    -0.000 C 
BRANCH  15  16
ATOM     16  C   UNL     1      63.520  28.812   9.044  1.00  0.00    -0.003 C 
ATOM     17  C   UNL     1      64.182  29.815   9.988  1.00  0.00     0.004 C 
ENDBRANCH  15  16
ENDBRANCH  14  15
ENDBRANCH  13  14
ENDBRANCH  12  13
ENDBRANCH  11  12
ENDBRANCH  10  11
ENDBRANCH   1  10
TORSDOF 13
ENDMDL
MODEL 9
REMARK VINA RESULT:    -4.185     11.766     14.213
REMARK INTER + INTRA:          -9.636
REMARK INTER:                  -7.672
REMARK INTRA:                  -1.964
REMARK UNBOUND:                -2.270
REMARK SMILES CCCCCCCCCCCCCCC(=O)[O-]
REMARK SMILES IDX 9 1 10 2 11 3 12 4 13 5 14 6 15 7 16 8 17 9 8 10 7 11 6 12
REMARK SMILES IDX 5 13 4 14 3 15 2 16 1 17
REMARK H PARENT
REMARK Flexibility Score: inf
ROOT
ATOM      1  C   UNL     1      59.985  29.060  12.386  1.00  0.00     0.000 C 
ENDROOT
BRANCH   1   2
ATOM      2  C   UNL     1      61.237  29.016  13.280  1.00  0.00     0.000 C 
BRANCH   2   3
ATOM      3  C   UNL     1      61.583  30.381  13.891  1.00  0.00     0.000 C 
BRANCH   3   4
ATOM      4  C   UNL     1      60.520  31.429  13.528  1.00  0.00     0.000 C 
BRANCH   4   5
ATOM      5  C   UNL     1      61.107  32.843  13.364  1.00  0.00     0.006 C 
BRANCH   5   6
ATOM      6  C   UNL     1      60.823  33.789  14.541  1.00  0.00     0.053 C 
BRANCH   6   7
ATOM      7  C   UNL     1      61.818  33.622  15.648  1.00  0.00     0.041 C 
ATOM      8  O   UNL     1      61.543  32.903  16.644  1.00  0.00    -0.550 OA
ATOM      9  O   UNL     1      63.061  34.237  15.565  1.00  0.00    -0.550 OA
ENDBRANCH   6   7
ENDBRANCH   5   6
ENDBRANCH   4   5
ENDBRANCH   3   4
ENDBRANCH   2   3
ENDBRANCH   1   2
BRANCH   1  10
ATOM     10  C   UNL     1      60.237  28.775  10.891  1.00  0.00     0.000 C 
BRANCH  10  11
ATOM     11  C   UNL     1      60.741  29.977  10.069  1.00  0.00    -0.000 C 
BRANCH  11  12
ATOM     12  C   UNL     1      61.872  29.601   9.097  1.00  0.00    -0.000 C 
BRANCH  12  13
ATOM     13  C   UNL     1      63.072  28.960   9.812  1.00  0.00    -0.000 C 
BRANCH  13  14
ATOM     14  C   UNL     1      64.218  29.958  10.051  1.00  0.00    -0.000 C 
BRANCH  14  15
ATOM     15  C   UNL     1      64.304  30.433  11.512  1.00  0.00    -0.000 C 
BRANCH  15  16
ATOM     16  C   UNL     1      64.310  31.961  11.700  1.00  0.00    -0.003 C 
ATOM     17  C   UNL     1      64.758  32.391  13.096  1.00  0.00     0.004 C 
ENDBRANCH  15  16
ENDBRANCH  14  15
ENDBRANCH  13  14
ENDBRANCH  12  13
ENDBRANCH  11  12
ENDBRANCH  10  11
ENDBRANCH   1  10
TORSDOF 13
ENDMDL
