MODEL 1
REMARK VINA RESULT:    27.264      0.000      0.000
REMARK INTER + INTRA:          52.328
REMARK INTER:                  44.796
REMARK INTRA:                   7.532
REMARK UNBOUND:                 7.532
REMARK SMILES C[C@H]1O[C@H](OC[C@@H]2O[C@H](Oc3c(-c4ccc(O)c(O)c4)oc4cc(O)cc(O)c4c3=O)[C@H](O)[C@@H](O)[C@@H]2O)[C@@H](O)[C@@H](O)[C@H]1O
REMARK SMILES IDX 7 1 36 2 34 3 32 4 9 5 8 6 6 7 5 8 4 9 1 10 2 11 42 12 3 13
REMARK SMILES IDX 40 14 38 15 43 16 41 18 39 20 37 22 35 24 10 26 11 27 12 28
REMARK SMILES IDX 30 29 21 30 29 31 31 32 22 33 27 34 23 35 26 36 24 37 13 38
REMARK SMILES IDX 20 39 14 40 18 41 15 42 16 43 19 44 17 46 28 48 25 50 33 52
REMARK H PARENT 43 17 41 19 39 21 37 23 35 25 19 45 17 47 28 49 25 51 33 53
REMARK Flexibility Score: inf
ROOT
ATOM      1  C   UNL     1      25.964  19.309  56.071  1.00  0.00     0.180 C 
ATOM      2  C   UNL     1      25.283  19.819  54.749  1.00  0.00     0.177 C 
ATOM      3  C   UNL     1      23.925  20.470  55.055  1.00  0.00     0.180 C 
ATOM      4  C   UNL     1      24.071  21.593  56.113  1.00  0.00     0.214 C 
ATOM      5  C   UNL     1      25.351  21.407  56.969  1.00  0.00     0.339 C 
ATOM      6  O   UNL     1      25.567  20.033  57.234  1.00  0.00    -0.332 OA
ENDROOT
BRANCH   1   7
ATOM      7  C   UNL     1      25.704  17.813  56.360  1.00  0.00     0.198 C 
BRANCH   7   8
ATOM      8  O   UNL     1      25.076  17.689  57.627  1.00  0.00    -0.347 OA
BRANCH   8   9
ATOM      9  C   UNL     1      25.951  17.177  58.619  1.00  0.00     0.281 C 
ATOM     10  C   UNL     1      26.793  14.155  56.748  1.00  0.00     0.041 C 
ATOM     11  C   UNL     1      27.001  15.569  57.302  1.00  0.00     0.150 C 
ATOM     12  C   UNL     1      28.459  15.842  57.765  1.00  0.00     0.174 C 
ATOM     13  O   UNL     1      26.121  15.785  58.383  1.00  0.00    -0.344 OA
ATOM     14  C   UNL     1      28.506  17.011  58.786  1.00  0.00     0.179 C 
ATOM     15  C   UNL     1      27.303  17.957  58.600  1.00  0.00     0.202 C 
BRANCH  12  16
ATOM     16  O   UNL     1      29.031  14.689  58.335  1.00  0.00    -0.388 OA
ATOM     17  H   UNL     1      28.758  14.667  59.294  1.00  0.00     0.211 HD
ENDBRANCH  12  16
BRANCH  14  18
ATOM     18  O   UNL     1      28.517  16.517  60.107  1.00  0.00    -0.387 OA
ATOM     19  H   UNL     1      28.783  15.566  60.057  1.00  0.00     0.211 HD
ENDBRANCH  14  18
BRANCH  15  20
ATOM     20  O   UNL     1      27.306  18.944  59.601  1.00  0.00    -0.385 OA
ATOM     21  H   UNL     1      27.271  19.830  59.157  1.00  0.00     0.211 HD
ENDBRANCH  15  20
ENDBRANCH   8   9
ENDBRANCH   7   8
ENDBRANCH   1   7
BRANCH   2  22
ATOM     22  O   UNL     1      25.111  18.795  53.801  1.00  0.00    -0.387 OA
ATOM     23  H   UNL     1      25.684  19.026  53.016  1.00  0.00     0.211 HD
ENDBRANCH   2  22
BRANCH   3  24
ATOM     24  O   UNL     1      23.314  20.961  53.880  1.00  0.00    -0.387 OA
ATOM     25  H   UNL     1      23.555  21.926  53.803  1.00  0.00     0.211 HD
ENDBRANCH   3  24
BRANCH   5  26
ATOM     26  O   UNL     1      25.223  22.116  58.202  1.00  0.00    -0.454 OA
BRANCH  26  27
ATOM     27  C   UNL     1      25.699  21.596  59.408  1.00  0.00     0.214 A 
ATOM     28  C   UNL     1      27.051  21.223  59.551  1.00  0.00     0.180 A 
ATOM     29  C   UNL     1      24.836  21.455  60.500  1.00  0.00     0.239 A 
ATOM     30  O   UNL     1      27.468  20.685  60.699  1.00  0.00    -0.452 OA
ATOM     31  C   UNL     1      25.320  20.910  61.705  1.00  0.00     0.111 A 
ATOM     32  O   UNL     1      23.642  21.830  60.396  1.00  0.00    -0.285 OA
ATOM     33  C   UNL     1      26.681  20.516  61.753  1.00  0.00     0.146 A 
ATOM     34  C   UNL     1      24.506  20.734  62.847  1.00  0.00     0.134 A 
ATOM     35  C   UNL     1      27.213  19.958  62.921  1.00  0.00     0.094 A 
ATOM     36  C   UNL     1      25.059  20.180  64.010  1.00  0.00     0.093 A 
ATOM     37  C   UNL     1      26.403  19.799  64.048  1.00  0.00     0.123 A 
BRANCH  28  38
ATOM     38  C   UNL     1      28.045  21.419  58.466  1.00  0.00     0.025 A 
ATOM     39  C   UNL     1      27.717  21.229  57.110  1.00  0.00     0.062 A 
ATOM     40  C   UNL     1      29.337  21.870  58.792  1.00  0.00     0.016 A 
ATOM     41  C   UNL     1      28.664  21.451  56.106  1.00  0.00     0.158 A 
ATOM     42  C   UNL     1      30.280  22.111  57.787  1.00  0.00     0.051 A 
ATOM     43  C   UNL     1      29.955  21.890  56.446  1.00  0.00     0.157 A 
BRANCH  41  44
ATOM     44  O   UNL     1      28.305  21.237  54.776  1.00  0.00    -0.504 OA
ATOM     45  H   UNL     1      27.771  21.912  54.246  1.00  0.00     0.293 HD
ENDBRANCH  41  44
BRANCH  43  46
ATOM     46  O   UNL     1      30.912  22.110  55.457  1.00  0.00    -0.504 OA
ATOM     47  H   UNL     1      30.703  21.969  54.464  1.00  0.00     0.293 HD
ENDBRANCH  43  46
ENDBRANCH  28  38
BRANCH  34  48
ATOM     48  O   UNL     1      23.165  21.113  62.847  1.00  0.00    -0.507 OA
ATOM     49  H   UNL     1      22.423  20.424  62.900  1.00  0.00     0.293 HD
ENDBRANCH  34  48
BRANCH  37  50
ATOM     50  O   UNL     1      26.918  19.271  65.226  1.00  0.00    -0.508 OA
ATOM     51  H   UNL     1      27.783  18.717  65.237  1.00  0.00     0.293 HD
ENDBRANCH  37  50
ENDBRANCH  26  27
ENDBRANCH   5  26
BRANCH   4  52
ATOM     52  O   UNL     1      22.880  21.671  56.862  1.00  0.00    -0.384 OA
ATOM     53  H   UNL     1      22.089  21.590  56.258  1.00  0.00     0.211 HD
ENDBRANCH   4  52
TORSDOF 16
ENDMDL
MODEL 2
REMARK VINA RESULT:    28.041      1.691      2.760
REMARK INTER + INTRA:          53.606
REMARK INTER:                  53.970
REMARK INTRA:                  -0.364
REMARK UNBOUND:                 7.532
REMARK SMILES C[C@H]1O[C@H](OC[C@@H]2O[C@H](Oc3c(-c4ccc(O)c(O)c4)oc4cc(O)cc(O)c4c3=O)[C@H](O)[C@@H](O)[C@@H]2O)[C@@H](O)[C@@H](O)[C@H]1O
REMARK SMILES IDX 7 1 36 2 34 3 32 4 9 5 8 6 6 7 5 8 4 9 1 10 2 11 42 12 3 13
REMARK SMILES IDX 40 14 38 15 43 16 41 18 39 20 37 22 35 24 10 26 11 27 12 28
REMARK SMILES IDX 30 29 21 30 29 31 31 32 22 33 27 34 23 35 26 36 24 37 13 38
REMARK SMILES IDX 20 39 14 40 18 41 15 42 16 43 19 44 17 46 28 48 25 50 33 52
REMARK H PARENT 43 17 41 19 39 21 37 23 35 25 19 45 17 47 28 49 25 51 33 53
REMARK Flexibility Score: inf
ROOT
ATOM      1  C   UNL     1      26.497  18.478  55.319  1.00  0.00     0.180 C 
ATOM      2  C   UNL     1      25.431  18.274  54.182  1.00  0.00     0.177 C 
ATOM      3  C   UNL     1      24.124  19.007  54.526  1.00  0.00     0.180 C 
ATOM      4  C   UNL     1      24.388  20.506  54.823  1.00  0.00     0.214 C 
ATOM      5  C   UNL     1      25.861  20.753  55.243  1.00  0.00     0.339 C 
ATOM      6  O   UNL     1      26.323  19.687  56.054  1.00  0.00    -0.332 OA
ENDROOT
BRANCH   1   7
ATOM      7  C   UNL     1      26.528  17.325  56.347  1.00  0.00     0.198 C 
BRANCH   7   8
ATOM      8  O   UNL     1      27.155  17.782  57.536  1.00  0.00    -0.347 OA
BRANCH   8   9
ATOM      9  C   UNL     1      27.805  16.738  58.243  1.00  0.00     0.281 C 
ATOM     10  C   UNL     1      28.470  18.752  61.216  1.00  0.00     0.041 C 
ATOM     11  C   UNL     1      27.743  17.712  60.357  1.00  0.00     0.150 C 
ATOM     12  C   UNL     1      27.305  16.451  61.154  1.00  0.00     0.174 C 
ATOM     13  O   UNL     1      28.574  17.321  59.287  1.00  0.00    -0.344 OA
ATOM     14  C   UNL     1      27.094  15.242  60.204  1.00  0.00     0.179 C 
ATOM     15  C   UNL     1      26.755  15.713  58.775  1.00  0.00     0.202 C 
BRANCH  12  16
ATOM     16  O   UNL     1      28.256  16.123  62.139  1.00  0.00    -0.388 OA
ATOM     17  H   UNL     1      27.911  16.468  63.009  1.00  0.00     0.211 HD
ENDBRANCH  12  16
BRANCH  14  18
ATOM     18  O   UNL     1      28.247  14.429  60.169  1.00  0.00    -0.387 OA
ATOM     19  H   UNL     1      28.346  14.109  59.239  1.00  0.00     0.211 HD
ENDBRANCH  14  18
BRANCH  15  20
ATOM     20  O   UNL     1      26.675  14.607  57.909  1.00  0.00    -0.385 OA
ATOM     21  H   UNL     1      27.590  14.244  57.792  1.00  0.00     0.211 HD
ENDBRANCH  15  20
ENDBRANCH   8   9
ENDBRANCH   7   8
ENDBRANCH   1   7
BRANCH   2  22
ATOM     22  O   UNL     1      25.157  16.917  53.935  1.00  0.00    -0.387 OA
ATOM     23  H   UNL     1      26.016  16.494  53.651  1.00  0.00     0.211 HD
ENDBRANCH   2  22
BRANCH   3  24
ATOM     24  O   UNL     1      23.166  18.859  53.498  1.00  0.00    -0.387 OA
ATOM     25  H   UNL     1      22.560  19.650  53.543  1.00  0.00     0.211 HD
ENDBRANCH   3  24
BRANCH   5  26
ATOM     26  O   UNL     1      25.965  21.981  55.964  1.00  0.00    -0.454 OA
BRANCH  26  27
ATOM     27  C   UNL     1      26.247  22.015  57.332  1.00  0.00     0.214 A 
ATOM     28  C   UNL     1      27.577  22.035  57.796  1.00  0.00     0.180 A 
ATOM     29  C   UNL     1      25.202  22.048  58.262  1.00  0.00     0.239 A 
ATOM     30  O   UNL     1      27.817  22.020  59.109  1.00  0.00    -0.452 OA
ATOM     31  C   UNL     1      25.495  22.061  59.639  1.00  0.00     0.111 A 
ATOM     32  O   UNL     1      24.014  22.079  57.855  1.00  0.00    -0.285 OA
ATOM     33  C   UNL     1      26.858  22.032  60.025  1.00  0.00     0.146 A 
ATOM     34  C   UNL     1      24.492  22.090  60.635  1.00  0.00     0.134 A 
ATOM     35  C   UNL     1      27.208  22.033  61.381  1.00  0.00     0.094 A 
ATOM     36  C   UNL     1      24.862  22.096  61.987  1.00  0.00     0.093 A 
ATOM     37  C   UNL     1      26.210  22.073  62.356  1.00  0.00     0.123 A 
BRANCH  28  38
ATOM     38  C   UNL     1      28.737  22.086  56.870  1.00  0.00     0.025 A 
ATOM     39  C   UNL     1      30.065  22.067  57.337  1.00  0.00     0.062 A 
ATOM     40  C   UNL     1      28.508  22.089  55.483  1.00  0.00     0.016 A 
ATOM     41  C   UNL     1      31.139  22.084  56.442  1.00  0.00     0.158 A 
ATOM     42  C   UNL     1      29.581  22.086  54.585  1.00  0.00     0.051 A 
ATOM     43  C   UNL     1      30.896  22.099  55.058  1.00  0.00     0.157 A 
BRANCH  41  44
ATOM     44  O   UNL     1      32.440  22.080  56.944  1.00  0.00    -0.504 OA
ATOM     45  H   UNL     1      33.064  21.295  56.817  1.00  0.00     0.293 HD
ENDBRANCH  41  44
BRANCH  43  46
ATOM     46  O   UNL     1      31.956  22.122  54.153  1.00  0.00    -0.504 OA
ATOM     47  H   UNL     1      32.480  22.980  53.957  1.00  0.00     0.293 HD
ENDBRANCH  43  46
ENDBRANCH  28  38
BRANCH  34  48
ATOM     48  O   UNL     1      23.139  22.124  60.301  1.00  0.00    -0.507 OA
ATOM     49  H   UNL     1      22.729  21.425  59.692  1.00  0.00     0.293 HD
ENDBRANCH  34  48
BRANCH  37  50
ATOM     50  O   UNL     1      26.535  22.099  63.707  1.00  0.00    -0.508 OA
ATOM     51  H   UNL     1      27.170  21.407  64.123  1.00  0.00     0.293 HD
ENDBRANCH  37  50
ENDBRANCH  26  27
ENDBRANCH   5  26
BRANCH   4  52
ATOM     52  O   UNL     1      23.436  20.959  55.757  1.00  0.00    -0.384 OA
ATOM     53  H   UNL     1      23.122  21.874  55.510  1.00  0.00     0.211 HD
ENDBRANCH   4  52
TORSDOF 16
ENDMDL
MODEL 3
REMARK VINA RESULT:    29.115      2.185      6.365
REMARK INTER + INTRA:          55.370
REMARK INTER:                  51.177
REMARK INTRA:                   4.193
REMARK UNBOUND:                 7.532
REMARK SMILES C[C@H]1O[C@H](OC[C@@H]2O[C@H](Oc3c(-c4ccc(O)c(O)c4)oc4cc(O)cc(O)c4c3=O)[C@H](O)[C@@H](O)[C@@H]2O)[C@@H](O)[C@@H](O)[C@H]1O
REMARK SMILES IDX 7 1 36 2 34 3 32 4 9 5 8 6 6 7 5 8 4 9 1 10 2 11 42 12 3 13
REMARK SMILES IDX 40 14 38 15 43 16 41 18 39 20 37 22 35 24 10 26 11 27 12 28
REMARK SMILES IDX 30 29 21 30 29 31 31 32 22 33 27 34 23 35 26 36 24 37 13 38
REMARK SMILES IDX 20 39 14 40 18 41 15 42 16 43 19 44 17 46 28 48 25 50 33 52
REMARK H PARENT 43 17 41 19 39 21 37 23 35 25 19 45 17 47 28 49 25 51 33 53
REMARK Flexibility Score: inf
ROOT
ATOM      1  C   UNL     1      28.224  20.230  61.699  1.00  0.00     0.180 C 
ATOM      2  C   UNL     1      28.414  18.751  61.204  1.00  0.00     0.177 C 
ATOM      3  C   UNL     1      27.615  18.504  59.914  1.00  0.00     0.180 C 
ATOM      4  C   UNL     1      27.983  19.541  58.823  1.00  0.00     0.214 C 
ATOM      5  C   UNL     1      28.586  20.830  59.442  1.00  0.00     0.339 C 
ATOM      6  O   UNL     1      27.921  21.149  60.651  1.00  0.00    -0.332 OA
ENDROOT
BRANCH   1   7
ATOM      7  C   UNL     1      27.118  20.384  62.768  1.00  0.00     0.198 C 
BRANCH   7   8
ATOM      8  O   UNL     1      25.850  20.355  62.129  1.00  0.00    -0.347 OA
BRANCH   8   9
ATOM      9  C   UNL     1      24.785  20.169  63.046  1.00  0.00     0.281 C 
ATOM     10  C   UNL     1      25.501  16.635  63.629  1.00  0.00     0.041 C 
ATOM     11  C   UNL     1      25.495  18.137  63.934  1.00  0.00     0.150 C 
ATOM     12  C   UNL     1      25.229  18.461  65.431  1.00  0.00     0.174 C 
ATOM     13  O   UNL     1      24.519  18.775  63.140  1.00  0.00    -0.344 OA
ATOM     14  C   UNL     1      24.693  19.908  65.598  1.00  0.00     0.179 C 
ATOM     15  C   UNL     1      25.144  20.804  64.426  1.00  0.00     0.202 C 
BRANCH  12  16
ATOM     16  O   UNL     1      24.316  17.547  65.990  1.00  0.00    -0.388 OA
ATOM     17  H   UNL     1      24.165  17.822  66.936  1.00  0.00     0.211 HD
ENDBRANCH  12  16
BRANCH  14  18
ATOM     18  O   UNL     1      23.284  19.911  65.676  1.00  0.00    -0.387 OA
ATOM     19  H   UNL     1      23.020  20.773  66.083  1.00  0.00     0.211 HD
ENDBRANCH  14  18
BRANCH  15  20
ATOM     20  O   UNL     1      24.560  22.078  64.540  1.00  0.00    -0.385 OA
ATOM     21  H   UNL     1      23.783  22.005  65.152  1.00  0.00     0.211 HD
ENDBRANCH  15  20
ENDBRANCH   8   9
ENDBRANCH   7   8
ENDBRANCH   1   7
BRANCH   2  22
ATOM     22  O   UNL     1      28.044  17.804  62.175  1.00  0.00    -0.387 OA
ATOM     23  H   UNL     1      27.081  17.591  62.022  1.00  0.00     0.211 HD
ENDBRANCH   2  22
BRANCH   3  24
ATOM     24  O   UNL     1      27.801  17.186  59.439  1.00  0.00    -0.387 OA
ATOM     25  H   UNL     1      27.014  16.651  59.739  1.00  0.00     0.211 HD
ENDBRANCH   3  24
BRANCH   5  26
ATOM     26  O   UNL     1      28.460  21.918  58.526  1.00  0.00    -0.454 OA
BRANCH  26  27
ATOM     27  C   UNL     1      27.604  21.863  57.423  1.00  0.00     0.214 A 
ATOM     28  C   UNL     1      28.119  21.781  56.113  1.00  0.00     0.180 A 
ATOM     29  C   UNL     1      26.218  21.869  57.609  1.00  0.00     0.239 A 
ATOM     30  O   UNL     1      27.280  21.777  55.076  1.00  0.00    -0.452 OA
ATOM     31  C   UNL     1      25.364  21.834  56.490  1.00  0.00     0.111 A 
ATOM     32  O   UNL     1      25.752  21.893  58.776  1.00  0.00    -0.285 OA
ATOM     33  C   UNL     1      25.961  21.801  55.205  1.00  0.00     0.146 A 
ATOM     34  C   UNL     1      23.955  21.842  56.601  1.00  0.00     0.134 A 
ATOM     35  C   UNL     1      25.160  21.775  54.056  1.00  0.00     0.094 A 
ATOM     36  C   UNL     1      23.170  21.810  55.440  1.00  0.00     0.093 A 
ATOM     37  C   UNL     1      23.769  21.772  54.178  1.00  0.00     0.123 A 
BRANCH  28  38
ATOM     38  C   UNL     1      29.575  21.686  55.840  1.00  0.00     0.025 A 
ATOM     39  C   UNL     1      30.113  21.944  54.565  1.00  0.00     0.062 A 
ATOM     40  C   UNL     1      30.454  21.392  56.898  1.00  0.00     0.016 A 
ATOM     41  C   UNL     1      31.492  21.878  54.343  1.00  0.00     0.158 A 
ATOM     42  C   UNL     1      31.836  21.345  56.682  1.00  0.00     0.051 A 
ATOM     43  C   UNL     1      32.358  21.572  55.406  1.00  0.00     0.157 A 
BRANCH  41  44
ATOM     44  O   UNL     1      31.985  22.125  53.062  1.00  0.00    -0.504 OA
ATOM     45  H   UNL     1      32.972  22.086  52.848  1.00  0.00     0.293 HD
ENDBRANCH  41  44
BRANCH  43  46
ATOM     46  O   UNL     1      33.734  21.496  55.199  1.00  0.00    -0.504 OA
ATOM     47  H   UNL     1      34.308  20.772  55.642  1.00  0.00     0.293 HD
ENDBRANCH  43  46
ENDBRANCH  28  38
BRANCH  34  48
ATOM     48  O   UNL     1      23.326  21.869  57.845  1.00  0.00    -0.507 OA
ATOM     49  H   UNL     1      22.728  21.109  58.150  1.00  0.00     0.293 HD
ENDBRANCH  34  48
BRANCH  37  50
ATOM     50  O   UNL     1      22.956  21.722  53.052  1.00  0.00    -0.508 OA
ATOM     51  H   UNL     1      23.345  21.581  52.111  1.00  0.00     0.293 HD
ENDBRANCH  37  50
ENDBRANCH  26  27
ENDBRANCH   5  26
BRANCH   4  52
ATOM     52  O   UNL     1      26.856  19.763  58.007  1.00  0.00    -0.384 OA
ATOM     53  H   UNL     1      27.047  19.472  57.071  1.00  0.00     0.211 HD
ENDBRANCH   4  52
TORSDOF 16
ENDMDL
