MODEL 1
REMARK VINA RESULT:    -4.709      0.000      0.000
REMARK INTER + INTRA:         -10.997
REMARK INTER:                  -8.838
REMARK INTRA:                  -2.159
REMARK UNBOUND:                -2.159
REMARK SMILES O=C([O-])CCCCCCCCCCCCCCC(=O)[O-]
REMARK SMILES IDX 10 1 9 2 8 3 7 4 6 5 5 6 4 7 2 8 1 9 3 10 11 11 12 12 13 13
REMARK SMILES IDX 14 14 15 15 16 16 17 17 18 18 19 19 20 20
REMARK H PARENT
REMARK Flexibility Score: inf
ROOT
ATOM      1  C   UNL     1      16.934 -33.085  23.884  1.00  0.00     0.000 C 
ENDROOT
BRANCH   1   2
ATOM      2  C   UNL     1      15.584 -33.293  23.187  1.00  0.00     0.000 C 
BRANCH   2   3
ATOM      3  C   UNL     1      14.422 -33.050  24.164  1.00  0.00     0.000 C 
BRANCH   3   4
ATOM      4  C   UNL     1      13.516 -31.884  23.734  1.00  0.00     0.000 C 
BRANCH   4   5
ATOM      5  C   UNL     1      13.776 -31.352  22.312  1.00  0.00     0.000 C 
BRANCH   5   6
ATOM      6  C   UNL     1      13.673 -29.816  22.194  1.00  0.00     0.006 C 
BRANCH   6   7
ATOM      7  C   UNL     1      13.239 -29.158  23.511  1.00  0.00     0.053 C 
BRANCH   7   8
ATOM      8  C   UNL     1      11.866 -28.580  23.380  1.00  0.00     0.041 C 
ATOM      9  O   UNL     1      11.460 -27.717  24.204  1.00  0.00    -0.550 OA
ATOM     10  O   UNL     1      11.013 -29.035  22.382  1.00  0.00    -0.550 OA
ENDBRANCH   7   8
ENDBRANCH   6   7
ENDBRANCH   5   6
ENDBRANCH   4   5
ENDBRANCH   3   4
ENDBRANCH   2   3
ENDBRANCH   1   2
BRANCH   1  11
ATOM     11  C   UNL     1      17.232 -31.593  24.077  1.00  0.00     0.000 C 
BRANCH  11  12
ATOM     12  C   UNL     1      18.185 -31.079  22.988  1.00  0.00     0.000 C 
BRANCH  12  13
ATOM     13  C   UNL     1      17.443 -30.496  21.774  1.00  0.00     0.000 C 
BRANCH  13  14
ATOM     14  C   UNL     1      17.772 -31.243  20.469  1.00  0.00     0.000 C 
BRANCH  14  15
ATOM     15  C   UNL     1      18.781 -32.383  20.679  1.00  0.00     0.000 C 
BRANCH  15  16
ATOM     16  C   UNL     1      18.179 -33.770  20.391  1.00  0.00     0.006 C 
BRANCH  16  17
ATOM     17  C   UNL     1      17.175 -33.736  19.232  1.00  0.00     0.053 C 
BRANCH  17  18
ATOM     18  C   UNL     1      15.925 -34.496  19.559  1.00  0.00     0.041 C 
ATOM     19  O   UNL     1      14.823 -33.894  19.652  1.00  0.00    -0.550 OA
ATOM     20  O   UNL     1      15.983 -35.866  19.785  1.00  0.00    -0.550 OA
ENDBRANCH  17  18
ENDBRANCH  16  17
ENDBRANCH  15  16
ENDBRANCH  14  15
ENDBRANCH  13  14
ENDBRANCH  12  13
ENDBRANCH  11  12
ENDBRANCH   1  11
TORSDOF 15
ENDMDL
MODEL 2
REMARK VINA RESULT:    -4.610      2.495      6.606
REMARK INTER + INTRA:         -10.811
REMARK INTER:                  -8.954
REMARK INTRA:                  -1.857
REMARK UNBOUND:                -2.159
REMARK SMILES O=C([O-])CCCCCCCCCCCCCCC(=O)[O-]
REMARK SMILES IDX 10 1 9 2 8 3 7 4 6 5 5 6 4 7 2 8 1 9 3 10 11 11 12 12 13 13
REMARK SMILES IDX 14 14 15 15 16 16 17 17 18 18 19 19 20 20
REMARK H PARENT
REMARK Flexibility Score: inf
ROOT
ATOM      1  C   UNL     1      15.369 -35.004  20.335  1.00  0.00     0.000 C 
ENDROOT
BRANCH   1   2
ATOM      2  C   UNL     1      16.661 -35.226  19.538  1.00  0.00     0.000 C 
BRANCH   2   3
ATOM      3  C   UNL     1      17.036 -33.966  18.742  1.00  0.00     0.000 C 
BRANCH   3   4
ATOM      4  C   UNL     1      18.124 -33.127  19.433  1.00  0.00     0.000 C 
BRANCH   4   5
ATOM      5  C   UNL     1      18.451 -33.552  20.877  1.00  0.00     0.000 C 
BRANCH   5   6
ATOM      6  C   UNL     1      18.324 -32.408  21.906  1.00  0.00     0.006 C 
BRANCH   6   7
ATOM      7  C   UNL     1      17.781 -31.117  21.278  1.00  0.00     0.053 C 
BRANCH   7   8
ATOM      8  C   UNL     1      18.813 -30.035  21.330  1.00  0.00     0.041 C 
ATOM      9  O   UNL     1      18.592 -28.922  20.783  1.00  0.00    -0.550 OA
ATOM     10  O   UNL     1      20.041 -30.275  21.935  1.00  0.00    -0.550 OA
ENDBRANCH   7   8
ENDBRANCH   6   7
ENDBRANCH   5   6
ENDBRANCH   4   5
ENDBRANCH   3   4
ENDBRANCH   2   3
ENDBRANCH   1   2
BRANCH   1  11
ATOM     11  C   UNL     1      14.671 -33.708  19.904  1.00  0.00     0.000 C 
BRANCH  11  12
ATOM     12  C   UNL     1      14.293 -32.858  21.126  1.00  0.00     0.000 C 
BRANCH  12  13
ATOM     13  C   UNL     1      14.933 -33.368  22.428  1.00  0.00     0.000 C 
BRANCH  13  14
ATOM     14  C   UNL     1      14.586 -32.487  23.640  1.00  0.00     0.000 C 
BRANCH  14  15
ATOM     15  C   UNL     1      14.639 -30.986  23.313  1.00  0.00     0.000 C 
BRANCH  15  16
ATOM     16  C   UNL     1      13.385 -30.230  23.786  1.00  0.00     0.006 C 
BRANCH  16  17
ATOM     17  C   UNL     1      13.343 -28.790  23.259  1.00  0.00     0.053 C 
BRANCH  17  18
ATOM     18  C   UNL     1      12.331 -27.961  23.990  1.00  0.00     0.041 C 
ATOM     19  O   UNL     1      11.162 -27.842  23.538  1.00  0.00    -0.550 OA
ATOM     20  O   UNL     1      12.688 -27.299  25.158  1.00  0.00    -0.550 OA
ENDBRANCH  17  18
ENDBRANCH  16  17
ENDBRANCH  15  16
ENDBRANCH  14  15
ENDBRANCH  13  14
ENDBRANCH  12  13
ENDBRANCH  11  12
ENDBRANCH   1  11
TORSDOF 15
ENDMDL
MODEL 3
REMARK VINA RESULT:    -4.582      1.807      3.013
REMARK INTER + INTRA:         -10.758
REMARK INTER:                  -9.414
REMARK INTRA:                  -1.345
REMARK UNBOUND:                -2.159
REMARK SMILES O=C([O-])CCCCCCCCCCCCCCC(=O)[O-]
REMARK SMILES IDX 10 1 9 2 8 3 7 4 6 5 5 6 4 7 2 8 1 9 3 10 11 11 12 12 13 13
REMARK SMILES IDX 14 14 15 15 16 16 17 17 18 18 19 19 20 20
REMARK H PARENT
REMARK Flexibility Score: inf
ROOT
ATOM      1  C   UNL     1      18.349 -30.424  21.596  1.00  0.00     0.000 C 
ENDROOT
BRANCH   1   2
ATOM      2  C   UNL     1      17.849 -30.803  22.995  1.00  0.00     0.000 C 
BRANCH   2   3
ATOM      3  C   UNL     1      16.463 -30.195  23.264  1.00  0.00     0.000 C 
BRANCH   3   4
ATOM      4  C   UNL     1      15.850 -29.534  22.018  1.00  0.00     0.000 C 
BRANCH   4   5
ATOM      5  C   UNL     1      14.418 -29.000  22.207  1.00  0.00     0.000 C 
BRANCH   5   6
ATOM      6  C   UNL     1      13.573 -29.825  23.202  1.00  0.00     0.006 C 
BRANCH   6   7
ATOM      7  C   UNL     1      12.792 -28.937  24.180  1.00  0.00     0.053 C 
BRANCH   7   8
ATOM      8  C   UNL     1      11.652 -28.265  23.481  1.00  0.00     0.041 C 
ATOM      9  O   UNL     1      11.023 -28.868  22.571  1.00  0.00    -0.550 OA
ATOM     10  O   UNL     1      11.320 -26.953  23.797  1.00  0.00    -0.550 OA
ENDBRANCH   7   8
ENDBRANCH   6   7
ENDBRANCH   5   6
ENDBRANCH   4   5
ENDBRANCH   3   4
ENDBRANCH   2   3
ENDBRANCH   1   2
BRANCH   1  11
ATOM     11  C   UNL     1      19.132 -31.579  20.959  1.00  0.00     0.000 C 
BRANCH  11  12
ATOM     12  C   UNL     1      18.206 -32.468  20.115  1.00  0.00     0.000 C 
BRANCH  12  13
ATOM     13  C   UNL     1      18.176 -33.927  20.600  1.00  0.00     0.000 C 
BRANCH  13  14
ATOM     14  C   UNL     1      18.045 -34.930  19.442  1.00  0.00     0.000 C 
BRANCH  14  15
ATOM     15  C   UNL     1      16.649 -35.570  19.369  1.00  0.00     0.000 C 
BRANCH  15  16
ATOM     16  C   UNL     1      15.681 -35.004  20.424  1.00  0.00     0.006 C 
BRANCH  16  17
ATOM     17  C   UNL     1      14.744 -33.940  19.838  1.00  0.00     0.053 C 
BRANCH  17  18
ATOM     18  C   UNL     1      14.282 -32.972  20.884  1.00  0.00     0.041 C 
ATOM     19  O   UNL     1      13.446 -32.075  20.595  1.00  0.00    -0.550 OA
ATOM     20  O   UNL     1      14.794 -33.045  22.174  1.00  0.00    -0.550 OA
ENDBRANCH  17  18
ENDBRANCH  16  17
ENDBRANCH  15  16
ENDBRANCH  14  15
ENDBRANCH  13  14
ENDBRANCH  12  13
ENDBRANCH  11  12
ENDBRANCH   1  11
TORSDOF 15
ENDMDL
MODEL 4
REMARK VINA RESULT:    -4.547      3.222      5.161
REMARK INTER + INTRA:         -10.693
REMARK INTER:                  -8.554
REMARK INTRA:                  -2.139
REMARK UNBOUND:                -2.159
REMARK SMILES O=C([O-])CCCCCCCCCCCCCCC(=O)[O-]
REMARK SMILES IDX 10 1 9 2 8 3 7 4 6 5 5 6 4 7 2 8 1 9 3 10 11 11 12 12 13 13
REMARK SMILES IDX 14 14 15 15 16 16 17 17 18 18 19 19 20 20
REMARK H PARENT
REMARK Flexibility Score: inf
ROOT
ATOM      1  C   UNL     1      14.016 -30.046  23.424  1.00  0.00     0.000 C 
ENDROOT
BRANCH   1   2
ATOM      2  C   UNL     1      13.123 -31.171  22.887  1.00  0.00     0.000 C 
BRANCH   2   3
ATOM      3  C   UNL     1      12.653 -30.862  21.457  1.00  0.00     0.000 C 
BRANCH   3   4
ATOM      4  C   UNL     1      13.307 -31.773  20.404  1.00  0.00     0.000 C 
BRANCH   4   5
ATOM      5  C   UNL     1      14.206 -32.883  20.978  1.00  0.00     0.000 C 
BRANCH   5   6
ATOM      6  C   UNL     1      14.774 -33.839  19.907  1.00  0.00     0.006 C 
BRANCH   6   7
ATOM      7  C   UNL     1      15.605 -34.974  20.520  1.00  0.00     0.053 C 
BRANCH   7   8
ATOM      8  C   UNL     1      16.654 -35.434  19.557  1.00  0.00     0.041 C 
ATOM      9  O   UNL     1      17.130 -34.634  18.709  1.00  0.00    -0.550 OA
ATOM     10  O   UNL     1      17.065 -36.761  19.560  1.00  0.00    -0.550 OA
ENDBRANCH   7   8
ENDBRANCH   6   7
ENDBRANCH   5   6
ENDBRANCH   4   5
ENDBRANCH   3   4
ENDBRANCH   2   3
ENDBRANCH   1   2
BRANCH   1  11
ATOM     11  C   UNL     1      15.501 -30.381  23.234  1.00  0.00     0.000 C 
BRANCH  11  12
ATOM     12  C   UNL     1      16.133 -29.478  22.165  1.00  0.00     0.000 C 
BRANCH  12  13
ATOM     13  C   UNL     1      17.208 -30.200  21.335  1.00  0.00     0.000 C 
BRANCH  13  14
ATOM     14  C   UNL     1      17.330 -31.690  21.698  1.00  0.00     0.000 C 
BRANCH  14  15
ATOM     15  C   UNL     1      18.435 -32.403  20.902  1.00  0.00     0.000 C 
BRANCH  15  16
ATOM     16  C   UNL     1      19.144 -33.498  21.719  1.00  0.00     0.006 C 
BRANCH  16  17
ATOM     17  C   UNL     1      18.655 -33.544  23.172  1.00  0.00     0.053 C 
BRANCH  17  18
ATOM     18  C   UNL     1      17.904 -34.807  23.465  1.00  0.00     0.041 C 
ATOM     19  O   UNL     1      18.162 -35.861  22.826  1.00  0.00    -0.550 OA
ATOM     20  O   UNL     1      16.902 -34.812  24.427  1.00  0.00    -0.550 OA
ENDBRANCH  17  18
ENDBRANCH  16  17
ENDBRANCH  15  16
ENDBRANCH  14  15
ENDBRANCH  13  14
ENDBRANCH  12  13
ENDBRANCH  11  12
ENDBRANCH   1  11
TORSDOF 15
ENDMDL
MODEL 5
REMARK VINA RESULT:    -4.521      1.581      2.145
REMARK INTER + INTRA:         -10.644
REMARK INTER:                  -8.419
REMARK INTRA:                  -2.225
REMARK UNBOUND:                -2.159
REMARK SMILES O=C([O-])CCCCCCCCCCCCCCC(=O)[O-]
REMARK SMILES IDX 10 1 9 2 8 3 7 4 6 5 5 6 4 7 2 8 1 9 3 10 11 11 12 12 13 13
REMARK SMILES IDX 14 14 15 15 16 16 17 17 18 18 19 19 20 20
REMARK H PARENT
REMARK Flexibility Score: inf
ROOT
ATOM      1  C   UNL     1      18.262 -32.568  24.194  1.00  0.00     0.000 C 
ENDROOT
BRANCH   1   2
ATOM      2  C   UNL     1      17.040 -33.348  24.693  1.00  0.00     0.000 C 
BRANCH   2   3
ATOM      3  C   UNL     1      16.305 -34.020  23.523  1.00  0.00     0.000 C 
BRANCH   3   4
ATOM      4  C   UNL     1      15.302 -33.082  22.831  1.00  0.00     0.000 C 
BRANCH   4   5
ATOM      5  C   UNL     1      14.154 -32.585  23.730  1.00  0.00     0.000 C 
BRANCH   5   6
ATOM      6  C   UNL     1      13.867 -31.074  23.594  1.00  0.00     0.006 C 
BRANCH   6   7
ATOM      7  C   UNL     1      14.024 -30.579  22.150  1.00  0.00     0.053 C 
BRANCH   7   8
ATOM      8  C   UNL     1      12.861 -31.017  21.317  1.00  0.00     0.041 C 
ATOM      9  O   UNL     1      11.695 -30.637  21.606  1.00  0.00    -0.550 OA
ATOM     10  O   UNL     1      13.058 -31.891  20.255  1.00  0.00    -0.550 OA
ENDBRANCH   7   8
ENDBRANCH   6   7
ENDBRANCH   5   6
ENDBRANCH   4   5
ENDBRANCH   3   4
ENDBRANCH   2   3
ENDBRANCH   1   2
BRANCH   1  11
ATOM     11  C   UNL     1      18.065 -31.058  24.374  1.00  0.00     0.000 C 
BRANCH  11  12
ATOM     12  C   UNL     1      17.557 -30.413  23.076  1.00  0.00     0.000 C 
BRANCH  12  13
ATOM     13  C   UNL     1      18.518 -30.620  21.893  1.00  0.00     0.000 C 
BRANCH  13  14
ATOM     14  C   UNL     1      17.834 -31.289  20.688  1.00  0.00     0.000 C 
BRANCH  14  15
ATOM     15  C   UNL     1      18.249 -32.758  20.513  1.00  0.00     0.000 C 
BRANCH  15  16
ATOM     16  C   UNL     1      17.412 -33.490  19.449  1.00  0.00     0.006 C 
BRANCH  16  17
ATOM     17  C   UNL     1      17.966 -34.886  19.136  1.00  0.00     0.053 C 
BRANCH  17  18
ATOM     18  C   UNL     1      17.101 -35.967  19.709  1.00  0.00     0.041 C 
ATOM     19  O   UNL     1      15.983 -35.685  20.214  1.00  0.00    -0.550 OA
ATOM     20  O   UNL     1      17.544 -37.284  19.709  1.00  0.00    -0.550 OA
ENDBRANCH  17  18
ENDBRANCH  16  17
ENDBRANCH  15  16
ENDBRANCH  14  15
ENDBRANCH  13  14
ENDBRANCH  12  13
ENDBRANCH  11  12
ENDBRANCH   1  11
TORSDOF 15
ENDMDL
MODEL 6
REMARK VINA RESULT:    -4.487      2.593      7.033
REMARK INTER + INTRA:         -10.580
REMARK INTER:                  -8.596
REMARK INTRA:                  -1.984
REMARK UNBOUND:                -2.159
REMARK SMILES O=C([O-])CCCCCCCCCCCCCCC(=O)[O-]
REMARK SMILES IDX 10 1 9 2 8 3 7 4 6 5 5 6 4 7 2 8 1 9 3 10 11 11 12 12 13 13
REMARK SMILES IDX 14 14 15 15 16 16 17 17 18 18 19 19 20 20
REMARK H PARENT
REMARK Flexibility Score: inf
ROOT
ATOM      1  C   UNL     1      17.991 -33.023  20.552  1.00  0.00     0.000 C 
ENDROOT
BRANCH   1   2
ATOM      2  C   UNL     1      17.714 -33.587  19.153  1.00  0.00     0.000 C 
BRANCH   2   3
ATOM      3  C   UNL     1      16.457 -34.472  19.159  1.00  0.00     0.000 C 
BRANCH   3   4
ATOM      4  C   UNL     1      16.456 -35.498  20.305  1.00  0.00     0.000 C 
BRANCH   4   5
ATOM      5  C   UNL     1      17.173 -36.824  19.989  1.00  0.00     0.000 C 
BRANCH   5   6
ATOM      6  C   UNL     1      18.229 -37.226  21.040  1.00  0.00     0.006 C 
BRANCH   6   7
ATOM      7  C   UNL     1      18.333 -36.206  22.182  1.00  0.00     0.053 C 
BRANCH   7   8
ATOM      8  C   UNL     1      18.873 -36.855  23.417  1.00  0.00     0.041 C 
ATOM      9  O   UNL     1      18.510 -36.454  24.555  1.00  0.00    -0.550 OA
ATOM     10  O   UNL     1      19.820 -37.867  23.312  1.00  0.00    -0.550 OA
ENDBRANCH   7   8
ENDBRANCH   6   7
ENDBRANCH   5   6
ENDBRANCH   4   5
ENDBRANCH   3   4
ENDBRANCH   2   3
ENDBRANCH   1   2
BRANCH   1  11
ATOM     11  C   UNL     1      17.679 -31.523  20.614  1.00  0.00     0.000 C 
BRANCH  11  12
ATOM     12  C   UNL     1      16.587 -31.233  21.655  1.00  0.00     0.000 C 
BRANCH  12  13
ATOM     13  C   UNL     1      16.155 -32.490  22.430  1.00  0.00     0.000 C 
BRANCH  13  14
ATOM     14  C   UNL     1      14.680 -32.853  22.189  1.00  0.00     0.000 C 
BRANCH  14  15
ATOM     15  C   UNL     1      14.078 -32.110  20.984  1.00  0.00     0.000 C 
BRANCH  15  16
ATOM     16  C   UNL     1      12.917 -31.180  21.379  1.00  0.00     0.006 C 
BRANCH  16  17
ATOM     17  C   UNL     1      12.856 -30.941  22.894  1.00  0.00     0.053 C 
BRANCH  17  18
ATOM     18  C   UNL     1      13.256 -29.542  23.250  1.00  0.00     0.041 C 
ATOM     19  O   UNL     1      12.783 -28.989  24.278  1.00  0.00    -0.550 OA
ATOM     20  O   UNL     1      14.132 -28.840  22.432  1.00  0.00    -0.550 OA
ENDBRANCH  17  18
ENDBRANCH  16  17
ENDBRANCH  15  16
ENDBRANCH  14  15
ENDBRANCH  13  14
ENDBRANCH  12  13
ENDBRANCH  11  12
ENDBRANCH   1  11
TORSDOF 15
ENDMDL
MODEL 7
REMARK VINA RESULT:    -4.478      2.158      6.679
REMARK INTER + INTRA:         -10.565
REMARK INTER:                  -8.736
REMARK INTRA:                  -1.829
REMARK UNBOUND:                -2.159
REMARK SMILES O=C([O-])CCCCCCCCCCCCCCC(=O)[O-]
REMARK SMILES IDX 10 1 9 2 8 3 7 4 6 5 5 6 4 7 2 8 1 9 3 10 11 11 12 12 13 13
REMARK SMILES IDX 14 14 15 15 16 16 17 17 18 18 19 19 20 20
REMARK H PARENT
REMARK Flexibility Score: inf
ROOT
ATOM      1  C   UNL     1      15.991 -33.894  19.566  1.00  0.00     0.000 C 
ENDROOT
BRANCH   1   2
ATOM      2  C   UNL     1      16.948 -35.025  19.173  1.00  0.00     0.000 C 
BRANCH   2   3
ATOM      3  C   UNL     1      16.930 -36.147  20.224  1.00  0.00     0.000 C 
BRANCH   3   4
ATOM      4  C   UNL     1      18.160 -36.119  21.147  1.00  0.00     0.000 C 
BRANCH   4   5
ATOM      5  C   UNL     1      17.885 -35.616  22.577  1.00  0.00     0.000 C 
BRANCH   5   6
ATOM      6  C   UNL     1      18.673 -34.342  22.950  1.00  0.00     0.006 C 
BRANCH   6   7
ATOM      7  C   UNL     1      19.098 -33.537  21.714  1.00  0.00     0.053 C 
BRANCH   7   8
ATOM      8  C   UNL     1      18.517 -32.159  21.763  1.00  0.00     0.041 C 
ATOM      9  O   UNL     1      18.063 -31.700  22.844  1.00  0.00    -0.550 OA
ATOM     10  O   UNL     1      18.426 -31.402  20.601  1.00  0.00    -0.550 OA
ENDBRANCH   7   8
ENDBRANCH   6   7
ENDBRANCH   5   6
ENDBRANCH   4   5
ENDBRANCH   3   4
ENDBRANCH   2   3
ENDBRANCH   1   2
BRANCH   1  11
ATOM     11  C   UNL     1      14.995 -34.359  20.636  1.00  0.00     0.000 C 
BRANCH  11  12
ATOM     12  C   UNL     1      14.983 -33.392  21.829  1.00  0.00     0.000 C 
BRANCH  12  13
ATOM     13  C   UNL     1      14.762 -31.929  21.409  1.00  0.00     0.000 C 
BRANCH  13  14
ATOM     14  C   UNL     1      13.341 -31.677  20.876  1.00  0.00     0.000 C 
BRANCH  14  15
ATOM     15  C   UNL     1      12.550 -30.688  21.747  1.00  0.00     0.000 C 
BRANCH  15  16
ATOM     16  C   UNL     1      13.251 -30.381  23.083  1.00  0.00     0.006 C 
BRANCH  16  17
ATOM     17  C   UNL     1      13.533 -28.883  23.258  1.00  0.00     0.053 C 
BRANCH  17  18
ATOM     18  C   UNL     1      12.456 -28.205  24.050  1.00  0.00     0.041 C 
ATOM     19  O   UNL     1      12.751 -27.511  25.058  1.00  0.00    -0.550 OA
ATOM     20  O   UNL     1      11.124 -28.361  23.686  1.00  0.00    -0.550 OA
ENDBRANCH  17  18
ENDBRANCH  16  17
ENDBRANCH  15  16
ENDBRANCH  14  15
ENDBRANCH  13  14
ENDBRANCH  12  13
ENDBRANCH  11  12
ENDBRANCH   1  11
TORSDOF 15
ENDMDL
MODEL 8
REMARK VINA RESULT:    -4.450      2.442      6.445
REMARK INTER + INTRA:         -10.512
REMARK INTER:                  -8.441
REMARK INTRA:                  -2.071
REMARK UNBOUND:                -2.159
REMARK SMILES O=C([O-])CCCCCCCCCCCCCCC(=O)[O-]
REMARK SMILES IDX 10 1 9 2 8 3 7 4 6 5 5 6 4 7 2 8 1 9 3 10 11 11 12 12 13 13
REMARK SMILES IDX 14 14 15 15 16 16 17 17 18 18 19 19 20 20
REMARK H PARENT
REMARK Flexibility Score: inf
ROOT
ATOM      1  C   UNL     1      17.306 -34.673  20.056  1.00  0.00     0.000 C 
ENDROOT
BRANCH   1   2
ATOM      2  C   UNL     1      17.611 -33.270  19.519  1.00  0.00     0.000 C 
BRANCH   2   3
ATOM      3  C   UNL     1      18.232 -32.388  20.613  1.00  0.00     0.000 C 
BRANCH   3   4
ATOM      4  C   UNL     1      17.635 -30.971  20.647  1.00  0.00     0.000 C 
BRANCH   4   5
ATOM      5  C   UNL     1      17.474 -30.370  22.057  1.00  0.00     0.000 C 
BRANCH   5   6
ATOM      6  C   UNL     1      17.012 -31.391  23.118  1.00  0.00     0.006 C 
BRANCH   6   7
ATOM      7  C   UNL     1      17.757 -31.225  24.450  1.00  0.00     0.053 C 
BRANCH   7   8
ATOM      8  C   UNL     1      18.746 -32.331  24.638  1.00  0.00     0.041 C 
ATOM      9  O   UNL     1      19.732 -32.439  23.861  1.00  0.00    -0.550 OA
ATOM     10  O   UNL     1      18.550 -33.277  25.637  1.00  0.00    -0.550 OA
ENDBRANCH   7   8
ENDBRANCH   6   7
ENDBRANCH   5   6
ENDBRANCH   4   5
ENDBRANCH   3   4
ENDBRANCH   2   3
ENDBRANCH   1   2
BRANCH   1  11
ATOM     11  C   UNL     1      16.060 -34.664  20.950  1.00  0.00     0.000 C 
BRANCH  11  12
ATOM     12  C   UNL     1      14.953 -33.794  20.337  1.00  0.00     0.000 C 
BRANCH  12  13
ATOM     13  C   UNL     1      14.245 -32.910  21.378  1.00  0.00     0.000 C 
BRANCH  13  14
ATOM     14  C   UNL     1      13.475 -31.744  20.734  1.00  0.00     0.000 C 
BRANCH  14  15
ATOM     15  C   UNL     1      13.794 -30.391  21.391  1.00  0.00     0.000 C 
BRANCH  15  16
ATOM     16  C   UNL     1      13.233 -30.278  22.820  1.00  0.00     0.006 C 
BRANCH  16  17
ATOM     17  C   UNL     1      13.652 -28.970  23.504  1.00  0.00     0.053 C 
BRANCH  17  18
ATOM     18  C   UNL     1      12.476 -28.249  24.089  1.00  0.00     0.041 C 
ATOM     19  O   UNL     1      11.325 -28.415  23.606  1.00  0.00    -0.550 OA
ATOM     20  O   UNL     1      12.656 -27.372  25.152  1.00  0.00    -0.550 OA
ENDBRANCH  17  18
ENDBRANCH  16  17
ENDBRANCH  15  16
ENDBRANCH  14  15
ENDBRANCH  13  14
ENDBRANCH  12  13
ENDBRANCH  11  12
ENDBRANCH   1  11
TORSDOF 15
ENDMDL
MODEL 9
REMARK VINA RESULT:    -4.431      2.404      3.686
REMARK INTER + INTRA:         -10.476
REMARK INTER:                  -8.226
REMARK INTRA:                  -2.250
REMARK UNBOUND:                -2.159
REMARK SMILES O=C([O-])CCCCCCCCCCCCCCC(=O)[O-]
REMARK SMILES IDX 10 1 9 2 8 3 7 4 6 5 5 6 4 7 2 8 1 9 3 10 11 11 12 12 13 13
REMARK SMILES IDX 14 14 15 15 16 16 17 17 18 18 19 19 20 20
REMARK H PARENT
REMARK Flexibility Score: inf
ROOT
ATOM      1  C   UNL     1      15.056 -33.062  20.988  1.00  0.00     0.000 C 
ENDROOT
BRANCH   1   2
ATOM      2  C   UNL     1      14.979 -33.488  22.459  1.00  0.00     0.000 C 
BRANCH   2   3
ATOM      3  C   UNL     1      15.274 -32.300  23.389  1.00  0.00     0.000 C 
BRANCH   3   4
ATOM      4  C   UNL     1      16.395 -31.391  22.858  1.00  0.00     0.000 C 
BRANCH   4   5
ATOM      5  C   UNL     1      16.090 -29.883  22.920  1.00  0.00     0.000 C 
BRANCH   5   6
ATOM      6  C   UNL     1      14.828 -29.470  22.134  1.00  0.00     0.006 C 
BRANCH   6   7
ATOM      7  C   UNL     1      13.749 -28.861  23.040  1.00  0.00     0.053 C 
BRANCH   7   8
ATOM      8  C   UNL     1      12.418 -29.485  22.762  1.00  0.00     0.041 C 
ATOM      9  O   UNL     1      12.348 -30.679  22.366  1.00  0.00    -0.550 OA
ATOM     10  O   UNL     1      11.258 -28.731  22.886  1.00  0.00    -0.550 OA
ENDBRANCH   7   8
ENDBRANCH   6   7
ENDBRANCH   5   6
ENDBRANCH   4   5
ENDBRANCH   3   4
ENDBRANCH   2   3
ENDBRANCH   1   2
BRANCH   1  11
ATOM     11  C   UNL     1      15.012 -34.280  20.058  1.00  0.00     0.000 C 
BRANCH  11  12
ATOM     12  C   UNL     1      16.432 -34.750  19.705  1.00  0.00     0.000 C 
BRANCH  12  13
ATOM     13  C   UNL     1      17.369 -33.588  19.336  1.00  0.00     0.000 C 
BRANCH  13  14
ATOM     14  C   UNL     1      18.448 -33.340  20.404  1.00  0.00     0.000 C 
BRANCH  14  15
ATOM     15  C   UNL     1      18.744 -34.591  21.246  1.00  0.00     0.000 C 
BRANCH  15  16
ATOM     16  C   UNL     1      18.547 -34.353  22.754  1.00  0.00     0.006 C 
BRANCH  16  17
ATOM     17  C   UNL     1      17.804 -35.512  23.431  1.00  0.00     0.053 C 
BRANCH  17  18
ATOM     18  C   UNL     1      17.498 -35.211  24.867  1.00  0.00     0.041 C 
ATOM     19  O   UNL     1      17.064 -36.116  25.627  1.00  0.00    -0.550 OA
ATOM     20  O   UNL     1      17.668 -33.922  25.358  1.00  0.00    -0.550 OA
ENDBRANCH  17  18
ENDBRANCH  16  17
ENDBRANCH  15  16
ENDBRANCH  14  15
ENDBRANCH  13  14
ENDBRANCH  12  13
ENDBRANCH  11  12
ENDBRANCH   1  11
TORSDOF 15
ENDMDL
