MODEL 1
REMARK VINA RESULT:    -3.677      0.000      0.000
REMARK INTER + INTRA:          -4.372
REMARK INTER:                  -4.322
REMARK INTRA:                  -0.050
REMARK UNBOUND:                -0.050
REMARK SMILES CCCCC(=O)[O-]
REMARK SMILES IDX 4 1 5 2 6 3 7 4 3 5 2 6 1 7
REMARK H PARENT
REMARK Flexibility Score: inf
ROOT
ATOM      1  C   UNL     1      -2.774  36.994  17.080  1.00  0.00     0.053 C 
ENDROOT
BRANCH   1   2
ATOM      2  C   UNL     1      -2.774  37.963  18.221  1.00  0.00     0.041 C 
ATOM      3  O   UNL     1      -3.851  38.251  18.808  1.00  0.00    -0.550 OA
ATOM      4  O   UNL     1      -1.581  38.525  18.657  1.00  0.00    -0.550 OA
ENDBRANCH   1   2
BRANCH   1   5
ATOM      5  C   UNL     1      -1.829  37.435  15.956  1.00  0.00     0.006 C 
BRANCH   5   6
ATOM      6  C   UNL     1      -2.497  37.370  14.575  1.00  0.00    -0.003 C 
ATOM      7  C   UNL     1      -3.567  38.449  14.430  1.00  0.00     0.004 C 
ENDBRANCH   5   6
ENDBRANCH   1   5
TORSDOF 3
ENDMDL
MODEL 2
REMARK VINA RESULT:    -3.592      1.829      2.275
REMARK INTER + INTRA:          -4.272
REMARK INTER:                  -4.246
REMARK INTRA:                  -0.026
REMARK UNBOUND:                -0.050
REMARK SMILES CCCCC(=O)[O-]
REMARK SMILES IDX 4 1 5 2 6 3 7 4 3 5 2 6 1 7
REMARK H PARENT
REMARK Flexibility Score: inf
ROOT
ATOM      1  C   UNL     1      -3.186  37.333  18.154  1.00  0.00     0.053 C 
ENDROOT
BRANCH   1   2
ATOM      2  C   UNL     1      -3.906  36.219  18.849  1.00  0.00     0.041 C 
ATOM      3  O   UNL     1      -3.990  36.206  20.106  1.00  0.00    -0.550 OA
ATOM      4  O   UNL     1      -4.511  35.212  18.109  1.00  0.00    -0.550 OA
ENDBRANCH   1   2
BRANCH   1   5
ATOM      5  C   UNL     1      -2.769  36.942  16.731  1.00  0.00     0.006 C 
BRANCH   5   6
ATOM      6  C   UNL     1      -2.788  38.139  15.771  1.00  0.00    -0.003 C 
ATOM      7  C   UNL     1      -3.415  37.761  14.432  1.00  0.00     0.004 C 
ENDBRANCH   5   6
ENDBRANCH   1   5
TORSDOF 3
ENDMDL
MODEL 3
REMARK VINA RESULT:    -3.509      1.410      1.791
REMARK INTER + INTRA:          -4.174
REMARK INTER:                  -4.096
REMARK INTRA:                  -0.078
REMARK UNBOUND:                -0.050
REMARK SMILES CCCCC(=O)[O-]
REMARK SMILES IDX 4 1 5 2 6 3 7 4 3 5 2 6 1 7
REMARK H PARENT
REMARK Flexibility Score: inf
ROOT
ATOM      1  C   UNL     1      -2.198  37.991  18.499  1.00  0.00     0.053 C 
ENDROOT
BRANCH   1   2
ATOM      2  C   UNL     1      -3.503  37.481  19.025  1.00  0.00     0.041 C 
ATOM      3  O   UNL     1      -4.301  38.263  19.607  1.00  0.00    -0.550 OA
ATOM      4  O   UNL     1      -3.855  36.149  18.845  1.00  0.00    -0.550 OA
ENDBRANCH   1   2
BRANCH   1   5
ATOM      5  C   UNL     1      -1.903  37.458  17.091  1.00  0.00     0.006 C 
BRANCH   5   6
ATOM      6  C   UNL     1      -2.758  38.145  16.018  1.00  0.00    -0.003 C 
ATOM      7  C   UNL     1      -2.714  37.375  14.702  1.00  0.00     0.004 C 
ENDBRANCH   5   6
ENDBRANCH   1   5
TORSDOF 3
ENDMDL
MODEL 4
REMARK VINA RESULT:    -3.437      2.188      3.609
REMARK INTER + INTRA:          -4.089
REMARK INTER:                  -4.017
REMARK INTRA:                  -0.073
REMARK UNBOUND:                -0.050
REMARK SMILES CCCCC(=O)[O-]
REMARK SMILES IDX 4 1 5 2 6 3 7 4 3 5 2 6 1 7
REMARK H PARENT
REMARK Flexibility Score: inf
ROOT
ATOM      1  C   UNL     1      -2.181  38.033  18.067  1.00  0.00     0.053 C 
ENDROOT
BRANCH   1   2
ATOM      2  C   UNL     1      -2.175  37.700  16.607  1.00  0.00     0.041 C 
ATOM      3  O   UNL     1      -1.517  36.711  16.185  1.00  0.00    -0.550 OA
ATOM      4  O   UNL     1      -2.921  38.460  15.716  1.00  0.00    -0.550 OA
ENDBRANCH   1   2
BRANCH   1   5
ATOM      5  C   UNL     1      -3.574  37.865  18.684  1.00  0.00     0.006 C 
BRANCH   5   6
ATOM      6  C   UNL     1      -3.760  36.486  19.333  1.00  0.00    -0.003 C 
ATOM      7  C   UNL     1      -4.429  35.510  18.370  1.00  0.00     0.004 C 
ENDBRANCH   5   6
ENDBRANCH   1   5
TORSDOF 3
ENDMDL
MODEL 5
REMARK VINA RESULT:    -3.376      2.537      3.203
REMARK INTER + INTRA:          -4.019
REMARK INTER:                  -3.948
REMARK INTRA:                  -0.071
REMARK UNBOUND:                -0.050
REMARK SMILES CCCCC(=O)[O-]
REMARK SMILES IDX 4 1 5 2 6 3 7 4 3 5 2 6 1 7
REMARK H PARENT
REMARK Flexibility Score: inf
ROOT
ATOM      1  C   UNL     1      -3.517  37.827  18.816  1.00  0.00     0.053 C 
ENDROOT
BRANCH   1   2
ATOM      2  C   UNL     1      -3.906  36.440  19.227  1.00  0.00     0.041 C 
ATOM      3  O   UNL     1      -4.254  35.596  18.358  1.00  0.00    -0.550 OA
ATOM      4  O   UNL     1      -3.853  36.069  20.564  1.00  0.00    -0.550 OA
ENDBRANCH   1   2
BRANCH   1   5
ATOM      5  C   UNL     1      -2.848  37.847  17.437  1.00  0.00     0.006 C 
BRANCH   5   6
ATOM      6  C   UNL     1      -1.319  37.758  17.531  1.00  0.00    -0.003 C 
ATOM      7  C   UNL     1      -0.812  38.358  18.840  1.00  0.00     0.004 C 
ENDBRANCH   5   6
ENDBRANCH   1   5
TORSDOF 3
ENDMDL
MODEL 6
REMARK VINA RESULT:    -3.226      2.693      4.104
REMARK INTER + INTRA:          -3.842
REMARK INTER:                  -3.805
REMARK INTRA:                  -0.037
REMARK UNBOUND:                -0.050
REMARK SMILES CCCCC(=O)[O-]
REMARK SMILES IDX 4 1 5 2 6 3 7 4 3 5 2 6 1 7
REMARK H PARENT
REMARK Flexibility Score: inf
ROOT
ATOM      1  C   UNL     1      -3.405  38.079  18.642  1.00  0.00     0.053 C 
ENDROOT
BRANCH   1   2
ATOM      2  C   UNL     1      -1.951  38.093  18.286  1.00  0.00     0.041 C 
ATOM      3  O   UNL     1      -1.547  37.504  17.248  1.00  0.00    -0.550 OA
ATOM      4  O   UNL     1      -1.046  38.783  19.082  1.00  0.00    -0.550 OA
ENDBRANCH   1   2
BRANCH   1   5
ATOM      5  C   UNL     1      -3.782  36.835  19.454  1.00  0.00     0.006 C 
BRANCH   5   6
ATOM      6  C   UNL     1      -5.019  37.067  20.333  1.00  0.00    -0.003 C 
ATOM      7  C   UNL     1      -4.816  38.257  21.266  1.00  0.00     0.004 C 
ENDBRANCH   5   6
ENDBRANCH   1   5
TORSDOF 3
ENDMDL
MODEL 7
REMARK VINA RESULT:    -3.193      2.638      4.673
REMARK INTER + INTRA:          -3.803
REMARK INTER:                  -3.754
REMARK INTRA:                  -0.049
REMARK UNBOUND:                -0.050
REMARK SMILES CCCCC(=O)[O-]
REMARK SMILES IDX 4 1 5 2 6 3 7 4 3 5 2 6 1 7
REMARK H PARENT
REMARK Flexibility Score: inf
ROOT
ATOM      1  C   UNL     1      -3.538  37.143  19.292  1.00  0.00     0.053 C 
ENDROOT
BRANCH   1   2
ATOM      2  C   UNL     1      -2.631  38.045  18.515  1.00  0.00     0.041 C 
ATOM      3  O   UNL     1      -1.699  38.661  19.098  1.00  0.00    -0.550 OA
ATOM      4  O   UNL     1      -2.792  38.182  17.142  1.00  0.00    -0.550 OA
ENDBRANCH   1   2
BRANCH   1   5
ATOM      5  C   UNL     1      -4.778  37.885  19.806  1.00  0.00     0.006 C 
BRANCH   5   6
ATOM      6  C   UNL     1      -4.686  38.201  21.305  1.00  0.00    -0.003 C 
ATOM      7  C   UNL     1      -5.071  36.989  22.149  1.00  0.00     0.004 C 
ENDBRANCH   5   6
ENDBRANCH   1   5
TORSDOF 3
ENDMDL
MODEL 8
REMARK VINA RESULT:    -3.186      3.280      4.107
REMARK INTER + INTRA:          -3.795
REMARK INTER:                  -3.772
REMARK INTRA:                  -0.022
REMARK UNBOUND:                -0.050
REMARK SMILES CCCCC(=O)[O-]
REMARK SMILES IDX 4 1 5 2 6 3 7 4 3 5 2 6 1 7
REMARK H PARENT
REMARK Flexibility Score: inf
ROOT
ATOM      1  C   UNL     1      -4.741  37.812  19.920  1.00  0.00     0.053 C 
ENDROOT
BRANCH   1   2
ATOM      2  C   UNL     1      -5.256  37.258  21.212  1.00  0.00     0.041 C 
ATOM      3  O   UNL     1      -6.111  36.333  21.208  1.00  0.00    -0.550 OA
ATOM      4  O   UNL     1      -4.770  37.741  22.420  1.00  0.00    -0.550 OA
ENDBRANCH   1   2
BRANCH   1   5
ATOM      5  C   UNL     1      -3.758  36.852  19.239  1.00  0.00     0.006 C 
BRANCH   5   6
ATOM      6  C   UNL     1      -2.902  37.554  18.176  1.00  0.00    -0.003 C 
ATOM      7  C   UNL     1      -1.798  38.389  18.819  1.00  0.00     0.004 C 
ENDBRANCH   5   6
ENDBRANCH   1   5
TORSDOF 3
ENDMDL
MODEL 9
REMARK VINA RESULT:    -3.109      4.780      6.850
REMARK INTER + INTRA:          -3.705
REMARK INTER:                  -3.688
REMARK INTRA:                  -0.017
REMARK UNBOUND:                -0.050
REMARK SMILES CCCCC(=O)[O-]
REMARK SMILES IDX 4 1 5 2 6 3 7 4 3 5 2 6 1 7
REMARK H PARENT
REMARK Flexibility Score: inf
ROOT
ATOM      1  C   UNL     1      -5.299  36.779  21.761  1.00  0.00     0.053 C 
ENDROOT
BRANCH   1   2
ATOM      2  C   UNL     1      -4.741  37.145  20.420  1.00  0.00     0.041 C 
ATOM      3  O   UNL     1      -5.060  38.236  19.878  1.00  0.00    -0.550 OA
ATOM      4  O   UNL     1      -3.844  36.298  19.784  1.00  0.00    -0.550 OA
ENDBRANCH   1   2
BRANCH   1   5
ATOM      5  C   UNL     1      -5.036  37.870  22.806  1.00  0.00     0.006 C 
BRANCH   5   6
ATOM      6  C   UNL     1      -5.054  37.319  24.238  1.00  0.00    -0.003 C 
ATOM      7  C   UNL     1      -5.031  38.450  25.263  1.00  0.00     0.004 C 
ENDBRANCH   5   6
ENDBRANCH   1   5
TORSDOF 3
ENDMDL
