MODEL 1
REMARK VINA RESULT:    -5.789      0.000      0.000
REMARK INTER + INTRA:          -9.964
REMARK INTER:                  -8.496
REMARK INTRA:                  -1.468
REMARK UNBOUND:                -1.468
REMARK SMILES O=c1c(O[C@@H]2O[C@H](CO)[C@@H](O)[C@H](O)[C@@H]2O)c(-c2ccc(O)c(O)c2)oc2cc(O)cc(O)c12
REMARK SMILES IDX 4 1 3 2 16 3 25 4 2 5 26 6 1 7 33 8 27 9 31 10 28 11 30 12
REMARK SMILES IDX 17 13 18 14 19 15 20 16 24 17 22 18 21 19 23 21 32 23 29 25
REMARK SMILES IDX 5 27 14 28 6 29 12 30 7 31 10 32 15 33 13 35 8 37 9 38 11 40
REMARK H PARENT 21 20 23 22 32 24 29 26 15 34 13 36 9 39 11 41
REMARK Flexibility Score: inf
ROOT
ATOM      1  O   UNL     1      -5.459   0.134   9.738  1.00  0.00    -0.454 OA
ENDROOT
BRANCH   1   2
ATOM      2  C   UNL     1      -5.372  -1.019  10.528  1.00  0.00     0.214 A 
ATOM      3  C   UNL     1      -4.190  -1.413  11.205  1.00  0.00     0.180 A 
ATOM      4  O   UNL     1      -4.101  -2.634  11.719  1.00  0.00    -0.452 OA
ATOM      5  C   UNL     1      -6.473  -1.878  10.543  1.00  0.00     0.239 A 
ATOM      6  C   UNL     1      -5.100  -3.503  11.671  1.00  0.00     0.146 A 
ATOM      7  O   UNL     1      -7.543  -1.485  10.005  1.00  0.00    -0.285 OA
ATOM      8  C   UNL     1      -6.347  -3.168  11.097  1.00  0.00     0.111 A 
ATOM      9  C   UNL     1      -4.908  -4.765  12.232  1.00  0.00     0.094 A 
ATOM     10  C   UNL     1      -7.404  -4.110  11.139  1.00  0.00     0.134 A 
ATOM     11  C   UNL     1      -5.977  -5.667  12.330  1.00  0.00     0.123 A 
ATOM     12  C   UNL     1      -7.210  -5.335  11.776  1.00  0.00     0.093 A 
BRANCH   3  13
ATOM     13  C   UNL     1      -3.036  -0.519  11.416  1.00  0.00     0.025 A 
ATOM     14  C   UNL     1      -3.005   0.266  12.577  1.00  0.00     0.016 A 
ATOM     15  C   UNL     1      -2.024   1.247  12.739  1.00  0.00     0.051 A 
ATOM     16  C   UNL     1      -1.049   1.443  11.751  1.00  0.00     0.157 A 
ATOM     17  C   UNL     1      -2.147  -0.234  10.371  1.00  0.00     0.062 A 
ATOM     18  C   UNL     1      -1.126   0.717  10.554  1.00  0.00     0.158 A 
BRANCH  16  19
ATOM     19  O   UNL     1      -0.043   2.383  11.966  1.00  0.00    -0.504 OA
ATOM     20  H   UNL     1       0.182   2.748  12.891  1.00  0.00     0.293 HD
ENDBRANCH  16  19
BRANCH  18  21
ATOM     21  O   UNL     1      -0.191   0.935   9.544  1.00  0.00    -0.504 OA
ATOM     22  H   UNL     1      -0.276   1.703   8.885  1.00  0.00     0.293 HD
ENDBRANCH  18  21
ENDBRANCH   3  13
BRANCH  10  23
ATOM     23  O   UNL     1      -8.657  -3.860  10.558  1.00  0.00    -0.507 OA
ATOM     24  H   UNL     1      -9.109  -4.540   9.952  1.00  0.00     0.293 HD
ENDBRANCH  10  23
BRANCH  11  25
ATOM     25  O   UNL     1      -5.830  -6.890  12.994  1.00  0.00    -0.508 OA
ATOM     26  H   UNL     1      -6.627  -7.348  13.407  1.00  0.00     0.293 HD
ENDBRANCH  11  25
ENDBRANCH   1   2
BRANCH   1  27
ATOM     27  C   UNL     1      -6.276   1.261  10.064  1.00  0.00     0.339 C 
ATOM     28  C   UNL     1      -5.462   2.331  10.795  1.00  0.00     0.214 C 
ATOM     29  O   UNL     1      -6.778   1.832   8.872  1.00  0.00    -0.332 OA
ATOM     30  C   UNL     1      -6.268   3.680  10.911  1.00  0.00     0.180 C 
ATOM     31  C   UNL     1      -7.851   2.743   9.138  1.00  0.00     0.179 C 
ATOM     32  C   UNL     1      -7.755   3.476  10.518  1.00  0.00     0.177 C 
BRANCH  28  33
ATOM     33  O   UNL     1      -4.256   2.523  10.100  1.00  0.00    -0.384 OA
ATOM     34  H   UNL     1      -3.672   1.739  10.307  1.00  0.00     0.211 HD
ENDBRANCH  28  33
BRANCH  30  35
ATOM     35  O   UNL     1      -5.742   4.714  10.117  1.00  0.00    -0.387 OA
ATOM     36  H   UNL     1      -6.053   4.608   9.175  1.00  0.00     0.211 HD
ENDBRANCH  30  35
BRANCH  31  37
ATOM     37  C   UNL     1      -8.002   3.709   7.945  1.00  0.00     0.191 C 
BRANCH  37  38
ATOM     38  O   UNL     1      -6.758   4.067   7.392  1.00  0.00    -0.394 OA
ATOM     39  H   UNL     1      -6.040   3.694   8.000  1.00  0.00     0.210 HD
ENDBRANCH  37  38
ENDBRANCH  31  37
BRANCH  32  40
ATOM     40  O   UNL     1      -8.410   2.711  11.508  1.00  0.00    -0.387 OA
ATOM     41  H   UNL     1      -9.175   3.241  11.862  1.00  0.00     0.211 HD
ENDBRANCH  32  40
ENDBRANCH   1  27
TORSDOF 12
ENDMDL
MODEL 2
REMARK VINA RESULT:    -5.650      2.012      6.075
REMARK INTER + INTRA:          -9.762
REMARK INTER:                  -7.916
REMARK INTRA:                  -1.846
REMARK UNBOUND:                -1.468
REMARK SMILES O=c1c(O[C@@H]2O[C@H](CO)[C@@H](O)[C@H](O)[C@@H]2O)c(-c2ccc(O)c(O)c2)oc2cc(O)cc(O)c12
REMARK SMILES IDX 4 1 3 2 16 3 25 4 2 5 26 6 1 7 33 8 27 9 31 10 28 11 30 12
REMARK SMILES IDX 17 13 18 14 19 15 20 16 24 17 22 18 21 19 23 21 32 23 29 25
REMARK SMILES IDX 5 27 14 28 6 29 12 30 7 31 10 32 15 33 13 35 8 37 9 38 11 40
REMARK H PARENT 21 20 23 22 32 24 29 26 15 34 13 36 9 39 11 41
REMARK Flexibility Score: inf
ROOT
ATOM      1  O   UNL     1      -5.309   1.331  12.493  1.00  0.00    -0.454 OA
ENDROOT
BRANCH   1   2
ATOM      2  C   UNL     1      -4.071   1.353  11.837  1.00  0.00     0.214 A 
ATOM      3  C   UNL     1      -3.253   0.206  11.678  1.00  0.00     0.180 A 
ATOM      4  O   UNL     1      -1.994   0.346  11.281  1.00  0.00    -0.452 OA
ATOM      5  C   UNL     1      -3.574   2.595  11.435  1.00  0.00     0.239 A 
ATOM      6  C   UNL     1      -1.468   1.523  10.975  1.00  0.00     0.146 A 
ATOM      7  O   UNL     1      -4.338   3.595  11.509  1.00  0.00    -0.285 OA
ATOM      8  C   UNL     1      -2.234   2.710  11.017  1.00  0.00     0.111 A 
ATOM      9  C   UNL     1      -0.133   1.568  10.576  1.00  0.00     0.094 A 
ATOM     10  C   UNL     1      -1.642   3.930  10.609  1.00  0.00     0.134 A 
ATOM     11  C   UNL     1       0.427   2.766  10.109  1.00  0.00     0.123 A 
ATOM     12  C   UNL     1      -0.329   3.935  10.138  1.00  0.00     0.093 A 
BRANCH   3  13
ATOM     13  C   UNL     1      -3.733  -1.172  11.891  1.00  0.00     0.025 A 
ATOM     14  C   UNL     1      -3.224  -1.894  12.980  1.00  0.00     0.016 A 
ATOM     15  C   UNL     1      -3.518  -3.252  13.125  1.00  0.00     0.051 A 
ATOM     16  C   UNL     1      -4.339  -3.901  12.193  1.00  0.00     0.157 A 
ATOM     17  C   UNL     1      -4.441  -1.849  10.889  1.00  0.00     0.062 A 
ATOM     18  C   UNL     1      -4.781  -3.204  11.060  1.00  0.00     0.158 A 
BRANCH  16  19
ATOM     19  O   UNL     1      -4.670  -5.240  12.396  1.00  0.00    -0.504 OA
ATOM     20  H   UNL     1      -4.031  -5.906  12.831  1.00  0.00     0.293 HD
ENDBRANCH  16  19
BRANCH  18  21
ATOM     21  O   UNL     1      -5.560  -3.851  10.102  1.00  0.00    -0.504 OA
ATOM     22  H   UNL     1      -6.167  -3.344   9.466  1.00  0.00     0.293 HD
ENDBRANCH  18  21
ENDBRANCH   3  13
BRANCH  10  23
ATOM     23  O   UNL     1      -2.329   5.153  10.658  1.00  0.00    -0.507 OA
ATOM     24  H   UNL     1      -2.962   5.440   9.915  1.00  0.00     0.293 HD
ENDBRANCH  10  23
BRANCH  11  25
ATOM     25  O   UNL     1       1.728   2.803   9.596  1.00  0.00    -0.508 OA
ATOM     26  H   UNL     1       1.912   2.528   8.645  1.00  0.00     0.293 HD
ENDBRANCH  11  25
ENDBRANCH   1   2
BRANCH   1  27
ATOM     27  C   UNL     1      -6.548   1.039  11.841  1.00  0.00     0.339 C 
ATOM     28  C   UNL     1      -7.614   2.073  12.211  1.00  0.00     0.214 C 
ATOM     29  O   UNL     1      -6.359   1.088  10.441  1.00  0.00    -0.332 OA
ATOM     30  C   UNL     1      -8.888   1.930  11.295  1.00  0.00     0.180 C 
ATOM     31  C   UNL     1      -7.458   0.489   9.743  1.00  0.00     0.179 C 
ATOM     32  C   UNL     1      -8.838   0.615  10.472  1.00  0.00     0.177 C 
BRANCH  28  33
ATOM     33  O   UNL     1      -7.050   3.354  12.094  1.00  0.00    -0.384 OA
ATOM     34  H   UNL     1      -7.691   3.995  12.515  1.00  0.00     0.211 HD
ENDBRANCH  28  33
BRANCH  30  35
ATOM     35  O   UNL     1      -9.055   3.002  10.400  1.00  0.00    -0.387 OA
ATOM     36  H   UNL     1      -9.456   3.780  10.877  1.00  0.00     0.211 HD
ENDBRANCH  30  35
BRANCH  31  37
ATOM     37  C   UNL     1      -7.485   1.018   8.294  1.00  0.00     0.191 C 
BRANCH  37  38
ATOM     38  O   UNL     1      -7.014   2.341   8.204  1.00  0.00    -0.394 OA
ATOM     39  H   UNL     1      -7.107   2.629   7.238  1.00  0.00     0.210 HD
ENDBRANCH  37  38
ENDBRANCH  31  37
BRANCH  32  40
ATOM     40  O   UNL     1      -9.024  -0.492  11.329  1.00  0.00    -0.387 OA
ATOM     41  H   UNL     1      -9.031  -0.166  12.270  1.00  0.00     0.211 HD
ENDBRANCH  32  40
ENDBRANCH   1  27
TORSDOF 12
ENDMDL
MODEL 3
REMARK VINA RESULT:    -5.569      1.581      1.934
REMARK INTER + INTRA:          -9.642
REMARK INTER:                  -8.838
REMARK INTRA:                  -0.804
REMARK UNBOUND:                -1.468
REMARK SMILES O=c1c(O[C@@H]2O[C@H](CO)[C@@H](O)[C@H](O)[C@@H]2O)c(-c2ccc(O)c(O)c2)oc2cc(O)cc(O)c12
REMARK SMILES IDX 4 1 3 2 16 3 25 4 2 5 26 6 1 7 33 8 27 9 31 10 28 11 30 12
REMARK SMILES IDX 17 13 18 14 19 15 20 16 24 17 22 18 21 19 23 21 32 23 29 25
REMARK SMILES IDX 5 27 14 28 6 29 12 30 7 31 10 32 15 33 13 35 8 37 9 38 11 40
REMARK H PARENT 21 20 23 22 32 24 29 26 15 34 13 36 9 39 11 41
REMARK Flexibility Score: inf
ROOT
ATOM      1  O   UNL     1      -4.531   1.773  12.093  1.00  0.00    -0.454 OA
ENDROOT
BRANCH   1   2
ATOM      2  C   UNL     1      -4.343   0.389  11.992  1.00  0.00     0.214 A 
ATOM      3  C   UNL     1      -3.212  -0.201  11.375  1.00  0.00     0.180 A 
ATOM      4  O   UNL     1      -3.220  -1.496  11.087  1.00  0.00    -0.452 OA
ATOM      5  C   UNL     1      -5.387  -0.438  12.413  1.00  0.00     0.239 A 
ATOM      6  C   UNL     1      -4.234  -2.291  11.397  1.00  0.00     0.146 A 
ATOM      7  O   UNL     1      -6.353   0.088  13.030  1.00  0.00    -0.285 OA
ATOM      8  C   UNL     1      -5.365  -1.810  12.094  1.00  0.00     0.111 A 
ATOM      9  C   UNL     1      -4.152  -3.638  11.045  1.00  0.00     0.094 A 
ATOM     10  C   UNL     1      -6.387  -2.718  12.465  1.00  0.00     0.134 A 
ATOM     11  C   UNL     1      -5.134  -4.542  11.474  1.00  0.00     0.123 A 
ATOM     12  C   UNL     1      -6.244  -4.074  12.170  1.00  0.00     0.093 A 
BRANCH   3  13
ATOM     13  C   UNL     1      -1.977   0.542  11.059  1.00  0.00     0.025 A 
ATOM     14  C   UNL     1      -1.565   1.555  11.936  1.00  0.00     0.016 A 
ATOM     15  C   UNL     1      -0.502   2.394  11.595  1.00  0.00     0.051 A 
ATOM     16  C   UNL     1       0.174   2.220  10.380  1.00  0.00     0.157 A 
ATOM     17  C   UNL     1      -1.390   0.453   9.789  1.00  0.00     0.062 A 
ATOM     18  C   UNL     1      -0.286   1.264   9.465  1.00  0.00     0.158 A 
BRANCH  16  19
ATOM     19  O   UNL     1       1.273   3.029  10.093  1.00  0.00    -0.504 OA
ATOM     20  H   UNL     1       2.218   2.808  10.406  1.00  0.00     0.293 HD
ENDBRANCH  16  19
BRANCH  18  21
ATOM     21  O   UNL     1       0.349   1.113   8.234  1.00  0.00    -0.504 OA
ATOM     22  H   UNL     1       0.738   1.901   7.726  1.00  0.00     0.293 HD
ENDBRANCH  18  21
ENDBRANCH   3  13
BRANCH  10  23
ATOM     23  O   UNL     1      -7.555  -2.307  13.125  1.00  0.00    -0.507 OA
ATOM     24  H   UNL     1      -8.195  -1.635  12.708  1.00  0.00     0.293 HD
ENDBRANCH  10  23
BRANCH  11  25
ATOM     25  O   UNL     1      -5.007  -5.915  11.229  1.00  0.00    -0.508 OA
ATOM     26  H   UNL     1      -4.611  -6.525  11.925  1.00  0.00     0.293 HD
ENDBRANCH  11  25
ENDBRANCH   1   2
BRANCH   1  27
ATOM     27  C   UNL     1      -5.595   2.480  11.451  1.00  0.00     0.339 C 
ATOM     28  C   UNL     1      -5.143   3.880  11.031  1.00  0.00     0.214 C 
ATOM     29  O   UNL     1      -5.982   1.779  10.285  1.00  0.00    -0.332 OA
ATOM     30  C   UNL     1      -6.202   4.561  10.084  1.00  0.00     0.180 C 
ATOM     31  C   UNL     1      -7.242   2.246   9.786  1.00  0.00     0.179 C 
ATOM     32  C   UNL     1      -7.531   3.759  10.066  1.00  0.00     0.177 C 
BRANCH  28  33
ATOM     33  O   UNL     1      -3.895   3.773  10.395  1.00  0.00    -0.384 OA
ATOM     34  H   UNL     1      -3.911   4.393   9.613  1.00  0.00     0.211 HD
ENDBRANCH  28  33
BRANCH  30  35
ATOM     35  O   UNL     1      -5.757   4.702   8.757  1.00  0.00    -0.387 OA
ATOM     36  H   UNL     1      -6.184   4.008   8.182  1.00  0.00     0.211 HD
ENDBRANCH  30  35
BRANCH  31  37
ATOM     37  C   UNL     1      -7.366   1.868   8.295  1.00  0.00     0.191 C 
BRANCH  37  38
ATOM     38  O   UNL     1      -7.817   2.946   7.511  1.00  0.00    -0.394 OA
ATOM     39  H   UNL     1      -8.308   3.581   8.126  1.00  0.00     0.210 HD
ENDBRANCH  37  38
ENDBRANCH  31  37
BRANCH  32  40
ATOM     40  O   UNL     1      -8.188   3.894  11.308  1.00  0.00    -0.387 OA
ATOM     41  H   UNL     1      -7.528   3.726  12.035  1.00  0.00     0.211 HD
ENDBRANCH  32  40
ENDBRANCH   1  27
TORSDOF 12
ENDMDL
MODEL 4
REMARK VINA RESULT:    -5.524      1.853      6.432
REMARK INTER + INTRA:          -9.576
REMARK INTER:                  -8.908
REMARK INTRA:                  -0.668
REMARK UNBOUND:                -1.468
REMARK SMILES O=c1c(O[C@@H]2O[C@H](CO)[C@@H](O)[C@H](O)[C@@H]2O)c(-c2ccc(O)c(O)c2)oc2cc(O)cc(O)c12
REMARK SMILES IDX 4 1 3 2 16 3 25 4 2 5 26 6 1 7 33 8 27 9 31 10 28 11 30 12
REMARK SMILES IDX 17 13 18 14 19 15 20 16 24 17 22 18 21 19 23 21 32 23 29 25
REMARK SMILES IDX 5 27 14 28 6 29 12 30 7 31 10 32 15 33 13 35 8 37 9 38 11 40
REMARK H PARENT 21 20 23 22 32 24 29 26 15 34 13 36 9 39 11 41
REMARK Flexibility Score: inf
ROOT
ATOM      1  O   UNL     1      -4.511   0.285  11.216  1.00  0.00    -0.454 OA
ENDROOT
BRANCH   1   2
ATOM      2  C   UNL     1      -5.710   0.273  10.492  1.00  0.00     0.214 A 
ATOM      3  C   UNL     1      -6.438  -0.910  10.208  1.00  0.00     0.180 A 
ATOM      4  O   UNL     1      -7.415  -0.882   9.311  1.00  0.00    -0.452 OA
ATOM      5  C   UNL     1      -6.135   1.476   9.924  1.00  0.00     0.239 A 
ATOM      6  C   UNL     1      -7.783   0.229   8.690  1.00  0.00     0.146 A 
ATOM      7  O   UNL     1      -5.528   2.534  10.245  1.00  0.00    -0.285 OA
ATOM      8  C   UNL     1      -7.176   1.473   8.975  1.00  0.00     0.111 A 
ATOM      9  C   UNL     1      -8.816   0.155   7.756  1.00  0.00     0.094 A 
ATOM     10  C   UNL     1      -7.659   2.641   8.336  1.00  0.00     0.134 A 
ATOM     11  C   UNL     1      -9.333   1.323   7.178  1.00  0.00     0.123 A 
ATOM     12  C   UNL     1      -8.745   2.551   7.466  1.00  0.00     0.093 A 
BRANCH   3  13
ATOM     13  C   UNL     1      -6.200  -2.196  10.891  1.00  0.00     0.025 A 
ATOM     14  C   UNL     1      -6.672  -2.351  12.202  1.00  0.00     0.016 A 
ATOM     15  C   UNL     1      -6.327  -3.481  12.946  1.00  0.00     0.051 A 
ATOM     16  C   UNL     1      -5.520  -4.480  12.384  1.00  0.00     0.157 A 
ATOM     17  C   UNL     1      -5.286  -3.125  10.376  1.00  0.00     0.062 A 
ATOM     18  C   UNL     1      -4.979  -4.289  11.104  1.00  0.00     0.158 A 
BRANCH  16  19
ATOM     19  O   UNL     1      -5.243  -5.627  13.125  1.00  0.00    -0.504 OA
ATOM     20  H   UNL     1      -5.972  -6.186  13.569  1.00  0.00     0.293 HD
ENDBRANCH  16  19
BRANCH  18  21
ATOM     21  O   UNL     1      -4.137  -5.253  10.552  1.00  0.00    -0.504 OA
ATOM     22  H   UNL     1      -3.649  -5.936  11.122  1.00  0.00     0.293 HD
ENDBRANCH  18  21
ENDBRANCH   3  13
BRANCH  10  23
ATOM     23  O   UNL     1      -7.082   3.903   8.543  1.00  0.00    -0.507 OA
ATOM     24  H   UNL     1      -7.177   4.395   9.428  1.00  0.00     0.293 HD
ENDBRANCH  10  23
BRANCH  11  25
ATOM     25  O   UNL     1     -10.445   1.277   6.329  1.00  0.00    -0.508 OA
ATOM     26  H   UNL     1     -10.402   0.777   5.456  1.00  0.00     0.293 HD
ENDBRANCH  11  25
ENDBRANCH   1   2
BRANCH   1  27
ATOM     27  C   UNL     1      -3.353   1.025  10.823  1.00  0.00     0.339 C 
ATOM     28  C   UNL     1      -2.799   1.835  11.997  1.00  0.00     0.214 C 
ATOM     29  O   UNL     1      -2.347   0.126  10.400  1.00  0.00    -0.332 OA
ATOM     30  C   UNL     1      -1.379   2.428  11.661  1.00  0.00     0.180 C 
ATOM     31  C   UNL     1      -1.302   0.803   9.691  1.00  0.00     0.179 C 
ATOM     32  C   UNL     1      -1.056   2.279  10.151  1.00  0.00     0.177 C 
BRANCH  28  33
ATOM     33  O   UNL     1      -2.742   0.999  13.125  1.00  0.00    -0.384 OA
ATOM     34  H   UNL     1      -2.785   0.058  12.794  1.00  0.00     0.211 HD
ENDBRANCH  28  33
BRANCH  30  35
ATOM     35  O   UNL     1      -0.337   1.832  12.394  1.00  0.00    -0.387 OA
ATOM     36  H   UNL     1       0.457   2.435  12.403  1.00  0.00     0.211 HD
ENDBRANCH  30  35
BRANCH  31  37
ATOM     37  C   UNL     1      -0.027  -0.065   9.722  1.00  0.00     0.191 C 
BRANCH  37  38
ATOM     38  O   UNL     1       1.111   0.678  10.089  1.00  0.00    -0.394 OA
ATOM     39  H   UNL     1       1.800   0.022  10.435  1.00  0.00     0.210 HD
ENDBRANCH  37  38
ENDBRANCH  31  37
BRANCH  32  40
ATOM     40  O   UNL     1      -1.872   3.152   9.399  1.00  0.00    -0.387 OA
ATOM     41  H   UNL     1      -1.511   4.076   9.484  1.00  0.00     0.211 HD
ENDBRANCH  32  40
ENDBRANCH   1  27
TORSDOF 12
ENDMDL
MODEL 5
REMARK VINA RESULT:    -5.377      1.703      6.495
REMARK INTER + INTRA:          -9.361
REMARK INTER:                  -7.991
REMARK INTRA:                  -1.370
REMARK UNBOUND:                -1.468
REMARK SMILES O=c1c(O[C@@H]2O[C@H](CO)[C@@H](O)[C@H](O)[C@@H]2O)c(-c2ccc(O)c(O)c2)oc2cc(O)cc(O)c12
REMARK SMILES IDX 4 1 3 2 16 3 25 4 2 5 26 6 1 7 33 8 27 9 31 10 28 11 30 12
REMARK SMILES IDX 17 13 18 14 19 15 20 16 24 17 22 18 21 19 23 21 32 23 29 25
REMARK SMILES IDX 5 27 14 28 6 29 12 30 7 31 10 32 15 33 13 35 8 37 9 38 11 40
REMARK H PARENT 21 20 23 22 32 24 29 26 15 34 13 36 9 39 11 41
REMARK Flexibility Score: inf
ROOT
ATOM      1  O   UNL     1      -6.429  -1.224  11.466  1.00  0.00    -0.454 OA
ENDROOT
BRANCH   1   2
ATOM      2  C   UNL     1      -6.646  -0.220  10.513  1.00  0.00     0.214 A 
ATOM      3  C   UNL     1      -5.773   0.882  10.329  1.00  0.00     0.180 A 
ATOM      4  O   UNL     1      -6.166   1.918   9.598  1.00  0.00    -0.452 OA
ATOM      5  C   UNL     1      -7.847  -0.252   9.802  1.00  0.00     0.239 A 
ATOM      6  C   UNL     1      -7.339   1.953   8.982  1.00  0.00     0.146 A 
ATOM      7  O   UNL     1      -8.579  -1.273   9.914  1.00  0.00    -0.285 OA
ATOM      8  C   UNL     1      -8.236   0.863   9.034  1.00  0.00     0.111 A 
ATOM      9  C   UNL     1      -7.665   3.091   8.243  1.00  0.00     0.094 A 
ATOM     10  C   UNL     1      -9.443   0.924   8.295  1.00  0.00     0.134 A 
ATOM     11  C   UNL     1      -8.829   3.117   7.462  1.00  0.00     0.123 A 
ATOM     12  C   UNL     1      -9.709   2.040   7.502  1.00  0.00     0.093 A 
BRANCH   3  13
ATOM     13  C   UNL     1      -4.405   0.938  10.877  1.00  0.00     0.025 A 
ATOM     14  C   UNL     1      -4.204   1.590  12.102  1.00  0.00     0.016 A 
ATOM     15  C   UNL     1      -2.910   1.815  12.577  1.00  0.00     0.051 A 
ATOM     16  C   UNL     1      -1.800   1.375  11.842  1.00  0.00     0.157 A 
ATOM     17  C   UNL     1      -3.298   0.618  10.081  1.00  0.00     0.062 A 
ATOM     18  C   UNL     1      -1.995   0.797  10.580  1.00  0.00     0.158 A 
BRANCH  16  19
ATOM     19  O   UNL     1      -0.522   1.554  12.369  1.00  0.00    -0.504 OA
ATOM     20  H   UNL     1      -0.115   0.920  13.057  1.00  0.00     0.293 HD
ENDBRANCH  16  19
BRANCH  18  21
ATOM     21  O   UNL     1      -0.897   0.397   9.819  1.00  0.00    -0.504 OA
ATOM     22  H   UNL     1      -0.033   0.928   9.797  1.00  0.00     0.293 HD
ENDBRANCH  18  21
ENDBRANCH   3  13
BRANCH  10  23
ATOM     23  O   UNL     1     -10.397  -0.104   8.328  1.00  0.00    -0.507 OA
ATOM     24  H   UNL     1     -10.245  -0.957   8.861  1.00  0.00     0.293 HD
ENDBRANCH  10  23
BRANCH  11  25
ATOM     25  O   UNL     1      -9.111   4.203   6.625  1.00  0.00    -0.508 OA
ATOM     26  H   UNL     1      -8.537   4.393   5.820  1.00  0.00     0.293 HD
ENDBRANCH  11  25
ENDBRANCH   1   2
BRANCH   1  27
ATOM     27  C   UNL     1      -6.044  -2.561  11.137  1.00  0.00     0.339 C 
ATOM     28  C   UNL     1      -4.527  -2.732  11.242  1.00  0.00     0.214 C 
ATOM     29  O   UNL     1      -6.648  -3.456  12.050  1.00  0.00    -0.332 OA
ATOM     30  C   UNL     1      -4.118  -4.252  11.158  1.00  0.00     0.180 C 
ATOM     31  C   UNL     1      -6.575  -4.809  11.584  1.00  0.00     0.179 C 
ATOM     32  C   UNL     1      -5.317  -5.127  10.707  1.00  0.00     0.177 C 
BRANCH  28  33
ATOM     33  O   UNL     1      -4.097  -2.161  12.451  1.00  0.00    -0.384 OA
ATOM     34  H   UNL     1      -3.200  -2.550  12.655  1.00  0.00     0.211 HD
ENDBRANCH  28  33
BRANCH  30  35
ATOM     35  O   UNL     1      -3.630  -4.767  12.372  1.00  0.00    -0.387 OA
ATOM     36  H   UNL     1      -2.741  -4.364  12.577  1.00  0.00     0.211 HD
ENDBRANCH  30  35
BRANCH  31  37
ATOM     37  C   UNL     1      -6.739  -5.766  12.782  1.00  0.00     0.191 C 
BRANCH  37  38
ATOM     38  O   UNL     1      -5.747  -6.764  12.803  1.00  0.00    -0.394 OA
ATOM     39  H   UNL     1      -5.782  -7.243  11.912  1.00  0.00     0.210 HD
ENDBRANCH  37  38
ENDBRANCH  31  37
BRANCH  32  40
ATOM     40  O   UNL     1      -5.609  -4.875   9.349  1.00  0.00    -0.387 OA
ATOM     41  H   UNL     1      -6.266  -5.555   9.035  1.00  0.00     0.211 HD
ENDBRANCH  32  40
ENDBRANCH   1  27
TORSDOF 12
ENDMDL
MODEL 6
REMARK VINA RESULT:    -5.328      1.442      5.296
REMARK INTER + INTRA:          -9.289
REMARK INTER:                  -8.050
REMARK INTRA:                  -1.239
REMARK UNBOUND:                -1.468
REMARK SMILES O=c1c(O[C@@H]2O[C@H](CO)[C@@H](O)[C@H](O)[C@@H]2O)c(-c2ccc(O)c(O)c2)oc2cc(O)cc(O)c12
REMARK SMILES IDX 4 1 3 2 16 3 25 4 2 5 26 6 1 7 33 8 27 9 31 10 28 11 30 12
REMARK SMILES IDX 17 13 18 14 19 15 20 16 24 17 22 18 21 19 23 21 32 23 29 25
REMARK SMILES IDX 5 27 14 28 6 29 12 30 7 31 10 32 15 33 13 35 8 37 9 38 11 40
REMARK H PARENT 21 20 23 22 32 24 29 26 15 34 13 36 9 39 11 41
REMARK Flexibility Score: inf
ROOT
ATOM      1  O   UNL     1      -4.644   0.084  11.680  1.00  0.00    -0.454 OA
ENDROOT
BRANCH   1   2
ATOM      2  C   UNL     1      -5.417  -1.045  11.378  1.00  0.00     0.214 A 
ATOM      3  C   UNL     1      -6.682  -0.976  10.741  1.00  0.00     0.180 A 
ATOM      4  O   UNL     1      -7.465  -2.046  10.717  1.00  0.00    -0.452 OA
ATOM      5  C   UNL     1      -4.964  -2.282  11.841  1.00  0.00     0.239 A 
ATOM      6  C   UNL     1      -7.097  -3.213  11.227  1.00  0.00     0.146 A 
ATOM      7  O   UNL     1      -3.806  -2.346  12.335  1.00  0.00    -0.285 OA
ATOM      8  C   UNL     1      -5.820  -3.400  11.801  1.00  0.00     0.111 A 
ATOM      9  C   UNL     1      -7.995  -4.278  11.161  1.00  0.00     0.094 A 
ATOM     10  C   UNL     1      -5.451  -4.687  12.264  1.00  0.00     0.134 A 
ATOM     11  C   UNL     1      -7.600  -5.563  11.559  1.00  0.00     0.123 A 
ATOM     12  C   UNL     1      -6.337  -5.753  12.114  1.00  0.00     0.093 A 
BRANCH   3  13
ATOM     13  C   UNL     1      -7.181   0.228  10.051  1.00  0.00     0.025 A 
ATOM     14  C   UNL     1      -6.926   0.363   8.679  1.00  0.00     0.016 A 
ATOM     15  C   UNL     1      -7.230   1.557   8.020  1.00  0.00     0.051 A 
ATOM     16  C   UNL     1      -7.809   2.624   8.720  1.00  0.00     0.157 A 
ATOM     17  C   UNL     1      -7.634   1.337  10.777  1.00  0.00     0.062 A 
ATOM     18  C   UNL     1      -7.989   2.522  10.106  1.00  0.00     0.158 A 
BRANCH  16  19
ATOM     19  O   UNL     1      -8.162   3.780   8.025  1.00  0.00    -0.504 OA
ATOM     20  H   UNL     1      -8.546   3.761   7.080  1.00  0.00     0.293 HD
ENDBRANCH  16  19
BRANCH  18  21
ATOM     21  O   UNL     1      -8.521   3.594  10.822  1.00  0.00    -0.504 OA
ATOM     22  H   UNL     1      -8.939   3.477  11.739  1.00  0.00     0.293 HD
ENDBRANCH  18  21
ENDBRANCH   3  13
BRANCH  10  23
ATOM     23  O   UNL     1      -4.214  -4.939  12.877  1.00  0.00    -0.507 OA
ATOM     24  H   UNL     1      -3.348  -4.549  12.512  1.00  0.00     0.293 HD
ENDBRANCH  10  23
BRANCH  11  25
ATOM     25  O   UNL     1      -8.448  -6.663  11.390  1.00  0.00    -0.508 OA
ATOM     26  H   UNL     1      -8.362  -7.472  11.985  1.00  0.00     0.293 HD
ENDBRANCH  11  25
ENDBRANCH   1   2
BRANCH   1  27
ATOM     27  C   UNL     1      -3.334   0.313  11.157  1.00  0.00     0.339 C 
ATOM     28  C   UNL     1      -3.400   1.104   9.849  1.00  0.00     0.214 C 
ATOM     29  O   UNL     1      -2.588   1.073  12.088  1.00  0.00    -0.332 OA
ATOM     30  C   UNL     1      -1.971   1.602   9.410  1.00  0.00     0.180 C 
ATOM     31  C   UNL     1      -1.188   1.053  11.780  1.00  0.00     0.179 C 
ATOM     32  C   UNL     1      -0.861   0.922  10.254  1.00  0.00     0.177 C 
BRANCH  28  33
ATOM     33  O   UNL     1      -4.278   2.186  10.027  1.00  0.00    -0.384 OA
ATOM     34  H   UNL     1      -3.938   2.935   9.461  1.00  0.00     0.211 HD
ENDBRANCH  28  33
BRANCH  30  35
ATOM     35  O   UNL     1      -1.810   2.995   9.514  1.00  0.00    -0.387 OA
ATOM     36  H   UNL     1      -0.855   3.237   9.356  1.00  0.00     0.211 HD
ENDBRANCH  30  35
BRANCH  31  37
ATOM     37  C   UNL     1      -0.507   2.265  12.447  1.00  0.00     0.191 C 
BRANCH  37  38
ATOM     38  O   UNL     1       0.241   3.025  11.528  1.00  0.00    -0.394 OA
ATOM     39  H   UNL     1       0.616   2.383  10.841  1.00  0.00     0.210 HD
ENDBRANCH  37  38
ENDBRANCH  31  37
BRANCH  32  40
ATOM     40  O   UNL     1      -0.764  -0.443   9.906  1.00  0.00    -0.387 OA
ATOM     41  H   UNL     1      -1.105  -0.557   8.977  1.00  0.00     0.211 HD
ENDBRANCH  32  40
ENDBRANCH   1  27
TORSDOF 12
ENDMDL
MODEL 7
REMARK VINA RESULT:    -5.284      1.610      4.911
REMARK INTER + INTRA:          -9.224
REMARK INTER:                  -7.862
REMARK INTRA:                  -1.362
REMARK UNBOUND:                -1.468
REMARK SMILES O=c1c(O[C@@H]2O[C@H](CO)[C@@H](O)[C@H](O)[C@@H]2O)c(-c2ccc(O)c(O)c2)oc2cc(O)cc(O)c12
REMARK SMILES IDX 4 1 3 2 16 3 25 4 2 5 26 6 1 7 33 8 27 9 31 10 28 11 30 12
REMARK SMILES IDX 17 13 18 14 19 15 20 16 24 17 22 18 21 19 23 21 32 23 29 25
REMARK SMILES IDX 5 27 14 28 6 29 12 30 7 31 10 32 15 33 13 35 8 37 9 38 11 40
REMARK H PARENT 21 20 23 22 32 24 29 26 15 34 13 36 9 39 11 41
REMARK Flexibility Score: inf
ROOT
ATOM      1  O   UNL     1      -3.161  -0.239  12.011  1.00  0.00    -0.454 OA
ENDROOT
BRANCH   1   2
ATOM      2  C   UNL     1      -4.217  -1.032  11.545  1.00  0.00     0.214 A 
ATOM      3  C   UNL     1      -5.557  -0.577  11.462  1.00  0.00     0.180 A 
ATOM      4  O   UNL     1      -6.537  -1.448  11.258  1.00  0.00    -0.452 OA
ATOM      5  C   UNL     1      -3.945  -2.373  11.267  1.00  0.00     0.239 A 
ATOM      6  C   UNL     1      -6.316  -2.742  11.078  1.00  0.00     0.146 A 
ATOM      7  O   UNL     1      -2.741  -2.750  11.267  1.00  0.00    -0.285 OA
ATOM      8  C   UNL     1      -5.007  -3.274  11.054  1.00  0.00     0.111 A 
ATOM      9  C   UNL     1      -7.413  -3.581  10.880  1.00  0.00     0.094 A 
ATOM     10  C   UNL     1      -4.824  -4.652  10.783  1.00  0.00     0.134 A 
ATOM     11  C   UNL     1      -7.222  -4.929  10.546  1.00  0.00     0.123 A 
ATOM     12  C   UNL     1      -5.933  -5.453  10.510  1.00  0.00     0.093 A 
BRANCH   3  13
ATOM     13  C   UNL     1      -5.941   0.845  11.550  1.00  0.00     0.025 A 
ATOM     14  C   UNL     1      -6.619   1.282  12.696  1.00  0.00     0.016 A 
ATOM     15  C   UNL     1      -7.149   2.573  12.751  1.00  0.00     0.051 A 
ATOM     16  C   UNL     1      -6.992   3.450  11.669  1.00  0.00     0.157 A 
ATOM     17  C   UNL     1      -5.900   1.671  10.419  1.00  0.00     0.062 A 
ATOM     18  C   UNL     1      -6.387   2.989  10.491  1.00  0.00     0.158 A 
BRANCH  16  19
ATOM     19  O   UNL     1      -7.474   4.754  11.775  1.00  0.00    -0.504 OA
ATOM     20  H   UNL     1      -8.376   4.976  12.198  1.00  0.00     0.293 HD
ENDBRANCH  16  19
BRANCH  18  21
ATOM     21  O   UNL     1      -6.267   3.836   9.391  1.00  0.00    -0.504 OA
ATOM     22  H   UNL     1      -5.657   3.623   8.608  1.00  0.00     0.293 HD
ENDBRANCH  18  21
ENDBRANCH   3  13
BRANCH  10  23
ATOM     23  O   UNL     1      -3.558  -5.256  10.779  1.00  0.00    -0.507 OA
ATOM     24  H   UNL     1      -2.713  -4.726  10.981  1.00  0.00     0.293 HD
ENDBRANCH  10  23
BRANCH  11  25
ATOM     25  O   UNL     1      -8.307  -5.754  10.230  1.00  0.00    -0.508 OA
ATOM     26  H   UNL     1      -8.426  -6.643  10.690  1.00  0.00     0.293 HD
ENDBRANCH  11  25
ENDBRANCH   1   2
BRANCH   1  27
ATOM     27  C   UNL     1      -2.634   0.882  11.297  1.00  0.00     0.339 C 
ATOM     28  C   UNL     1      -1.959   1.868  12.253  1.00  0.00     0.214 C 
ATOM     29  O   UNL     1      -1.660   0.431  10.376  1.00  0.00    -0.332 OA
ATOM     30  C   UNL     1      -1.137   2.956  11.464  1.00  0.00     0.180 C 
ATOM     31  C   UNL     1      -1.339   1.443   9.414  1.00  0.00     0.179 C 
ATOM     32  C   UNL     1      -1.465   2.910   9.948  1.00  0.00     0.177 C 
BRANCH  28  33
ATOM     33  O   UNL     1      -1.128   1.144  13.124  1.00  0.00    -0.384 OA
ATOM     34  H   UNL     1      -1.436   0.194  13.100  1.00  0.00     0.211 HD
ENDBRANCH  28  33
BRANCH  30  35
ATOM     35  O   UNL     1       0.255   2.824  11.615  1.00  0.00    -0.387 OA
ATOM     36  H   UNL     1       0.465   1.959  12.064  1.00  0.00     0.211 HD
ENDBRANCH  30  35
BRANCH  31  37
ATOM     37  C   UNL     1       0.041   1.136   8.798  1.00  0.00     0.191 C 
BRANCH  37  38
ATOM     38  O   UNL     1       0.943   0.623   9.749  1.00  0.00    -0.394 OA
ATOM     39  H   UNL     1       1.264  -0.274   9.406  1.00  0.00     0.210 HD
ENDBRANCH  37  38
ENDBRANCH  31  37
BRANCH  32  40
ATOM     40  O   UNL     1      -2.777   3.384   9.728  1.00  0.00    -0.387 OA
ATOM     41  H   UNL     1      -2.722   4.287   9.313  1.00  0.00     0.211 HD
ENDBRANCH  32  40
ENDBRANCH   1  27
TORSDOF 12
ENDMDL
MODEL 8
REMARK VINA RESULT:    -5.175      2.348      6.634
REMARK INTER + INTRA:          -9.064
REMARK INTER:                  -7.321
REMARK INTRA:                  -1.743
REMARK UNBOUND:                -1.468
REMARK SMILES O=c1c(O[C@@H]2O[C@H](CO)[C@@H](O)[C@H](O)[C@@H]2O)c(-c2ccc(O)c(O)c2)oc2cc(O)cc(O)c12
REMARK SMILES IDX 4 1 3 2 16 3 25 4 2 5 26 6 1 7 33 8 27 9 31 10 28 11 30 12
REMARK SMILES IDX 17 13 18 14 19 15 20 16 24 17 22 18 21 19 23 21 32 23 29 25
REMARK SMILES IDX 5 27 14 28 6 29 12 30 7 31 10 32 15 33 13 35 8 37 9 38 11 40
REMARK H PARENT 21 20 23 22 32 24 29 26 15 34 13 36 9 39 11 41
REMARK Flexibility Score: inf
ROOT
ATOM      1  O   UNL     1      -7.754  -2.162  11.969  1.00  0.00    -0.454 OA
ENDROOT
BRANCH   1   2
ATOM      2  C   UNL     1      -7.865  -1.299  10.872  1.00  0.00     0.214 A 
ATOM      3  C   UNL     1      -6.961  -0.236  10.622  1.00  0.00     0.180 A 
ATOM      4  O   UNL     1      -7.266   0.690   9.722  1.00  0.00    -0.452 OA
ATOM      5  C   UNL     1      -8.995  -1.425  10.061  1.00  0.00     0.239 A 
ATOM      6  C   UNL     1      -8.375   0.643   8.998  1.00  0.00     0.146 A 
ATOM      7  O   UNL     1      -9.751  -2.418  10.242  1.00  0.00    -0.285 OA
ATOM      8  C   UNL     1      -9.292  -0.426   9.114  1.00  0.00     0.111 A 
ATOM      9  C   UNL     1      -8.612   1.669   8.083  1.00  0.00     0.094 A 
ATOM     10  C   UNL     1     -10.423  -0.463   8.262  1.00  0.00     0.134 A 
ATOM     11  C   UNL     1      -9.697   1.592   7.198  1.00  0.00     0.123 A 
ATOM     12  C   UNL     1     -10.595   0.534   7.302  1.00  0.00     0.093 A 
BRANCH   3  13
ATOM     13  C   UNL     1      -5.649  -0.110  11.285  1.00  0.00     0.025 A 
ATOM     14  C   UNL     1      -5.592   0.524  12.533  1.00  0.00     0.016 A 
ATOM     15  C   UNL     1      -4.358   0.816  13.120  1.00  0.00     0.051 A 
ATOM     16  C   UNL     1      -3.166   0.462  12.474  1.00  0.00     0.157 A 
ATOM     17  C   UNL     1      -4.462  -0.344  10.578  1.00  0.00     0.062 A 
ATOM     18  C   UNL     1      -3.218  -0.098  11.189  1.00  0.00     0.158 A 
BRANCH  16  19
ATOM     19  O   UNL     1      -1.950   0.706  13.110  1.00  0.00    -0.504 OA
ATOM     20  H   UNL     1      -1.710   0.302  14.016  1.00  0.00     0.293 HD
ENDBRANCH  16  19
BRANCH  18  21
ATOM     21  O   UNL     1      -2.038  -0.412  10.516  1.00  0.00    -0.504 OA
ATOM     22  H   UNL     1      -1.689   0.151   9.747  1.00  0.00     0.293 HD
ENDBRANCH  18  21
ENDBRANCH   3  13
BRANCH  10  23
ATOM     23  O   UNL     1     -11.393  -1.473   8.346  1.00  0.00    -0.507 OA
ATOM     24  H   UNL     1     -12.292  -1.391   7.876  1.00  0.00     0.293 HD
ENDBRANCH  10  23
BRANCH  11  25
ATOM     25  O   UNL     1      -9.882   2.553   6.197  1.00  0.00    -0.508 OA
ATOM     26  H   UNL     1     -10.809   2.813   5.902  1.00  0.00     0.293 HD
ENDBRANCH  11  25
ENDBRANCH   1   2
BRANCH   1  27
ATOM     27  C   UNL     1      -6.945  -3.341  11.975  1.00  0.00     0.339 C 
ATOM     28  C   UNL     1      -7.661  -4.490  12.688  1.00  0.00     0.214 C 
ATOM     29  O   UNL     1      -6.699  -3.742  10.641  1.00  0.00    -0.332 OA
ATOM     30  C   UNL     1      -6.913  -5.857  12.461  1.00  0.00     0.180 C 
ATOM     31  C   UNL     1      -5.639  -4.704  10.570  1.00  0.00     0.179 C 
ATOM     32  C   UNL     1      -5.514  -5.629  11.828  1.00  0.00     0.177 C 
BRANCH  28  33
ATOM     33  O   UNL     1      -8.982  -4.554  12.214  1.00  0.00    -0.384 OA
ATOM     34  H   UNL     1      -9.201  -5.521  12.090  1.00  0.00     0.211 HD
ENDBRANCH  28  33
BRANCH  30  35
ATOM     35  O   UNL     1      -7.623  -6.754  11.643  1.00  0.00    -0.387 OA
ATOM     36  H   UNL     1      -8.374  -6.277  11.192  1.00  0.00     0.211 HD
ENDBRANCH  30  35
BRANCH  31  37
ATOM     37  C   UNL     1      -5.755  -5.488   9.247  1.00  0.00     0.191 C 
BRANCH  37  38
ATOM     38  O   UNL     1      -7.046  -6.016   9.056  1.00  0.00    -0.394 OA
ATOM     39  H   UNL     1      -7.124  -6.838   9.640  1.00  0.00     0.210 HD
ENDBRANCH  37  38
ENDBRANCH  31  37
BRANCH  32  40
ATOM     40  O   UNL     1      -4.654  -5.030  12.773  1.00  0.00    -0.387 OA
ATOM     41  H   UNL     1      -4.895  -4.067  12.855  1.00  0.00     0.211 HD
ENDBRANCH  32  40
ENDBRANCH   1  27
TORSDOF 12
ENDMDL
MODEL 9
REMARK VINA RESULT:    -5.082      1.557      2.238
REMARK INTER + INTRA:          -8.927
REMARK INTER:                  -7.502
REMARK INTRA:                  -1.425
REMARK UNBOUND:                -1.468
REMARK SMILES O=c1c(O[C@@H]2O[C@H](CO)[C@@H](O)[C@H](O)[C@@H]2O)c(-c2ccc(O)c(O)c2)oc2cc(O)cc(O)c12
REMARK SMILES IDX 4 1 3 2 16 3 25 4 2 5 26 6 1 7 33 8 27 9 31 10 28 11 30 12
REMARK SMILES IDX 17 13 18 14 19 15 20 16 24 17 22 18 21 19 23 21 32 23 29 25
REMARK SMILES IDX 5 27 14 28 6 29 12 30 7 31 10 32 15 33 13 35 8 37 9 38 11 40
REMARK H PARENT 21 20 23 22 32 24 29 26 15 34 13 36 9 39 11 41
REMARK Flexibility Score: inf
ROOT
ATOM      1  O   UNL     1      -5.396   1.315  12.302  1.00  0.00    -0.454 OA
ENDROOT
BRANCH   1   2
ATOM      2  C   UNL     1      -5.121  -0.053  12.187  1.00  0.00     0.214 A 
ATOM      3  C   UNL     1      -3.929  -0.564  11.614  1.00  0.00     0.180 A 
ATOM      4  O   UNL     1      -3.846  -1.852  11.305  1.00  0.00    -0.452 OA
ATOM      5  C   UNL     1      -6.131  -0.948  12.545  1.00  0.00     0.239 A 
ATOM      6  C   UNL     1      -4.825  -2.710  11.554  1.00  0.00     0.146 A 
ATOM      7  O   UNL     1      -7.154  -0.491  13.125  1.00  0.00    -0.285 OA
ATOM      8  C   UNL     1      -6.014  -2.310  12.205  1.00  0.00     0.111 A 
ATOM      9  C   UNL     1      -4.647  -4.043  11.185  1.00  0.00     0.094 A 
ATOM     10  C   UNL     1      -6.996  -3.283  12.513  1.00  0.00     0.134 A 
ATOM     11  C   UNL     1      -5.592  -5.012  11.552  1.00  0.00     0.123 A 
ATOM     12  C   UNL     1      -6.758  -4.622  12.203  1.00  0.00     0.093 A 
BRANCH   3  13
ATOM     13  C   UNL     1      -2.727   0.256  11.369  1.00  0.00     0.025 A 
ATOM     14  C   UNL     1      -2.211   1.016  12.428  1.00  0.00     0.016 A 
ATOM     15  C   UNL     1      -1.182   1.933  12.202  1.00  0.00     0.051 A 
ATOM     16  C   UNL     1      -0.643   2.089  10.917  1.00  0.00     0.157 A 
ATOM     17  C   UNL     1      -2.283   0.507  10.064  1.00  0.00     0.062 A 
ATOM     18  C   UNL     1      -1.212   1.392   9.842  1.00  0.00     0.158 A 
BRANCH  16  19
ATOM     19  O   UNL     1       0.426   2.963  10.731  1.00  0.00    -0.504 OA
ATOM     20  H   UNL     1       0.702   3.310   9.812  1.00  0.00     0.293 HD
ENDBRANCH  16  19
BRANCH  18  21
ATOM     21  O   UNL     1      -0.716   1.573   8.552  1.00  0.00    -0.504 OA
ATOM     22  H   UNL     1       0.274   1.697   8.366  1.00  0.00     0.293 HD
ENDBRANCH  18  21
ENDBRANCH   3  13
BRANCH  10  23
ATOM     23  O   UNL     1      -8.215  -2.954  13.124  1.00  0.00    -0.507 OA
ATOM     24  H   UNL     1      -8.490  -1.987  13.279  1.00  0.00     0.293 HD
ENDBRANCH  10  23
BRANCH  11  25
ATOM     25  O   UNL     1      -5.372  -6.369  11.291  1.00  0.00    -0.508 OA
ATOM     26  H   UNL     1      -5.033  -6.982  12.016  1.00  0.00     0.293 HD
ENDBRANCH  11  25
ENDBRANCH   1   2
BRANCH   1  27
ATOM     27  C   UNL     1      -5.970   2.102  11.254  1.00  0.00     0.339 C 
ATOM     28  C   UNL     1      -7.464   2.325  11.498  1.00  0.00     0.214 C 
ATOM     29  O   UNL     1      -5.339   3.367  11.223  1.00  0.00    -0.332 OA
ATOM     30  C   UNL     1      -8.045   3.410  10.514  1.00  0.00     0.180 C 
ATOM     31  C   UNL     1      -5.629   4.068  10.008  1.00  0.00     0.179 C 
ATOM     32  C   UNL     1      -7.030   3.743   9.389  1.00  0.00     0.177 C 
BRANCH  28  33
ATOM     33  O   UNL     1      -7.644   2.711  12.836  1.00  0.00    -0.384 OA
ATOM     34  H   UNL     1      -6.734   2.849  13.226  1.00  0.00     0.211 HD
ENDBRANCH  28  33
BRANCH  30  35
ATOM     35  O   UNL     1      -8.401   4.611  11.154  1.00  0.00    -0.387 OA
ATOM     36  H   UNL     1      -9.382   4.762  11.067  1.00  0.00     0.211 HD
ENDBRANCH  30  35
BRANCH  31  37
ATOM     37  C   UNL     1      -5.394   5.577  10.226  1.00  0.00     0.191 C 
BRANCH  37  38
ATOM     38  O   UNL     1      -5.611   5.958  11.563  1.00  0.00    -0.394 OA
ATOM     39  H   UNL     1      -5.897   6.929  11.557  1.00  0.00     0.210 HD
ENDBRANCH  37  38
ENDBRANCH  31  37
BRANCH  32  40
ATOM     40  O   UNL     1      -6.917   2.647   8.507  1.00  0.00    -0.387 OA
ATOM     41  H   UNL     1      -6.947   1.807   9.042  1.00  0.00     0.211 HD
ENDBRANCH  32  40
ENDBRANCH   1  27
TORSDOF 12
ENDMDL
