MODEL 1
REMARK VINA RESULT:    -4.758      0.000      0.000
REMARK INTER + INTRA:          -6.227
REMARK INTER:                  -6.010
REMARK INTRA:                  -0.218
REMARK UNBOUND:                -0.218
REMARK SMILES CC(C)=CCCC(C)=CCO
REMARK SMILES IDX 7 1 9 2 8 3 6 4 5 5 4 6 1 7 2 8 3 9 10 10 11 11
REMARK H PARENT 11 12
REMARK Flexibility Score: inf
ROOT
ATOM      1  C   UNL     1      30.963  79.365  20.495  1.00  0.00    -0.075 C 
ATOM      2  C   UNL     1      30.535  78.091  20.650  1.00  0.00    -0.000 C 
ATOM      3  C   UNL     1      30.098  80.416  19.841  1.00  0.00     0.039 C 
ENDROOT
BRANCH   1   4
ATOM      4  C   UNL     1      32.347  79.745  20.982  1.00  0.00     0.034 C 
BRANCH   4   5
ATOM      5  C   UNL     1      32.353  80.086  22.479  1.00  0.00     0.032 C 
BRANCH   5   6
ATOM      6  C   UNL     1      33.651  79.686  23.139  1.00  0.00    -0.028 C 
ATOM      7  C   UNL     1      35.578  79.880  24.652  1.00  0.00     0.039 C 
ATOM      8  C   UNL     1      34.319  80.439  24.041  1.00  0.00    -0.080 C 
ATOM      9  C   UNL     1      33.850  81.821  24.433  1.00  0.00     0.039 C 
ENDBRANCH   5   6
ENDBRANCH   4   5
ENDBRANCH   1   4
BRANCH   2  10
ATOM     10  C   UNL     1      29.184  77.602  20.209  1.00  0.00     0.183 C 
BRANCH  10  11
ATOM     11  O   UNL     1      28.950  76.322  20.725  1.00  0.00    -0.392 OA
ATOM     12  H   UNL     1      29.647  76.171  21.414  1.00  0.00     0.210 HD
ENDBRANCH  10  11
ENDBRANCH   2  10
TORSDOF 5
ENDMDL
MODEL 2
REMARK VINA RESULT:    -4.699      2.665      5.364
REMARK INTER + INTRA:          -6.153
REMARK INTER:                  -5.753
REMARK INTRA:                  -0.400
REMARK UNBOUND:                -0.218
REMARK SMILES CC(C)=CCCC(C)=CCO
REMARK SMILES IDX 7 1 9 2 8 3 6 4 5 5 4 6 1 7 2 8 3 9 10 10 11 11
REMARK H PARENT 11 12
REMARK Flexibility Score: inf
ROOT
ATOM      1  C   UNL     1      32.799  81.001  23.553  1.00  0.00    -0.075 C 
ATOM      2  C   UNL     1      31.505  81.392  23.488  1.00  0.00    -0.000 C 
ATOM      3  C   UNL     1      33.821  81.775  24.351  1.00  0.00     0.039 C 
ENDROOT
BRANCH   1   4
ATOM      4  C   UNL     1      33.234  79.760  22.800  1.00  0.00     0.034 C 
BRANCH   4   5
ATOM      5  C   UNL     1      32.781  79.793  21.334  1.00  0.00     0.032 C 
BRANCH   5   6
ATOM      6  C   UNL     1      31.660  78.816  21.072  1.00  0.00    -0.028 C 
ATOM      7  C   UNL     1      29.520  78.011  20.169  1.00  0.00     0.039 C 
ATOM      8  C   UNL     1      30.528  79.109  20.394  1.00  0.00    -0.080 C 
ATOM      9  C   UNL     1      30.240  80.500  19.879  1.00  0.00     0.039 C 
ENDBRANCH   5   6
ENDBRANCH   4   5
ENDBRANCH   1   4
BRANCH   2  10
ATOM     10  C   UNL     1      30.961  82.603  24.194  1.00  0.00     0.183 C 
BRANCH  10  11
ATOM     11  O   UNL     1      30.535  83.550  23.255  1.00  0.00    -0.392 OA
ATOM     12  H   UNL     1      30.219  84.332  23.776  1.00  0.00     0.210 HD
ENDBRANCH  10  11
ENDBRANCH   2  10
TORSDOF 5
ENDMDL
MODEL 3
REMARK VINA RESULT:    -4.534      3.114      6.148
REMARK INTER + INTRA:          -5.945
REMARK INTER:                  -5.706
REMARK INTRA:                  -0.239
REMARK UNBOUND:                -0.218
REMARK SMILES CC(C)=CCCC(C)=CCO
REMARK SMILES IDX 7 1 9 2 8 3 6 4 5 5 4 6 1 7 2 8 3 9 10 10 11 11
REMARK H PARENT 11 12
REMARK Flexibility Score: inf
ROOT
ATOM      1  C   UNL     1      34.121  80.603  23.718  1.00  0.00    -0.075 C 
ATOM      2  C   UNL     1      33.638  81.830  24.020  1.00  0.00    -0.000 C 
ATOM      3  C   UNL     1      35.277  79.998  24.480  1.00  0.00     0.039 C 
ENDROOT
BRANCH   1   4
ATOM      4  C   UNL     1      33.494  79.821  22.582  1.00  0.00     0.034 C 
BRANCH   4   5
ATOM      5  C   UNL     1      32.058  80.283  22.294  1.00  0.00     0.032 C 
BRANCH   5   6
ATOM      6  C   UNL     1      31.204  79.159  21.758  1.00  0.00    -0.028 C 
ATOM      7  C   UNL     1      29.671  78.015  20.216  1.00  0.00     0.039 C 
ATOM      8  C   UNL     1      30.428  79.242  20.655  1.00  0.00    -0.080 C 
ATOM      9  C   UNL     1      30.285  80.525  19.871  1.00  0.00     0.039 C 
ENDBRANCH   5   6
ENDBRANCH   4   5
ENDBRANCH   1   4
BRANCH   2  10
ATOM     10  C   UNL     1      34.179  82.694  25.125  1.00  0.00     0.183 C 
BRANCH  10  11
ATOM     11  O   UNL     1      34.004  84.045  24.802  1.00  0.00    -0.392 OA
ATOM     12  H   UNL     1      33.802  84.508  25.655  1.00  0.00     0.210 HD
ENDBRANCH  10  11
ENDBRANCH   2  10
TORSDOF 5
ENDMDL
MODEL 4
REMARK VINA RESULT:    -4.499      1.817      2.325
REMARK INTER + INTRA:          -5.900
REMARK INTER:                  -5.541
REMARK INTRA:                  -0.359
REMARK UNBOUND:                -0.218
REMARK SMILES CC(C)=CCCC(C)=CCO
REMARK SMILES IDX 7 1 9 2 8 3 6 4 5 5 4 6 1 7 2 8 3 9 10 10 11 11
REMARK H PARENT 11 12
REMARK Flexibility Score: inf
ROOT
ATOM      1  C   UNL     1      30.617  78.898  21.111  1.00  0.00    -0.075 C 
ATOM      2  C   UNL     1      30.868  80.194  20.815  1.00  0.00    -0.000 C 
ATOM      3  C   UNL     1      29.713  78.050  20.248  1.00  0.00     0.039 C 
ENDROOT
BRANCH   1   4
ATOM      4  C   UNL     1      31.251  78.286  22.344  1.00  0.00     0.034 C 
BRANCH   4   5
ATOM      5  C   UNL     1      31.678  79.355  23.359  1.00  0.00     0.032 C 
BRANCH   5   6
ATOM      6  C   UNL     1      33.134  79.220  23.738  1.00  0.00    -0.028 C 
ATOM      7  C   UNL     1      35.352  79.945  24.506  1.00  0.00     0.039 C 
ATOM      8  C   UNL     1      33.930  80.247  24.107  1.00  0.00    -0.080 C 
ATOM      9  C   UNL     1      33.444  81.677  24.112  1.00  0.00     0.039 C 
ENDBRANCH   5   6
ENDBRANCH   4   5
ENDBRANCH   1   4
BRANCH   2  10
ATOM     10  C   UNL     1      30.297  80.906  19.620  1.00  0.00     0.183 C 
BRANCH  10  11
ATOM     11  O   UNL     1      29.075  81.499  19.958  1.00  0.00    -0.392 OA
ATOM     12  H   UNL     1      28.565  81.580  19.111  1.00  0.00     0.210 HD
ENDBRANCH  10  11
ENDBRANCH   2  10
TORSDOF 5
ENDMDL
MODEL 5
REMARK VINA RESULT:    -4.485      2.898      5.783
REMARK INTER + INTRA:          -5.883
REMARK INTER:                  -5.644
REMARK INTRA:                  -0.239
REMARK UNBOUND:                -0.218
REMARK SMILES CC(C)=CCCC(C)=CCO
REMARK SMILES IDX 7 1 9 2 8 3 6 4 5 5 4 6 1 7 2 8 3 9 10 10 11 11
REMARK H PARENT 11 12
REMARK Flexibility Score: inf
ROOT
ATOM      1  C   UNL     1      31.194  78.996  21.019  1.00  0.00    -0.075 C 
ATOM      2  C   UNL     1      30.190  79.477  20.251  1.00  0.00    -0.000 C 
ATOM      3  C   UNL     1      32.488  79.755  21.197  1.00  0.00     0.039 C 
ENDROOT
BRANCH   1   4
ATOM      4  C   UNL     1      31.021  77.659  21.710  1.00  0.00     0.034 C 
BRANCH   4   5
ATOM      5  C   UNL     1      30.256  76.657  20.833  1.00  0.00     0.032 C 
BRANCH   5   6
ATOM      6  C   UNL     1      30.953  75.318  20.774  1.00  0.00    -0.028 C 
ATOM      7  C   UNL     1      31.277  72.957  20.175  1.00  0.00     0.039 C 
ATOM      8  C   UNL     1      30.437  74.208  20.200  1.00  0.00    -0.080 C 
ATOM      9  C   UNL     1      29.048  74.185  19.608  1.00  0.00     0.039 C 
ENDBRANCH   5   6
ENDBRANCH   4   5
ENDBRANCH   1   4
BRANCH   2  10
ATOM     10  C   UNL     1      30.249  80.790  19.522  1.00  0.00     0.183 C 
BRANCH  10  11
ATOM     11  O   UNL     1      29.115  81.553  19.823  1.00  0.00    -0.392 OA
ATOM     12  H   UNL     1      28.535  81.514  19.019  1.00  0.00     0.210 HD
ENDBRANCH  10  11
ENDBRANCH   2  10
TORSDOF 5
ENDMDL
MODEL 6
REMARK VINA RESULT:    -4.430      7.139      8.499
REMARK INTER + INTRA:          -5.814
REMARK INTER:                  -5.303
REMARK INTRA:                  -0.511
REMARK UNBOUND:                -0.218
REMARK SMILES CC(C)=CCCC(C)=CCO
REMARK SMILES IDX 7 1 9 2 8 3 6 4 5 5 4 6 1 7 2 8 3 9 10 10 11 11
REMARK H PARENT 11 12
REMARK Flexibility Score: inf
ROOT
ATOM      1  C   UNL     1      30.738  73.194  18.620  1.00  0.00    -0.075 C 
ATOM      2  C   UNL     1      29.725  73.547  19.444  1.00  0.00    -0.000 C 
ATOM      3  C   UNL     1      30.479  72.631  17.243  1.00  0.00     0.039 C 
ENDROOT
BRANCH   1   4
ATOM      4  C   UNL     1      32.168  73.360  19.093  1.00  0.00     0.034 C 
BRANCH   4   5
ATOM      5  C   UNL     1      32.525  72.356  20.199  1.00  0.00     0.032 C 
BRANCH   5   6
ATOM      6  C   UNL     1      33.723  71.514  19.826  1.00  0.00    -0.028 C 
ATOM      7  C   UNL     1      34.952  69.653  18.796  1.00  0.00     0.039 C 
ATOM      8  C   UNL     1      33.662  70.353  19.138  1.00  0.00    -0.080 C 
ATOM      9  C   UNL     1      32.347  69.737  18.722  1.00  0.00     0.039 C 
ENDBRANCH   5   6
ENDBRANCH   4   5
ENDBRANCH   1   4
BRANCH   2  10
ATOM     10  C   UNL     1      28.271  73.429  19.082  1.00  0.00     0.183 C 
BRANCH  10  11
ATOM     11  O   UNL     1      27.859  74.574  18.390  1.00  0.00    -0.392 OA
ATOM     12  H   UNL     1      27.013  74.330  17.932  1.00  0.00     0.210 HD
ENDBRANCH  10  11
ENDBRANCH   2  10
TORSDOF 5
ENDMDL
MODEL 7
REMARK VINA RESULT:    -4.419      2.961      5.066
REMARK INTER + INTRA:          -5.799
REMARK INTER:                  -5.541
REMARK INTRA:                  -0.258
REMARK UNBOUND:                -0.218
REMARK SMILES CC(C)=CCCC(C)=CCO
REMARK SMILES IDX 7 1 9 2 8 3 6 4 5 5 4 6 1 7 2 8 3 9 10 10 11 11
REMARK H PARENT 11 12
REMARK Flexibility Score: inf
ROOT
ATOM      1  C   UNL     1      29.910  74.905  20.466  1.00  0.00    -0.075 C 
ATOM      2  C   UNL     1      31.182  74.525  20.726  1.00  0.00    -0.000 C 
ATOM      3  C   UNL     1      28.960  74.016  19.699  1.00  0.00     0.039 C 
ENDROOT
BRANCH   1   4
ATOM      4  C   UNL     1      29.430  76.259  20.948  1.00  0.00     0.034 C 
BRANCH   4   5
ATOM      5  C   UNL     1      30.554  77.304  20.931  1.00  0.00     0.032 C 
BRANCH   5   6
ATOM      6  C   UNL     1      30.085  78.622  20.360  1.00  0.00    -0.028 C 
ATOM      7  C   UNL     1      30.247  80.967  19.645  1.00  0.00     0.039 C 
ATOM      8  C   UNL     1      30.840  79.740  20.290  1.00  0.00    -0.080 C 
ATOM      9  C   UNL     1      32.241  79.798  20.852  1.00  0.00     0.039 C 
ENDBRANCH   5   6
ENDBRANCH   4   5
ENDBRANCH   1   4
BRANCH   2  10
ATOM     10  C   UNL     1      31.766  73.207  20.300  1.00  0.00     0.183 C 
BRANCH  10  11
ATOM     11  O   UNL     1      32.378  73.340  19.048  1.00  0.00    -0.392 OA
ATOM     12  H   UNL     1      32.621  74.298  18.961  1.00  0.00     0.210 HD
ENDBRANCH  10  11
ENDBRANCH   2  10
TORSDOF 5
ENDMDL
MODEL 8
REMARK VINA RESULT:    -4.374      2.914      5.045
REMARK INTER + INTRA:          -5.743
REMARK INTER:                  -5.495
REMARK INTRA:                  -0.248
REMARK UNBOUND:                -0.218
REMARK SMILES CC(C)=CCCC(C)=CCO
REMARK SMILES IDX 7 1 9 2 8 3 6 4 5 5 4 6 1 7 2 8 3 9 10 10 11 11
REMARK H PARENT 11 12
REMARK Flexibility Score: inf
ROOT
ATOM      1  C   UNL     1      29.844  74.916  20.326  1.00  0.00    -0.075 C 
ATOM      2  C   UNL     1      28.957  74.184  19.613  1.00  0.00    -0.000 C 
ATOM      3  C   UNL     1      31.269  74.458  20.525  1.00  0.00     0.039 C 
ENDROOT
BRANCH   1   4
ATOM      4  C   UNL     1      29.394  76.223  20.947  1.00  0.00     0.034 C 
BRANCH   4   5
ATOM      5  C   UNL     1      30.516  77.271  20.950  1.00  0.00     0.032 C 
BRANCH   5   6
ATOM      6  C   UNL     1      30.062  78.579  20.347  1.00  0.00    -0.028 C 
ATOM      7  C   UNL     1      30.242  80.914  19.602  1.00  0.00     0.039 C 
ATOM      8  C   UNL     1      30.817  79.698  20.282  1.00  0.00    -0.080 C 
ATOM      9  C   UNL     1      32.201  79.767  20.885  1.00  0.00     0.039 C 
ENDBRANCH   5   6
ENDBRANCH   4   5
ENDBRANCH   1   4
BRANCH   2  10
ATOM     10  C   UNL     1      29.291  72.876  18.951  1.00  0.00     0.183 C 
BRANCH  10  11
ATOM     11  O   UNL     1      29.546  73.083  17.591  1.00  0.00    -0.392 OA
ATOM     12  H   UNL     1      29.709  74.056  17.486  1.00  0.00     0.210 HD
ENDBRANCH  10  11
ENDBRANCH   2  10
TORSDOF 5
ENDMDL
MODEL 9
REMARK VINA RESULT:    -4.164      2.736      4.965
REMARK INTER + INTRA:          -5.477
REMARK INTER:                  -4.833
REMARK INTRA:                  -0.645
REMARK UNBOUND:                -0.218
REMARK SMILES CC(C)=CCCC(C)=CCO
REMARK SMILES IDX 7 1 9 2 8 3 6 4 5 5 4 6 1 7 2 8 3 9 10 10 11 11
REMARK H PARENT 11 12
REMARK Flexibility Score: inf
ROOT
ATOM      1  C   UNL     1      31.731  80.189  21.687  1.00  0.00    -0.075 C 
ATOM      2  C   UNL     1      32.978  79.822  22.061  1.00  0.00    -0.000 C 
ATOM      3  C   UNL     1      30.820  80.957  22.614  1.00  0.00     0.039 C 
ENDROOT
BRANCH   1   4
ATOM      4  C   UNL     1      31.233  79.811  20.306  1.00  0.00     0.034 C 
BRANCH   4   5
ATOM      5  C   UNL     1      30.077  78.803  20.371  1.00  0.00     0.032 C 
BRANCH   5   6
ATOM      6  C   UNL     1      30.559  77.421  20.746  1.00  0.00    -0.028 C 
ATOM      7  C   UNL     1      30.786  75.394  22.116  1.00  0.00     0.039 C 
ATOM      8  C   UNL     1      30.273  76.796  21.909  1.00  0.00    -0.080 C 
ATOM      9  C   UNL     1      29.477  77.467  23.004  1.00  0.00     0.039 C 
ENDBRANCH   5   6
ENDBRANCH   4   5
ENDBRANCH   1   4
BRANCH   2  10
ATOM     10  C   UNL     1      33.578  80.143  23.402  1.00  0.00     0.183 C 
BRANCH  10  11
ATOM     11  O   UNL     1      34.954  79.888  23.380  1.00  0.00    -0.392 OA
ATOM     12  H   UNL     1      35.166  79.449  24.244  1.00  0.00     0.210 HD
ENDBRANCH  10  11
ENDBRANCH   2  10
TORSDOF 5
ENDMDL
