MODEL 1
REMARK VINA RESULT:    -3.079      0.000      0.000
REMARK INTER + INTRA:          -3.478
REMARK INTER:                  -3.440
REMARK INTRA:                  -0.038
REMARK UNBOUND:                -0.038
REMARK SMILES CCCC(=O)[O-]
REMARK SMILES IDX 3 1 4 2 5 3 6 4 2 5 1 6
REMARK H PARENT
REMARK Flexibility Score: inf
ROOT
ATOM      1  C   UNL     1      -1.969   8.409  21.439  1.00  0.00     0.052 C 
ENDROOT
BRANCH   1   2
ATOM      2  C   UNL     1      -1.490   9.116  22.670  1.00  0.00     0.041 C 
ATOM      3  O   UNL     1      -2.264   9.884  23.301  1.00  0.00    -0.550 OA
ATOM      4  O   UNL     1      -0.201   8.901  23.140  1.00  0.00    -0.550 OA
ENDBRANCH   1   2
BRANCH   1   5
ATOM      5  C   UNL     1      -2.962   9.264  20.640  1.00  0.00     0.003 C 
ATOM      6  C   UNL     1      -4.377   8.686  20.664  1.00  0.00     0.004 C 
ENDBRANCH   1   5
TORSDOF 2
ENDMDL
MODEL 2
REMARK VINA RESULT:    -3.046      0.162      1.330
REMARK INTER + INTRA:          -3.440
REMARK INTER:                  -3.402
REMARK INTRA:                  -0.038
REMARK UNBOUND:                -0.038
REMARK SMILES CCCC(=O)[O-]
REMARK SMILES IDX 3 1 4 2 5 3 6 4 2 5 1 6
REMARK H PARENT
REMARK Flexibility Score: inf
ROOT
ATOM      1  C   UNL     1      -2.026   8.469  21.398  1.00  0.00     0.052 C 
ENDROOT
BRANCH   1   2
ATOM      2  C   UNL     1      -1.582   9.070  22.696  1.00  0.00     0.041 C 
ATOM      3  O   UNL     1      -0.402   8.900  23.102  1.00  0.00    -0.550 OA
ATOM      4  O   UNL     1      -2.461   9.846  23.441  1.00  0.00    -0.550 OA
ENDBRANCH   1   2
BRANCH   1   5
ATOM      5  C   UNL     1      -3.009   9.383  20.654  1.00  0.00     0.003 C 
ATOM      6  C   UNL     1      -4.428   8.815  20.631  1.00  0.00     0.004 C 
ENDBRANCH   1   5
TORSDOF 2
ENDMDL
MODEL 3
REMARK VINA RESULT:    -3.006      2.046      3.080
REMARK INTER + INTRA:          -3.396
REMARK INTER:                  -3.332
REMARK INTRA:                  -0.063
REMARK UNBOUND:                -0.038
REMARK SMILES CCCC(=O)[O-]
REMARK SMILES IDX 3 1 4 2 5 3 6 4 2 5 1 6
REMARK H PARENT
REMARK Flexibility Score: inf
ROOT
ATOM      1  C   UNL     1      -1.892   8.427  21.162  1.00  0.00     0.052 C 
ENDROOT
BRANCH   1   2
ATOM      2  C   UNL     1      -3.136   9.175  20.794  1.00  0.00     0.041 C 
ATOM      3  O   UNL     1      -4.135   8.559  20.337  1.00  0.00    -0.550 OA
ATOM      4  O   UNL     1      -3.206  10.549  20.989  1.00  0.00    -0.550 OA
ENDBRANCH   1   2
BRANCH   1   5
ATOM      5  C   UNL     1      -1.390   8.809  22.561  1.00  0.00     0.003 C 
ATOM      6  C   UNL     1      -2.246   8.202  23.672  1.00  0.00     0.004 C 
ENDBRANCH   1   5
TORSDOF 2
ENDMDL
MODEL 4
REMARK VINA RESULT:    -2.988      2.692      3.162
REMARK INTER + INTRA:          -3.375
REMARK INTER:                  -3.348
REMARK INTRA:                  -0.028
REMARK UNBOUND:                -0.038
REMARK SMILES CCCC(=O)[O-]
REMARK SMILES IDX 3 1 4 2 5 3 6 4 2 5 1 6
REMARK H PARENT
REMARK Flexibility Score: inf
ROOT
ATOM      1  C   UNL     1      -2.949  10.220  22.177  1.00  0.00     0.052 C 
ENDROOT
BRANCH   1   2
ATOM      2  C   UNL     1      -2.914   9.105  21.177  1.00  0.00     0.041 C 
ATOM      3  O   UNL     1      -1.875   8.407  21.043  1.00  0.00    -0.550 OA
ATOM      4  O   UNL     1      -4.040   8.816  20.417  1.00  0.00    -0.550 OA
ENDBRANCH   1   2
BRANCH   1   5
ATOM      5  C   UNL     1      -3.276  11.567  21.518  1.00  0.00     0.003 C 
ATOM      6  C   UNL     1      -4.454  12.271  22.190  1.00  0.00     0.004 C 
ENDBRANCH   1   5
TORSDOF 2
ENDMDL
MODEL 5
REMARK VINA RESULT:    -2.947      1.804      2.630
REMARK INTER + INTRA:          -3.330
REMARK INTER:                  -3.277
REMARK INTRA:                  -0.053
REMARK UNBOUND:                -0.038
REMARK SMILES CCCC(=O)[O-]
REMARK SMILES IDX 3 1 4 2 5 3 6 4 2 5 1 6
REMARK H PARENT
REMARK Flexibility Score: inf
ROOT
ATOM      1  C   UNL     1      -3.858   9.883  21.581  1.00  0.00     0.052 C 
ENDROOT
BRANCH   1   2
ATOM      2  C   UNL     1      -3.227  11.139  22.097  1.00  0.00     0.041 C 
ATOM      3  O   UNL     1      -3.171  12.165  21.369  1.00  0.00    -0.550 OA
ATOM      4  O   UNL     1      -2.731  11.188  23.394  1.00  0.00    -0.550 OA
ENDBRANCH   1   2
BRANCH   1   5
ATOM      5  C   UNL     1      -2.956   9.167  20.567  1.00  0.00     0.003 C 
ATOM      6  C   UNL     1      -1.848   8.359  21.244  1.00  0.00     0.004 C 
ENDBRANCH   1   5
TORSDOF 2
ENDMDL
MODEL 6
REMARK VINA RESULT:    -2.915      5.569      6.960
REMARK INTER + INTRA:          -3.294
REMARK INTER:                  -3.282
REMARK INTRA:                  -0.012
REMARK UNBOUND:                -0.038
REMARK SMILES CCCC(=O)[O-]
REMARK SMILES IDX 3 1 4 2 5 3 6 4 2 5 1 6
REMARK H PARENT
REMARK Flexibility Score: inf
ROOT
ATOM      1  C   UNL     1       3.084   9.609  26.283  1.00  0.00     0.052 C 
ENDROOT
BRANCH   1   2
ATOM      2  C   UNL     1       1.894   9.972  25.448  1.00  0.00     0.041 C 
ATOM      3  O   UNL     1       1.604   9.291  24.429  1.00  0.00    -0.550 OA
ATOM      4  O   UNL     1       1.087  11.042  25.813  1.00  0.00    -0.550 OA
ENDBRANCH   1   2
BRANCH   1   5
ATOM      5  C   UNL     1       3.546   8.170  26.021  1.00  0.00     0.003 C 
ATOM      6  C   UNL     1       4.166   7.524  27.260  1.00  0.00     0.004 C 
ENDBRANCH   1   5
TORSDOF 2
ENDMDL
MODEL 7
REMARK VINA RESULT:    -2.844      7.939      8.762
REMARK INTER + INTRA:          -3.214
REMARK INTER:                  -3.204
REMARK INTRA:                  -0.010
REMARK UNBOUND:                -0.038
REMARK SMILES CCCC(=O)[O-]
REMARK SMILES IDX 3 1 4 2 5 3 6 4 2 5 1 6
REMARK H PARENT
REMARK Flexibility Score: inf
ROOT
ATOM      1  C   UNL     1       3.294  15.552  23.929  1.00  0.00     0.052 C 
ENDROOT
BRANCH   1   2
ATOM      2  C   UNL     1       1.807  15.604  24.102  1.00  0.00     0.041 C 
ATOM      3  O   UNL     1       1.222  14.748  24.815  1.00  0.00    -0.550 OA
ATOM      4  O   UNL     1       1.072  16.619  23.504  1.00  0.00    -0.550 OA
ENDBRANCH   1   2
BRANCH   1   5
ATOM      5  C   UNL     1       3.860  14.169  24.275  1.00  0.00     0.003 C 
ATOM      6  C   UNL     1       5.386  14.128  24.196  1.00  0.00     0.004 C 
ENDBRANCH   1   5
TORSDOF 2
ENDMDL
MODEL 8
REMARK VINA RESULT:    -2.765      7.963      8.545
REMARK INTER + INTRA:          -3.127
REMARK INTER:                  -3.064
REMARK INTRA:                  -0.063
REMARK UNBOUND:                -0.038
REMARK SMILES CCCC(=O)[O-]
REMARK SMILES IDX 3 1 4 2 5 3 6 4 2 5 1 6
REMARK H PARENT
REMARK Flexibility Score: inf
ROOT
ATOM      1  C   UNL     1       3.090  15.242  23.953  1.00  0.00     0.052 C 
ENDROOT
BRANCH   1   2
ATOM      2  C   UNL     1       3.528  14.023  24.705  1.00  0.00     0.041 C 
ATOM      3  O   UNL     1       2.705  13.101  24.952  1.00  0.00    -0.550 OA
ATOM      4  O   UNL     1       4.852  13.888  25.104  1.00  0.00    -0.550 OA
ENDBRANCH   1   2
BRANCH   1   5
ATOM      5  C   UNL     1       1.858  15.894  24.594  1.00  0.00     0.003 C 
ATOM      6  C   UNL     1       2.153  16.453  25.986  1.00  0.00     0.004 C 
ENDBRANCH   1   5
TORSDOF 2
ENDMDL
MODEL 9
REMARK VINA RESULT:    -2.760      8.213      9.167
REMARK INTER + INTRA:          -3.121
REMARK INTER:                  -3.116
REMARK INTRA:                  -0.006
REMARK UNBOUND:                -0.038
REMARK SMILES CCCC(=O)[O-]
REMARK SMILES IDX 3 1 4 2 5 3 6 4 2 5 1 6
REMARK H PARENT
REMARK Flexibility Score: inf
ROOT
ATOM      1  C   UNL     1       2.745  16.169  23.508  1.00  0.00     0.052 C 
ENDROOT
BRANCH   1   2
ATOM      2  C   UNL     1       2.639  14.826  24.164  1.00  0.00     0.041 C 
ATOM      3  O   UNL     1       1.739  14.607  25.017  1.00  0.00    -0.550 OA
ATOM      4  O   UNL     1       3.511  13.806  23.807  1.00  0.00    -0.550 OA
ENDBRANCH   1   2
BRANCH   1   5
ATOM      5  C   UNL     1       4.172  16.729  23.587  1.00  0.00     0.003 C 
ATOM      6  C   UNL     1       4.251  18.185  23.129  1.00  0.00     0.004 C 
ENDBRANCH   1   5
TORSDOF 2
ENDMDL
