MODEL 1
REMARK VINA RESULT:    -4.527      0.000      0.000
REMARK INTER + INTRA:          -8.257
REMARK INTER:                  -6.379
REMARK INTRA:                  -1.878
REMARK UNBOUND:                -1.878
REMARK SMILES C=CC(=C)CCC=C(C)CCC=C(C)C
REMARK SMILES IDX 8 1 7 2 9 3 10 4 11 5 12 6 14 7 13 8 15 9 6 10 5 11 3 12
REMARK SMILES IDX 4 13 2 14 1 15
REMARK H PARENT
REMARK Flexibility Score: inf
ROOT
ATOM      1  C   UNL     1     138.953 143.362 133.924  1.00  0.00    -0.077 C 
ATOM      2  C   UNL     1     138.164 142.479 133.269  1.00  0.00    -0.028 C 
ATOM      3  C   UNL     1     139.110 143.328 135.427  1.00  0.00     0.039 C 
ENDROOT
BRANCH   1   4
ATOM      4  C   UNL     1     139.681 144.425 133.130  1.00  0.00     0.034 C 
BRANCH   4   5
ATOM      5  C   UNL     1     140.968 144.853 133.844  1.00  0.00     0.032 C 
BRANCH   5   6
ATOM      6  C   UNL     1     142.169 144.125 133.291  1.00  0.00    -0.028 C 
ATOM      7  C   UNL     1     144.243 142.779 133.457  1.00  0.00     0.039 C 
ATOM      8  C   UNL     1     143.065 143.487 134.075  1.00  0.00    -0.080 C 
ATOM      9  C   UNL     1     142.924 143.458 135.577  1.00  0.00     0.039 C 
ENDBRANCH   5   6
ENDBRANCH   4   5
ENDBRANCH   1   4
BRANCH   2  10
ATOM     10  C   UNL     1     137.426 141.342 133.930  1.00  0.00     0.032 C 
BRANCH  10  11
ATOM     11  C   UNL     1     138.097 140.003 133.608  1.00  0.00     0.039 C 
BRANCH  11  12
ATOM     12  C   UNL     1     139.169 139.679 134.627  1.00  0.00    -0.055 C 
ATOM     13  C   UNL     1     138.828 139.024 135.741  1.00  0.00     0.012 C 
BRANCH  12  14
ATOM     14  C   UNL     1     140.599 140.020 134.408  1.00  0.00    -0.005 C 
ATOM     15  C   UNL     1     141.117 140.342 133.222  1.00  0.00     0.009 C 
ENDBRANCH  12  14
ENDBRANCH  11  12
ENDBRANCH  10  11
ENDBRANCH   2  10
TORSDOF 7
ENDMDL
MODEL 2
REMARK VINA RESULT:    -4.507      1.682      4.270
REMARK INTER + INTRA:          -8.229
REMARK INTER:                  -6.382
REMARK INTRA:                  -1.847
REMARK UNBOUND:                -1.878
REMARK SMILES C=CC(=C)CCC=C(C)CCC=C(C)C
REMARK SMILES IDX 8 1 7 2 9 3 10 4 11 5 12 6 14 7 13 8 15 9 6 10 5 11 3 12
REMARK SMILES IDX 4 13 2 14 1 15
REMARK H PARENT
REMARK Flexibility Score: inf
ROOT
ATOM      1  C   UNL     1     143.285 143.341 134.202  1.00  0.00    -0.077 C 
ATOM      2  C   UNL     1     142.404 144.123 133.536  1.00  0.00    -0.028 C 
ATOM      3  C   UNL     1     143.219 143.163 135.701  1.00  0.00     0.039 C 
ENDROOT
BRANCH   1   4
ATOM      4  C   UNL     1     144.378 142.642 133.423  1.00  0.00     0.034 C 
BRANCH   4   5
ATOM      5  C   UNL     1     144.778 141.328 134.104  1.00  0.00     0.032 C 
BRANCH   5   6
ATOM      6  C   UNL     1     144.162 140.140 133.405  1.00  0.00    -0.028 C 
ATOM      7  C   UNL     1     142.913 138.002 133.303  1.00  0.00     0.039 C 
ATOM      8  C   UNL     1     143.503 139.161 134.063  1.00  0.00    -0.080 C 
ATOM      9  C   UNL     1     143.336 139.190 135.562  1.00  0.00     0.039 C 
ENDBRANCH   5   6
ENDBRANCH   4   5
ENDBRANCH   1   4
BRANCH   2  10
ATOM     10  C   UNL     1     141.240 144.833 134.181  1.00  0.00     0.032 C 
BRANCH  10  11
ATOM     11  C   UNL     1     139.922 144.132 133.835  1.00  0.00     0.039 C 
BRANCH  11  12
ATOM     12  C   UNL     1     139.590 143.072 134.864  1.00  0.00    -0.055 C 
ATOM     13  C   UNL     1     138.935 143.428 135.973  1.00  0.00     0.012 C 
BRANCH  12  14
ATOM     14  C   UNL     1     139.923 141.638 134.660  1.00  0.00    -0.005 C 
ATOM     15  C   UNL     1     140.352 141.128 133.505  1.00  0.00     0.009 C 
ENDBRANCH  12  14
ENDBRANCH  11  12
ENDBRANCH  10  11
ENDBRANCH   2  10
TORSDOF 7
ENDMDL
MODEL 3
REMARK VINA RESULT:    -4.501      2.047      6.106
REMARK INTER + INTRA:          -8.221
REMARK INTER:                  -6.326
REMARK INTRA:                  -1.895
REMARK UNBOUND:                -1.878
REMARK SMILES C=CC(=C)CCC=C(C)CCC=C(C)C
REMARK SMILES IDX 8 1 7 2 9 3 10 4 11 5 12 6 14 7 13 8 15 9 6 10 5 11 3 12
REMARK SMILES IDX 4 13 2 14 1 15
REMARK H PARENT
REMARK Flexibility Score: inf
ROOT
ATOM      1  C   UNL     1     143.191 138.709 133.706  1.00  0.00    -0.077 C 
ATOM      2  C   UNL     1     143.995 139.583 133.056  1.00  0.00    -0.028 C 
ATOM      3  C   UNL     1     143.056 138.719 135.211  1.00  0.00     0.039 C 
ENDROOT
BRANCH   1   4
ATOM      4  C   UNL     1     142.424 137.681 132.903  1.00  0.00     0.034 C 
BRANCH   4   5
ATOM      5  C   UNL     1     141.138 137.271 133.629  1.00  0.00     0.032 C 
BRANCH   5   6
ATOM      6  C   UNL     1     139.952 138.060 133.131  1.00  0.00    -0.028 C 
ATOM      7  C   UNL     1     137.938 139.480 133.392  1.00  0.00     0.039 C 
ATOM      8  C   UNL     1     139.103 138.711 133.957  1.00  0.00    -0.080 C 
ATOM      9  C   UNL     1     139.288 138.692 135.454  1.00  0.00     0.039 C 
ENDBRANCH   5   6
ENDBRANCH   4   5
ENDBRANCH   1   4
BRANCH   2  10
ATOM     10  C   UNL     1     144.772 140.687 133.727  1.00  0.00     0.032 C 
BRANCH  10  11
ATOM     11  C   UNL     1     144.119 142.047 133.460  1.00  0.00     0.039 C 
BRANCH  11  12
ATOM     12  C   UNL     1     143.110 142.380 134.537  1.00  0.00    -0.055 C 
ATOM     13  C   UNL     1     143.538 142.919 135.684  1.00  0.00     0.012 C 
BRANCH  12  14
ATOM     14  C   UNL     1     141.650 142.175 134.346  1.00  0.00    -0.005 C 
ATOM     15  C   UNL     1     141.097 141.764 133.205  1.00  0.00     0.009 C 
ENDBRANCH  12  14
ENDBRANCH  11  12
ENDBRANCH  10  11
ENDBRANCH   2  10
TORSDOF 7
ENDMDL
MODEL 4
REMARK VINA RESULT:    -4.478      1.730      4.234
REMARK INTER + INTRA:          -8.188
REMARK INTER:                  -6.385
REMARK INTRA:                  -1.802
REMARK UNBOUND:                -1.878
REMARK SMILES C=CC(=C)CCC=C(C)CCC=C(C)C
REMARK SMILES IDX 8 1 7 2 9 3 10 4 11 5 12 6 14 7 13 8 15 9 6 10 5 11 3 12
REMARK SMILES IDX 4 13 2 14 1 15
REMARK H PARENT
REMARK Flexibility Score: inf
ROOT
ATOM      1  C   UNL     1     138.678 139.023 133.720  1.00  0.00    -0.077 C 
ATOM      2  C   UNL     1     139.519 138.214 133.037  1.00  0.00    -0.028 C 
ATOM      3  C   UNL     1     138.740 139.151 135.224  1.00  0.00     0.039 C 
ENDROOT
BRANCH   1   4
ATOM      4  C   UNL     1     137.632 139.806 132.956  1.00  0.00     0.034 C 
BRANCH   4   5
ATOM      5  C   UNL     1     137.338 141.143 133.648  1.00  0.00     0.032 C 
BRANCH   5   6
ATOM      6  C   UNL     1     138.082 142.277 132.987  1.00  0.00    -0.028 C 
ATOM      7  C   UNL     1     139.505 144.305 132.958  1.00  0.00     0.039 C 
ATOM      8  C   UNL     1     138.786 143.198 133.682  1.00  0.00    -0.080 C 
ATOM      9  C   UNL     1     138.876 143.153 135.187  1.00  0.00     0.039 C 
ENDBRANCH   5   6
ENDBRANCH   4   5
ENDBRANCH   1   4
BRANCH   2  10
ATOM     10  C   UNL     1     140.636 137.420 133.667  1.00  0.00     0.032 C 
BRANCH  10  11
ATOM     11  C   UNL     1     141.998 138.013 133.292  1.00  0.00     0.039 C 
BRANCH  11  12
ATOM     12  C   UNL     1     142.428 139.055 134.302  1.00  0.00    -0.055 C 
ATOM     13  C   UNL     1     143.236 138.693 135.304  1.00  0.00     0.012 C 
BRANCH  12  14
ATOM     14  C   UNL     1     142.023 140.481 134.191  1.00  0.00    -0.005 C 
ATOM     15  C   UNL     1     141.830 141.114 133.033  1.00  0.00     0.009 C 
ENDBRANCH  12  14
ENDBRANCH  11  12
ENDBRANCH  10  11
ENDBRANCH   2  10
TORSDOF 7
ENDMDL
MODEL 5
REMARK VINA RESULT:    -4.364      0.965      4.557
REMARK INTER + INTRA:          -8.027
REMARK INTER:                  -6.159
REMARK INTRA:                  -1.868
REMARK UNBOUND:                -1.878
REMARK SMILES C=CC(=C)CCC=C(C)CCC=C(C)C
REMARK SMILES IDX 8 1 7 2 9 3 10 4 11 5 12 6 14 7 13 8 15 9 6 10 5 11 3 12
REMARK SMILES IDX 4 13 2 14 1 15
REMARK H PARENT
REMARK Flexibility Score: inf
ROOT
ATOM      1  C   UNL     1     138.916 143.293 133.997  1.00  0.00    -0.077 C 
ATOM      2  C   UNL     1     139.905 143.968 133.366  1.00  0.00    -0.028 C 
ATOM      3  C   UNL     1     138.818 143.249 135.504  1.00  0.00     0.039 C 
ENDROOT
BRANCH   1   4
ATOM      4  C   UNL     1     137.894 142.545 133.168  1.00  0.00     0.034 C 
BRANCH   4   5
ATOM      5  C   UNL     1     137.423 141.280 133.895  1.00  0.00     0.032 C 
BRANCH   5   6
ATOM      6  C   UNL     1     138.253 140.082 133.503  1.00  0.00    -0.028 C 
ATOM      7  C   UNL     1     139.672 138.100 133.947  1.00  0.00     0.039 C 
ATOM      8  C   UNL     1     138.857 139.280 134.408  1.00  0.00    -0.080 C 
ATOM      9  C   UNL     1     138.740 139.531 135.891  1.00  0.00     0.039 C 
ENDBRANCH   5   6
ENDBRANCH   4   5
ENDBRANCH   1   4
BRANCH   2  10
ATOM     10  C   UNL     1     140.954 144.794 134.066  1.00  0.00     0.032 C 
BRANCH  10  11
ATOM     11  C   UNL     1     142.334 144.141 133.932  1.00  0.00     0.039 C 
BRANCH  11  12
ATOM     12  C   UNL     1     142.577 143.161 135.059  1.00  0.00    -0.055 C 
ATOM     13  C   UNL     1     143.131 143.601 136.193  1.00  0.00     0.012 C 
BRANCH  12  14
ATOM     14  C   UNL     1     142.175 141.732 134.968  1.00  0.00    -0.005 C 
ATOM     15  C   UNL     1     142.096 141.051 133.825  1.00  0.00     0.009 C 
ENDBRANCH  12  14
ENDBRANCH  11  12
ENDBRANCH  10  11
ENDBRANCH   2  10
TORSDOF 7
ENDMDL
MODEL 6
REMARK VINA RESULT:    -4.344      1.934      4.250
REMARK INTER + INTRA:          -7.999
REMARK INTER:                  -6.117
REMARK INTRA:                  -1.882
REMARK UNBOUND:                -1.878
REMARK SMILES C=CC(=C)CCC=C(C)CCC=C(C)C
REMARK SMILES IDX 8 1 7 2 9 3 10 4 11 5 12 6 14 7 13 8 15 9 6 10 5 11 3 12
REMARK SMILES IDX 4 13 2 14 1 15
REMARK H PARENT
REMARK Flexibility Score: inf
ROOT
ATOM      1  C   UNL     1     138.772 139.028 133.763  1.00  0.00    -0.077 C 
ATOM      2  C   UNL     1     138.138 140.039 133.125  1.00  0.00    -0.028 C 
ATOM      3  C   UNL     1     138.778 138.915 135.269  1.00  0.00     0.039 C 
ENDROOT
BRANCH   1   4
ATOM      4  C   UNL     1     139.511 137.993 132.942  1.00  0.00     0.034 C 
BRANCH   4   5
ATOM      5  C   UNL     1     140.716 137.444 133.715  1.00  0.00     0.032 C 
BRANCH   5   6
ATOM      6  C   UNL     1     141.976 138.202 133.376  1.00  0.00    -0.028 C 
ATOM      7  C   UNL     1     144.012 139.512 133.906  1.00  0.00     0.039 C 
ATOM      8  C   UNL     1     142.767 138.768 134.314  1.00  0.00    -0.080 C 
ATOM      9  C   UNL     1     142.439 138.679 135.784  1.00  0.00     0.039 C 
ENDBRANCH   5   6
ENDBRANCH   4   5
ENDBRANCH   1   4
BRANCH   2  10
ATOM     10  C   UNL     1     137.324 141.104 133.817  1.00  0.00     0.032 C 
BRANCH  10  11
ATOM     11  C   UNL     1     138.059 142.448 133.791  1.00  0.00     0.039 C 
BRANCH  11  12
ATOM     12  C   UNL     1     138.973 142.585 134.989  1.00  0.00    -0.055 C 
ATOM     13  C   UNL     1     138.433 142.740 136.202  1.00  0.00     0.012 C 
BRANCH  12  14
ATOM     14  C   UNL     1     140.453 142.503 134.871  1.00  0.00    -0.005 C 
ATOM     15  C   UNL     1     141.091 142.027 133.802  1.00  0.00     0.009 C 
ENDBRANCH  12  14
ENDBRANCH  11  12
ENDBRANCH  10  11
ENDBRANCH   2  10
TORSDOF 7
ENDMDL
MODEL 7
REMARK VINA RESULT:    -4.327      1.259      4.851
REMARK INTER + INTRA:          -7.976
REMARK INTER:                  -6.585
REMARK INTRA:                  -1.391
REMARK UNBOUND:                -1.878
REMARK SMILES C=CC(=C)CCC=C(C)CCC=C(C)C
REMARK SMILES IDX 8 1 7 2 9 3 10 4 11 5 12 6 14 7 13 8 15 9 6 10 5 11 3 12
REMARK SMILES IDX 4 13 2 14 1 15
REMARK H PARENT
REMARK Flexibility Score: inf
ROOT
ATOM      1  C   UNL     1     138.148 142.509 133.617  1.00  0.00    -0.077 C 
ATOM      2  C   UNL     1     138.457 143.086 132.433  1.00  0.00    -0.028 C 
ATOM      3  C   UNL     1     138.701 143.026 134.924  1.00  0.00     0.039 C 
ENDROOT
BRANCH   1   4
ATOM      4  C   UNL     1     137.240 141.298 133.627  1.00  0.00     0.034 C 
BRANCH   4   5
ATOM      5  C   UNL     1     137.643 140.305 132.530  1.00  0.00     0.032 C 
BRANCH   5   6
ATOM      6  C   UNL     1     138.289 139.073 133.117  1.00  0.00    -0.028 C 
ATOM      7  C   UNL     1     140.206 137.634 133.745  1.00  0.00     0.039 C 
ATOM      8  C   UNL     1     139.627 138.889 133.145  1.00  0.00    -0.080 C 
ATOM      9  C   UNL     1     140.579 139.916 132.583  1.00  0.00     0.039 C 
ENDBRANCH   5   6
ENDBRANCH   4   5
ENDBRANCH   1   4
BRANCH   2  10
ATOM     10  C   UNL     1     139.305 144.324 132.285  1.00  0.00     0.032 C 
BRANCH  10  11
ATOM     11  C   UNL     1     140.701 143.963 131.767  1.00  0.00     0.039 C 
BRANCH  11  12
ATOM     12  C   UNL     1     141.757 144.267 132.808  1.00  0.00    -0.055 C 
ATOM     13  C   UNL     1     141.478 145.143 133.778  1.00  0.00     0.012 C 
BRANCH  12  14
ATOM     14  C   UNL     1     143.079 143.587 132.818  1.00  0.00    -0.005 C 
ATOM     15  C   UNL     1     143.644 143.071 133.910  1.00  0.00     0.009 C 
ENDBRANCH  12  14
ENDBRANCH  11  12
ENDBRANCH  10  11
ENDBRANCH   2  10
TORSDOF 7
ENDMDL
MODEL 8
REMARK VINA RESULT:    -4.324      1.508      4.290
REMARK INTER + INTRA:          -7.971
REMARK INTER:                  -6.073
REMARK INTRA:                  -1.897
REMARK UNBOUND:                -1.878
REMARK SMILES C=CC(=C)CCC=C(C)CCC=C(C)C
REMARK SMILES IDX 8 1 7 2 9 3 10 4 11 5 12 6 14 7 13 8 15 9 6 10 5 11 3 12
REMARK SMILES IDX 4 13 2 14 1 15
REMARK H PARENT
REMARK Flexibility Score: inf
ROOT
ATOM      1  C   UNL     1     143.235 143.283 134.076  1.00  0.00    -0.077 C 
ATOM      2  C   UNL     1     143.919 142.350 133.375  1.00  0.00    -0.028 C 
ATOM      3  C   UNL     1     143.173 143.260 135.586  1.00  0.00     0.039 C 
ENDROOT
BRANCH   1   4
ATOM      4  C   UNL     1     142.494 144.368 133.324  1.00  0.00     0.034 C 
BRANCH   4   5
ATOM      5  C   UNL     1     141.217 144.772 134.068  1.00  0.00     0.032 C 
BRANCH   5   6
ATOM      6  C   UNL     1     140.018 144.013 133.553  1.00  0.00    -0.028 C 
ATOM      7  C   UNL     1     138.029 142.552 133.776  1.00  0.00     0.039 C 
ATOM      8  C   UNL     1     139.209 143.287 134.356  1.00  0.00    -0.080 C 
ATOM      9  C   UNL     1     139.451 143.187 135.842  1.00  0.00     0.039 C 
ENDBRANCH   5   6
ENDBRANCH   4   5
ENDBRANCH   1   4
BRANCH   2  10
ATOM     10  C   UNL     1     144.740 141.249 133.999  1.00  0.00     0.032 C 
BRANCH  10  11
ATOM     11  C   UNL     1     144.079 139.886 133.768  1.00  0.00     0.039 C 
BRANCH  11  12
ATOM     12  C   UNL     1     143.111 139.561 134.886  1.00  0.00    -0.055 C 
ATOM     13  C   UNL     1     143.593 139.142 136.060  1.00  0.00     0.012 C 
BRANCH  12  14
ATOM     14  C   UNL     1     141.642 139.741 134.740  1.00  0.00    -0.005 C 
ATOM     15  C   UNL     1     141.049 140.160 133.622  1.00  0.00     0.009 C 
ENDBRANCH  12  14
ENDBRANCH  11  12
ENDBRANCH  10  11
ENDBRANCH   2  10
TORSDOF 7
ENDMDL
MODEL 9
REMARK VINA RESULT:    -4.302      1.515      4.844
REMARK INTER + INTRA:          -7.940
REMARK INTER:                  -6.258
REMARK INTRA:                  -1.682
REMARK UNBOUND:                -1.878
REMARK SMILES C=CC(=C)CCC=C(C)CCC=C(C)C
REMARK SMILES IDX 8 1 7 2 9 3 10 4 11 5 12 6 14 7 13 8 15 9 6 10 5 11 3 12
REMARK SMILES IDX 4 13 2 14 1 15
REMARK H PARENT
REMARK Flexibility Score: inf
ROOT
ATOM      1  C   UNL     1     142.501 144.033 133.992  1.00  0.00    -0.077 C 
ATOM      2  C   UNL     1     142.918 143.910 132.711  1.00  0.00    -0.028 C 
ATOM      3  C   UNL     1     143.271 143.428 135.143  1.00  0.00     0.039 C 
ENDROOT
BRANCH   1   4
ATOM      4  C   UNL     1     141.215 144.779 134.276  1.00  0.00     0.034 C 
BRANCH   4   5
ATOM      5  C   UNL     1     140.120 144.378 133.281  1.00  0.00     0.032 C 
BRANCH   5   6
ATOM      6  C   UNL     1     139.162 143.385 133.892  1.00  0.00    -0.028 C 
ATOM      7  C   UNL     1     137.375 141.670 133.831  1.00  0.00     0.039 C 
ATOM      8  C   UNL     1     138.305 142.643 133.156  1.00  0.00    -0.080 C 
ATOM      9  C   UNL     1     138.249 142.758 131.653  1.00  0.00     0.039 C 
ENDBRANCH   5   6
ENDBRANCH   4   5
ENDBRANCH   1   4
BRANCH   2  10
ATOM     10  C   UNL     1     144.202 143.239 132.294  1.00  0.00     0.032 C 
BRANCH  10  11
ATOM     11  C   UNL     1     143.915 141.888 131.630  1.00  0.00     0.039 C 
BRANCH  11  12
ATOM     12  C   UNL     1     143.817 140.789 132.666  1.00  0.00    -0.055 C 
ATOM     13  C   UNL     1     144.886 140.510 133.419  1.00  0.00     0.012 C 
BRANCH  12  14
ATOM     14  C   UNL     1     142.556 140.040 132.912  1.00  0.00    -0.005 C 
ATOM     15  C   UNL     1     141.341 140.518 132.643  1.00  0.00     0.009 C 
ENDBRANCH  12  14
ENDBRANCH  11  12
ENDBRANCH  10  11
ENDBRANCH   2  10
TORSDOF 7
ENDMDL
