MODEL 1
REMARK VINA RESULT:    -5.536      0.000      0.000
REMARK INTER + INTRA:          -5.536
REMARK INTER:                  -5.536
REMARK INTRA:                   0.000
REMARK UNBOUND:                 0.000
REMARK SMILES CC1=CC(=O)[C@H]2C[C@@H]1C2(C)C
REMARK SMILES IDX 1 1 2 2 3 3 4 4 5 5 6 6 7 7 8 8 9 9 10 10 11 11
REMARK H PARENT
REMARK Flexibility Score: inf
ROOT
ATOM      1  C   UNL     1      11.997 -28.748  23.873  1.00  0.00     0.040 C 
ATOM      2  C   UNL     1      12.926 -29.594  23.060  1.00  0.00    -0.066 C 
ATOM      3  C   UNL     1      12.460 -30.401  22.067  1.00  0.00     0.047 C 
ATOM      4  C   UNL     1      13.487 -31.222  21.345  1.00  0.00     0.159 C 
ATOM      5  O   UNL     1      13.179 -32.034  20.435  1.00  0.00    -0.295 OA
ATOM      6  C   UNL     1      14.933 -31.004  21.794  1.00  0.00     0.067 C 
ATOM      7  C   UNL     1      15.072 -29.469  21.883  1.00  0.00     0.021 C 
ATOM      8  C   UNL     1      14.451 -29.580  23.292  1.00  0.00     0.022 C 
ATOM      9  C   UNL     1      14.980 -31.043  23.348  1.00  0.00    -0.019 C 
ATOM     10  C   UNL     1      16.428 -31.126  23.892  1.00  0.00     0.012 C 
ATOM     11  C   UNL     1      14.120 -32.108  24.087  1.00  0.00     0.012 C 
ENDROOT
TORSDOF 0
ENDMDL
MODEL 2
REMARK VINA RESULT:    -5.221      1.540      2.997
REMARK INTER + INTRA:          -5.221
REMARK INTER:                  -5.221
REMARK INTRA:                   0.000
REMARK UNBOUND:                 0.000
REMARK SMILES CC1=CC(=O)[C@H]2C[C@@H]1C2(C)C
REMARK SMILES IDX 1 1 2 2 3 3 4 4 5 5 6 6 7 7 8 8 9 9 10 10 11 11
REMARK H PARENT
REMARK Flexibility Score: inf
ROOT
ATOM      1  C   UNL     1      13.504 -32.478  20.175  1.00  0.00     0.040 C 
ATOM      2  C   UNL     1      13.521 -31.686  21.445  1.00  0.00    -0.066 C 
ATOM      3  C   UNL     1      12.553 -30.769  21.719  1.00  0.00     0.047 C 
ATOM      4  C   UNL     1      12.698 -30.018  23.008  1.00  0.00     0.159 C 
ATOM      5  O   UNL     1      11.890 -29.118  23.357  1.00  0.00    -0.295 OA
ATOM      6  C   UNL     1      13.896 -30.422  23.870  1.00  0.00     0.067 C 
ATOM      7  C   UNL     1      13.867 -31.965  23.856  1.00  0.00     0.021 C 
ATOM      8  C   UNL     1      14.620 -31.881  22.510  1.00  0.00     0.022 C 
ATOM      9  C   UNL     1      15.157 -30.491  22.962  1.00  0.00    -0.019 C 
ATOM     10  C   UNL     1      16.467 -30.603  23.781  1.00  0.00     0.012 C 
ATOM     11  C   UNL     1      15.350 -29.391  21.880  1.00  0.00     0.012 C 
ENDROOT
TORSDOF 0
ENDMDL
MODEL 3
REMARK VINA RESULT:    -5.190      1.610      3.356
REMARK INTER + INTRA:          -5.190
REMARK INTER:                  -5.190
REMARK INTRA:                   0.000
REMARK UNBOUND:                 0.000
REMARK SMILES CC1=CC(=O)[C@H]2C[C@@H]1C2(C)C
REMARK SMILES IDX 1 1 2 2 3 3 4 4 5 5 6 6 7 7 8 8 9 9 10 10 11 11
REMARK H PARENT
REMARK Flexibility Score: inf
ROOT
ATOM      1  C   UNL     1      16.060 -28.649  22.018  1.00  0.00     0.040 C 
ATOM      2  C   UNL     1      15.142 -29.670  22.611  1.00  0.00    -0.066 C 
ATOM      3  C   UNL     1      15.626 -30.798  23.200  1.00  0.00     0.047 C 
ATOM      4  C   UNL     1      14.604 -31.760  23.729  1.00  0.00     0.159 C 
ATOM      5  O   UNL     1      14.923 -32.855  24.260  1.00  0.00    -0.295 OA
ATOM      6  C   UNL     1      13.148 -31.317  23.576  1.00  0.00     0.067 C 
ATOM      7  C   UNL     1      13.152 -29.842  24.032  1.00  0.00     0.021 C 
ATOM      8  C   UNL     1      13.610 -29.490  22.599  1.00  0.00     0.022 C 
ATOM      9  C   UNL     1      12.936 -30.809  22.121  1.00  0.00    -0.019 C 
ATOM     10  C   UNL     1      11.437 -30.615  21.777  1.00  0.00     0.012 C 
ATOM     11  C   UNL     1      13.604 -31.596  20.958  1.00  0.00     0.012 C 
ENDROOT
TORSDOF 0
ENDMDL
MODEL 4
REMARK VINA RESULT:    -5.179      8.865     10.254
REMARK INTER + INTRA:          -5.179
REMARK INTER:                  -5.179
REMARK INTRA:                   0.000
REMARK UNBOUND:                 0.000
REMARK SMILES CC1=CC(=O)[C@H]2C[C@@H]1C2(C)C
REMARK SMILES IDX 1 1 2 2 3 3 4 4 5 5 6 6 7 7 8 8 9 9 10 10 11 11
REMARK H PARENT
REMARK Flexibility Score: inf
ROOT
ATOM      1  C   UNL     1      22.746 -23.529  22.591  1.00  0.00     0.040 C 
ATOM      2  C   UNL     1      22.852 -24.653  21.609  1.00  0.00    -0.066 C 
ATOM      3  C   UNL     1      23.337 -24.452  20.353  1.00  0.00     0.047 C 
ATOM      4  C   UNL     1      23.364 -25.651  19.454  1.00  0.00     0.159 C 
ATOM      5  O   UNL     1      23.754 -25.587  18.259  1.00  0.00    -0.295 OA
ATOM      6  C   UNL     1      22.885 -26.957  20.089  1.00  0.00     0.067 C 
ATOM      7  C   UNL     1      23.586 -26.987  21.464  1.00  0.00     0.021 C 
ATOM      8  C   UNL     1      22.435 -26.093  21.975  1.00  0.00     0.022 C 
ATOM      9  C   UNL     1      21.549 -26.681  20.838  1.00  0.00    -0.019 C 
ATOM     10  C   UNL     1      20.832 -27.987  21.265  1.00  0.00     0.012 C 
ATOM     11  C   UNL     1      20.503 -25.748  20.165  1.00  0.00     0.012 C 
ENDROOT
TORSDOF 0
ENDMDL
MODEL 5
REMARK VINA RESULT:    -4.856      0.936      3.194
REMARK INTER + INTRA:          -4.856
REMARK INTER:                  -4.856
REMARK INTRA:                   0.000
REMARK UNBOUND:                 0.000
REMARK SMILES CC1=CC(=O)[C@H]2C[C@@H]1C2(C)C
REMARK SMILES IDX 1 1 2 2 3 3 4 4 5 5 6 6 7 7 8 8 9 9 10 10 11 11
REMARK H PARENT
REMARK Flexibility Score: inf
ROOT
ATOM      1  C   UNL     1      17.203 -32.069  23.460  1.00  0.00     0.040 C 
ATOM      2  C   UNL     1      15.809 -31.772  23.003  1.00  0.00    -0.066 C 
ATOM      3  C   UNL     1      15.350 -32.215  21.800  1.00  0.00     0.047 C 
ATOM      4  C   UNL     1      13.947 -31.826  21.443  1.00  0.00     0.159 C 
ATOM      5  O   UNL     1      13.421 -32.141  20.344  1.00  0.00    -0.295 OA
ATOM      6  C   UNL     1      13.201 -31.020  22.507  1.00  0.00     0.067 C 
ATOM      7  C   UNL     1      13.500 -31.766  23.825  1.00  0.00     0.021 C 
ATOM      8  C   UNL     1      14.822 -30.969  23.875  1.00  0.00     0.022 C 
ATOM      9  C   UNL     1      14.131 -29.878  23.006  1.00  0.00    -0.019 C 
ATOM     10  C   UNL     1      13.374 -28.833  23.863  1.00  0.00     0.012 C 
ATOM     11  C   UNL     1      14.994 -29.118  21.959  1.00  0.00     0.012 C 
ENDROOT
TORSDOF 0
ENDMDL
MODEL 6
REMARK VINA RESULT:    -4.749      4.394      5.775
REMARK INTER + INTRA:          -4.749
REMARK INTER:                  -4.749
REMARK INTRA:                   0.000
REMARK UNBOUND:                 0.000
REMARK SMILES CC1=CC(=O)[C@H]2C[C@@H]1C2(C)C
REMARK SMILES IDX 1 1 2 2 3 3 4 4 5 5 6 6 7 7 8 8 9 9 10 10 11 11
REMARK H PARENT
REMARK Flexibility Score: inf
ROOT
ATOM      1  C   UNL     1      19.366 -32.244  20.865  1.00  0.00     0.040 C 
ATOM      2  C   UNL     1      18.115 -33.046  20.690  1.00  0.00    -0.066 C 
ATOM      3  C   UNL     1      16.920 -32.607  21.173  1.00  0.00     0.047 C 
ATOM      4  C   UNL     1      15.747 -33.516  20.962  1.00  0.00     0.159 C 
ATOM      5  O   UNL     1      14.597 -33.242  21.395  1.00  0.00    -0.295 OA
ATOM      6  C   UNL     1      16.044 -34.800  20.185  1.00  0.00     0.067 C 
ATOM      7  C   UNL     1      16.900 -34.327  18.990  1.00  0.00     0.021 C 
ATOM      8  C   UNL     1      18.114 -34.396  19.943  1.00  0.00     0.022 C 
ATOM      9  C   UNL     1      17.328 -35.449  20.776  1.00  0.00    -0.019 C 
ATOM     10  C   UNL     1      17.549 -36.894  20.261  1.00  0.00     0.012 C 
ATOM     11  C   UNL     1      17.512 -35.450  22.320  1.00  0.00     0.012 C 
ENDROOT
TORSDOF 0
ENDMDL
MODEL 7
REMARK VINA RESULT:    -4.700      1.667      2.316
REMARK INTER + INTRA:          -4.700
REMARK INTER:                  -4.700
REMARK INTRA:                   0.000
REMARK UNBOUND:                 0.000
REMARK SMILES CC1=CC(=O)[C@H]2C[C@@H]1C2(C)C
REMARK SMILES IDX 1 1 2 2 3 3 4 4 5 5 6 6 7 7 8 8 9 9 10 10 11 11
REMARK H PARENT
REMARK Flexibility Score: inf
ROOT
ATOM      1  C   UNL     1      13.130 -28.983  23.879  1.00  0.00     0.040 C 
ATOM      2  C   UNL     1      13.884 -30.166  23.360  1.00  0.00    -0.066 C 
ATOM      3  C   UNL     1      13.780 -31.387  23.954  1.00  0.00     0.047 C 
ATOM      4  C   UNL     1      14.609 -32.486  23.360  1.00  0.00     0.159 C 
ATOM      5  O   UNL     1      14.630 -33.648  23.842  1.00  0.00    -0.295 OA
ATOM      6  C   UNL     1      15.429 -32.094  22.129  1.00  0.00     0.067 C 
ATOM      7  C   UNL     1      14.438 -31.294  21.256  1.00  0.00     0.021 C 
ATOM      8  C   UNL     1      14.799 -30.068  22.122  1.00  0.00     0.022 C 
ATOM      9  C   UNL     1      16.162 -30.756  22.428  1.00  0.00    -0.019 C 
ATOM     10  C   UNL     1      17.241 -30.425  21.367  1.00  0.00     0.012 C 
ATOM     11  C   UNL     1      16.786 -30.554  23.838  1.00  0.00     0.012 C 
ENDROOT
TORSDOF 0
ENDMDL
MODEL 8
REMARK VINA RESULT:    -4.620      2.030      3.706
REMARK INTER + INTRA:          -4.620
REMARK INTER:                  -4.620
REMARK INTRA:                   0.000
REMARK UNBOUND:                 0.000
REMARK SMILES CC1=CC(=O)[C@H]2C[C@@H]1C2(C)C
REMARK SMILES IDX 1 1 2 2 3 3 4 4 5 5 6 6 7 7 8 8 9 9 10 10 11 11
REMARK H PARENT
REMARK Flexibility Score: inf
ROOT
ATOM      1  C   UNL     1      17.871 -30.544  21.245  1.00  0.00     0.040 C 
ATOM      2  C   UNL     1      16.839 -31.478  21.792  1.00  0.00    -0.066 C 
ATOM      3  C   UNL     1      16.608 -32.692  21.219  1.00  0.00     0.047 C 
ATOM      4  C   UNL     1      15.526 -33.523  21.841  1.00  0.00     0.159 C 
ATOM      5  O   UNL     1      15.192 -34.646  21.380  1.00  0.00    -0.295 OA
ATOM      6  C   UNL     1      14.857 -32.911  23.073  1.00  0.00     0.067 C 
ATOM      7  C   UNL     1      16.036 -32.389  23.922  1.00  0.00     0.021 C 
ATOM      8  C   UNL     1      16.000 -31.123  23.037  1.00  0.00     0.022 C 
ATOM      9  C   UNL     1      14.500 -31.431  22.758  1.00  0.00    -0.019 C 
ATOM     10  C   UNL     1      13.562 -30.811  23.824  1.00  0.00     0.012 C 
ATOM     11  C   UNL     1      13.930 -31.091  21.351  1.00  0.00     0.012 C 
ENDROOT
TORSDOF 0
ENDMDL
MODEL 9
REMARK VINA RESULT:    -4.592      2.076      3.767
REMARK INTER + INTRA:          -4.592
REMARK INTER:                  -4.592
REMARK INTRA:                   0.000
REMARK UNBOUND:                 0.000
REMARK SMILES CC1=CC(=O)[C@H]2C[C@@H]1C2(C)C
REMARK SMILES IDX 1 1 2 2 3 3 4 4 5 5 6 6 7 7 8 8 9 9 10 10 11 11
REMARK H PARENT
REMARK Flexibility Score: inf
ROOT
ATOM      1  C   UNL     1      15.536 -34.873  20.369  1.00  0.00     0.040 C 
ATOM      2  C   UNL     1      15.127 -33.733  21.247  1.00  0.00    -0.066 C 
ATOM      3  C   UNL     1      14.149 -32.865  20.870  1.00  0.00     0.047 C 
ATOM      4  C   UNL     1      13.853 -31.746  21.823  1.00  0.00     0.159 C 
ATOM      5  O   UNL     1      12.998 -30.857  21.572  1.00  0.00    -0.295 OA
ATOM      6  C   UNL     1      14.662 -31.760  23.121  1.00  0.00     0.067 C 
ATOM      7  C   UNL     1      14.600 -33.231  23.588  1.00  0.00     0.021 C 
ATOM      8  C   UNL     1      15.779 -33.496  22.626  1.00  0.00     0.022 C 
ATOM      9  C   UNL     1      16.159 -31.993  22.768  1.00  0.00    -0.019 C 
ATOM     10  C   UNL     1      17.096 -31.733  23.974  1.00  0.00     0.012 C 
ATOM     11  C   UNL     1      16.748 -31.264  21.528  1.00  0.00     0.012 C 
ENDROOT
TORSDOF 0
ENDMDL
