MODEL 1
REMARK VINA RESULT:    -5.604      0.000      0.000
REMARK INTER + INTRA:          -6.659
REMARK INTER:                  -6.586
REMARK INTRA:                  -0.073
REMARK UNBOUND:                -0.073
REMARK SMILES O=c1c(O)c(-c2ccc(O)cc2)oc2cc(O)cc(O)c12
REMARK SMILES IDX 5 1 3 2 2 3 1 4 21 5 19 6 18 7 16 8 15 9 14 10 13 11 6 12
REMARK SMILES IDX 7 13 8 14 9 15 12 16 11 17 10 18 4 20 20 22 17 24
REMARK H PARENT 10 19 4 21 20 23 17 25
REMARK Flexibility Score: inf
ROOT
ATOM      1  C   UNL     1      14.149 -17.162  20.153  1.00  0.00     0.180 A 
ATOM      2  C   UNL     1      15.082 -17.864  20.935  1.00  0.00     0.208 A 
ATOM      3  C   UNL     1      16.333 -17.280  21.191  1.00  0.00     0.238 A 
ATOM      4  O   UNL     1      17.184 -17.937  21.845  1.00  0.00    -0.285 OA
ATOM      5  C   UNL     1      16.629 -15.995  20.676  1.00  0.00     0.111 A 
ATOM      6  C   UNL     1      17.848 -15.290  20.906  1.00  0.00     0.134 A 
ATOM      7  C   UNL     1      18.084 -14.081  20.240  1.00  0.00     0.093 A 
ATOM      8  C   UNL     1      17.120 -13.519  19.405  1.00  0.00     0.123 A 
ATOM      9  C   UNL     1      15.899 -14.171  19.219  1.00  0.00     0.094 A 
ATOM     10  C   UNL     1      15.650 -15.395  19.841  1.00  0.00     0.146 A 
ATOM     11  O   UNL     1      14.479 -15.987  19.630  1.00  0.00    -0.452 OA
ENDROOT
BRANCH   1  12
ATOM     12  C   UNL     1      12.801 -17.702  19.862  1.00  0.00     0.021 A 
ATOM     13  C   UNL     1      11.918 -18.067  20.895  1.00  0.00     0.016 A 
ATOM     14  C   UNL     1      10.641 -18.551  20.595  1.00  0.00     0.047 A 
ATOM     15  C   UNL     1      10.225 -18.663  19.262  1.00  0.00     0.115 A 
ATOM     16  C   UNL     1      12.368 -17.798  18.529  1.00  0.00     0.016 A 
ATOM     17  C   UNL     1      11.091 -18.283  18.232  1.00  0.00     0.047 A 
BRANCH  15  18
ATOM     18  O   UNL     1       8.956 -19.145  18.952  1.00  0.00    -0.508 OA
ATOM     19  H   UNL     1       8.136 -18.845  19.465  1.00  0.00     0.293 HD
ENDBRANCH  15  18
ENDBRANCH   1  12
BRANCH   2  20
ATOM     20  O   UNL     1      14.778 -19.141  21.415  1.00  0.00    -0.502 OA
ATOM     21  H   UNL     1      15.231 -19.977  21.062  1.00  0.00     0.293 HD
ENDBRANCH   2  20
BRANCH   6  22
ATOM     22  O   UNL     1      18.841 -15.718  21.793  1.00  0.00    -0.507 OA
ATOM     23  H   UNL     1      19.197 -15.172  22.564  1.00  0.00     0.293 HD
ENDBRANCH   6  22
BRANCH   8  24
ATOM     24  O   UNL     1      17.382 -12.308  18.770  1.00  0.00    -0.508 OA
ATOM     25  H   UNL     1      18.210 -11.764  18.984  1.00  0.00     0.293 HD
ENDBRANCH   8  24
TORSDOF 5
ENDMDL
MODEL 2
REMARK VINA RESULT:    -5.373     12.917     15.912
REMARK INTER + INTRA:          -6.388
REMARK INTER:                  -6.109
REMARK INTRA:                  -0.280
REMARK UNBOUND:                -0.073
REMARK SMILES O=c1c(O)c(-c2ccc(O)cc2)oc2cc(O)cc(O)c12
REMARK SMILES IDX 5 1 3 2 2 3 1 4 21 5 19 6 18 7 16 8 15 9 14 10 13 11 6 12
REMARK SMILES IDX 7 13 8 14 9 15 12 16 11 17 10 18 4 20 20 22 17 24
REMARK H PARENT 10 19 4 21 20 23 17 25
REMARK Flexibility Score: inf
ROOT
ATOM      1  C   UNL     1      15.285  -6.835   9.371  1.00  0.00     0.180 A 
ATOM      2  C   UNL     1      14.081  -6.798   8.648  1.00  0.00     0.208 A 
ATOM      3  C   UNL     1      14.122  -6.539   7.269  1.00  0.00     0.238 A 
ATOM      4  O   UNL     1      13.037  -6.453   6.638  1.00  0.00    -0.285 OA
ATOM      5  C   UNL     1      15.367  -6.337   6.626  1.00  0.00     0.111 A 
ATOM      6  C   UNL     1      15.531  -6.108   5.227  1.00  0.00     0.134 A 
ATOM      7  C   UNL     1      16.798  -5.791   4.723  1.00  0.00     0.093 A 
ATOM      8  C   UNL     1      17.917  -5.759   5.553  1.00  0.00     0.123 A 
ATOM      9  C   UNL     1      17.778  -6.041   6.913  1.00  0.00     0.094 A 
ATOM     10  C   UNL     1      16.522  -6.325   7.452  1.00  0.00     0.146 A 
ATOM     11  O   UNL     1      16.432  -6.577   8.754  1.00  0.00    -0.452 OA
ENDROOT
BRANCH   1  12
ATOM     12  C   UNL     1      15.325  -7.126  10.823  1.00  0.00     0.021 A 
ATOM     13  C   UNL     1      15.325  -6.093  11.778  1.00  0.00     0.016 A 
ATOM     14  C   UNL     1      15.338  -6.394  13.144  1.00  0.00     0.047 A 
ATOM     15  C   UNL     1      15.338  -7.727  13.571  1.00  0.00     0.115 A 
ATOM     16  C   UNL     1      15.303  -8.461  11.261  1.00  0.00     0.016 A 
ATOM     17  C   UNL     1      15.316  -8.758  12.627  1.00  0.00     0.047 A 
BRANCH  15  18
ATOM     18  O   UNL     1      15.352  -8.037  14.930  1.00  0.00    -0.508 OA
ATOM     19  H   UNL     1      14.494  -8.184  15.448  1.00  0.00     0.293 HD
ENDBRANCH  15  18
ENDBRANCH   1  12
BRANCH   2  20
ATOM     20  O   UNL     1      12.861  -6.978   9.305  1.00  0.00    -0.502 OA
ATOM     21  H   UNL     1      12.479  -7.897   9.503  1.00  0.00     0.293 HD
ENDBRANCH   2  20
BRANCH   6  22
ATOM     22  O   UNL     1      14.493  -6.205   4.295  1.00  0.00    -0.507 OA
ATOM     23  H   UNL     1      13.569  -5.821   4.421  1.00  0.00     0.293 HD
ENDBRANCH   6  22
BRANCH   8  24
ATOM     24  O   UNL     1      19.165  -5.455   5.014  1.00  0.00    -0.508 OA
ATOM     25  H   UNL     1      19.515  -4.505   4.988  1.00  0.00     0.293 HD
ENDBRANCH   8  24
TORSDOF 5
ENDMDL
MODEL 3
REMARK VINA RESULT:    -5.170     11.951     15.200
REMARK INTER + INTRA:          -6.150
REMARK INTER:                  -5.868
REMARK INTRA:                  -0.282
REMARK UNBOUND:                -0.073
REMARK SMILES O=c1c(O)c(-c2ccc(O)cc2)oc2cc(O)cc(O)c12
REMARK SMILES IDX 5 1 3 2 2 3 1 4 21 5 19 6 18 7 16 8 15 9 14 10 13 11 6 12
REMARK SMILES IDX 7 13 8 14 9 15 12 16 11 17 10 18 4 20 20 22 17 24
REMARK H PARENT 10 19 4 21 20 23 17 25
REMARK Flexibility Score: inf
ROOT
ATOM      1  C   UNL     1      15.661  -7.092   9.048  1.00  0.00     0.180 A 
ATOM      2  C   UNL     1      15.055  -8.356   8.969  1.00  0.00     0.208 A 
ATOM      3  C   UNL     1      14.545  -8.942  10.139  1.00  0.00     0.238 A 
ATOM      4  O   UNL     1      14.053 -10.098  10.071  1.00  0.00    -0.285 OA
ATOM      5  C   UNL     1      14.632  -8.248  11.370  1.00  0.00     0.111 A 
ATOM      6  C   UNL     1      14.113  -8.727  12.610  1.00  0.00     0.134 A 
ATOM      7  C   UNL     1      14.373  -8.016  13.788  1.00  0.00     0.093 A 
ATOM      8  C   UNL     1      15.074  -6.812  13.763  1.00  0.00     0.123 A 
ATOM      9  C   UNL     1      15.535  -6.303  12.548  1.00  0.00     0.094 A 
ATOM     10  C   UNL     1      15.323  -7.008  11.361  1.00  0.00     0.146 A 
ATOM     11  O   UNL     1      15.787  -6.494  10.227  1.00  0.00    -0.452 OA
ENDROOT
BRANCH   1  12
ATOM     12  C   UNL     1      16.200  -6.400   7.854  1.00  0.00     0.021 A 
ATOM     13  C   UNL     1      15.360  -5.684   6.980  1.00  0.00     0.016 A 
ATOM     14  C   UNL     1      15.895  -5.019   5.873  1.00  0.00     0.047 A 
ATOM     15  C   UNL     1      17.275  -5.048   5.633  1.00  0.00     0.115 A 
ATOM     16  C   UNL     1      17.584  -6.406   7.617  1.00  0.00     0.016 A 
ATOM     17  C   UNL     1      18.116  -5.740   6.508  1.00  0.00     0.047 A 
BRANCH  15  18
ATOM     18  O   UNL     1      17.818  -4.389   4.532  1.00  0.00    -0.508 OA
ATOM     19  H   UNL     1      18.178  -4.899   3.734  1.00  0.00     0.293 HD
ENDBRANCH  15  18
ENDBRANCH   1  12
BRANCH   2  20
ATOM     20  O   UNL     1      14.999  -9.034   7.748  1.00  0.00    -0.502 OA
ATOM     21  H   UNL     1      15.512  -8.726   6.930  1.00  0.00     0.293 HD
ENDBRANCH   2  20
BRANCH   6  22
ATOM     22  O   UNL     1      13.321  -9.872  12.733  1.00  0.00    -0.507 OA
ATOM     23  H   UNL     1      13.563 -10.780  12.367  1.00  0.00     0.293 HD
ENDBRANCH   6  22
BRANCH   8  24
ATOM     24  O   UNL     1      15.301  -6.123  14.953  1.00  0.00    -0.508 OA
ATOM     25  H   UNL     1      16.031  -6.403  15.597  1.00  0.00     0.293 HD
ENDBRANCH   8  24
TORSDOF 5
ENDMDL
MODEL 4
REMARK VINA RESULT:    -5.130      2.156      6.806
REMARK INTER + INTRA:          -6.103
REMARK INTER:                  -5.813
REMARK INTRA:                  -0.290
REMARK UNBOUND:                -0.073
REMARK SMILES O=c1c(O)c(-c2ccc(O)cc2)oc2cc(O)cc(O)c12
REMARK SMILES IDX 5 1 3 2 2 3 1 4 21 5 19 6 18 7 16 8 15 9 14 10 13 11 6 12
REMARK SMILES IDX 7 13 8 14 9 15 12 16 11 17 10 18 4 20 20 22 17 24
REMARK H PARENT 10 19 4 21 20 23 17 25
REMARK Flexibility Score: inf
ROOT
ATOM      1  C   UNL     1      15.789 -14.079  19.980  1.00  0.00     0.180 A 
ATOM      2  C   UNL     1      15.627 -14.367  21.345  1.00  0.00     0.208 A 
ATOM      3  C   UNL     1      14.818 -15.452  21.721  1.00  0.00     0.238 A 
ATOM      4  O   UNL     1      14.632 -15.671  22.946  1.00  0.00    -0.285 OA
ATOM      5  C   UNL     1      14.196 -16.245  20.726  1.00  0.00     0.111 A 
ATOM      6  C   UNL     1      13.389 -17.392  20.991  1.00  0.00     0.134 A 
ATOM      7  C   UNL     1      12.718 -18.022  19.936  1.00  0.00     0.093 A 
ATOM      8  C   UNL     1      12.875 -17.590  18.621  1.00  0.00     0.123 A 
ATOM      9  C   UNL     1      13.710 -16.505  18.343  1.00  0.00     0.094 A 
ATOM     10  C   UNL     1      14.364 -15.834  19.378  1.00  0.00     0.146 A 
ATOM     11  O   UNL     1      15.141 -14.801  19.072  1.00  0.00    -0.452 OA
ENDROOT
BRANCH   1  12
ATOM     12  C   UNL     1      16.646 -12.968  19.505  1.00  0.00     0.021 A 
ATOM     13  C   UNL     1      18.036 -13.125  19.359  1.00  0.00     0.016 A 
ATOM     14  C   UNL     1      18.821 -12.069  18.887  1.00  0.00     0.047 A 
ATOM     15  C   UNL     1      18.226 -10.849  18.541  1.00  0.00     0.115 A 
ATOM     16  C   UNL     1      16.054 -11.749  19.136  1.00  0.00     0.016 A 
ATOM     17  C   UNL     1      16.842 -10.694  18.664  1.00  0.00     0.047 A 
BRANCH  15  18
ATOM     18  O   UNL     1      18.998  -9.790  18.069  1.00  0.00    -0.508 OA
ATOM     19  H   UNL     1      18.817  -9.361  17.170  1.00  0.00     0.293 HD
ENDBRANCH  15  18
ENDBRANCH   1  12
BRANCH   2  20
ATOM     20  O   UNL     1      16.231 -13.559  22.311  1.00  0.00    -0.502 OA
ATOM     21  H   UNL     1      16.790 -13.938  23.067  1.00  0.00     0.293 HD
ENDBRANCH   2  20
BRANCH   6  22
ATOM     22  O   UNL     1      13.236 -17.963  22.258  1.00  0.00    -0.507 OA
ATOM     23  H   UNL     1      13.166 -17.441  23.119  1.00  0.00     0.293 HD
ENDBRANCH   6  22
BRANCH   8  24
ATOM     24  O   UNL     1      12.205 -18.250  17.594  1.00  0.00    -0.508 OA
ATOM     25  H   UNL     1      12.508 -18.179  16.630  1.00  0.00     0.293 HD
ENDBRANCH   8  24
TORSDOF 5
ENDMDL
MODEL 5
REMARK VINA RESULT:    -4.980      2.829      5.104
REMARK INTER + INTRA:          -5.926
REMARK INTER:                  -5.667
REMARK INTRA:                  -0.259
REMARK UNBOUND:                -0.073
REMARK SMILES O=c1c(O)c(-c2ccc(O)cc2)oc2cc(O)cc(O)c12
REMARK SMILES IDX 5 1 3 2 2 3 1 4 21 5 19 6 18 7 16 8 15 9 14 10 13 11 6 12
REMARK SMILES IDX 7 13 8 14 9 15 12 16 11 17 10 18 4 20 20 22 17 24
REMARK H PARENT 10 19 4 21 20 23 17 25
REMARK Flexibility Score: inf
ROOT
ATOM      1  C   UNL     1      17.270 -14.053  19.970  1.00  0.00     0.180 A 
ATOM      2  C   UNL     1      18.632 -13.918  20.288  1.00  0.00     0.208 A 
ATOM      3  C   UNL     1      19.282 -12.707  20.001  1.00  0.00     0.238 A 
ATOM      4  O   UNL     1      20.514 -12.612  20.237  1.00  0.00    -0.285 OA
ATOM      5  C   UNL     1      18.558 -11.640  19.414  1.00  0.00     0.111 A 
ATOM      6  C   UNL     1      19.104 -10.356  19.118  1.00  0.00     0.134 A 
ATOM      7  C   UNL     1      18.331  -9.421  18.418  1.00  0.00     0.093 A 
ATOM      8  C   UNL     1      17.012  -9.699  18.064  1.00  0.00     0.123 A 
ATOM      9  C   UNL     1      16.447 -10.930  18.402  1.00  0.00     0.094 A 
ATOM     10  C   UNL     1      17.205 -11.896  19.067  1.00  0.00     0.146 A 
ATOM     11  O   UNL     1      16.634 -13.058  19.361  1.00  0.00    -0.452 OA
ENDROOT
BRANCH   1  12
ATOM     12  C   UNL     1      16.510 -15.290  20.266  1.00  0.00     0.021 A 
ATOM     13  C   UNL     1      16.280 -16.263  19.276  1.00  0.00     0.016 A 
ATOM     14  C   UNL     1      15.581 -17.433  19.584  1.00  0.00     0.047 A 
ATOM     15  C   UNL     1      15.115 -17.653  20.887  1.00  0.00     0.115 A 
ATOM     16  C   UNL     1      16.058 -15.528  21.574  1.00  0.00     0.016 A 
ATOM     17  C   UNL     1      15.359 -16.699  21.880  1.00  0.00     0.047 A 
BRANCH  15  18
ATOM     18  O   UNL     1      14.417 -18.815  21.205  1.00  0.00    -0.508 OA
ATOM     19  H   UNL     1      14.413 -19.190  22.146  1.00  0.00     0.293 HD
ENDBRANCH  15  18
ENDBRANCH   1  12
BRANCH   2  20
ATOM     20  O   UNL     1      19.333 -14.990  20.846  1.00  0.00    -0.502 OA
ATOM     21  H   UNL     1      19.896 -15.622  20.287  1.00  0.00     0.293 HD
ENDBRANCH   2  20
BRANCH   6  22
ATOM     22  O   UNL     1      20.382  -9.943  19.507  1.00  0.00    -0.507 OA
ATOM     23  H   UNL     1      21.132  -9.717  18.871  1.00  0.00     0.293 HD
ENDBRANCH   6  22
BRANCH   8  24
ATOM     24  O   UNL     1      16.266  -8.739  17.383  1.00  0.00    -0.508 OA
ATOM     25  H   UNL     1      16.710  -8.026  16.816  1.00  0.00     0.293 HD
ENDBRANCH   8  24
TORSDOF 5
ENDMDL
MODEL 6
REMARK VINA RESULT:    -4.945      9.224     12.279
REMARK INTER + INTRA:          -5.886
REMARK INTER:                  -5.605
REMARK INTRA:                  -0.281
REMARK UNBOUND:                -0.073
REMARK SMILES O=c1c(O)c(-c2ccc(O)cc2)oc2cc(O)cc(O)c12
REMARK SMILES IDX 5 1 3 2 2 3 1 4 21 5 19 6 18 7 16 8 15 9 14 10 13 11 6 12
REMARK SMILES IDX 7 13 8 14 9 15 12 16 11 17 10 18 4 20 20 22 17 24
REMARK H PARENT 10 19 4 21 20 23 17 25
REMARK Flexibility Score: inf
ROOT
ATOM      1  C   UNL     1      25.242 -12.838  17.932  1.00  0.00     0.180 A 
ATOM      2  C   UNL     1      25.844 -12.024  18.907  1.00  0.00     0.208 A 
ATOM      3  C   UNL     1      26.308 -10.751  18.538  1.00  0.00     0.238 A 
ATOM      4  O   UNL     1      26.895 -10.049  19.402  1.00  0.00    -0.285 OA
ATOM      5  C   UNL     1      26.149 -10.301  17.205  1.00  0.00     0.111 A 
ATOM      6  C   UNL     1      26.544  -9.015  16.731  1.00  0.00     0.134 A 
ATOM      7  C   UNL     1      26.458  -8.727  15.363  1.00  0.00     0.093 A 
ATOM      8  C   UNL     1      25.931  -9.652  14.464  1.00  0.00     0.123 A 
ATOM      9  C   UNL     1      25.486 -10.891  14.926  1.00  0.00     0.094 A 
ATOM     10  C   UNL     1      25.592 -11.221  16.279  1.00  0.00     0.146 A 
ATOM     11  O   UNL     1      25.166 -12.415  16.676  1.00  0.00    -0.452 OA
ENDROOT
BRANCH   1  12
ATOM     12  C   UNL     1      24.706 -14.182  18.250  1.00  0.00     0.021 A 
ATOM     13  C   UNL     1      23.440 -14.345  18.840  1.00  0.00     0.016 A 
ATOM     14  C   UNL     1      22.945 -15.625  19.109  1.00  0.00     0.047 A 
ATOM     15  C   UNL     1      23.701 -16.757  18.778  1.00  0.00     0.115 A 
ATOM     16  C   UNL     1      25.449 -15.322  17.902  1.00  0.00     0.016 A 
ATOM     17  C   UNL     1      24.951 -16.601  18.171  1.00  0.00     0.047 A 
BRANCH  15  18
ATOM     18  O   UNL     1      23.218 -18.036  19.041  1.00  0.00    -0.508 OA
ATOM     19  H   UNL     1      22.240 -18.201  19.248  1.00  0.00     0.293 HD
ENDBRANCH  15  18
ENDBRANCH   1  12
BRANCH   2  20
ATOM     20  O   UNL     1      26.011 -12.495  20.211  1.00  0.00    -0.502 OA
ATOM     21  H   UNL     1      25.244 -12.875  20.756  1.00  0.00     0.293 HD
ENDBRANCH   2  20
BRANCH   6  22
ATOM     22  O   UNL     1      27.000  -7.984  17.558  1.00  0.00    -0.507 OA
ATOM     23  H   UNL     1      27.951  -7.648  17.587  1.00  0.00     0.293 HD
ENDBRANCH   6  22
BRANCH   8  24
ATOM     24  O   UNL     1      25.846  -9.326  13.112  1.00  0.00    -0.508 OA
ATOM     25  H   UNL     1      26.324  -8.518  12.730  1.00  0.00     0.293 HD
ENDBRANCH   8  24
TORSDOF 5
ENDMDL
MODEL 7
REMARK VINA RESULT:    -4.834      9.109     11.298
REMARK INTER + INTRA:          -5.755
REMARK INTER:                  -5.476
REMARK INTRA:                  -0.279
REMARK UNBOUND:                -0.073
REMARK SMILES O=c1c(O)c(-c2ccc(O)cc2)oc2cc(O)cc(O)c12
REMARK SMILES IDX 5 1 3 2 2 3 1 4 21 5 19 6 18 7 16 8 15 9 14 10 13 11 6 12
REMARK SMILES IDX 7 13 8 14 9 15 12 16 11 17 10 18 4 20 20 22 17 24
REMARK H PARENT 10 19 4 21 20 23 17 25
REMARK Flexibility Score: inf
ROOT
ATOM      1  C   UNL     1      14.285 -11.110  11.212  1.00  0.00     0.180 A 
ATOM      2  C   UNL     1      14.323 -10.588   9.909  1.00  0.00     0.208 A 
ATOM      3  C   UNL     1      14.672  -9.239   9.725  1.00  0.00     0.238 A 
ATOM      4  O   UNL     1      14.651  -8.764   8.560  1.00  0.00    -0.285 OA
ATOM      5  C   UNL     1      14.993  -8.436  10.845  1.00  0.00     0.111 A 
ATOM      6  C   UNL     1      15.399  -7.070  10.773  1.00  0.00     0.134 A 
ATOM      7  C   UNL     1      15.566  -6.336  11.954  1.00  0.00     0.093 A 
ATOM      8  C   UNL     1      15.406  -6.934  13.203  1.00  0.00     0.123 A 
ATOM      9  C   UNL     1      15.068  -8.286  13.285  1.00  0.00     0.094 A 
ATOM     10  C   UNL     1      14.859  -9.034  12.125  1.00  0.00     0.146 A 
ATOM     11  O   UNL     1      14.528 -10.315  12.248  1.00  0.00    -0.452 OA
ENDROOT
BRANCH   1  12
ATOM     12  C   UNL     1      13.951 -12.527  11.484  1.00  0.00     0.021 A 
ATOM     13  C   UNL     1      14.956 -13.493  11.680  1.00  0.00     0.016 A 
ATOM     14  C   UNL     1      14.616 -14.820  11.959  1.00  0.00     0.047 A 
ATOM     15  C   UNL     1      13.271 -15.196  12.060  1.00  0.00     0.115 A 
ATOM     16  C   UNL     1      12.605 -12.909  11.609  1.00  0.00     0.016 A 
ATOM     17  C   UNL     1      12.268 -14.237  11.888  1.00  0.00     0.047 A 
BRANCH  15  18
ATOM     18  O   UNL     1      12.921 -16.516  12.337  1.00  0.00    -0.508 OA
ATOM     19  H   UNL     1      11.979 -16.768  12.610  1.00  0.00     0.293 HD
ENDBRANCH  15  18
ENDBRANCH   1  12
BRANCH   2  20
ATOM     20  O   UNL     1      13.981 -11.392   8.819  1.00  0.00    -0.502 OA
ATOM     21  H   UNL     1      13.346 -12.178   8.900  1.00  0.00     0.293 HD
ENDBRANCH   2  20
BRANCH   6  22
ATOM     22  O   UNL     1      15.675  -6.400   9.577  1.00  0.00    -0.507 OA
ATOM     23  H   UNL     1      16.453  -5.773   9.436  1.00  0.00     0.293 HD
ENDBRANCH   6  22
BRANCH   8  24
ATOM     24  O   UNL     1      15.595  -6.177  14.357  1.00  0.00    -0.508 OA
ATOM     25  H   UNL     1      15.925  -6.596  15.218  1.00  0.00     0.293 HD
ENDBRANCH   8  24
TORSDOF 5
ENDMDL
MODEL 8
REMARK VINA RESULT:    -4.772     11.661     14.242
REMARK INTER + INTRA:          -5.682
REMARK INTER:                  -5.459
REMARK INTRA:                  -0.223
REMARK UNBOUND:                -0.073
REMARK SMILES O=c1c(O)c(-c2ccc(O)cc2)oc2cc(O)cc(O)c12
REMARK SMILES IDX 5 1 3 2 2 3 1 4 21 5 19 6 18 7 16 8 15 9 14 10 13 11 6 12
REMARK SMILES IDX 7 13 8 14 9 15 12 16 11 17 10 18 4 20 20 22 17 24
REMARK H PARENT 10 19 4 21 20 23 17 25
REMARK Flexibility Score: inf
ROOT
ATOM      1  C   UNL     1      15.080  -6.066  12.804  1.00  0.00     0.180 A 
ATOM      2  C   UNL     1      15.107  -7.425  13.161  1.00  0.00     0.208 A 
ATOM      3  C   UNL     1      14.947  -8.396  12.159  1.00  0.00     0.238 A 
ATOM      4  O   UNL     1      14.917  -9.609  12.493  1.00  0.00    -0.285 OA
ATOM      5  C   UNL     1      14.780  -7.996  10.811  1.00  0.00     0.111 A 
ATOM      6  C   UNL     1      14.651  -8.894   9.709  1.00  0.00     0.134 A 
ATOM      7  C   UNL     1      14.359  -8.388   8.436  1.00  0.00     0.093 A 
ATOM      8  C   UNL     1      14.258  -7.016   8.213  1.00  0.00     0.123 A 
ATOM      9  C   UNL     1      14.442  -6.126   9.272  1.00  0.00     0.094 A 
ATOM     10  C   UNL     1      14.698  -6.602  10.559  1.00  0.00     0.146 A 
ATOM     11  O   UNL     1      14.857  -5.721  11.541  1.00  0.00    -0.452 OA
ENDROOT
BRANCH   1  12
ATOM     12  C   UNL     1      15.266  -4.986  13.800  1.00  0.00     0.021 A 
ATOM     13  C   UNL     1      16.460  -4.244  13.862  1.00  0.00     0.016 A 
ATOM     14  C   UNL     1      16.603  -3.212  14.795  1.00  0.00     0.047 A 
ATOM     15  C   UNL     1      15.552  -2.900  15.667  1.00  0.00     0.115 A 
ATOM     16  C   UNL     1      14.210  -4.652  14.663  1.00  0.00     0.016 A 
ATOM     17  C   UNL     1      14.356  -3.620  15.596  1.00  0.00     0.047 A 
BRANCH  15  18
ATOM     18  O   UNL     1      15.685  -1.875  16.601  1.00  0.00    -0.508 OA
ATOM     19  H   UNL     1      15.911  -0.929  16.320  1.00  0.00     0.293 HD
ENDBRANCH  15  18
ENDBRANCH   1  12
BRANCH   2  20
ATOM     20  O   UNL     1      15.250  -7.797  14.500  1.00  0.00    -0.502 OA
ATOM     21  H   UNL     1      15.468  -8.747  14.781  1.00  0.00     0.293 HD
ENDBRANCH   2  20
BRANCH   6  22
ATOM     22  O   UNL     1      14.824 -10.278   9.806  1.00  0.00    -0.507 OA
ATOM     23  H   UNL     1      14.367 -10.957   9.216  1.00  0.00     0.293 HD
ENDBRANCH   6  22
BRANCH   8  24
ATOM     24  O   UNL     1      13.982  -6.547   6.930  1.00  0.00    -0.508 OA
ATOM     25  H   UNL     1      14.506  -5.782   6.521  1.00  0.00     0.293 HD
ENDBRANCH   8  24
TORSDOF 5
ENDMDL
MODEL 9
REMARK VINA RESULT:    -4.670      2.663      7.687
REMARK INTER + INTRA:          -5.562
REMARK INTER:                  -5.299
REMARK INTRA:                  -0.263
REMARK UNBOUND:                -0.073
REMARK SMILES O=c1c(O)c(-c2ccc(O)cc2)oc2cc(O)cc(O)c12
REMARK SMILES IDX 5 1 3 2 2 3 1 4 21 5 19 6 18 7 16 8 15 9 14 10 13 11 6 12
REMARK SMILES IDX 7 13 8 14 9 15 12 16 11 17 10 18 4 20 20 22 17 24
REMARK H PARENT 10 19 4 21 20 23 17 25
REMARK Flexibility Score: inf
ROOT
ATOM      1  C   UNL     1      16.347 -12.696  19.555  1.00  0.00     0.180 A 
ATOM      2  C   UNL     1      14.995 -12.420  19.815  1.00  0.00     0.208 A 
ATOM      3  C   UNL     1      14.090 -13.489  19.926  1.00  0.00     0.238 A 
ATOM      4  O   UNL     1      12.872 -13.233  20.104  1.00  0.00    -0.285 OA
ATOM      5  C   UNL     1      14.553 -14.820  19.791  1.00  0.00     0.111 A 
ATOM      6  C   UNL     1      13.734 -15.981  19.925  1.00  0.00     0.134 A 
ATOM      7  C   UNL     1      14.272 -17.243  19.642  1.00  0.00     0.093 A 
ATOM      8  C   UNL     1      15.613 -17.392  19.295  1.00  0.00     0.123 A 
ATOM      9  C   UNL     1      16.439 -16.269  19.220  1.00  0.00     0.094 A 
ATOM     10  C   UNL     1      15.923 -14.995  19.461  1.00  0.00     0.146 A 
ATOM     11  O   UNL     1      16.740 -13.951  19.369  1.00  0.00    -0.452 OA
ENDROOT
BRANCH   1  12
ATOM     12  C   UNL     1      17.365 -11.624  19.449  1.00  0.00     0.021 A 
ATOM     13  C   UNL     1      18.232 -11.329  20.518  1.00  0.00     0.016 A 
ATOM     14  C   UNL     1      19.200 -10.329  20.386  1.00  0.00     0.047 A 
ATOM     15  C   UNL     1      19.323  -9.622  19.184  1.00  0.00     0.115 A 
ATOM     16  C   UNL     1      17.509 -10.925  18.240  1.00  0.00     0.016 A 
ATOM     17  C   UNL     1      18.478  -9.925  18.112  1.00  0.00     0.047 A 
BRANCH  15  18
ATOM     18  O   UNL     1      20.284  -8.623  19.042  1.00  0.00    -0.508 OA
ATOM     19  H   UNL     1      20.071  -7.652  19.236  1.00  0.00     0.293 HD
ENDBRANCH  15  18
ENDBRANCH   1  12
BRANCH   2  20
ATOM     20  O   UNL     1      14.555 -11.098  19.922  1.00  0.00    -0.502 OA
ATOM     21  H   UNL     1      14.038 -10.635  19.183  1.00  0.00     0.293 HD
ENDBRANCH   2  20
BRANCH   6  22
ATOM     22  O   UNL     1      12.403 -15.952  20.354  1.00  0.00    -0.507 OA
ATOM     23  H   UNL     1      11.900 -16.746  20.720  1.00  0.00     0.293 HD
ENDBRANCH   6  22
BRANCH   8  24
ATOM     24  O   UNL     1      16.119 -18.664  19.036  1.00  0.00    -0.508 OA
ATOM     25  H   UNL     1      16.741 -19.131  19.685  1.00  0.00     0.293 HD
ENDBRANCH   8  24
TORSDOF 5
ENDMDL
