MODEL 1
REMARK VINA RESULT:    -5.471      0.000      0.000
REMARK INTER + INTRA:          -5.471
REMARK INTER:                  -5.471
REMARK INTRA:                   0.000
REMARK UNBOUND:                 0.000
REMARK SMILES CC1=CC[C@@]23C[C@@H]1C(C)(C)[C@@H]2CC[C@@H]3C
REMARK SMILES IDX 15 1 14 2 13 3 12 4 11 5 5 6 4 7 3 8 2 9 7 10 6 11 8 12 9 13
REMARK SMILES IDX 10 14 1 15
REMARK H PARENT
REMARK Flexibility Score: inf
ROOT
ATOM      1  C   UNL     1     141.382 145.460 137.187  1.00  0.00     0.008 C 
ATOM      2  C   UNL     1     141.272 144.031 136.634  1.00  0.00    -0.007 C 
ATOM      3  C   UNL     1     139.861 143.451 136.809  1.00  0.00     0.004 C 
ATOM      4  C   UNL     1     139.273 143.331 135.415  1.00  0.00     0.005 C 
ATOM      5  C   UNL     1     140.474 143.077 134.493  1.00  0.00     0.002 C 
ATOM      6  C   UNL     1     141.627 143.878 135.124  1.00  0.00    -0.020 C 
ATOM      7  C   UNL     1     142.997 143.153 134.930  1.00  0.00     0.035 C 
ATOM      8  C   UNL     1     143.497 143.193 133.496  1.00  0.00    -0.027 C 
ATOM      9  C   UNL     1     142.864 143.913 132.544  1.00  0.00    -0.074 C 
ATOM     10  C   UNL     1     141.532 144.587 132.870  1.00  0.00     0.021 C 
ATOM     11  C   UNL     1     141.643 145.164 134.280  1.00  0.00     0.016 C 
ATOM     12  C   UNL     1     140.366 143.556 132.999  1.00  0.00    -0.025 C 
ATOM     13  C   UNL     1     140.509 142.348 132.036  1.00  0.00     0.012 C 
ATOM     14  C   UNL     1     139.029 144.257 132.640  1.00  0.00     0.012 C 
ATOM     15  C   UNL     1     143.449 144.008 131.163  1.00  0.00     0.039 C 
ENDROOT
TORSDOF 0
ENDMDL
MODEL 2
REMARK VINA RESULT:    -5.462      4.761      6.331
REMARK INTER + INTRA:          -5.462
REMARK INTER:                  -5.462
REMARK INTRA:                   0.000
REMARK UNBOUND:                 0.000
REMARK SMILES CC1=CC[C@@]23C[C@@H]1C(C)(C)[C@@H]2CC[C@@H]3C
REMARK SMILES IDX 15 1 14 2 13 3 12 4 11 5 5 6 4 7 3 8 2 9 7 10 6 11 8 12 9 13
REMARK SMILES IDX 10 14 1 15
REMARK H PARENT
REMARK Flexibility Score: inf
ROOT
ATOM      1  C   UNL     1     140.854 136.727 137.254  1.00  0.00     0.008 C 
ATOM      2  C   UNL     1     140.963 138.158 136.706  1.00  0.00    -0.007 C 
ATOM      3  C   UNL     1     142.378 138.732 136.867  1.00  0.00     0.004 C 
ATOM      4  C   UNL     1     142.950 138.856 135.467  1.00  0.00     0.005 C 
ATOM      5  C   UNL     1     141.739 139.120 134.560  1.00  0.00     0.002 C 
ATOM      6  C   UNL     1     140.591 138.320 135.201  1.00  0.00    -0.020 C 
ATOM      7  C   UNL     1     139.221 139.050 135.027  1.00  0.00     0.035 C 
ATOM      8  C   UNL     1     138.704 139.019 133.600  1.00  0.00    -0.027 C 
ATOM      9  C   UNL     1     139.322 138.302 132.636  1.00  0.00    -0.074 C 
ATOM     10  C   UNL     1     140.655 137.621 132.943  1.00  0.00     0.021 C 
ATOM     11  C   UNL     1     140.559 137.038 134.352  1.00  0.00     0.016 C 
ATOM     12  C   UNL     1     141.826 138.648 133.063  1.00  0.00    -0.025 C 
ATOM     13  C   UNL     1     141.676 139.860 132.108  1.00  0.00     0.012 C 
ATOM     14  C   UNL     1     143.156 137.943 132.684  1.00  0.00     0.012 C 
ATOM     15  C   UNL     1     138.719 138.215 131.262  1.00  0.00     0.039 C 
ENDROOT
TORSDOF 0
ENDMDL
MODEL 3
REMARK VINA RESULT:    -5.425      3.042      4.458
REMARK INTER + INTRA:          -5.425
REMARK INTER:                  -5.425
REMARK INTRA:                   0.000
REMARK UNBOUND:                 0.000
REMARK SMILES CC1=CC[C@@]23C[C@@H]1C(C)(C)[C@@H]2CC[C@@H]3C
REMARK SMILES IDX 15 1 14 2 13 3 12 4 11 5 5 6 4 7 3 8 2 9 7 10 6 11 8 12 9 13
REMARK SMILES IDX 10 14 1 15
REMARK H PARENT
REMARK Flexibility Score: inf
ROOT
ATOM      1  C   UNL     1     145.383 140.981 137.167  1.00  0.00     0.008 C 
ATOM      2  C   UNL     1     143.977 141.117 136.563  1.00  0.00    -0.007 C 
ATOM      3  C   UNL     1     143.447 142.555 136.651  1.00  0.00     0.004 C 
ATOM      4  C   UNL     1     143.393 143.077 135.227  1.00  0.00     0.005 C 
ATOM      5  C   UNL     1     143.120 141.842 134.356  1.00  0.00     0.002 C 
ATOM      6  C   UNL     1     143.856 140.693 135.068  1.00  0.00    -0.020 C 
ATOM      7  C   UNL     1     143.085 139.342 134.918  1.00  0.00     0.035 C 
ATOM      8  C   UNL     1     143.149 138.770 133.513  1.00  0.00    -0.027 C 
ATOM      9  C   UNL     1     143.921 139.328 132.554  1.00  0.00    -0.074 C 
ATOM     10  C   UNL     1     144.636 140.648 132.837  1.00  0.00     0.021 C 
ATOM     11  C   UNL     1     145.166 140.586 134.268  1.00  0.00     0.016 C 
ATOM     12  C   UNL     1     143.648 141.856 132.875  1.00  0.00    -0.025 C 
ATOM     13  C   UNL     1     142.465 141.711 131.882  1.00  0.00     0.012 C 
ATOM     14  C   UNL     1     144.410 143.147 132.474  1.00  0.00     0.012 C 
ATOM     15  C   UNL     1     144.036 138.670 131.208  1.00  0.00     0.039 C 
ENDROOT
TORSDOF 0
ENDMDL
MODEL 4
REMARK VINA RESULT:    -5.399      3.007      4.435
REMARK INTER + INTRA:          -5.399
REMARK INTER:                  -5.399
REMARK INTRA:                   0.000
REMARK UNBOUND:                 0.000
REMARK SMILES CC1=CC[C@@]23C[C@@H]1C(C)(C)[C@@H]2CC[C@@H]3C
REMARK SMILES IDX 15 1 14 2 13 3 12 4 11 5 5 6 4 7 3 8 2 9 7 10 6 11 8 12 9 13
REMARK SMILES IDX 10 14 1 15
REMARK H PARENT
REMARK Flexibility Score: inf
ROOT
ATOM      1  C   UNL     1     136.871 141.370 137.025  1.00  0.00     0.008 C 
ATOM      2  C   UNL     1     138.275 141.195 136.424  1.00  0.00    -0.007 C 
ATOM      3  C   UNL     1     138.772 139.746 136.535  1.00  0.00     0.004 C 
ATOM      4  C   UNL     1     138.816 139.201 135.119  1.00  0.00     0.005 C 
ATOM      5  C   UNL     1     139.116 140.416 134.229  1.00  0.00     0.002 C 
ATOM      6  C   UNL     1     138.404 141.592 134.923  1.00  0.00    -0.020 C 
ATOM      7  C   UNL     1     139.205 142.923 134.751  1.00  0.00     0.035 C 
ATOM      8  C   UNL     1     139.153 143.473 133.337  1.00  0.00    -0.027 C 
ATOM      9  C   UNL     1     138.369 142.918 132.387  1.00  0.00    -0.074 C 
ATOM     10  C   UNL     1     137.625 141.618 132.690  1.00  0.00     0.021 C 
ATOM     11  C   UNL     1     137.097 141.714 134.121  1.00  0.00     0.016 C 
ATOM     12  C   UNL     1     138.587 140.389 132.748  1.00  0.00    -0.025 C 
ATOM     13  C   UNL     1     139.772 140.493 131.754  1.00  0.00     0.012 C 
ATOM     14  C   UNL     1     137.797 139.109 132.368  1.00  0.00     0.012 C 
ATOM     15  C   UNL     1     138.269 143.556 131.030  1.00  0.00     0.039 C 
ENDROOT
TORSDOF 0
ENDMDL
MODEL 5
REMARK VINA RESULT:    -5.299      2.879      5.809
REMARK INTER + INTRA:          -5.299
REMARK INTER:                  -5.299
REMARK INTRA:                   0.000
REMARK UNBOUND:                 0.000
REMARK SMILES CC1=CC[C@@]23C[C@@H]1C(C)(C)[C@@H]2CC[C@@H]3C
REMARK SMILES IDX 15 1 14 2 13 3 12 4 11 5 5 6 4 7 3 8 2 9 7 10 6 11 8 12 9 13
REMARK SMILES IDX 10 14 1 15
REMARK H PARENT
REMARK Flexibility Score: inf
ROOT
ATOM      1  C   UNL     1     137.532 138.778 131.503  1.00  0.00     0.008 C 
ATOM      2  C   UNL     1     138.810 139.106 132.291  1.00  0.00    -0.007 C 
ATOM      3  C   UNL     1     139.889 139.741 131.403  1.00  0.00     0.004 C 
ATOM      4  C   UNL     1     140.025 141.182 131.860  1.00  0.00     0.005 C 
ATOM      5  C   UNL     1     139.687 141.162 133.358  1.00  0.00     0.002 C 
ATOM      6  C   UNL     1     138.610 140.070 133.500  1.00  0.00    -0.020 C 
ATOM      7  C   UNL     1     138.742 139.314 134.861  1.00  0.00     0.035 C 
ATOM      8  C   UNL     1     138.322 140.154 136.054  1.00  0.00    -0.027 C 
ATOM      9  C   UNL     1     137.764 141.376 135.901  1.00  0.00    -0.074 C 
ATOM     10  C   UNL     1     137.683 141.998 134.508  1.00  0.00     0.021 C 
ATOM     11  C   UNL     1     137.307 140.886 133.530  1.00  0.00     0.016 C 
ATOM     12  C   UNL     1     139.080 142.467 133.991  1.00  0.00    -0.025 C 
ATOM     13  C   UNL     1     140.003 142.996 135.119  1.00  0.00     0.012 C 
ATOM     14  C   UNL     1     138.882 143.638 132.992  1.00  0.00     0.012 C 
ATOM     15  C   UNL     1     137.269 142.129 137.104  1.00  0.00     0.039 C 
ENDROOT
TORSDOF 0
ENDMDL
MODEL 6
REMARK VINA RESULT:    -5.293      4.546      6.599
REMARK INTER + INTRA:          -5.293
REMARK INTER:                  -5.293
REMARK INTRA:                   0.000
REMARK UNBOUND:                 0.000
REMARK SMILES CC1=CC[C@@]23C[C@@H]1C(C)(C)[C@@H]2CC[C@@H]3C
REMARK SMILES IDX 15 1 14 2 13 3 12 4 11 5 5 6 4 7 3 8 2 9 7 10 6 11 8 12 9 13
REMARK SMILES IDX 10 14 1 15
REMARK H PARENT
REMARK Flexibility Score: inf
ROOT
ATOM      1  C   UNL     1     143.569 137.452 131.396  1.00  0.00     0.008 C 
ATOM      2  C   UNL     1     143.237 138.747 132.153  1.00  0.00    -0.007 C 
ATOM      3  C   UNL     1     142.602 139.803 131.238  1.00  0.00     0.004 C 
ATOM      4  C   UNL     1     141.160 139.948 131.690  1.00  0.00     0.005 C 
ATOM      5  C   UNL     1     141.179 139.645 133.195  1.00  0.00     0.002 C 
ATOM      6  C   UNL     1     142.272 138.575 133.364  1.00  0.00    -0.020 C 
ATOM      7  C   UNL     1     143.025 138.739 134.723  1.00  0.00     0.035 C 
ATOM      8  C   UNL     1     142.184 138.347 135.924  1.00  0.00    -0.027 C 
ATOM      9  C   UNL     1     140.964 137.783 135.783  1.00  0.00    -0.074 C 
ATOM     10  C   UNL     1     140.344 137.669 134.392  1.00  0.00     0.021 C 
ATOM     11  C   UNL     1     141.458 137.271 133.425  1.00  0.00     0.016 C 
ATOM     12  C   UNL     1     139.873 139.052 133.841  1.00  0.00    -0.025 C 
ATOM     13  C   UNL     1     139.342 140.001 134.946  1.00  0.00     0.012 C 
ATOM     14  C   UNL     1     138.704 138.828 132.845  1.00  0.00     0.012 C 
ATOM     15  C   UNL     1     140.209 137.316 136.996  1.00  0.00     0.039 C 
ENDROOT
TORSDOF 0
ENDMDL
MODEL 7
REMARK VINA RESULT:    -5.290      2.881      5.113
REMARK INTER + INTRA:          -5.290
REMARK INTER:                  -5.290
REMARK INTRA:                   0.000
REMARK UNBOUND:                 0.000
REMARK SMILES CC1=CC[C@@]23C[C@@H]1C(C)(C)[C@@H]2CC[C@@H]3C
REMARK SMILES IDX 15 1 14 2 13 3 12 4 11 5 5 6 4 7 3 8 2 9 7 10 6 11 8 12 9 13
REMARK SMILES IDX 10 14 1 15
REMARK H PARENT
REMARK Flexibility Score: inf
ROOT
ATOM      1  C   UNL     1     144.754 143.365 131.417  1.00  0.00     0.008 C 
ATOM      2  C   UNL     1     143.473 143.094 132.222  1.00  0.00    -0.007 C 
ATOM      3  C   UNL     1     142.377 142.448 131.362  1.00  0.00     0.004 C 
ATOM      4  C   UNL     1     142.213 141.029 131.876  1.00  0.00     0.005 C 
ATOM      5  C   UNL     1     142.558 141.100 133.370  1.00  0.00     0.002 C 
ATOM      6  C   UNL     1     143.657 142.174 133.466  1.00  0.00    -0.020 C 
ATOM      7  C   UNL     1     143.547 142.984 134.797  1.00  0.00     0.035 C 
ATOM      8  C   UNL     1     143.954 142.183 136.021  1.00  0.00    -0.027 C 
ATOM      9  C   UNL     1     144.486 140.945 135.914  1.00  0.00    -0.074 C 
ATOM     10  C   UNL     1     144.548 140.268 134.546  1.00  0.00     0.021 C 
ATOM     11  C   UNL     1     144.944 141.333 133.524  1.00  0.00     0.016 C 
ATOM     12  C   UNL     1     143.140 139.808 134.052  1.00  0.00    -0.025 C 
ATOM     13  C   UNL     1     142.210 139.343 135.203  1.00  0.00     0.012 C 
ATOM     14  C   UNL     1     143.309 138.595 133.099  1.00  0.00     0.012 C 
ATOM     15  C   UNL     1     144.970 140.228 137.143  1.00  0.00     0.039 C 
ENDROOT
TORSDOF 0
ENDMDL
MODEL 8
REMARK VINA RESULT:    -5.282      1.006      4.084
REMARK INTER + INTRA:          -5.282
REMARK INTER:                  -5.282
REMARK INTRA:                   0.000
REMARK UNBOUND:                 0.000
REMARK SMILES CC1=CC[C@@]23C[C@@H]1C(C)(C)[C@@H]2CC[C@@H]3C
REMARK SMILES IDX 15 1 14 2 13 3 12 4 11 5 5 6 4 7 3 8 2 9 7 10 6 11 8 12 9 13
REMARK SMILES IDX 10 14 1 15
REMARK H PARENT
REMARK Flexibility Score: inf
ROOT
ATOM      1  C   UNL     1     138.892 144.748 131.566  1.00  0.00     0.008 C 
ATOM      2  C   UNL     1     139.144 143.473 132.384  1.00  0.00    -0.007 C 
ATOM      3  C   UNL     1     139.751 142.350 131.531  1.00  0.00     0.004 C 
ATOM      4  C   UNL     1     141.173 142.159 132.026  1.00  0.00     0.005 C 
ATOM      5  C   UNL     1     141.131 142.526 133.517  1.00  0.00     0.002 C 
ATOM      6  C   UNL     1     140.086 143.652 133.612  1.00  0.00    -0.020 C 
ATOM      7  C   UNL     1     139.293 143.580 134.957  1.00  0.00     0.035 C 
ATOM      8  C   UNL     1     140.122 143.984 136.163  1.00  0.00    -0.027 C 
ATOM      9  C   UNL     1     141.370 144.485 136.030  1.00  0.00    -0.074 C 
ATOM     10  C   UNL     1     142.028 144.511 134.652  1.00  0.00     0.021 C 
ATOM     11  C   UNL     1     140.958 144.918 133.640  1.00  0.00     0.016 C 
ATOM     12  C   UNL     1     142.447 143.086 134.172  1.00  0.00    -0.025 C 
ATOM     13  C   UNL     1     142.906 142.161 135.329  1.00  0.00     0.012 C 
ATOM     14  C   UNL     1     143.649 143.213 133.199  1.00  0.00     0.012 C 
ATOM     15  C   UNL     1     142.116 144.968 137.242  1.00  0.00     0.039 C 
ENDROOT
TORSDOF 0
ENDMDL
MODEL 9
REMARK VINA RESULT:    -5.178      3.321      5.447
REMARK INTER + INTRA:          -5.178
REMARK INTER:                  -5.178
REMARK INTRA:                   0.000
REMARK UNBOUND:                 0.000
REMARK SMILES CC1=CC[C@@]23C[C@@H]1C(C)(C)[C@@H]2CC[C@@H]3C
REMARK SMILES IDX 15 1 14 2 13 3 12 4 11 5 5 6 4 7 3 8 2 9 7 10 6 11 8 12 9 13
REMARK SMILES IDX 10 14 1 15
REMARK H PARENT
REMARK Flexibility Score: inf
ROOT
ATOM      1  C   UNL     1     143.118 137.305 131.791  1.00  0.00     0.008 C 
ATOM      2  C   UNL     1     142.277 138.365 132.520  1.00  0.00    -0.007 C 
ATOM      3  C   UNL     1     142.007 137.980 133.982  1.00  0.00     0.004 C 
ATOM      4  C   UNL     1     142.788 138.965 134.833  1.00  0.00     0.005 C 
ATOM      5  C   UNL     1     142.827 140.262 134.012  1.00  0.00     0.002 C 
ATOM      6  C   UNL     1     142.896 139.795 132.547  1.00  0.00    -0.020 C 
ATOM      7  C   UNL     1     142.122 140.769 131.602  1.00  0.00     0.035 C 
ATOM      8  C   UNL     1     142.825 142.101 131.412  1.00  0.00    -0.027 C 
ATOM      9  C   UNL     1     144.061 142.330 131.911  1.00  0.00    -0.074 C 
ATOM     10  C   UNL     1     144.713 141.284 132.814  1.00  0.00     0.021 C 
ATOM     11  C   UNL     1     144.396 139.910 132.227  1.00  0.00     0.016 C 
ATOM     12  C   UNL     1     144.049 141.230 134.226  1.00  0.00    -0.025 C 
ATOM     13  C   UNL     1     143.557 142.614 134.724  1.00  0.00     0.012 C 
ATOM     14  C   UNL     1     145.095 140.731 135.258  1.00  0.00     0.012 C 
ATOM     15  C   UNL     1     144.762 143.625 131.612  1.00  0.00     0.039 C 
ENDROOT
TORSDOF 0
ENDMDL
