MODEL 1
REMARK VINA RESULT:    -5.359      0.000      0.000
REMARK INTER + INTRA:          -7.304
REMARK INTER:                  -6.925
REMARK INTRA:                  -0.379
REMARK UNBOUND:                -0.379
REMARK SMILES CCO[C@H]1O[C@@H](CO)[C@@H](O)[C@H](O)[C@@H]1O
REMARK SMILES IDX 4 1 13 2 11 3 9 4 6 5 5 6 3 7 2 8 1 9 14 10 12 12 7 14 8 15
REMARK SMILES IDX 10 17
REMARK H PARENT 14 11 12 13 8 16 10 18
REMARK Flexibility Score: inf
ROOT
ATOM      1  C   UNL     1     233.915 239.180 238.717  1.00  0.00     0.281 C 
ATOM      2  C   UNL     1     232.724 238.387 239.338  1.00  0.00     0.202 C 
ATOM      3  C   UNL     1     231.880 239.308 240.241  1.00  0.00     0.179 C 
ATOM      4  C   UNL     1     232.762 239.973 241.327  1.00  0.00     0.177 C 
ATOM      5  C   UNL     1     234.217 240.174 240.815  1.00  0.00     0.178 C 
ATOM      6  O   UNL     1     234.203 240.389 239.417  1.00  0.00    -0.341 OA
ENDROOT
BRANCH   1   7
ATOM      7  O   UNL     1     233.584 239.503 237.378  1.00  0.00    -0.350 OA
BRANCH   7   8
ATOM      8  C   UNL     1     233.154 238.358 236.663  1.00  0.00     0.160 C 
ATOM      9  C   UNL     1     233.778 238.342 235.273  1.00  0.00     0.035 C 
ENDBRANCH   7   8
ENDBRANCH   1   7
BRANCH   2  10
ATOM     10  O   UNL     1     233.221 237.302 240.084  1.00  0.00    -0.385 OA
ATOM     11  H   UNL     1     233.672 236.692 239.444  1.00  0.00     0.211 HD
ENDBRANCH   2  10
BRANCH   3  12
ATOM     12  O   UNL     1     230.840 238.589 240.854  1.00  0.00    -0.387 OA
ATOM     13  H   UNL     1     230.660 237.799 240.280  1.00  0.00     0.211 HD
ENDBRANCH   3  12
BRANCH   5  14
ATOM     14  C   UNL     1     234.944 241.338 241.506  1.00  0.00     0.191 C 
BRANCH  14  15
ATOM     15  O   UNL     1     234.990 241.130 242.892  1.00  0.00    -0.394 OA
ATOM     16  H   UNL     1     235.528 241.870 243.275  1.00  0.00     0.210 HD
ENDBRANCH  14  15
ENDBRANCH   5  14
BRANCH   4  17
ATOM     17  O   UNL     1     232.173 241.177 241.758  1.00  0.00    -0.387 OA
ATOM     18  H   UNL     1     232.864 241.888 241.696  1.00  0.00     0.211 HD
ENDBRANCH   4  17
TORSDOF 7
ENDMDL
MODEL 2
REMARK VINA RESULT:    -5.001      1.990      4.339
REMARK INTER + INTRA:          -6.842
REMARK INTER:                  -6.456
REMARK INTRA:                  -0.386
REMARK UNBOUND:                -0.379
REMARK SMILES CCO[C@H]1O[C@@H](CO)[C@@H](O)[C@H](O)[C@@H]1O
REMARK SMILES IDX 4 1 13 2 11 3 9 4 6 5 5 6 3 7 2 8 1 9 14 10 12 12 7 14 8 15
REMARK SMILES IDX 10 17
REMARK H PARENT 14 11 12 13 8 16 10 18
REMARK Flexibility Score: inf
ROOT
ATOM      1  C   UNL     1     233.356 240.738 241.558  1.00  0.00     0.281 C 
ATOM      2  C   UNL     1     232.340 239.785 240.855  1.00  0.00     0.202 C 
ATOM      3  C   UNL     1     233.075 238.577 240.242  1.00  0.00     0.179 C 
ATOM      4  C   UNL     1     234.194 239.044 239.278  1.00  0.00     0.177 C 
ATOM      5  C   UNL     1     234.774 240.418 239.724  1.00  0.00     0.178 C 
ATOM      6  O   UNL     1     234.701 240.528 241.132  1.00  0.00    -0.341 OA
ENDROOT
BRANCH   1   7
ATOM      7  O   UNL     1     233.285 240.510 242.955  1.00  0.00    -0.350 OA
BRANCH   7   8
ATOM      8  C   UNL     1     233.384 241.721 243.681  1.00  0.00     0.160 C 
ATOM      9  C   UNL     1     232.712 242.852 242.912  1.00  0.00     0.035 C 
ENDBRANCH   7   8
ENDBRANCH   1   7
BRANCH   2  10
ATOM     10  O   UNL     1     231.651 240.492 239.853  1.00  0.00    -0.385 OA
ATOM     11  H   UNL     1     231.415 241.378 240.231  1.00  0.00     0.211 HD
ENDBRANCH   2  10
BRANCH   3  12
ATOM     12  O   UNL     1     232.178 237.743 239.554  1.00  0.00    -0.387 OA
ATOM     13  H   UNL     1     231.443 238.324 239.223  1.00  0.00     0.211 HD
ENDBRANCH   3  12
BRANCH   5  14
ATOM     14  C   UNL     1     236.225 240.636 239.267  1.00  0.00     0.191 C 
BRANCH  14  15
ATOM     15  O   UNL     1     237.119 240.206 240.258  1.00  0.00    -0.394 OA
ATOM     16  H   UNL     1     237.858 240.868 240.282  1.00  0.00     0.210 HD
ENDBRANCH  14  15
ENDBRANCH   5  14
BRANCH   4  17
ATOM     17  O   UNL     1     235.186 238.051 239.170  1.00  0.00    -0.387 OA
ATOM     18  H   UNL     1     236.066 238.490 239.311  1.00  0.00     0.211 HD
ENDBRANCH   4  17
TORSDOF 7
ENDMDL
MODEL 3
REMARK VINA RESULT:    -4.942      2.221      2.807
REMARK INTER + INTRA:          -6.766
REMARK INTER:                  -6.355
REMARK INTRA:                  -0.411
REMARK UNBOUND:                -0.379
REMARK SMILES CCO[C@H]1O[C@@H](CO)[C@@H](O)[C@H](O)[C@@H]1O
REMARK SMILES IDX 4 1 13 2 11 3 9 4 6 5 5 6 3 7 2 8 1 9 14 10 12 12 7 14 8 15
REMARK SMILES IDX 10 17
REMARK H PARENT 14 11 12 13 8 16 10 18
REMARK Flexibility Score: inf
ROOT
ATOM      1  C   UNL     1     235.375 240.290 240.362  1.00  0.00     0.281 C 
ATOM      2  C   UNL     1     234.016 239.819 239.756  1.00  0.00     0.202 C 
ATOM      3  C   UNL     1     232.871 240.734 240.236  1.00  0.00     0.179 C 
ATOM      4  C   UNL     1     232.826 240.795 241.783  1.00  0.00     0.177 C 
ATOM      5  C   UNL     1     234.248 240.609 242.388  1.00  0.00     0.178 C 
ATOM      6  O   UNL     1     235.214 241.136 241.499  1.00  0.00    -0.341 OA
ENDROOT
BRANCH   1   7
ATOM      7  O   UNL     1     236.082 241.005 239.364  1.00  0.00    -0.350 OA
BRANCH   7   8
ATOM      8  C   UNL     1     236.932 240.151 238.622  1.00  0.00     0.160 C 
ATOM      9  C   UNL     1     237.824 239.349 239.562  1.00  0.00     0.035 C 
ENDBRANCH   7   8
ENDBRANCH   1   7
BRANCH   2  10
ATOM     10  O   UNL     1     233.766 238.490 240.141  1.00  0.00    -0.385 OA
ATOM     11  H   UNL     1     233.432 238.012 239.338  1.00  0.00     0.211 HD
ENDBRANCH   2  10
BRANCH   3  12
ATOM     12  O   UNL     1     231.634 240.283 239.746  1.00  0.00    -0.387 OA
ATOM     13  H   UNL     1     231.752 239.328 239.503  1.00  0.00     0.211 HD
ENDBRANCH   3  12
BRANCH   5  14
ATOM     14  C   UNL     1     234.407 241.269 243.767  1.00  0.00     0.191 C 
BRANCH  14  15
ATOM     15  O   UNL     1     233.432 240.787 244.653  1.00  0.00    -0.394 OA
ATOM     16  H   UNL     1     233.812 239.976 245.081  1.00  0.00     0.210 HD
ENDBRANCH  14  15
ENDBRANCH   5  14
BRANCH   4  17
ATOM     17  O   UNL     1     232.215 241.991 242.203  1.00  0.00    -0.387 OA
ATOM     18  H   UNL     1     231.793 241.819 243.086  1.00  0.00     0.211 HD
ENDBRANCH   4  17
TORSDOF 7
ENDMDL
MODEL 4
REMARK VINA RESULT:    -4.885      1.901      4.650
REMARK INTER + INTRA:          -6.692
REMARK INTER:                  -6.317
REMARK INTRA:                  -0.375
REMARK UNBOUND:                -0.379
REMARK SMILES CCO[C@H]1O[C@@H](CO)[C@@H](O)[C@H](O)[C@@H]1O
REMARK SMILES IDX 4 1 13 2 11 3 9 4 6 5 5 6 3 7 2 8 1 9 14 10 12 12 7 14 8 15
REMARK SMILES IDX 10 17
REMARK H PARENT 14 11 12 13 8 16 10 18
REMARK Flexibility Score: inf
ROOT
ATOM      1  C   UNL     1     234.324 240.979 241.473  1.00  0.00     0.281 C 
ATOM      2  C   UNL     1     232.773 240.870 241.338  1.00  0.00     0.202 C 
ATOM      3  C   UNL     1     232.357 239.402 241.118  1.00  0.00     0.179 C 
ATOM      4  C   UNL     1     233.090 238.799 239.893  1.00  0.00     0.177 C 
ATOM      5  C   UNL     1     234.486 239.459 239.702  1.00  0.00     0.178 C 
ATOM      6  O   UNL     1     235.008 239.838 240.960  1.00  0.00    -0.341 OA
ENDROOT
BRANCH   1   7
ATOM      7  O   UNL     1     234.641 241.114 242.847  1.00  0.00    -0.350 OA
BRANCH   7   8
ATOM      8  C   UNL     1     233.572 241.700 243.568  1.00  0.00     0.160 C 
ATOM      9  C   UNL     1     233.634 241.282 245.032  1.00  0.00     0.035 C 
ENDBRANCH   7   8
ENDBRANCH   1   7
BRANCH   2  10
ATOM     10  O   UNL     1     232.340 241.662 240.260  1.00  0.00    -0.385 OA
ATOM     11  H   UNL     1     233.146 242.090 239.869  1.00  0.00     0.211 HD
ENDBRANCH   2  10
BRANCH   3  12
ATOM     12  O   UNL     1     230.968 239.299 240.934  1.00  0.00    -0.387 OA
ATOM     13  H   UNL     1     230.556 239.326 241.837  1.00  0.00     0.211 HD
ENDBRANCH   3  12
BRANCH   5  14
ATOM     14  C   UNL     1     235.491 238.544 238.984  1.00  0.00     0.191 C 
BRANCH  14  15
ATOM     15  O   UNL     1     236.097 237.672 239.899  1.00  0.00    -0.394 OA
ATOM     16  H   UNL     1     235.470 236.912 240.028  1.00  0.00     0.210 HD
ENDBRANCH  14  15
ENDBRANCH   5  14
BRANCH   4  17
ATOM     17  O   UNL     1     233.168 237.400 240.017  1.00  0.00    -0.387 OA
ATOM     18  H   UNL     1     232.898 237.006 239.146  1.00  0.00     0.211 HD
ENDBRANCH   4  17
TORSDOF 7
ENDMDL
MODEL 5
REMARK VINA RESULT:    -4.838      1.493      2.019
REMARK INTER + INTRA:          -6.631
REMARK INTER:                  -6.318
REMARK INTRA:                  -0.313
REMARK UNBOUND:                -0.379
REMARK SMILES CCO[C@H]1O[C@@H](CO)[C@@H](O)[C@H](O)[C@@H]1O
REMARK SMILES IDX 4 1 13 2 11 3 9 4 6 5 5 6 3 7 2 8 1 9 14 10 12 12 7 14 8 15
REMARK SMILES IDX 10 17
REMARK H PARENT 14 11 12 13 8 16 10 18
REMARK Flexibility Score: inf
ROOT
ATOM      1  C   UNL     1     233.671 238.780 238.589  1.00  0.00     0.281 C 
ATOM      2  C   UNL     1     232.603 239.296 239.604  1.00  0.00     0.202 C 
ATOM      3  C   UNL     1     233.179 240.453 240.445  1.00  0.00     0.179 C 
ATOM      4  C   UNL     1     234.489 240.022 241.151  1.00  0.00     0.177 C 
ATOM      5  C   UNL     1     235.246 238.953 240.311  1.00  0.00     0.178 C 
ATOM      6  O   UNL     1     234.999 239.168 238.935  1.00  0.00    -0.341 OA
ENDROOT
BRANCH   1   7
ATOM      7  O   UNL     1     233.364 239.314 237.313  1.00  0.00    -0.350 OA
BRANCH   7   8
ATOM      8  C   UNL     1     233.374 238.307 236.318  1.00  0.00     0.160 C 
ATOM      9  C   UNL     1     234.175 238.771 235.108  1.00  0.00     0.035 C 
ENDBRANCH   7   8
ENDBRANCH   1   7
BRANCH   2  10
ATOM     10  O   UNL     1     232.206 238.240 240.443  1.00  0.00    -0.385 OA
ATOM     11  H   UNL     1     231.588 238.622 241.120  1.00  0.00     0.211 HD
ENDBRANCH   2  10
BRANCH   3  12
ATOM     12  O   UNL     1     232.247 240.884 241.404  1.00  0.00    -0.387 OA
ATOM     13  H   UNL     1     231.415 240.366 241.249  1.00  0.00     0.211 HD
ENDBRANCH   3  12
BRANCH   5  14
ATOM     14  C   UNL     1     236.762 238.950 240.566  1.00  0.00     0.191 C 
BRANCH  14  15
ATOM     15  O   UNL     1     237.349 240.105 240.029  1.00  0.00    -0.394 OA
ATOM     16  H   UNL     1     238.269 239.856 239.753  1.00  0.00     0.210 HD
ENDBRANCH  14  15
ENDBRANCH   5  14
BRANCH   4  17
ATOM     17  O   UNL     1     235.283 241.151 241.427  1.00  0.00    -0.387 OA
ATOM     18  H   UNL     1     235.672 241.461 240.567  1.00  0.00     0.211 HD
ENDBRANCH   4  17
TORSDOF 7
ENDMDL
MODEL 6
REMARK VINA RESULT:    -4.736      6.149      9.582
REMARK INTER + INTRA:          -6.500
REMARK INTER:                  -6.107
REMARK INTRA:                  -0.393
REMARK UNBOUND:                -0.379
REMARK SMILES CCO[C@H]1O[C@@H](CO)[C@@H](O)[C@H](O)[C@@H]1O
REMARK SMILES IDX 4 1 13 2 11 3 9 4 6 5 5 6 3 7 2 8 1 9 14 10 12 12 7 14 8 15
REMARK SMILES IDX 10 17
REMARK H PARENT 14 11 12 13 8 16 10 18
REMARK Flexibility Score: inf
ROOT
ATOM      1  C   UNL     1     234.900 238.960 232.535  1.00  0.00     0.281 C 
ATOM      2  C   UNL     1     233.466 238.638 232.011  1.00  0.00     0.202 C 
ATOM      3  C   UNL     1     233.543 237.869 230.677  1.00  0.00     0.179 C 
ATOM      4  C   UNL     1     234.378 238.656 229.635  1.00  0.00     0.177 C 
ATOM      5  C   UNL     1     235.472 239.515 230.335  1.00  0.00     0.178 C 
ATOM      6  O   UNL     1     235.896 238.869 231.519  1.00  0.00    -0.341 OA
ENDROOT
BRANCH   1   7
ATOM      7  O   UNL     1     235.216 238.036 233.560  1.00  0.00    -0.350 OA
BRANCH   7   8
ATOM      8  C   UNL     1     234.269 238.089 234.613  1.00  0.00     0.160 C 
ATOM      9  C   UNL     1     234.674 239.148 235.631  1.00  0.00     0.035 C 
ENDBRANCH   7   8
ENDBRANCH   1   7
BRANCH   2  10
ATOM     10  O   UNL     1     232.750 239.836 231.837  1.00  0.00    -0.385 OA
ATOM     11  H   UNL     1     231.814 239.660 232.120  1.00  0.00     0.211 HD
ENDBRANCH   2  10
BRANCH   3  12
ATOM     12  O   UNL     1     232.258 237.627 230.165  1.00  0.00    -0.387 OA
ATOM     13  H   UNL     1     232.198 236.652 229.990  1.00  0.00     0.211 HD
ENDBRANCH   3  12
BRANCH   5  14
ATOM     14  C   UNL     1     236.688 239.789 229.435  1.00  0.00     0.191 C 
BRANCH  14  15
ATOM     15  O   UNL     1     236.297 240.497 228.289  1.00  0.00    -0.394 OA
ATOM     16  H   UNL     1     237.128 240.834 227.864  1.00  0.00     0.210 HD
ENDBRANCH  14  15
ENDBRANCH   5  14
BRANCH   4  17
ATOM     17  O   UNL     1     234.916 237.774 228.680  1.00  0.00    -0.387 OA
ATOM     18  H   UNL     1     235.477 238.310 228.059  1.00  0.00     0.211 HD
ENDBRANCH   4  17
TORSDOF 7
ENDMDL
MODEL 7
REMARK VINA RESULT:    -4.722      2.021      3.879
REMARK INTER + INTRA:          -6.482
REMARK INTER:                  -6.217
REMARK INTRA:                  -0.266
REMARK UNBOUND:                -0.379
REMARK SMILES CCO[C@H]1O[C@@H](CO)[C@@H](O)[C@H](O)[C@@H]1O
REMARK SMILES IDX 4 1 13 2 11 3 9 4 6 5 5 6 3 7 2 8 1 9 14 10 12 12 7 14 8 15
REMARK SMILES IDX 10 17
REMARK H PARENT 14 11 12 13 8 16 10 18
REMARK Flexibility Score: inf
ROOT
ATOM      1  C   UNL     1     234.475 238.112 238.806  1.00  0.00     0.281 C 
ATOM      2  C   UNL     1     235.460 239.321 238.796  1.00  0.00     0.202 C 
ATOM      3  C   UNL     1     235.595 239.914 240.214  1.00  0.00     0.179 C 
ATOM      4  C   UNL     1     234.207 240.301 240.782  1.00  0.00     0.177 C 
ATOM      5  C   UNL     1     233.094 239.375 240.211  1.00  0.00     0.178 C 
ATOM      6  O   UNL     1     233.630 238.092 239.955  1.00  0.00    -0.341 OA
ENDROOT
BRANCH   1   7
ATOM      7  O   UNL     1     235.237 236.918 238.786  1.00  0.00    -0.350 OA
BRANCH   7   8
ATOM      8  C   UNL     1     235.124 236.214 240.009  1.00  0.00     0.160 C 
ATOM      9  C   UNL     1     236.497 236.049 240.650  1.00  0.00     0.035 C 
ENDBRANCH   7   8
ENDBRANCH   1   7
BRANCH   2  10
ATOM     10  O   UNL     1     234.990 240.303 237.905  1.00  0.00    -0.385 OA
ATOM     11  H   UNL     1     234.483 239.831 237.194  1.00  0.00     0.211 HD
ENDBRANCH   2  10
BRANCH   3  12
ATOM     12  O   UNL     1     236.433 241.041 240.206  1.00  0.00    -0.387 OA
ATOM     13  H   UNL     1     236.218 241.553 239.383  1.00  0.00     0.211 HD
ENDBRANCH   3  12
BRANCH   5  14
ATOM     14  C   UNL     1     231.879 239.247 241.144  1.00  0.00     0.191 C 
BRANCH  14  15
ATOM     15  O   UNL     1     230.945 238.349 240.608  1.00  0.00    -0.394 OA
ATOM     16  H   UNL     1     230.097 238.491 241.102  1.00  0.00     0.210 HD
ENDBRANCH  14  15
ENDBRANCH   5  14
BRANCH   4  17
ATOM     17  O   UNL     1     234.242 240.295 242.189  1.00  0.00    -0.387 OA
ATOM     18  H   UNL     1     234.977 240.900 242.474  1.00  0.00     0.211 HD
ENDBRANCH   4  17
TORSDOF 7
ENDMDL
MODEL 8
REMARK VINA RESULT:    -4.708      7.991     10.593
REMARK INTER + INTRA:          -6.463
REMARK INTER:                  -5.994
REMARK INTRA:                  -0.469
REMARK UNBOUND:                -0.379
REMARK SMILES CCO[C@H]1O[C@@H](CO)[C@@H](O)[C@H](O)[C@@H]1O
REMARK SMILES IDX 4 1 13 2 11 3 9 4 6 5 5 6 3 7 2 8 1 9 14 10 12 12 7 14 8 15
REMARK SMILES IDX 10 17
REMARK H PARENT 14 11 12 13 8 16 10 18
REMARK Flexibility Score: inf
ROOT
ATOM      1  C   UNL     1     236.096 239.463 231.428  1.00  0.00     0.281 C 
ATOM      2  C   UNL     1     235.980 240.022 229.976  1.00  0.00     0.202 C 
ATOM      3  C   UNL     1     235.420 238.941 229.030  1.00  0.00     0.179 C 
ATOM      4  C   UNL     1     236.283 237.656 229.089  1.00  0.00     0.177 C 
ATOM      5  C   UNL     1     236.929 237.486 230.495  1.00  0.00     0.178 C 
ATOM      6  O   UNL     1     236.077 238.038 231.479  1.00  0.00    -0.341 OA
ENDROOT
BRANCH   1   7
ATOM      7  O   UNL     1     235.003 239.955 232.182  1.00  0.00    -0.350 OA
BRANCH   7   8
ATOM      8  C   UNL     1     234.038 238.944 232.412  1.00  0.00     0.160 C 
ATOM      9  C   UNL     1     232.680 239.381 231.876  1.00  0.00     0.035 C 
ENDBRANCH   7   8
ENDBRANCH   1   7
BRANCH   2  10
ATOM     10  O   UNL     1     237.246 240.443 229.532  1.00  0.00    -0.385 OA
ATOM     11  H   UNL     1     237.876 239.691 229.691  1.00  0.00     0.211 HD
ENDBRANCH   2  10
BRANCH   3  12
ATOM     12  O   UNL     1     235.368 239.413 227.708  1.00  0.00    -0.387 OA
ATOM     13  H   UNL     1     235.365 240.404 227.757  1.00  0.00     0.211 HD
ENDBRANCH   3  12
BRANCH   5  14
ATOM     14  C   UNL     1     237.234 236.020 230.844  1.00  0.00     0.191 C 
BRANCH  14  15
ATOM     15  O   UNL     1     236.071 235.371 231.281  1.00  0.00    -0.394 OA
ATOM     16  H   UNL     1     235.556 236.034 231.811  1.00  0.00     0.210 HD
ENDBRANCH  14  15
ENDBRANCH   5  14
BRANCH   4  17
ATOM     17  O   UNL     1     235.515 236.539 228.712  1.00  0.00    -0.387 OA
ATOM     18  H   UNL     1     236.135 235.863 228.330  1.00  0.00     0.211 HD
ENDBRANCH   4  17
TORSDOF 7
ENDMDL
MODEL 9
REMARK VINA RESULT:    -4.662      7.219     10.304
REMARK INTER + INTRA:          -6.405
REMARK INTER:                  -5.981
REMARK INTRA:                  -0.424
REMARK UNBOUND:                -0.379
REMARK SMILES CCO[C@H]1O[C@@H](CO)[C@@H](O)[C@H](O)[C@@H]1O
REMARK SMILES IDX 4 1 13 2 11 3 9 4 6 5 5 6 3 7 2 8 1 9 14 10 12 12 7 14 8 15
REMARK SMILES IDX 10 17
REMARK H PARENT 14 11 12 13 8 16 10 18
REMARK Flexibility Score: inf
ROOT
ATOM      1  C   UNL     1     233.539 238.850 230.767  1.00  0.00     0.281 C 
ATOM      2  C   UNL     1     233.425 237.345 230.372  1.00  0.00     0.202 C 
ATOM      3  C   UNL     1     234.828 236.725 230.213  1.00  0.00     0.179 C 
ATOM      4  C   UNL     1     235.673 237.531 229.194  1.00  0.00     0.177 C 
ATOM      5  C   UNL     1     235.261 239.031 229.194  1.00  0.00     0.178 C 
ATOM      6  O   UNL     1     234.822 239.403 230.486  1.00  0.00    -0.341 OA
ENDROOT
BRANCH   1   7
ATOM      7  O   UNL     1     233.295 238.963 232.158  1.00  0.00    -0.350 OA
BRANCH   7   8
ATOM      8  C   UNL     1     234.485 239.255 232.868  1.00  0.00     0.160 C 
ATOM      9  C   UNL     1     234.574 238.393 234.122  1.00  0.00     0.035 C 
ENDBRANCH   7   8
ENDBRANCH   1   7
BRANCH   2  10
ATOM     10  O   UNL     1     232.707 237.229 229.168  1.00  0.00    -0.385 OA
ATOM     11  H   UNL     1     232.149 238.046 229.082  1.00  0.00     0.211 HD
ENDBRANCH   2  10
BRANCH   3  12
ATOM     12  O   UNL     1     234.739 235.387 229.797  1.00  0.00    -0.387 OA
ATOM     13  H   UNL     1     234.010 235.343 229.125  1.00  0.00     0.211 HD
ENDBRANCH   3  12
BRANCH   5  14
ATOM     14  C   UNL     1     236.396 239.967 228.748  1.00  0.00     0.191 C 
BRANCH  14  15
ATOM     15  O   UNL     1     237.082 240.468 229.864  1.00  0.00    -0.394 OA
ATOM     16  H   UNL     1     237.049 241.458 229.798  1.00  0.00     0.210 HD
ENDBRANCH  14  15
ENDBRANCH   5  14
BRANCH   4  17
ATOM     17  O   UNL     1     237.045 237.350 229.454  1.00  0.00    -0.387 OA
ATOM     18  H   UNL     1     237.158 237.287 230.439  1.00  0.00     0.211 HD
ENDBRANCH   4  17
TORSDOF 7
ENDMDL
