MODEL 1
REMARK VINA RESULT:    -6.087      0.000      0.000
REMARK INTER + INTRA:         -18.680
REMARK INTER:                 -15.338
REMARK INTRA:                  -3.342
REMARK UNBOUND:                -3.342
REMARK SMILES CCCCCCCCCCCCCCCCCCCCCCCCCCCC(=O)[O-]
REMARK SMILES IDX 15 1 16 2 17 3 18 4 19 5 20 6 21 7 22 8 23 9 24 10 25 11
REMARK SMILES IDX 26 12 27 13 28 14 29 15 30 16 14 17 13 18 12 19 11 20 10 21
REMARK SMILES IDX 9 22 8 23 7 24 6 25 5 26 4 27 3 28 2 29 1 30
REMARK H PARENT
REMARK Flexibility Score: inf
ROOT
ATOM      1  C   UNL     1       5.275  16.123   3.470  1.00  0.00     0.000 C 
ENDROOT
BRANCH   1   2
ATOM      2  C   UNL     1       6.786  15.978   3.722  1.00  0.00     0.000 C 
BRANCH   2   3
ATOM      3  C   UNL     1       7.353  14.643   3.192  1.00  0.00     0.000 C 
BRANCH   3   4
ATOM      4  C   UNL     1       8.597  14.799   2.296  1.00  0.00     0.000 C 
BRANCH   4   5
ATOM      5  C   UNL     1       8.459  14.226   0.875  1.00  0.00     0.000 C 
BRANCH   5   6
ATOM      6  C   UNL     1       9.815  13.966   0.200  1.00  0.00     0.000 C 
BRANCH   6   7
ATOM      7  C   UNL     1      10.951  13.958   1.232  1.00  0.00     0.000 C 
BRANCH   7   8
ATOM      8  C   UNL     1      11.989  15.060   0.964  1.00  0.00     0.000 C 
BRANCH   8   9
ATOM      9  C   UNL     1      11.454  16.165   0.036  1.00  0.00     0.000 C 
BRANCH   9  10
ATOM     10  C   UNL     1      11.435  17.546   0.723  1.00  0.00     0.000 C 
BRANCH  10  11
ATOM     11  C   UNL     1      11.037  17.496   2.211  1.00  0.00     0.000 C 
BRANCH  11  12
ATOM     12  C   UNL     1      11.045  18.858   2.932  1.00  0.00     0.006 C 
BRANCH  12  13
ATOM     13  C   UNL     1      11.323  18.769   4.441  1.00  0.00     0.053 C 
BRANCH  13  14
ATOM     14  C   UNL     1      12.580  19.487   4.822  1.00  0.00     0.041 C 
ATOM     15  O   UNL     1      12.653  20.094   5.921  1.00  0.00    -0.550 OA
ATOM     16  O   UNL     1      13.681  19.462   3.975  1.00  0.00    -0.550 OA
ENDBRANCH  13  14
ENDBRANCH  12  13
ENDBRANCH  11  12
ENDBRANCH  10  11
ENDBRANCH   9  10
ENDBRANCH   8   9
ENDBRANCH   7   8
ENDBRANCH   6   7
ENDBRANCH   5   6
ENDBRANCH   4   5
ENDBRANCH   3   4
ENDBRANCH   2   3
ENDBRANCH   1   2
BRANCH   1  17
ATOM     17  C   UNL     1       4.454  16.185   4.769  1.00  0.00     0.000 C 
BRANCH  17  18
ATOM     18  C   UNL     1       3.511  14.979   4.968  1.00  0.00     0.000 C 
BRANCH  18  19
ATOM     19  C   UNL     1       2.168  15.395   5.593  1.00  0.00     0.000 C 
BRANCH  19  20
ATOM     20  C   UNL     1       1.301  14.194   6.005  1.00  0.00     0.000 C 
BRANCH  20  21
ATOM     21  C   UNL     1      -0.060  14.622   6.583  1.00  0.00     0.000 C 
BRANCH  21  22
ATOM     22  C   UNL     1      -1.172  14.658   5.521  1.00  0.00    -0.000 C 
BRANCH  22  23
ATOM     23  C   UNL     1      -0.921  13.658   4.377  1.00  0.00    -0.000 C 
BRANCH  23  24
ATOM     24  C   UNL     1      -0.928  14.323   2.992  1.00  0.00    -0.000 C 
BRANCH  24  25
ATOM     25  C   UNL     1       0.473  14.787   2.550  1.00  0.00    -0.000 C 
BRANCH  25  26
ATOM     26  C   UNL     1       1.355  13.627   2.063  1.00  0.00    -0.000 C 
BRANCH  26  27
ATOM     27  C   UNL     1       2.571  14.102   1.255  1.00  0.00    -0.000 C 
BRANCH  27  28
ATOM     28  C   UNL     1       3.829  13.323   1.655  1.00  0.00    -0.000 C 
BRANCH  28  29
ATOM     29  C   UNL     1       4.910  13.425   0.574  1.00  0.00    -0.003 C 
ATOM     30  C   UNL     1       5.106  14.871   0.126  1.00  0.00     0.004 C 
ENDBRANCH  28  29
ENDBRANCH  27  28
ENDBRANCH  26  27
ENDBRANCH  25  26
ENDBRANCH  24  25
ENDBRANCH  23  24
ENDBRANCH  22  23
ENDBRANCH  21  22
ENDBRANCH  20  21
ENDBRANCH  19  20
ENDBRANCH  18  19
ENDBRANCH  17  18
ENDBRANCH   1  17
TORSDOF 26
ENDMDL
MODEL 2
REMARK VINA RESULT:    -6.075      0.929      2.032
REMARK INTER + INTRA:         -18.650
REMARK INTER:                 -15.320
REMARK INTRA:                  -3.330
REMARK UNBOUND:                -3.342
REMARK SMILES CCCCCCCCCCCCCCCCCCCCCCCCCCCC(=O)[O-]
REMARK SMILES IDX 15 1 16 2 17 3 18 4 19 5 20 6 21 7 22 8 23 9 24 10 25 11
REMARK SMILES IDX 26 12 27 13 28 14 29 15 30 16 14 17 13 18 12 19 11 20 10 21
REMARK SMILES IDX 9 22 8 23 7 24 6 25 5 26 4 27 3 28 2 29 1 30
REMARK H PARENT
REMARK Flexibility Score: inf
ROOT
ATOM      1  C   UNL     1       3.823  14.807   4.810  1.00  0.00     0.000 C 
ENDROOT
BRANCH   1   2
ATOM      2  C   UNL     1       4.131  16.280   4.491  1.00  0.00     0.000 C 
BRANCH   2   3
ATOM      3  C   UNL     1       5.421  16.453   3.660  1.00  0.00     0.000 C 
BRANCH   3   4
ATOM      4  C   UNL     1       6.393  15.260   3.749  1.00  0.00     0.000 C 
BRANCH   4   5
ATOM      5  C   UNL     1       7.865  15.588   3.448  1.00  0.00     0.000 C 
BRANCH   5   6
ATOM      6  C   UNL     1       8.682  14.353   3.036  1.00  0.00     0.000 C 
BRANCH   6   7
ATOM      7  C   UNL     1       9.208  14.495   1.601  1.00  0.00     0.000 C 
BRANCH   7   8
ATOM      8  C   UNL     1      10.580  13.827   1.414  1.00  0.00     0.000 C 
BRANCH   8   9
ATOM      9  C   UNL     1      11.644  14.799   0.875  1.00  0.00     0.000 C 
BRANCH   9  10
ATOM     10  C   UNL     1      11.048  16.177   0.518  1.00  0.00     0.000 C 
BRANCH  10  11
ATOM     11  C   UNL     1      11.728  17.356   1.244  1.00  0.00     0.000 C 
BRANCH  11  12
ATOM     12  C   UNL     1      10.945  17.916   2.446  1.00  0.00     0.006 C 
BRANCH  12  13
ATOM     13  C   UNL     1      11.622  19.112   3.135  1.00  0.00     0.053 C 
BRANCH  13  14
ATOM     14  C   UNL     1      11.536  19.020   4.626  1.00  0.00     0.041 C 
ATOM     15  O   UNL     1      12.328  19.681   5.347  1.00  0.00    -0.550 OA
ATOM     16  O   UNL     1      10.564  18.227   5.221  1.00  0.00    -0.550 OA
ENDBRANCH  13  14
ENDBRANCH  12  13
ENDBRANCH  11  12
ENDBRANCH  10  11
ENDBRANCH   9  10
ENDBRANCH   8   9
ENDBRANCH   7   8
ENDBRANCH   6   7
ENDBRANCH   5   6
ENDBRANCH   4   5
ENDBRANCH   3   4
ENDBRANCH   2   3
ENDBRANCH   1   2
BRANCH   1  17
ATOM     17  C   UNL     1       2.749  14.642   5.899  1.00  0.00     0.000 C 
BRANCH  17  18
ATOM     18  C   UNL     1       1.328  15.024   5.435  1.00  0.00     0.000 C 
BRANCH  18  19
ATOM     19  C   UNL     1       0.262  14.657   6.482  1.00  0.00     0.000 C 
BRANCH  19  20
ATOM     20  C   UNL     1      -1.150  14.536   5.884  1.00  0.00     0.000 C 
BRANCH  20  21
ATOM     21  C   UNL     1      -1.173  13.695   4.596  1.00  0.00     0.000 C 
BRANCH  21  22
ATOM     22  C   UNL     1      -2.032  14.327   3.488  1.00  0.00    -0.000 C 
BRANCH  22  23
ATOM     23  C   UNL     1      -1.580  13.895   2.081  1.00  0.00    -0.000 C 
BRANCH  23  24
ATOM     24  C   UNL     1      -0.184  13.254   2.074  1.00  0.00    -0.000 C 
BRANCH  24  25
ATOM     25  C   UNL     1       0.948  14.296   1.995  1.00  0.00    -0.000 C 
BRANCH  25  26
ATOM     26  C   UNL     1       1.986  13.963   0.913  1.00  0.00    -0.000 C 
BRANCH  26  27
ATOM     27  C   UNL     1       3.406  14.407   1.294  1.00  0.00    -0.000 C 
BRANCH  27  28
ATOM     28  C   UNL     1       4.313  13.192   1.520  1.00  0.00    -0.000 C 
BRANCH  28  29
ATOM     29  C   UNL     1       5.658  13.367   0.806  1.00  0.00    -0.003 C 
ATOM     30  C   UNL     1       5.731  14.714   0.092  1.00  0.00     0.004 C 
ENDBRANCH  28  29
ENDBRANCH  27  28
ENDBRANCH  26  27
ENDBRANCH  25  26
ENDBRANCH  24  25
ENDBRANCH  23  24
ENDBRANCH  22  23
ENDBRANCH  21  22
ENDBRANCH  20  21
ENDBRANCH  19  20
ENDBRANCH  18  19
ENDBRANCH  17  18
ENDBRANCH   1  17
TORSDOF 26
ENDMDL
MODEL 3
REMARK VINA RESULT:    -5.935      4.018     10.279
REMARK INTER + INTRA:         -18.298
REMARK INTER:                 -15.470
REMARK INTRA:                  -2.829
REMARK UNBOUND:                -3.342
REMARK SMILES CCCCCCCCCCCCCCCCCCCCCCCCCCCC(=O)[O-]
REMARK SMILES IDX 15 1 16 2 17 3 18 4 19 5 20 6 21 7 22 8 23 9 24 10 25 11
REMARK SMILES IDX 26 12 27 13 28 14 29 15 30 16 14 17 13 18 12 19 11 20 10 21
REMARK SMILES IDX 9 22 8 23 7 24 6 25 5 26 4 27 3 28 2 29 1 30
REMARK H PARENT
REMARK Flexibility Score: inf
ROOT
ATOM      1  C   UNL     1       7.572  15.881   3.597  1.00  0.00     0.000 C 
ENDROOT
BRANCH   1   2
ATOM      2  C   UNL     1       6.138  15.506   4.011  1.00  0.00     0.000 C 
BRANCH   2   3
ATOM      3  C   UNL     1       5.066  16.306   3.241  1.00  0.00     0.000 C 
BRANCH   3   4
ATOM      4  C   UNL     1       5.528  16.812   1.860  1.00  0.00     0.000 C 
BRANCH   4   5
ATOM      5  C   UNL     1       4.811  16.178   0.656  1.00  0.00     0.000 C 
BRANCH   5   6
ATOM      6  C   UNL     1       5.638  15.072  -0.020  1.00  0.00     0.000 C 
BRANCH   6   7
ATOM      7  C   UNL     1       5.512  13.747   0.744  1.00  0.00     0.000 C 
BRANCH   7   8
ATOM      8  C   UNL     1       4.052  13.283   0.870  1.00  0.00     0.000 C 
BRANCH   8   9
ATOM      9  C   UNL     1       3.546  13.307   2.324  1.00  0.00     0.000 C 
BRANCH   9  10
ATOM     10  C   UNL     1       2.414  14.335   2.531  1.00  0.00     0.000 C 
BRANCH  10  11
ATOM     11  C   UNL     1       1.087  13.945   1.850  1.00  0.00     0.000 C 
BRANCH  11  12
ATOM     12  C   UNL     1      -0.170  14.601   2.453  1.00  0.00     0.006 C 
BRANCH  12  13
ATOM     13  C   UNL     1      -0.987  13.674   3.367  1.00  0.00     0.053 C 
BRANCH  13  14
ATOM     14  C   UNL     1      -1.263  14.300   4.697  1.00  0.00     0.041 C 
ATOM     15  O   UNL     1      -2.392  14.800   4.939  1.00  0.00    -0.550 OA
ATOM     16  O   UNL     1      -0.282  14.308   5.681  1.00  0.00    -0.550 OA
ENDBRANCH  13  14
ENDBRANCH  12  13
ENDBRANCH  11  12
ENDBRANCH  10  11
ENDBRANCH   9  10
ENDBRANCH   8   9
ENDBRANCH   7   8
ENDBRANCH   6   7
ENDBRANCH   5   6
ENDBRANCH   4   5
ENDBRANCH   3   4
ENDBRANCH   2   3
ENDBRANCH   1   2
BRANCH   1  17
ATOM     17  C   UNL     1       8.466  14.654   3.356  1.00  0.00     0.000 C 
BRANCH  17  18
ATOM     18  C   UNL     1       8.830  14.430   1.872  1.00  0.00     0.000 C 
BRANCH  18  19
ATOM     19  C   UNL     1      10.083  13.552   1.712  1.00  0.00     0.000 C 
BRANCH  19  20
ATOM     20  C   UNL     1      10.860  13.847   0.419  1.00  0.00     0.000 C 
BRANCH  20  21
ATOM     21  C   UNL     1      10.216  14.971  -0.412  1.00  0.00     0.000 C 
BRANCH  21  22
ATOM     22  C   UNL     1      11.253  15.924  -1.028  1.00  0.00    -0.000 C 
BRANCH  22  23
ATOM     23  C   UNL     1      11.464  17.189  -0.174  1.00  0.00    -0.000 C 
BRANCH  23  24
ATOM     24  C   UNL     1      11.407  16.905   1.335  1.00  0.00    -0.000 C 
BRANCH  24  25
ATOM     25  C   UNL     1      11.623  18.170   2.186  1.00  0.00    -0.000 C 
BRANCH  25  26
ATOM     26  C   UNL     1      10.568  18.329   3.291  1.00  0.00    -0.000 C 
BRANCH  26  27
ATOM     27  C   UNL     1      11.104  19.071   4.523  1.00  0.00    -0.000 C 
BRANCH  27  28
ATOM     28  C   UNL     1      12.440  19.752   4.210  1.00  0.00    -0.000 C 
BRANCH  28  29
ATOM     29  C   UNL     1      13.396  19.670   5.405  1.00  0.00    -0.003 C 
ATOM     30  C   UNL     1      14.721  19.025   5.006  1.00  0.00     0.004 C 
ENDBRANCH  28  29
ENDBRANCH  27  28
ENDBRANCH  26  27
ENDBRANCH  25  26
ENDBRANCH  24  25
ENDBRANCH  23  24
ENDBRANCH  22  23
ENDBRANCH  21  22
ENDBRANCH  20  21
ENDBRANCH  19  20
ENDBRANCH  18  19
ENDBRANCH  17  18
ENDBRANCH   1  17
TORSDOF 26
ENDMDL
MODEL 4
REMARK VINA RESULT:    -5.871      4.820     11.055
REMARK INTER + INTRA:         -18.136
REMARK INTER:                 -15.417
REMARK INTRA:                  -2.719
REMARK UNBOUND:                -3.342
REMARK SMILES CCCCCCCCCCCCCCCCCCCCCCCCCCCC(=O)[O-]
REMARK SMILES IDX 15 1 16 2 17 3 18 4 19 5 20 6 21 7 22 8 23 9 24 10 25 11
REMARK SMILES IDX 26 12 27 13 28 14 29 15 30 16 14 17 13 18 12 19 11 20 10 21
REMARK SMILES IDX 9 22 8 23 7 24 6 25 5 26 4 27 3 28 2 29 1 30
REMARK H PARENT
REMARK Flexibility Score: inf
ROOT
ATOM      1  C   UNL     1       6.203  16.108   3.169  1.00  0.00     0.000 C 
ENDROOT
BRANCH   1   2
ATOM      2  C   UNL     1       5.082  16.112   4.223  1.00  0.00     0.000 C 
BRANCH   2   3
ATOM      3  C   UNL     1       3.925  15.155   3.866  1.00  0.00     0.000 C 
BRANCH   3   4
ATOM      4  C   UNL     1       4.379  13.740   3.458  1.00  0.00     0.000 C 
BRANCH   4   5
ATOM      5  C   UNL     1       4.144  13.374   1.983  1.00  0.00     0.000 C 
BRANCH   5   6
ATOM      6  C   UNL     1       3.614  14.553   1.150  1.00  0.00     0.000 C 
BRANCH   6   7
ATOM      7  C   UNL     1       2.192  14.273   0.644  1.00  0.00     0.000 C 
BRANCH   7   8
ATOM      8  C   UNL     1       1.291  13.675   1.737  1.00  0.00     0.000 C 
BRANCH   8   9
ATOM      9  C   UNL     1       0.370  14.723   2.386  1.00  0.00     0.000 C 
BRANCH   9  10
ATOM     10  C   UNL     1      -0.055  14.322   3.814  1.00  0.00     0.000 C 
BRANCH  10  11
ATOM     11  C   UNL     1      -1.576  14.125   3.978  1.00  0.00     0.000 C 
BRANCH  11  12
ATOM     12  C   UNL     1      -2.380  14.154   2.664  1.00  0.00     0.006 C 
BRANCH  12  13
ATOM     13  C   UNL     1      -3.904  14.140   2.859  1.00  0.00     0.053 C 
BRANCH  13  14
ATOM     14  C   UNL     1      -4.355  15.192   3.824  1.00  0.00     0.041 C 
ATOM     15  O   UNL     1      -4.235  15.008   5.062  1.00  0.00    -0.550 OA
ATOM     16  O   UNL     1      -4.882  16.388   3.354  1.00  0.00    -0.550 OA
ENDBRANCH  13  14
ENDBRANCH  12  13
ENDBRANCH  11  12
ENDBRANCH  10  11
ENDBRANCH   9  10
ENDBRANCH   8   9
ENDBRANCH   7   8
ENDBRANCH   6   7
ENDBRANCH   5   6
ENDBRANCH   4   5
ENDBRANCH   3   4
ENDBRANCH   2   3
ENDBRANCH   1   2
BRANCH   1  17
ATOM     17  C   UNL     1       7.569  15.705   3.749  1.00  0.00     0.000 C 
BRANCH  17  18
ATOM     18  C   UNL     1       8.224  14.509   3.025  1.00  0.00     0.000 C 
BRANCH  18  19
ATOM     19  C   UNL     1       7.923  14.514   1.516  1.00  0.00     0.000 C 
BRANCH  19  20
ATOM     20  C   UNL     1       9.049  13.886   0.679  1.00  0.00     0.000 C 
BRANCH  20  21
ATOM     21  C   UNL     1      10.362  13.745   1.470  1.00  0.00     0.000 C 
BRANCH  21  22
ATOM     22  C   UNL     1      11.502  14.595   0.884  1.00  0.00    -0.000 C 
BRANCH  22  23
ATOM     23  C   UNL     1      11.005  15.581  -0.189  1.00  0.00    -0.000 C 
BRANCH  23  24
ATOM     24  C   UNL     1      11.348  17.042   0.140  1.00  0.00    -0.000 C 
BRANCH  24  25
ATOM     25  C   UNL     1      11.647  17.259   1.636  1.00  0.00    -0.000 C 
BRANCH  25  26
ATOM     26  C   UNL     1      10.386  17.576   2.453  1.00  0.00    -0.000 C 
BRANCH  26  27
ATOM     27  C   UNL     1      10.576  18.769   3.402  1.00  0.00    -0.000 C 
BRANCH  27  28
ATOM     28  C   UNL     1      12.064  19.024   3.663  1.00  0.00    -0.000 C 
BRANCH  28  29
ATOM     29  C   UNL     1      12.320  19.340   5.141  1.00  0.00    -0.003 C 
ATOM     30  C   UNL     1      13.653  20.061   5.326  1.00  0.00     0.004 C 
ENDBRANCH  28  29
ENDBRANCH  27  28
ENDBRANCH  26  27
ENDBRANCH  25  26
ENDBRANCH  24  25
ENDBRANCH  23  24
ENDBRANCH  22  23
ENDBRANCH  21  22
ENDBRANCH  20  21
ENDBRANCH  19  20
ENDBRANCH  18  19
ENDBRANCH  17  18
ENDBRANCH   1  17
TORSDOF 26
ENDMDL
MODEL 5
REMARK VINA RESULT:    -5.846      4.580     11.176
REMARK INTER + INTRA:         -18.072
REMARK INTER:                 -15.878
REMARK INTRA:                  -2.195
REMARK UNBOUND:                -3.342
REMARK SMILES CCCCCCCCCCCCCCCCCCCCCCCCCCCC(=O)[O-]
REMARK SMILES IDX 15 1 16 2 17 3 18 4 19 5 20 6 21 7 22 8 23 9 24 10 25 11
REMARK SMILES IDX 26 12 27 13 28 14 29 15 30 16 14 17 13 18 12 19 11 20 10 21
REMARK SMILES IDX 9 22 8 23 7 24 6 25 5 26 4 27 3 28 2 29 1 30
REMARK H PARENT
REMARK Flexibility Score: inf
ROOT
ATOM      1  C   UNL     1       8.362  14.036   1.179  1.00  0.00     0.000 C 
ENDROOT
BRANCH   1   2
ATOM      2  C   UNL     1       8.541  14.253   2.692  1.00  0.00     0.000 C 
BRANCH   2   3
ATOM      3  C   UNL     1       7.846  15.536   3.197  1.00  0.00     0.000 C 
BRANCH   3   4
ATOM      4  C   UNL     1       6.390  15.326   3.658  1.00  0.00     0.000 C 
BRANCH   4   5
ATOM      5  C   UNL     1       5.388  16.387   3.174  1.00  0.00     0.000 C 
BRANCH   5   6
ATOM      6  C   UNL     1       5.447  16.620   1.656  1.00  0.00     0.000 C 
BRANCH   6   7
ATOM      7  C   UNL     1       4.348  15.826   0.935  1.00  0.00     0.000 C 
BRANCH   7   8
ATOM      8  C   UNL     1       4.890  14.549   0.273  1.00  0.00     0.000 C 
BRANCH   8   9
ATOM      9  C   UNL     1       4.628  13.288   1.115  1.00  0.00     0.000 C 
BRANCH   9  10
ATOM     10  C   UNL     1       3.501  13.498   2.147  1.00  0.00     0.000 C 
BRANCH  10  11
ATOM     11  C   UNL     1       2.142  13.868   1.519  1.00  0.00     0.000 C 
BRANCH  11  12
ATOM     12  C   UNL     1       1.010  14.132   2.530  1.00  0.00     0.006 C 
BRANCH  12  13
ATOM     13  C   UNL     1      -0.362  13.596   2.091  1.00  0.00     0.053 C 
BRANCH  13  14
ATOM     14  C   UNL     1      -1.457  14.047   3.005  1.00  0.00     0.041 C 
ATOM     15  O   UNL     1      -1.223  14.239   4.226  1.00  0.00    -0.550 OA
ATOM     16  O   UNL     1      -2.731  14.283   2.503  1.00  0.00    -0.550 OA
ENDBRANCH  13  14
ENDBRANCH  12  13
ENDBRANCH  11  12
ENDBRANCH  10  11
ENDBRANCH   9  10
ENDBRANCH   8   9
ENDBRANCH   7   8
ENDBRANCH   6   7
ENDBRANCH   5   6
ENDBRANCH   4   5
ENDBRANCH   3   4
ENDBRANCH   2   3
ENDBRANCH   1   2
BRANCH   1  17
ATOM     17  C   UNL     1       9.562  14.534   0.357  1.00  0.00     0.000 C 
BRANCH  17  18
ATOM     18  C   UNL     1      10.930  14.125   0.942  1.00  0.00     0.000 C 
BRANCH  18  19
ATOM     19  C   UNL     1      11.896  15.319   1.039  1.00  0.00     0.000 C 
BRANCH  19  20
ATOM     20  C   UNL     1      11.208  16.669   0.784  1.00  0.00     0.000 C 
BRANCH  20  21
ATOM     21  C   UNL     1      11.692  17.767   1.749  1.00  0.00     0.000 C 
BRANCH  21  22
ATOM     22  C   UNL     1      10.723  17.997   2.922  1.00  0.00    -0.000 C 
BRANCH  22  23
ATOM     23  C   UNL     1      11.074  19.260   3.730  1.00  0.00    -0.000 C 
BRANCH  23  24
ATOM     24  C   UNL     1      11.971  18.961   4.941  1.00  0.00    -0.000 C 
BRANCH  24  25
ATOM     25  C   UNL     1      12.982  20.089   5.223  1.00  0.00    -0.000 C 
BRANCH  25  26
ATOM     26  C   UNL     1      13.431  20.129   6.692  1.00  0.00    -0.000 C 
BRANCH  26  27
ATOM     27  C   UNL     1      12.932  21.378   7.433  1.00  0.00    -0.000 C 
BRANCH  27  28
ATOM     28  C   UNL     1      12.553  21.038   8.879  1.00  0.00    -0.000 C 
BRANCH  28  29
ATOM     29  C   UNL     1      13.694  20.304   9.591  1.00  0.00    -0.003 C 
ATOM     30  C   UNL     1      13.737  20.663  11.074  1.00  0.00     0.004 C 
ENDBRANCH  28  29
ENDBRANCH  27  28
ENDBRANCH  26  27
ENDBRANCH  25  26
ENDBRANCH  24  25
ENDBRANCH  23  24
ENDBRANCH  22  23
ENDBRANCH  21  22
ENDBRANCH  20  21
ENDBRANCH  19  20
ENDBRANCH  18  19
ENDBRANCH  17  18
ENDBRANCH   1  17
TORSDOF 26
ENDMDL
MODEL 6
REMARK VINA RESULT:    -5.828      1.947      4.861
REMARK INTER + INTRA:         -18.027
REMARK INTER:                 -15.467
REMARK INTRA:                  -2.560
REMARK UNBOUND:                -3.342
REMARK SMILES CCCCCCCCCCCCCCCCCCCCCCCCCCCC(=O)[O-]
REMARK SMILES IDX 15 1 16 2 17 3 18 4 19 5 20 6 21 7 22 8 23 9 24 10 25 11
REMARK SMILES IDX 26 12 27 13 28 14 29 15 30 16 14 17 13 18 12 19 11 20 10 21
REMARK SMILES IDX 9 22 8 23 7 24 6 25 5 26 4 27 3 28 2 29 1 30
REMARK H PARENT
REMARK Flexibility Score: inf
ROOT
ATOM      1  C   UNL     1       9.147  14.203   0.115  1.00  0.00     0.000 C 
ENDROOT
BRANCH   1   2
ATOM      2  C   UNL     1      10.240  13.999   1.178  1.00  0.00     0.000 C 
BRANCH   2   3
ATOM      3  C   UNL     1      11.587  14.639   0.778  1.00  0.00     0.000 C 
BRANCH   3   4
ATOM      4  C   UNL     1      11.462  15.789  -0.241  1.00  0.00     0.000 C 
BRANCH   4   5
ATOM      5  C   UNL     1      11.419  17.202   0.365  1.00  0.00     0.000 C 
BRANCH   5   6
ATOM      6  C   UNL     1      11.687  17.213   1.878  1.00  0.00     0.000 C 
BRANCH   6   7
ATOM      7  C   UNL     1      10.764  18.210   2.593  1.00  0.00     0.000 C 
BRANCH   7   8
ATOM      8  C   UNL     1      11.543  19.191   3.484  1.00  0.00     0.000 C 
BRANCH   8   9
ATOM      9  C   UNL     1      13.066  19.085   3.290  1.00  0.00     0.000 C 
BRANCH   9  10
ATOM     10  C   UNL     1      13.838  19.301   4.609  1.00  0.00     0.000 C 
BRANCH  10  11
ATOM     11  C   UNL     1      12.935  19.649   5.809  1.00  0.00     0.000 C 
BRANCH  11  12
ATOM     12  C   UNL     1      13.241  21.002   6.480  1.00  0.00     0.006 C 
BRANCH  12  13
ATOM     13  C   UNL     1      13.113  20.987   8.012  1.00  0.00     0.053 C 
BRANCH  13  14
ATOM     14  C   UNL     1      12.353  22.171   8.521  1.00  0.00     0.041 C 
ATOM     15  O   UNL     1      12.665  23.331   8.149  1.00  0.00    -0.550 OA
ATOM     16  O   UNL     1      11.281  21.991   9.387  1.00  0.00    -0.550 OA
ENDBRANCH  13  14
ENDBRANCH  12  13
ENDBRANCH  11  12
ENDBRANCH  10  11
ENDBRANCH   9  10
ENDBRANCH   8   9
ENDBRANCH   7   8
ENDBRANCH   6   7
ENDBRANCH   5   6
ENDBRANCH   4   5
ENDBRANCH   3   4
ENDBRANCH   2   3
ENDBRANCH   1   2
BRANCH   1  17
ATOM     17  C   UNL     1       7.749  14.402   0.725  1.00  0.00     0.000 C 
BRANCH  17  18
ATOM     18  C   UNL     1       6.967  13.087   0.930  1.00  0.00     0.000 C 
BRANCH  18  19
ATOM     19  C   UNL     1       5.447  13.323   0.985  1.00  0.00     0.000 C 
BRANCH  19  20
ATOM     20  C   UNL     1       5.003  14.560   0.188  1.00  0.00     0.000 C 
BRANCH  20  21
ATOM     21  C   UNL     1       3.526  14.918   0.432  1.00  0.00     0.000 C 
BRANCH  21  22
ATOM     22  C   UNL     1       2.724  13.753   1.037  1.00  0.00    -0.000 C 
BRANCH  22  23
ATOM     23  C   UNL     1       1.373  14.212   1.616  1.00  0.00    -0.000 C 
BRANCH  23  24
ATOM     24  C   UNL     1       1.496  14.770   3.042  1.00  0.00    -0.000 C 
BRANCH  24  25
ATOM     25  C   UNL     1       2.897  14.557   3.645  1.00  0.00    -0.000 C 
BRANCH  25  26
ATOM     26  C   UNL     1       3.130  15.390   4.914  1.00  0.00    -0.000 C 
BRANCH  26  27
ATOM     27  C   UNL     1       4.491  16.102   4.917  1.00  0.00    -0.000 C 
BRANCH  27  28
ATOM     28  C   UNL     1       5.476  15.397   3.979  1.00  0.00    -0.000 C 
BRANCH  28  29
ATOM     29  C   UNL     1       6.765  16.210   3.818  1.00  0.00    -0.003 C 
ATOM     30  C   UNL     1       7.992  15.302   3.822  1.00  0.00     0.004 C 
ENDBRANCH  28  29
ENDBRANCH  27  28
ENDBRANCH  26  27
ENDBRANCH  25  26
ENDBRANCH  24  25
ENDBRANCH  23  24
ENDBRANCH  22  23
ENDBRANCH  21  22
ENDBRANCH  20  21
ENDBRANCH  19  20
ENDBRANCH  18  19
ENDBRANCH  17  18
ENDBRANCH   1  17
TORSDOF 26
ENDMDL
MODEL 7
REMARK VINA RESULT:    -5.815      4.050     11.387
REMARK INTER + INTRA:         -17.996
REMARK INTER:                 -16.147
REMARK INTRA:                  -1.849
REMARK UNBOUND:                -3.342
REMARK SMILES CCCCCCCCCCCCCCCCCCCCCCCCCCCC(=O)[O-]
REMARK SMILES IDX 15 1 16 2 17 3 18 4 19 5 20 6 21 7 22 8 23 9 24 10 25 11
REMARK SMILES IDX 26 12 27 13 28 14 29 15 30 16 14 17 13 18 12 19 11 20 10 21
REMARK SMILES IDX 9 22 8 23 7 24 6 25 5 26 4 27 3 28 2 29 1 30
REMARK H PARENT
REMARK Flexibility Score: inf
ROOT
ATOM      1  C   UNL     1       9.360  14.163   0.977  1.00  0.00     0.000 C 
ENDROOT
BRANCH   1   2
ATOM      2  C   UNL     1       8.669  14.887   2.146  1.00  0.00     0.000 C 
BRANCH   2   3
ATOM      3  C   UNL     1       7.306  14.262   2.513  1.00  0.00     0.000 C 
BRANCH   3   4
ATOM      4  C   UNL     1       6.163  14.630   1.547  1.00  0.00     0.000 C 
BRANCH   4   5
ATOM      5  C   UNL     1       5.237  13.467   1.151  1.00  0.00     0.000 C 
BRANCH   5   6
ATOM      6  C   UNL     1       4.089  13.248   2.149  1.00  0.00     0.000 C 
BRANCH   6   7
ATOM      7  C   UNL     1       3.985  14.421   3.133  1.00  0.00     0.000 C 
BRANCH   7   8
ATOM      8  C   UNL     1       2.551  14.966   3.242  1.00  0.00     0.000 C 
BRANCH   8   9
ATOM      9  C   UNL     1       1.610  14.373   2.178  1.00  0.00     0.000 C 
BRANCH   9  10
ATOM     10  C   UNL     1       0.124  14.593   2.526  1.00  0.00     0.000 C 
BRANCH  10  11
ATOM     11  C   UNL     1      -0.602  13.316   2.996  1.00  0.00     0.000 C 
BRANCH  11  12
ATOM     12  C   UNL     1      -0.940  13.277   4.498  1.00  0.00     0.006 C 
BRANCH  12  13
ATOM     13  C   UNL     1      -0.962  14.658   5.174  1.00  0.00     0.053 C 
BRANCH  13  14
ATOM     14  C   UNL     1      -0.485  14.595   6.591  1.00  0.00     0.041 C 
ATOM     15  O   UNL     1      -0.896  15.433   7.434  1.00  0.00    -0.550 OA
ATOM     16  O   UNL     1       0.392  13.593   6.987  1.00  0.00    -0.550 OA
ENDBRANCH  13  14
ENDBRANCH  12  13
ENDBRANCH  11  12
ENDBRANCH  10  11
ENDBRANCH   9  10
ENDBRANCH   8   9
ENDBRANCH   7   8
ENDBRANCH   6   7
ENDBRANCH   5   6
ENDBRANCH   4   5
ENDBRANCH   3   4
ENDBRANCH   2   3
ENDBRANCH   1   2
BRANCH   1  17
ATOM     17  C   UNL     1      10.805  13.749   1.300  1.00  0.00     0.000 C 
BRANCH  17  18
ATOM     18  C   UNL     1      11.866  14.751   0.799  1.00  0.00     0.000 C 
BRANCH  18  19
ATOM     19  C   UNL     1      11.274  15.773  -0.187  1.00  0.00     0.000 C 
BRANCH  19  20
ATOM     20  C   UNL     1      11.444  17.227   0.282  1.00  0.00     0.000 C 
BRANCH  20  21
ATOM     21  C   UNL     1      11.834  17.324   1.768  1.00  0.00     0.000 C 
BRANCH  21  22
ATOM     22  C   UNL     1      10.758  18.019   2.620  1.00  0.00    -0.000 C 
BRANCH  22  23
ATOM     23  C   UNL     1      11.365  18.987   3.653  1.00  0.00    -0.000 C 
BRANCH  23  24
ATOM     24  C   UNL     1      12.871  19.212   3.444  1.00  0.00    -0.000 C 
BRANCH  24  25
ATOM     25  C   UNL     1      13.434  20.330   4.342  1.00  0.00    -0.000 C 
BRANCH  25  26
ATOM     26  C   UNL     1      13.666  19.868   5.789  1.00  0.00    -0.000 C 
BRANCH  26  27
ATOM     27  C   UNL     1      12.937  20.745   6.817  1.00  0.00    -0.000 C 
BRANCH  27  28
ATOM     28  C   UNL     1      13.503  20.520   8.223  1.00  0.00    -0.000 C 
BRANCH  28  29
ATOM     29  C   UNL     1      12.547  21.051   9.296  1.00  0.00    -0.003 C 
ATOM     30  C   UNL     1      11.946  22.392   8.882  1.00  0.00     0.004 C 
ENDBRANCH  28  29
ENDBRANCH  27  28
ENDBRANCH  26  27
ENDBRANCH  25  26
ENDBRANCH  24  25
ENDBRANCH  23  24
ENDBRANCH  22  23
ENDBRANCH  21  22
ENDBRANCH  20  21
ENDBRANCH  19  20
ENDBRANCH  18  19
ENDBRANCH  17  18
ENDBRANCH   1  17
TORSDOF 26
ENDMDL
MODEL 8
REMARK VINA RESULT:    -5.780      1.596      4.375
REMARK INTER + INTRA:         -17.907
REMARK INTER:                 -15.865
REMARK INTRA:                  -2.042
REMARK UNBOUND:                -3.342
REMARK SMILES CCCCCCCCCCCCCCCCCCCCCCCCCCCC(=O)[O-]
REMARK SMILES IDX 15 1 16 2 17 3 18 4 19 5 20 6 21 7 22 8 23 9 24 10 25 11
REMARK SMILES IDX 26 12 27 13 28 14 29 15 30 16 14 17 13 18 12 19 11 20 10 21
REMARK SMILES IDX 9 22 8 23 7 24 6 25 5 26 4 27 3 28 2 29 1 30
REMARK H PARENT
REMARK Flexibility Score: inf
ROOT
ATOM      1  C   UNL     1       7.290  15.923   3.844  1.00  0.00     0.000 C 
ENDROOT
BRANCH   1   2
ATOM      2  C   UNL     1       8.402  14.901   3.544  1.00  0.00     0.000 C 
BRANCH   2   3
ATOM      3  C   UNL     1       8.561  14.620   2.034  1.00  0.00     0.000 C 
BRANCH   3   4
ATOM      4  C   UNL     1       9.915  13.993   1.649  1.00  0.00     0.000 C 
BRANCH   4   5
ATOM      5  C   UNL     1      10.251  14.024   0.149  1.00  0.00     0.000 C 
BRANCH   5   6
ATOM      6  C   UNL     1      11.050  15.272  -0.261  1.00  0.00     0.000 C 
BRANCH   6   7
ATOM      7  C   UNL     1      11.749  15.900   0.953  1.00  0.00     0.000 C 
BRANCH   7   8
ATOM      8  C   UNL     1      11.432  17.398   1.097  1.00  0.00     0.000 C 
BRANCH   8   9
ATOM      9  C   UNL     1      10.717  17.727   2.420  1.00  0.00     0.000 C 
BRANCH   9  10
ATOM     10  C   UNL     1      11.372  18.914   3.157  1.00  0.00     0.000 C 
BRANCH  10  11
ATOM     11  C   UNL     1      12.913  18.869   3.164  1.00  0.00     0.000 C 
BRANCH  11  12
ATOM     12  C   UNL     1      13.591  19.974   3.997  1.00  0.00     0.006 C 
BRANCH  12  13
ATOM     13  C   UNL     1      14.500  19.447   5.118  1.00  0.00     0.053 C 
BRANCH  13  14
ATOM     14  C   UNL     1      14.073  19.942   6.464  1.00  0.00     0.041 C 
ATOM     15  O   UNL     1      14.869  19.895   7.438  1.00  0.00    -0.550 OA
ATOM     16  O   UNL     1      12.805  20.481   6.638  1.00  0.00    -0.550 OA
ENDBRANCH  13  14
ENDBRANCH  12  13
ENDBRANCH  11  12
ENDBRANCH  10  11
ENDBRANCH   9  10
ENDBRANCH   8   9
ENDBRANCH   7   8
ENDBRANCH   6   7
ENDBRANCH   5   6
ENDBRANCH   4   5
ENDBRANCH   3   4
ENDBRANCH   2   3
ENDBRANCH   1   2
BRANCH   1  17
ATOM     17  C   UNL     1       5.915  15.482   3.316  1.00  0.00     0.000 C 
BRANCH  17  18
ATOM     18  C   UNL     1       5.214  16.544   2.443  1.00  0.00     0.000 C 
BRANCH  18  19
ATOM     19  C   UNL     1       4.979  16.046   1.006  1.00  0.00     0.000 C 
BRANCH  19  20
ATOM     20  C   UNL     1       5.752  14.756   0.686  1.00  0.00     0.000 C 
BRANCH  20  21
ATOM     21  C   UNL     1       4.819  13.554   0.454  1.00  0.00     0.000 C 
BRANCH  21  22
ATOM     22  C   UNL     1       4.067  13.130   1.727  1.00  0.00    -0.000 C 
BRANCH  22  23
ATOM     23  C   UNL     1       2.613  13.639   1.744  1.00  0.00    -0.000 C 
BRANCH  23  24
ATOM     24  C   UNL     1       2.304  14.515   2.968  1.00  0.00    -0.000 C 
BRANCH  24  25
ATOM     25  C   UNL     1       0.837  14.985   3.005  1.00  0.00    -0.000 C 
BRANCH  25  26
ATOM     26  C   UNL     1      -0.080  14.139   2.110  1.00  0.00    -0.000 C 
BRANCH  26  27
ATOM     27  C   UNL     1      -1.240  13.497   2.884  1.00  0.00    -0.000 C 
BRANCH  27  28
ATOM     28  C   UNL     1      -2.556  14.227   2.598  1.00  0.00    -0.000 C 
BRANCH  28  29
ATOM     29  C   UNL     1      -3.308  14.542   3.895  1.00  0.00    -0.003 C 
ATOM     30  C   UNL     1      -4.554  15.379   3.620  1.00  0.00     0.004 C 
ENDBRANCH  28  29
ENDBRANCH  27  28
ENDBRANCH  26  27
ENDBRANCH  25  26
ENDBRANCH  24  25
ENDBRANCH  23  24
ENDBRANCH  22  23
ENDBRANCH  21  22
ENDBRANCH  20  21
ENDBRANCH  19  20
ENDBRANCH  18  19
ENDBRANCH  17  18
ENDBRANCH   1  17
TORSDOF 26
ENDMDL
MODEL 9
REMARK VINA RESULT:    -5.759      3.691     10.712
REMARK INTER + INTRA:         -17.855
REMARK INTER:                 -15.472
REMARK INTRA:                  -2.383
REMARK UNBOUND:                -3.342
REMARK SMILES CCCCCCCCCCCCCCCCCCCCCCCCCCCC(=O)[O-]
REMARK SMILES IDX 15 1 16 2 17 3 18 4 19 5 20 6 21 7 22 8 23 9 24 10 25 11
REMARK SMILES IDX 26 12 27 13 28 14 29 15 30 16 14 17 13 18 12 19 11 20 10 21
REMARK SMILES IDX 9 22 8 23 7 24 6 25 5 26 4 27 3 28 2 29 1 30
REMARK H PARENT
REMARK Flexibility Score: inf
ROOT
ATOM      1  C   UNL     1       6.658  16.092   3.994  1.00  0.00     0.000 C 
ENDROOT
BRANCH   1   2
ATOM      2  C   UNL     1       5.274  15.989   3.330  1.00  0.00     0.000 C 
BRANCH   2   3
ATOM      3  C   UNL     1       4.510  14.712   3.740  1.00  0.00     0.000 C 
BRANCH   3   4
ATOM      4  C   UNL     1       4.169  13.775   2.564  1.00  0.00     0.000 C 
BRANCH   4   5
ATOM      5  C   UNL     1       3.517  14.456   1.349  1.00  0.00     0.000 C 
BRANCH   5   6
ATOM      6  C   UNL     1       2.162  13.838   0.971  1.00  0.00     0.000 C 
BRANCH   6   7
ATOM      7  C   UNL     1       1.084  14.204   2.001  1.00  0.00     0.000 C 
BRANCH   7   8
ATOM      8  C   UNL     1       0.043  13.087   2.178  1.00  0.00     0.000 C 
BRANCH   8   9
ATOM      9  C   UNL     1      -1.300  13.416   1.503  1.00  0.00     0.000 C 
BRANCH   9  10
ATOM     10  C   UNL     1      -2.067  14.532   2.243  1.00  0.00     0.000 C 
BRANCH  10  11
ATOM     11  C   UNL     1      -2.767  14.056   3.532  1.00  0.00     0.000 C 
BRANCH  11  12
ATOM     12  C   UNL     1      -2.188  14.636   4.837  1.00  0.00     0.006 C 
BRANCH  12  13
ATOM     13  C   UNL     1      -0.920  13.923   5.333  1.00  0.00     0.053 C 
BRANCH  13  14
ATOM     14  C   UNL     1      -0.277  14.651   6.471  1.00  0.00     0.041 C 
ATOM     15  O   UNL     1       0.974  14.635   6.607  1.00  0.00    -0.550 OA
ATOM     16  O   UNL     1      -1.057  15.372   7.366  1.00  0.00    -0.550 OA
ENDBRANCH  13  14
ENDBRANCH  12  13
ENDBRANCH  11  12
ENDBRANCH  10  11
ENDBRANCH   9  10
ENDBRANCH   8   9
ENDBRANCH   7   8
ENDBRANCH   6   7
ENDBRANCH   5   6
ENDBRANCH   4   5
ENDBRANCH   3   4
ENDBRANCH   2   3
ENDBRANCH   1   2
BRANCH   1  17
ATOM     17  C   UNL     1       7.808  15.733   3.038  1.00  0.00     0.000 C 
BRANCH  17  18
ATOM     18  C   UNL     1       7.819  14.252   2.604  1.00  0.00     0.000 C 
BRANCH  18  19
ATOM     19  C   UNL     1       7.738  14.098   1.076  1.00  0.00     0.000 C 
BRANCH  19  20
ATOM     20  C   UNL     1       9.004  13.472   0.468  1.00  0.00     0.000 C 
BRANCH  20  21
ATOM     21  C   UNL     1      10.228  13.610   1.390  1.00  0.00     0.000 C 
BRANCH  21  22
ATOM     22  C   UNL     1      11.531  13.864   0.613  1.00  0.00    -0.000 C 
BRANCH  22  23
ATOM     23  C   UNL     1      12.138  15.245   0.924  1.00  0.00    -0.000 C 
BRANCH  23  24
ATOM     24  C   UNL     1      11.113  16.384   0.813  1.00  0.00    -0.000 C 
BRANCH  24  25
ATOM     25  C   UNL     1      11.565  17.662   1.544  1.00  0.00    -0.000 C 
BRANCH  25  26
ATOM     26  C   UNL     1      10.712  17.969   2.785  1.00  0.00    -0.000 C 
BRANCH  26  27
ATOM     27  C   UNL     1      11.130  19.269   3.487  1.00  0.00    -0.000 C 
BRANCH  27  28
ATOM     28  C   UNL     1      11.714  18.976   4.873  1.00  0.00    -0.000 C 
BRANCH  28  29
ATOM     29  C   UNL     1      12.945  19.846   5.150  1.00  0.00    -0.003 C 
ATOM     30  C   UNL     1      13.931  19.790   3.986  1.00  0.00     0.004 C 
ENDBRANCH  28  29
ENDBRANCH  27  28
ENDBRANCH  26  27
ENDBRANCH  25  26
ENDBRANCH  24  25
ENDBRANCH  23  24
ENDBRANCH  22  23
ENDBRANCH  21  22
ENDBRANCH  20  21
ENDBRANCH  19  20
ENDBRANCH  18  19
ENDBRANCH  17  18
ENDBRANCH   1  17
TORSDOF 26
ENDMDL
