MODEL 1
REMARK VINA RESULT:    -3.826      0.000      0.000
REMARK INTER + INTRA:          -6.616
REMARK INTER:                  -5.840
REMARK INTRA:                  -0.776
REMARK UNBOUND:                -0.776
REMARK SMILES CCCCCCCCCCC(=O)[O-]
REMARK SMILES IDX 7 1 8 2 9 3 10 4 11 5 12 6 13 7 6 8 5 9 4 10 3 11 2 12 1 13
REMARK H PARENT
REMARK Flexibility Score: inf
ROOT
ATOM      1  C   UNL     1       0.366   8.150   1.207  1.00  0.00     0.000 C 
ENDROOT
BRANCH   1   2
ATOM      2  C   UNL     1      -0.258   7.762   2.559  1.00  0.00     0.000 C 
BRANCH   2   3
ATOM      3  C   UNL     1       0.473   6.586   3.228  1.00  0.00     0.006 C 
BRANCH   3   4
ATOM      4  C   UNL     1      -0.455   5.396   3.507  1.00  0.00     0.053 C 
BRANCH   4   5
ATOM      5  C   UNL     1       0.077   4.156   2.862  1.00  0.00     0.041 C 
ATOM      6  O   UNL     1      -0.713   3.288   2.409  1.00  0.00    -0.550 OA
ATOM      7  O   UNL     1       1.447   3.935   2.806  1.00  0.00    -0.550 OA
ENDBRANCH   4   5
ENDBRANCH   3   4
ENDBRANCH   2   3
ENDBRANCH   1   2
BRANCH   1   8
ATOM      8  C   UNL     1       0.959   6.943   0.462  1.00  0.00     0.000 C 
BRANCH   8   9
ATOM      9  C   UNL     1       1.453   7.302  -0.947  1.00  0.00    -0.000 C 
BRANCH   9  10
ATOM     10  C   UNL     1       0.275   7.525  -1.903  1.00  0.00    -0.000 C 
BRANCH  10  11
ATOM     11  C   UNL     1       0.277   8.959  -2.454  1.00  0.00    -0.000 C 
BRANCH  11  12
ATOM     12  C   UNL     1      -0.839   9.825  -1.849  1.00  0.00    -0.003 C 
ATOM     13  C   UNL     1      -2.097   9.020  -1.516  1.00  0.00     0.004 C 
ENDBRANCH  11  12
ENDBRANCH  10  11
ENDBRANCH   9  10
ENDBRANCH   8   9
ENDBRANCH   1   8
TORSDOF 9
ENDMDL
MODEL 2
REMARK VINA RESULT:    -3.707      1.717      3.113
REMARK INTER + INTRA:          -6.433
REMARK INTER:                  -5.367
REMARK INTRA:                  -1.066
REMARK UNBOUND:                -0.776
REMARK SMILES CCCCCCCCCCC(=O)[O-]
REMARK SMILES IDX 7 1 8 2 9 3 10 4 11 5 12 6 13 7 6 8 5 9 4 10 3 11 2 12 1 13
REMARK H PARENT
REMARK Flexibility Score: inf
ROOT
ATOM      1  C   UNL     1      -0.394   8.681  -0.332  1.00  0.00     0.000 C 
ENDROOT
BRANCH   1   2
ATOM      2  C   UNL     1       0.682   8.238   0.676  1.00  0.00     0.000 C 
BRANCH   2   3
ATOM      3  C   UNL     1       1.019   6.743   0.559  1.00  0.00     0.006 C 
BRANCH   3   4
ATOM      4  C   UNL     1       1.440   6.127   1.900  1.00  0.00     0.053 C 
BRANCH   4   5
ATOM      5  C   UNL     1       0.281   5.435   2.544  1.00  0.00     0.041 C 
ATOM      6  O   UNL     1      -0.441   6.047   3.373  1.00  0.00    -0.550 OA
ATOM      7  O   UNL     1       0.028   4.098   2.266  1.00  0.00    -0.550 OA
ENDBRANCH   4   5
ENDBRANCH   3   4
ENDBRANCH   2   3
ENDBRANCH   1   2
BRANCH   1   8
ATOM      8  C   UNL     1      -0.172   8.084  -1.731  1.00  0.00     0.000 C 
BRANCH   8   9
ATOM      9  C   UNL     1       0.558   9.050  -2.677  1.00  0.00    -0.000 C 
BRANCH   9  10
ATOM     10  C   UNL     1       1.600   8.308  -3.522  1.00  0.00    -0.000 C 
BRANCH  10  11
ATOM     11  C   UNL     1       1.665   6.822  -3.137  1.00  0.00    -0.000 C 
BRANCH  11  12
ATOM     12  C   UNL     1       3.074   6.384  -2.711  1.00  0.00    -0.003 C 
ATOM     13  C   UNL     1       3.773   7.417  -1.826  1.00  0.00     0.004 C 
ENDBRANCH  11  12
ENDBRANCH  10  11
ENDBRANCH   9  10
ENDBRANCH   8   9
ENDBRANCH   1   8
TORSDOF 9
ENDMDL
MODEL 3
REMARK VINA RESULT:    -3.706      5.462      9.806
REMARK INTER + INTRA:          -6.432
REMARK INTER:                  -5.908
REMARK INTRA:                  -0.524
REMARK UNBOUND:                -0.776
REMARK SMILES CCCCCCCCCCC(=O)[O-]
REMARK SMILES IDX 7 1 8 2 9 3 10 4 11 5 12 6 13 7 6 8 5 9 4 10 3 11 2 12 1 13
REMARK H PARENT
REMARK Flexibility Score: inf
ROOT
ATOM      1  C   UNL     1      -0.224   1.826   5.719  1.00  0.00     0.000 C 
ENDROOT
BRANCH   1   2
ATOM      2  C   UNL     1      -0.175   3.235   6.337  1.00  0.00     0.000 C 
BRANCH   2   3
ATOM      3  C   UNL     1      -0.259   4.346   5.278  1.00  0.00     0.006 C 
BRANCH   3   4
ATOM      4  C   UNL     1       0.817   4.208   4.192  1.00  0.00     0.053 C 
BRANCH   4   5
ATOM      5  C   UNL     1       0.192   4.229   2.833  1.00  0.00     0.041 C 
ATOM      6  O   UNL     1      -0.656   3.357   2.513  1.00  0.00    -0.550 OA
ATOM      7  O   UNL     1       0.585   5.182   1.902  1.00  0.00    -0.550 OA
ENDBRANCH   4   5
ENDBRANCH   3   4
ENDBRANCH   2   3
ENDBRANCH   1   2
BRANCH   1   8
ATOM      8  C   UNL     1      -0.565   0.741   6.752  1.00  0.00     0.000 C 
BRANCH   8   9
ATOM      9  C   UNL     1      -0.903   1.323   8.132  1.00  0.00    -0.000 C 
BRANCH   9  10
ATOM     10  C   UNL     1      -0.388   0.414   9.254  1.00  0.00    -0.000 C 
BRANCH  10  11
ATOM     11  C   UNL     1      -0.239  -1.034   8.765  1.00  0.00    -0.000 C 
BRANCH  11  12
ATOM     12  C   UNL     1       1.070  -1.685   9.237  1.00  0.00    -0.003 C 
ATOM     13  C   UNL     1       1.032  -3.212   9.163  1.00  0.00     0.004 C 
ENDBRANCH  11  12
ENDBRANCH  10  11
ENDBRANCH   9  10
ENDBRANCH   8   9
ENDBRANCH   1   8
TORSDOF 9
ENDMDL
MODEL 4
REMARK VINA RESULT:    -3.699      2.650      5.545
REMARK INTER + INTRA:          -6.422
REMARK INTER:                  -5.833
REMARK INTRA:                  -0.588
REMARK UNBOUND:                -0.776
REMARK SMILES CCCCCCCCCCC(=O)[O-]
REMARK SMILES IDX 7 1 8 2 9 3 10 4 11 5 12 6 13 7 6 8 5 9 4 10 3 11 2 12 1 13
REMARK H PARENT
REMARK Flexibility Score: inf
ROOT
ATOM      1  C   UNL     1      -0.081   8.721   0.744  1.00  0.00     0.000 C 
ENDROOT
BRANCH   1   2
ATOM      2  C   UNL     1      -1.011   9.337  -0.316  1.00  0.00     0.000 C 
BRANCH   2   3
ATOM      3  C   UNL     1      -0.985   8.563  -1.644  1.00  0.00     0.006 C 
BRANCH   3   4
ATOM      4  C   UNL     1       0.347   8.714  -2.390  1.00  0.00     0.053 C 
BRANCH   4   5
ATOM      5  C   UNL     1       0.977   7.375  -2.610  1.00  0.00     0.041 C 
ATOM      6  O   UNL     1       1.802   7.210  -3.546  1.00  0.00    -0.550 OA
ATOM      7  O   UNL     1       0.616   6.297  -1.813  1.00  0.00    -0.550 OA
ENDBRANCH   4   5
ENDBRANCH   3   4
ENDBRANCH   2   3
ENDBRANCH   1   2
BRANCH   1   8
ATOM      8  C   UNL     1      -0.830   8.330   2.028  1.00  0.00     0.000 C 
BRANCH   8   9
ATOM      9  C   UNL     1       0.030   7.483   2.979  1.00  0.00    -0.000 C 
BRANCH   9  10
ATOM     10  C   UNL     1       1.059   6.656   2.200  1.00  0.00    -0.000 C 
BRANCH  10  11
ATOM     11  C   UNL     1       0.956   5.166   2.561  1.00  0.00    -0.000 C 
BRANCH  11  12
ATOM     12  C   UNL     1      -0.438   4.780   3.078  1.00  0.00    -0.003 C 
ATOM     13  C   UNL     1      -0.803   3.328   2.765  1.00  0.00     0.004 C 
ENDBRANCH  11  12
ENDBRANCH  10  11
ENDBRANCH   9  10
ENDBRANCH   8   9
ENDBRANCH   1   8
TORSDOF 9
ENDMDL
MODEL 5
REMARK VINA RESULT:    -3.694      2.275      3.654
REMARK INTER + INTRA:          -6.414
REMARK INTER:                  -5.630
REMARK INTRA:                  -0.784
REMARK UNBOUND:                -0.776
REMARK SMILES CCCCCCCCCCC(=O)[O-]
REMARK SMILES IDX 7 1 8 2 9 3 10 4 11 5 12 6 13 7 6 8 5 9 4 10 3 11 2 12 1 13
REMARK H PARENT
REMARK Flexibility Score: inf
ROOT
ATOM      1  C   UNL     1       0.406   7.901  -0.808  1.00  0.00     0.000 C 
ENDROOT
BRANCH   1   2
ATOM      2  C   UNL     1       1.003   6.735  -0.000  1.00  0.00     0.000 C 
BRANCH   2   3
ATOM      3  C   UNL     1       1.644   7.198   1.318  1.00  0.00     0.006 C 
BRANCH   3   4
ATOM      4  C   UNL     1       1.755   6.068   2.350  1.00  0.00     0.053 C 
BRANCH   4   5
ATOM      5  C   UNL     1       0.408   5.476   2.622  1.00  0.00     0.041 C 
ATOM      6  O   UNL     1       0.159   4.288   2.289  1.00  0.00    -0.550 OA
ATOM      7  O   UNL     1      -0.589   6.253   3.197  1.00  0.00    -0.550 OA
ENDBRANCH   4   5
ENDBRANCH   3   4
ENDBRANCH   2   3
ENDBRANCH   1   2
BRANCH   1   8
ATOM      8  C   UNL     1       0.618   7.738  -2.322  1.00  0.00     0.000 C 
BRANCH   8   9
ATOM      9  C   UNL     1       1.371   6.448  -2.678  1.00  0.00    -0.000 C 
BRANCH   9  10
ATOM     10  C   UNL     1       2.232   6.643  -3.932  1.00  0.00    -0.000 C 
BRANCH  10  11
ATOM     11  C   UNL     1       3.716   6.395  -3.625  1.00  0.00    -0.000 C 
BRANCH  11  12
ATOM     12  C   UNL     1       4.103   6.819  -2.200  1.00  0.00    -0.003 C 
ATOM     13  C   UNL     1       4.977   5.784  -1.491  1.00  0.00     0.004 C 
ENDBRANCH  11  12
ENDBRANCH  10  11
ENDBRANCH   9  10
ENDBRANCH   8   9
ENDBRANCH   1   8
TORSDOF 9
ENDMDL
MODEL 6
REMARK VINA RESULT:    -3.647      3.637      5.113
REMARK INTER + INTRA:          -6.341
REMARK INTER:                  -5.833
REMARK INTRA:                  -0.509
REMARK UNBOUND:                -0.776
REMARK SMILES CCCCCCCCCCC(=O)[O-]
REMARK SMILES IDX 7 1 8 2 9 3 10 4 11 5 12 6 13 7 6 8 5 9 4 10 3 11 2 12 1 13
REMARK H PARENT
REMARK Flexibility Score: inf
ROOT
ATOM      1  C   UNL     1       4.149   6.498  -3.498  1.00  0.00     0.000 C 
ENDROOT
BRANCH   1   2
ATOM      2  C   UNL     1       4.617   5.727  -2.251  1.00  0.00     0.000 C 
BRANCH   2   3
ATOM      3  C   UNL     1       5.108   6.659  -1.132  1.00  0.00     0.006 C 
BRANCH   3   4
ATOM      4  C   UNL     1       6.335   6.103  -0.396  1.00  0.00     0.053 C 
BRANCH   4   5
ATOM      5  C   UNL     1       5.918   5.088   0.621  1.00  0.00     0.041 C 
ATOM      6  O   UNL     1       6.514   3.983   0.694  1.00  0.00    -0.550 OA
ATOM      7  O   UNL     1       4.838   5.345   1.456  1.00  0.00    -0.550 OA
ENDBRANCH   4   5
ENDBRANCH   3   4
ENDBRANCH   2   3
ENDBRANCH   1   2
BRANCH   1   8
ATOM      8  C   UNL     1       2.645   6.327  -3.766  1.00  0.00     0.000 C 
BRANCH   8   9
ATOM      9  C   UNL     1       1.891   7.665  -3.779  1.00  0.00    -0.000 C 
BRANCH   9  10
ATOM     10  C   UNL     1       1.578   8.133  -2.353  1.00  0.00    -0.000 C 
BRANCH  10  11
ATOM     11  C   UNL     1       0.232   7.570  -1.872  1.00  0.00    -0.000 C 
BRANCH  11  12
ATOM     12  C   UNL     1      -0.561   8.577  -1.026  1.00  0.00    -0.003 C 
ATOM     13  C   UNL     1      -1.928   8.909  -1.627  1.00  0.00     0.004 C 
ENDBRANCH  11  12
ENDBRANCH  10  11
ENDBRANCH   9  10
ENDBRANCH   8   9
ENDBRANCH   1   8
TORSDOF 9
ENDMDL
MODEL 7
REMARK VINA RESULT:    -3.645      2.974      5.875
REMARK INTER + INTRA:          -6.339
REMARK INTER:                  -5.803
REMARK INTRA:                  -0.536
REMARK UNBOUND:                -0.776
REMARK SMILES CCCCCCCCCCC(=O)[O-]
REMARK SMILES IDX 7 1 8 2 9 3 10 4 11 5 12 6 13 7 6 8 5 9 4 10 3 11 2 12 1 13
REMARK H PARENT
REMARK Flexibility Score: inf
ROOT
ATOM      1  C   UNL     1       0.281   7.511  -1.531  1.00  0.00     0.000 C 
ENDROOT
BRANCH   1   2
ATOM      2  C   UNL     1       0.719   8.497  -2.629  1.00  0.00     0.000 C 
BRANCH   2   3
ATOM      3  C   UNL     1       1.734   7.879  -3.605  1.00  0.00     0.006 C 
BRANCH   3   4
ATOM      4  C   UNL     1       2.113   6.440  -3.228  1.00  0.00     0.053 C 
BRANCH   4   5
ATOM      5  C   UNL     1       3.551   6.369  -2.823  1.00  0.00     0.041 C 
ATOM      6  O   UNL     1       3.874   6.486  -1.613  1.00  0.00    -0.550 OA
ATOM      7  O   UNL     1       4.539   6.222  -3.788  1.00  0.00    -0.550 OA
ENDBRANCH   4   5
ENDBRANCH   3   4
ENDBRANCH   2   3
ENDBRANCH   1   2
BRANCH   1   8
ATOM      8  C   UNL     1       0.302   8.143  -0.130  1.00  0.00     0.000 C 
BRANCH   8   9
ATOM      9  C   UNL     1       0.729   7.149   0.960  1.00  0.00    -0.000 C 
BRANCH   9  10
ATOM     10  C   UNL     1       0.148   7.545   2.323  1.00  0.00    -0.000 C 
BRANCH  10  11
ATOM     11  C   UNL     1      -0.239   6.302   3.139  1.00  0.00    -0.000 C 
BRANCH  11  12
ATOM     12  C   UNL     1       0.236   4.995   2.485  1.00  0.00    -0.003 C 
ATOM     13  C   UNL     1      -0.651   3.801   2.837  1.00  0.00     0.004 C 
ENDBRANCH  11  12
ENDBRANCH  10  11
ENDBRANCH   9  10
ENDBRANCH   8   9
ENDBRANCH   1   8
TORSDOF 9
ENDMDL
MODEL 8
REMARK VINA RESULT:    -3.626      1.812      2.537
REMARK INTER + INTRA:          -6.309
REMARK INTER:                  -5.903
REMARK INTRA:                  -0.407
REMARK UNBOUND:                -0.776
REMARK SMILES CCCCCCCCCCC(=O)[O-]
REMARK SMILES IDX 7 1 8 2 9 3 10 4 11 5 12 6 13 7 6 8 5 9 4 10 3 11 2 12 1 13
REMARK H PARENT
REMARK Flexibility Score: inf
ROOT
ATOM      1  C   UNL     1       0.771   6.804   1.873  1.00  0.00     0.000 C 
ENDROOT
BRANCH   1   2
ATOM      2  C   UNL     1       0.899   5.400   2.490  1.00  0.00     0.000 C 
BRANCH   2   3
ATOM      3  C   UNL     1      -0.436   4.874   3.040  1.00  0.00     0.006 C 
BRANCH   3   4
ATOM      4  C   UNL     1      -0.487   3.341   3.099  1.00  0.00     0.053 C 
BRANCH   4   5
ATOM      5  C   UNL     1      -0.405   2.871   4.517  1.00  0.00     0.041 C 
ATOM      6  O   UNL     1      -0.510   1.646   4.785  1.00  0.00    -0.550 OA
ATOM      7  O   UNL     1      -0.263   3.791   5.547  1.00  0.00    -0.550 OA
ENDBRANCH   4   5
ENDBRANCH   3   4
ENDBRANCH   2   3
ENDBRANCH   1   2
BRANCH   1   8
ATOM      8  C   UNL     1       0.964   6.798   0.348  1.00  0.00     0.000 C 
BRANCH   8   9
ATOM      9  C   UNL     1       0.290   7.996  -0.338  1.00  0.00    -0.000 C 
BRANCH   9  10
ATOM     10  C   UNL     1       0.048   7.712  -1.825  1.00  0.00    -0.000 C 
BRANCH  10  11
ATOM     11  C   UNL     1       0.876   8.659  -2.708  1.00  0.00    -0.000 C 
BRANCH  11  12
ATOM     12  C   UNL     1       1.813   7.906  -3.664  1.00  0.00    -0.003 C 
ATOM     13  C   UNL     1       1.812   6.396  -3.427  1.00  0.00     0.004 C 
ENDBRANCH  11  12
ENDBRANCH  10  11
ENDBRANCH   9  10
ENDBRANCH   8   9
ENDBRANCH   1   8
TORSDOF 9
ENDMDL
MODEL 9
REMARK VINA RESULT:    -3.602      1.588      2.641
REMARK INTER + INTRA:          -6.273
REMARK INTER:                  -5.717
REMARK INTRA:                  -0.556
REMARK UNBOUND:                -0.776
REMARK SMILES CCCCCCCCCCC(=O)[O-]
REMARK SMILES IDX 7 1 8 2 9 3 10 4 11 5 12 6 13 7 6 8 5 9 4 10 3 11 2 12 1 13
REMARK H PARENT
REMARK Flexibility Score: inf
ROOT
ATOM      1  C   UNL     1       1.092   7.546   0.469  1.00  0.00     0.000 C 
ENDROOT
BRANCH   1   2
ATOM      2  C   UNL     1       0.351   7.134   1.754  1.00  0.00     0.000 C 
BRANCH   2   3
ATOM      3  C   UNL     1       0.708   5.709   2.209  1.00  0.00     0.006 C 
BRANCH   3   4
ATOM      4  C   UNL     1      -0.118   5.252   3.419  1.00  0.00     0.053 C 
BRANCH   4   5
ATOM      5  C   UNL     1      -0.384   3.782   3.344  1.00  0.00     0.041 C 
ATOM      6  O   UNL     1      -0.741   3.257   2.258  1.00  0.00    -0.550 OA
ATOM      7  O   UNL     1      -0.284   2.999   4.487  1.00  0.00    -0.550 OA
ENDBRANCH   4   5
ENDBRANCH   3   4
ENDBRANCH   2   3
ENDBRANCH   1   2
BRANCH   1   8
ATOM      8  C   UNL     1       0.405   8.712  -0.259  1.00  0.00     0.000 C 
BRANCH   8   9
ATOM      9  C   UNL     1      -0.155   8.305  -1.630  1.00  0.00    -0.000 C 
BRANCH   9  10
ATOM     10  C   UNL     1       0.605   7.102  -2.199  1.00  0.00    -0.000 C 
BRANCH  10  11
ATOM     11  C   UNL     1       1.493   7.520  -3.381  1.00  0.00    -0.000 C 
BRANCH  11  12
ATOM     12  C   UNL     1       2.652   6.541  -3.624  1.00  0.00    -0.003 C 
ATOM     13  C   UNL     1       3.532   6.348  -2.388  1.00  0.00     0.004 C 
ENDBRANCH  11  12
ENDBRANCH  10  11
ENDBRANCH   9  10
ENDBRANCH   8   9
ENDBRANCH   1   8
TORSDOF 9
ENDMDL
