MODEL 1
REMARK VINA RESULT:    -3.948      0.000      0.000
REMARK INTER + INTRA:          -7.281
REMARK INTER:                  -6.026
REMARK INTRA:                  -1.255
REMARK UNBOUND:                -1.255
REMARK SMILES C=CCCCCCCCCCC
REMARK SMILES IDX 7 1 8 2 9 3 10 4 11 5 12 6 6 7 5 8 4 9 3 10 2 11 1 12
REMARK H PARENT
REMARK Flexibility Score: inf
ROOT
ATOM      1  C   UNL     1     -47.356 -48.448  18.743  1.00  0.00     0.000 C 
ENDROOT
BRANCH   1   2
ATOM      2  C   UNL     1     -48.471 -48.473  19.803  1.00  0.00    -0.000 C 
BRANCH   2   3
ATOM      3  C   UNL     1     -49.842 -48.868  19.223  1.00  0.00    -0.000 C 
BRANCH   3   4
ATOM      4  C   UNL     1     -50.870 -49.366  20.256  1.00  0.00    -0.000 C 
BRANCH   4   5
ATOM      5  C   UNL     1     -52.141 -49.935  19.610  1.00  0.00    -0.003 C 
ATOM      6  C   UNL     1     -51.842 -50.525  18.235  1.00  0.00     0.004 C 
ENDBRANCH   4   5
ENDBRANCH   3   4
ENDBRANCH   2   3
ENDBRANCH   1   2
BRANCH   1   7
ATOM      7  C   UNL     1     -47.731 -47.619  17.501  1.00  0.00     0.000 C 
BRANCH   7   8
ATOM      8  C   UNL     1     -47.218 -48.176  16.157  1.00  0.00     0.000 C 
BRANCH   8   9
ATOM      9  C   UNL     1     -48.140 -49.211  15.482  1.00  0.00     0.004 C 
BRANCH   9  10
ATOM     10  C   UNL     1     -47.714 -50.673  15.695  1.00  0.00     0.027 C 
BRANCH  10  11
ATOM     11  C   UNL     1     -48.580 -51.388  16.699  1.00  0.00    -0.035 C 
ATOM     12  C   UNL     1     -48.073 -51.910  17.819  1.00  0.00     0.004 C 
ENDBRANCH  10  11
ENDBRANCH   9  10
ENDBRANCH   8   9
ENDBRANCH   7   8
ENDBRANCH   1   7
TORSDOF 9
ENDMDL
MODEL 2
REMARK VINA RESULT:    -3.830      1.233      4.201
REMARK INTER + INTRA:          -7.100
REMARK INTER:                  -5.947
REMARK INTRA:                  -1.153
REMARK UNBOUND:                -1.255
REMARK SMILES C=CCCCCCCCCCC
REMARK SMILES IDX 7 1 8 2 9 3 10 4 11 5 12 6 6 7 5 8 4 9 3 10 2 11 1 12
REMARK H PARENT
REMARK Flexibility Score: inf
ROOT
ATOM      1  C   UNL     1     -47.467 -48.435  18.804  1.00  0.00     0.000 C 
ENDROOT
BRANCH   1   2
ATOM      2  C   UNL     1     -47.355 -49.345  17.570  1.00  0.00    -0.000 C 
BRANCH   2   3
ATOM      3  C   UNL     1     -47.819 -50.788  17.843  1.00  0.00    -0.000 C 
BRANCH   3   4
ATOM      4  C   UNL     1     -48.241 -51.587  16.597  1.00  0.00    -0.000 C 
BRANCH   4   5
ATOM      5  C   UNL     1     -49.555 -51.088  15.981  1.00  0.00    -0.003 C 
ATOM      6  C   UNL     1     -49.313 -50.433  14.624  1.00  0.00     0.004 C 
ENDBRANCH   4   5
ENDBRANCH   3   4
ENDBRANCH   2   3
ENDBRANCH   1   2
BRANCH   1   7
ATOM      7  C   UNL     1     -48.882 -47.860  18.998  1.00  0.00     0.000 C 
BRANCH   7   8
ATOM      8  C   UNL     1     -49.442 -47.960  20.433  1.00  0.00     0.000 C 
BRANCH   8   9
ATOM      9  C   UNL     1     -50.849 -48.580  20.545  1.00  0.00     0.004 C 
BRANCH   9  10
ATOM     10  C   UNL     1     -50.857 -50.113  20.674  1.00  0.00     0.027 C 
BRANCH  10  11
ATOM     11  C   UNL     1     -51.232 -50.799  19.387  1.00  0.00    -0.035 C 
ATOM     12  C   UNL     1     -52.091 -50.253  18.523  1.00  0.00     0.004 C 
ENDBRANCH  10  11
ENDBRANCH   9  10
ENDBRANCH   8   9
ENDBRANCH   7   8
ENDBRANCH   1   7
TORSDOF 9
ENDMDL
MODEL 3
REMARK VINA RESULT:    -3.809      1.243      5.149
REMARK INTER + INTRA:          -7.068
REMARK INTER:                  -6.024
REMARK INTRA:                  -1.045
REMARK UNBOUND:                -1.255
REMARK SMILES C=CCCCCCCCCCC
REMARK SMILES IDX 7 1 8 2 9 3 10 4 11 5 12 6 6 7 5 8 4 9 3 10 2 11 1 12
REMARK H PARENT
REMARK Flexibility Score: inf
ROOT
ATOM      1  C   UNL     1     -48.847 -51.109  18.759  1.00  0.00     0.000 C 
ENDROOT
BRANCH   1   2
ATOM      2  C   UNL     1     -47.918 -51.392  17.566  1.00  0.00    -0.000 C 
BRANCH   2   3
ATOM      3  C   UNL     1     -48.645 -51.328  16.210  1.00  0.00    -0.000 C 
BRANCH   3   4
ATOM      4  C   UNL     1     -48.461 -50.012  15.431  1.00  0.00    -0.000 C 
BRANCH   4   5
ATOM      5  C   UNL     1     -47.283 -49.172  15.942  1.00  0.00    -0.003 C 
ATOM      6  C   UNL     1     -47.647 -47.692  16.000  1.00  0.00     0.004 C 
ENDBRANCH   4   5
ENDBRANCH   3   4
ENDBRANCH   2   3
ENDBRANCH   1   2
BRANCH   1   7
ATOM      7  C   UNL     1     -48.752 -49.656  19.260  1.00  0.00     0.000 C 
BRANCH   7   8
ATOM      8  C   UNL     1     -50.086 -48.882  19.292  1.00  0.00     0.000 C 
BRANCH   8   9
ATOM      9  C   UNL     1     -51.335 -49.713  18.938  1.00  0.00     0.004 C 
BRANCH   9  10
ATOM     10  C   UNL     1     -52.215 -50.080  20.145  1.00  0.00     0.027 C 
BRANCH  10  11
ATOM     11  C   UNL     1     -52.039 -49.129  21.299  1.00  0.00    -0.035 C 
ATOM     12  C   UNL     1     -53.054 -48.401  21.772  1.00  0.00     0.004 C 
ENDBRANCH  10  11
ENDBRANCH   9  10
ENDBRANCH   8   9
ENDBRANCH   7   8
ENDBRANCH   1   7
TORSDOF 9
ENDMDL
MODEL 4
REMARK VINA RESULT:    -3.801      1.195      4.802
REMARK INTER + INTRA:          -7.056
REMARK INTER:                  -5.824
REMARK INTRA:                  -1.232
REMARK UNBOUND:                -1.255
REMARK SMILES C=CCCCCCCCCCC
REMARK SMILES IDX 7 1 8 2 9 3 10 4 11 5 12 6 6 7 5 8 4 9 3 10 2 11 1 12
REMARK H PARENT
REMARK Flexibility Score: inf
ROOT
ATOM      1  C   UNL     1     -49.188 -48.014  19.101  1.00  0.00     0.000 C 
ENDROOT
BRANCH   1   2
ATOM      2  C   UNL     1     -47.948 -47.852  18.206  1.00  0.00    -0.000 C 
BRANCH   2   3
ATOM      3  C   UNL     1     -47.332 -49.199  17.784  1.00  0.00    -0.000 C 
BRANCH   3   4
ATOM      4  C   UNL     1     -47.770 -49.715  16.401  1.00  0.00    -0.000 C 
BRANCH   4   5
ATOM      5  C   UNL     1     -48.406 -51.111  16.455  1.00  0.00    -0.003 C 
ATOM      6  C   UNL     1     -48.003 -51.850  17.728  1.00  0.00     0.004 C 
ENDBRANCH   4   5
ENDBRANCH   3   4
ENDBRANCH   2   3
ENDBRANCH   1   2
BRANCH   1   7
ATOM      7  C   UNL     1     -49.030 -49.136  20.144  1.00  0.00     0.000 C 
BRANCH   7   8
ATOM      8  C   UNL     1     -50.267 -50.041  20.330  1.00  0.00     0.000 C 
BRANCH   8   9
ATOM      9  C   UNL     1     -51.135 -50.230  19.070  1.00  0.00     0.004 C 
BRANCH   9  10
ATOM     10  C   UNL     1     -52.552 -49.641  19.183  1.00  0.00     0.027 C 
BRANCH  10  11
ATOM     11  C   UNL     1     -52.904 -49.249  20.594  1.00  0.00    -0.035 C 
ATOM     12  C   UNL     1     -53.937 -48.446  20.864  1.00  0.00     0.004 C 
ENDBRANCH  10  11
ENDBRANCH   9  10
ENDBRANCH   8   9
ENDBRANCH   7   8
ENDBRANCH   1   7
TORSDOF 9
ENDMDL
MODEL 5
REMARK VINA RESULT:    -3.796      1.012      3.110
REMARK INTER + INTRA:          -7.049
REMARK INTER:                  -5.640
REMARK INTRA:                  -1.409
REMARK UNBOUND:                -1.255
REMARK SMILES C=CCCCCCCCCCC
REMARK SMILES IDX 7 1 8 2 9 3 10 4 11 5 12 6 6 7 5 8 4 9 3 10 2 11 1 12
REMARK H PARENT
REMARK Flexibility Score: inf
ROOT
ATOM      1  C   UNL     1     -48.503 -51.182  17.004  1.00  0.00     0.000 C 
ENDROOT
BRANCH   1   2
ATOM      2  C   UNL     1     -49.907 -50.716  17.422  1.00  0.00    -0.000 C 
BRANCH   2   3
ATOM      3  C   UNL     1     -50.072 -50.604  18.949  1.00  0.00    -0.000 C 
BRANCH   3   4
ATOM      4  C   UNL     1     -51.137 -49.596  19.421  1.00  0.00    -0.000 C 
BRANCH   4   5
ATOM      5  C   UNL     1     -50.700 -48.796  20.655  1.00  0.00    -0.003 C 
ATOM      6  C   UNL     1     -49.858 -49.652  21.596  1.00  0.00     0.004 C 
ENDBRANCH   4   5
ENDBRANCH   3   4
ENDBRANCH   2   3
ENDBRANCH   1   2
BRANCH   1   7
ATOM      7  C   UNL     1     -48.130 -50.748  15.574  1.00  0.00     0.000 C 
BRANCH   7   8
ATOM      8  C   UNL     1     -48.097 -49.224  15.336  1.00  0.00     0.000 C 
BRANCH   8   9
ATOM      9  C   UNL     1     -47.181 -48.431  16.289  1.00  0.00     0.004 C 
BRANCH   9  10
ATOM     10  C   UNL     1     -47.854 -47.218  16.952  1.00  0.00     0.027 C 
BRANCH  10  11
ATOM     11  C   UNL     1     -48.058 -47.407  18.432  1.00  0.00    -0.035 C 
ATOM     12  C   UNL     1     -47.282 -48.222  19.151  1.00  0.00     0.004 C 
ENDBRANCH  10  11
ENDBRANCH   9  10
ENDBRANCH   8   9
ENDBRANCH   7   8
ENDBRANCH   1   7
TORSDOF 9
ENDMDL
MODEL 6
REMARK VINA RESULT:    -3.760     12.639     15.033
REMARK INTER + INTRA:          -6.994
REMARK INTER:                  -5.948
REMARK INTRA:                  -1.046
REMARK UNBOUND:                -1.255
REMARK SMILES C=CCCCCCCCCCC
REMARK SMILES IDX 7 1 8 2 9 3 10 4 11 5 12 6 6 7 5 8 4 9 3 10 2 11 1 12
REMARK H PARENT
REMARK Flexibility Score: inf
ROOT
ATOM      1  C   UNL     1     -42.851 -51.169  32.042  1.00  0.00     0.000 C 
ENDROOT
BRANCH   1   2
ATOM      2  C   UNL     1     -43.571 -50.795  30.735  1.00  0.00    -0.000 C 
BRANCH   2   3
ATOM      3  C   UNL     1     -43.489 -49.292  30.413  1.00  0.00    -0.000 C 
BRANCH   3   4
ATOM      4  C   UNL     1     -43.889 -48.907  28.977  1.00  0.00    -0.000 C 
BRANCH   4   5
ATOM      5  C   UNL     1     -42.850 -48.014  28.284  1.00  0.00    -0.003 C 
ATOM      6  C   UNL     1     -41.431 -48.425  28.662  1.00  0.00     0.004 C 
ENDBRANCH   4   5
ENDBRANCH   3   4
ENDBRANCH   2   3
ENDBRANCH   1   2
BRANCH   1   7
ATOM      7  C   UNL     1     -43.824 -51.552  33.172  1.00  0.00     0.000 C 
BRANCH   7   8
ATOM      8  C   UNL     1     -45.164 -52.160  32.710  1.00  0.00     0.000 C 
BRANCH   8   9
ATOM      9  C   UNL     1     -46.422 -51.517  33.327  1.00  0.00     0.004 C 
BRANCH   9  10
ATOM     10  C   UNL     1     -46.256 -50.035  33.704  1.00  0.00     0.027 C 
BRANCH  10  11
ATOM     11  C   UNL     1     -46.916 -49.109  32.718  1.00  0.00    -0.035 C 
ATOM     12  C   UNL     1     -46.995 -49.406  31.418  1.00  0.00     0.004 C 
ENDBRANCH  10  11
ENDBRANCH   9  10
ENDBRANCH   8   9
ENDBRANCH   7   8
ENDBRANCH   1   7
TORSDOF 9
ENDMDL
MODEL 7
REMARK VINA RESULT:    -3.737      2.127      3.509
REMARK INTER + INTRA:          -6.959
REMARK INTER:                  -6.281
REMARK INTRA:                  -0.677
REMARK UNBOUND:                -1.255
REMARK SMILES C=CCCCCCCCCCC
REMARK SMILES IDX 7 1 8 2 9 3 10 4 11 5 12 6 6 7 5 8 4 9 3 10 2 11 1 12
REMARK H PARENT
REMARK Flexibility Score: inf
ROOT
ATOM      1  C   UNL     1     -51.375 -50.152  18.677  1.00  0.00     0.000 C 
ENDROOT
BRANCH   1   2
ATOM      2  C   UNL     1     -52.497 -49.623  19.586  1.00  0.00    -0.000 C 
BRANCH   2   3
ATOM      3  C   UNL     1     -52.001 -49.235  20.991  1.00  0.00    -0.000 C 
BRANCH   3   4
ATOM      4  C   UNL     1     -53.036 -48.517  21.876  1.00  0.00    -0.000 C 
BRANCH   4   5
ATOM      5  C   UNL     1     -54.346 -48.211  21.139  1.00  0.00    -0.003 C 
ATOM      6  C   UNL     1     -54.999 -46.943  21.680  1.00  0.00     0.004 C 
ENDBRANCH   4   5
ENDBRANCH   3   4
ENDBRANCH   2   3
ENDBRANCH   1   2
BRANCH   1   7
ATOM      7  C   UNL     1     -49.975 -49.980  19.295  1.00  0.00     0.000 C 
BRANCH   7   8
ATOM      8  C   UNL     1     -48.887 -50.918  18.732  1.00  0.00     0.000 C 
BRANCH   8   9
ATOM      9  C   UNL     1     -47.747 -50.215  17.968  1.00  0.00     0.004 C 
BRANCH   9  10
ATOM     10  C   UNL     1     -47.877 -50.280  16.437  1.00  0.00     0.027 C 
BRANCH  10  11
ATOM     11  C   UNL     1     -48.821 -51.361  15.982  1.00  0.00    -0.035 C 
ATOM     12  C   UNL     1     -49.812 -51.113  15.120  1.00  0.00     0.004 C 
ENDBRANCH  10  11
ENDBRANCH   9  10
ENDBRANCH   8   9
ENDBRANCH   7   8
ENDBRANCH   1   7
TORSDOF 9
ENDMDL
MODEL 8
REMARK VINA RESULT:    -3.736     12.547     14.345
REMARK INTER + INTRA:          -6.957
REMARK INTER:                  -5.876
REMARK INTRA:                  -1.081
REMARK UNBOUND:                -1.255
REMARK SMILES C=CCCCCCCCCCC
REMARK SMILES IDX 7 1 8 2 9 3 10 4 11 5 12 6 6 7 5 8 4 9 3 10 2 11 1 12
REMARK H PARENT
REMARK Flexibility Score: inf
ROOT
ATOM      1  C   UNL     1     -43.545 -51.104  31.557  1.00  0.00     0.000 C 
ENDROOT
BRANCH   1   2
ATOM      2  C   UNL     1     -44.051 -51.505  32.953  1.00  0.00    -0.000 C 
BRANCH   2   3
ATOM      3  C   UNL     1     -45.411 -52.228  32.913  1.00  0.00    -0.000 C 
BRANCH   3   4
ATOM      4  C   UNL     1     -46.609 -51.397  33.407  1.00  0.00    -0.000 C 
BRANCH   4   5
ATOM      5  C   UNL     1     -46.219 -49.974  33.830  1.00  0.00    -0.003 C 
ATOM      6  C   UNL     1     -46.792 -48.938  32.868  1.00  0.00     0.004 C 
ENDBRANCH   4   5
ENDBRANCH   3   4
ENDBRANCH   2   3
ENDBRANCH   1   2
BRANCH   1   7
ATOM      7  C   UNL     1     -44.631 -51.212  30.472  1.00  0.00     0.000 C 
BRANCH   7   8
ATOM      8  C   UNL     1     -44.653 -50.062  29.444  1.00  0.00     0.000 C 
BRANCH   8   9
ATOM      9  C   UNL     1     -43.887 -48.792  29.866  1.00  0.00     0.004 C 
BRANCH   9  10
ATOM     10  C   UNL     1     -43.107 -48.115  28.726  1.00  0.00     0.027 C 
BRANCH  10  11
ATOM     11  C   UNL     1     -41.734 -48.702  28.536  1.00  0.00    -0.035 C 
ATOM     12  C   UNL     1     -41.036 -49.206  29.558  1.00  0.00     0.004 C 
ENDBRANCH  10  11
ENDBRANCH   9  10
ENDBRANCH   8   9
ENDBRANCH   7   8
ENDBRANCH   1   7
TORSDOF 9
ENDMDL
MODEL 9
REMARK VINA RESULT:    -3.698     13.163     15.243
REMARK INTER + INTRA:          -6.899
REMARK INTER:                  -6.297
REMARK INTRA:                  -0.602
REMARK UNBOUND:                -1.255
REMARK SMILES C=CCCCCCCCCCC
REMARK SMILES IDX 7 1 8 2 9 3 10 4 11 5 12 6 6 7 5 8 4 9 3 10 2 11 1 12
REMARK H PARENT
REMARK Flexibility Score: inf
ROOT
ATOM      1  C   UNL     1     -42.322 -50.929  31.205  1.00  0.00     0.000 C 
ENDROOT
BRANCH   1   2
ATOM      2  C   UNL     1     -41.396 -49.964  30.446  1.00  0.00    -0.000 C 
BRANCH   2   3
ATOM      3  C   UNL     1     -41.737 -49.856  28.949  1.00  0.00    -0.000 C 
BRANCH   3   4
ATOM      4  C   UNL     1     -41.084 -48.673  28.211  1.00  0.00    -0.000 C 
BRANCH   4   5
ATOM      5  C   UNL     1     -39.612 -48.467  28.594  1.00  0.00    -0.003 C 
ATOM      6  C   UNL     1     -39.223 -46.994  28.514  1.00  0.00     0.004 C 
ENDBRANCH   4   5
ENDBRANCH   3   4
ENDBRANCH   2   3
ENDBRANCH   1   2
BRANCH   1   7
ATOM      7  C   UNL     1     -43.813 -50.584  31.036  1.00  0.00     0.000 C 
BRANCH   7   8
ATOM      8  C   UNL     1     -44.737 -51.784  30.743  1.00  0.00     0.000 C 
BRANCH   8   9
ATOM      9  C   UNL     1     -45.905 -51.969  31.732  1.00  0.00     0.004 C 
BRANCH   9  10
ATOM     10  C   UNL     1     -45.470 -52.227  33.185  1.00  0.00     0.027 C 
BRANCH  10  11
ATOM     11  C   UNL     1     -45.920 -51.141  34.125  1.00  0.00    -0.035 C 
ATOM     12  C   UNL     1     -46.609 -50.079  33.696  1.00  0.00     0.004 C 
ENDBRANCH  10  11
ENDBRANCH   9  10
ENDBRANCH   8   9
ENDBRANCH   7   8
ENDBRANCH   1   7
TORSDOF 9
ENDMDL
