MODEL 1
REMARK VINA RESULT:    -5.208      0.000      0.000
REMARK INTER + INTRA:          -8.205
REMARK INTER:                  -7.644
REMARK INTRA:                  -0.560
REMARK UNBOUND:                -0.560
REMARK SMILES O=C([O-])CCCCCCCC(=O)[O-]
REMARK SMILES IDX 7 1 6 2 5 3 4 4 2 5 1 6 3 7 8 8 9 9 10 10 11 11 12 12 13 13
REMARK H PARENT
REMARK Flexibility Score: inf
ROOT
ATOM      1  C   UNL     1      27.128  -1.634   7.133  1.00  0.00     0.000 C 
ENDROOT
BRANCH   1   2
ATOM      2  C   UNL     1      27.946  -0.341   7.230  1.00  0.00     0.000 C 
BRANCH   2   3
ATOM      3  C   UNL     1      28.256   0.006   8.693  1.00  0.00     0.006 C 
BRANCH   3   4
ATOM      4  C   UNL     1      29.765   0.068   8.969  1.00  0.00     0.053 C 
BRANCH   4   5
ATOM      5  C   UNL     1      30.075  -0.176  10.414  1.00  0.00     0.041 C 
ATOM      6  O   UNL     1      31.133  -0.774  10.743  1.00  0.00    -0.550 OA
ATOM      7  O   UNL     1      29.179   0.229  11.396  1.00  0.00    -0.550 OA
ENDBRANCH   4   5
ENDBRANCH   3   4
ENDBRANCH   2   3
ENDBRANCH   1   2
BRANCH   1   8
ATOM      8  C   UNL     1      27.600  -2.497   5.957  1.00  0.00     0.000 C 
BRANCH   8   9
ATOM      9  C   UNL     1      29.080  -2.234   5.640  1.00  0.00     0.006 C 
BRANCH   9  10
ATOM     10  C   UNL     1      29.991  -3.364   6.139  1.00  0.00     0.053 C 
BRANCH  10  11
ATOM     11  C   UNL     1      31.312  -2.845   6.616  1.00  0.00     0.041 C 
ATOM     12  O   UNL     1      32.209  -2.537   5.787  1.00  0.00    -0.550 OA
ATOM     13  O   UNL     1      31.567  -2.734   7.977  1.00  0.00    -0.550 OA
ENDBRANCH  10  11
ENDBRANCH   9  10
ENDBRANCH   8   9
ENDBRANCH   1   8
TORSDOF 8
ENDMDL
MODEL 2
REMARK VINA RESULT:    -5.197      1.013      4.548
REMARK INTER + INTRA:          -8.188
REMARK INTER:                  -7.490
REMARK INTRA:                  -0.698
REMARK UNBOUND:                -0.560
REMARK SMILES O=C([O-])CCCCCCCC(=O)[O-]
REMARK SMILES IDX 7 1 6 2 5 3 4 4 2 5 1 6 3 7 8 8 9 9 10 10 11 11 12 12 13 13
REMARK H PARENT
REMARK Flexibility Score: inf
ROOT
ATOM      1  C   UNL     1      26.875  -1.072   6.255  1.00  0.00     0.000 C 
ENDROOT
BRANCH   1   2
ATOM      2  C   UNL     1      27.423  -2.498   6.384  1.00  0.00     0.000 C 
BRANCH   2   3
ATOM      3  C   UNL     1      28.605  -2.722   5.429  1.00  0.00     0.006 C 
BRANCH   3   4
ATOM      4  C   UNL     1      29.781  -3.430   6.116  1.00  0.00     0.053 C 
BRANCH   4   5
ATOM      5  C   UNL     1      30.756  -2.451   6.694  1.00  0.00     0.041 C 
ATOM      6  O   UNL     1      31.368  -2.721   7.761  1.00  0.00    -0.550 OA
ATOM      7  O   UNL     1      30.966  -1.228   6.071  1.00  0.00    -0.550 OA
ENDBRANCH   4   5
ENDBRANCH   3   4
ENDBRANCH   2   3
ENDBRANCH   1   2
BRANCH   1   8
ATOM      8  C   UNL     1      27.791  -0.065   6.962  1.00  0.00     0.000 C 
BRANCH   8   9
ATOM      9  C   UNL     1      27.983  -0.439   8.439  1.00  0.00     0.006 C 
BRANCH   9  10
ATOM     10  C   UNL     1      29.207   0.249   9.058  1.00  0.00     0.053 C 
BRANCH  10  11
ATOM     11  C   UNL     1      28.989   0.576  10.504  1.00  0.00     0.041 C 
ATOM     12  O   UNL     1      29.136  -0.313  11.384  1.00  0.00    -0.550 OA
ATOM     13  O   UNL     1      28.591   1.854  10.877  1.00  0.00    -0.550 OA
ENDBRANCH  10  11
ENDBRANCH   9  10
ENDBRANCH   8   9
ENDBRANCH   1   8
TORSDOF 8
ENDMDL
MODEL 3
REMARK VINA RESULT:    -5.105      1.129      3.810
REMARK INTER + INTRA:          -8.053
REMARK INTER:                  -7.271
REMARK INTRA:                  -0.782
REMARK UNBOUND:                -0.560
REMARK SMILES O=C([O-])CCCCCCCC(=O)[O-]
REMARK SMILES IDX 7 1 6 2 5 3 4 4 2 5 1 6 3 7 8 8 9 9 10 10 11 11 12 12 13 13
REMARK H PARENT
REMARK Flexibility Score: inf
ROOT
ATOM      1  C   UNL     1      28.110  -2.361   6.657  1.00  0.00     0.000 C 
ENDROOT
BRANCH   1   2
ATOM      2  C   UNL     1      28.932  -1.920   5.441  1.00  0.00     0.000 C 
BRANCH   2   3
ATOM      3  C   UNL     1      30.437  -2.004   5.735  1.00  0.00     0.006 C 
BRANCH   3   4
ATOM      4  C   UNL     1      30.750  -2.960   6.895  1.00  0.00     0.053 C 
BRANCH   4   5
ATOM      5  C   UNL     1      32.135  -2.752   7.426  1.00  0.00     0.041 C 
ATOM      6  O   UNL     1      33.042  -2.308   6.674  1.00  0.00    -0.550 OA
ATOM      7  O   UNL     1      32.432  -3.081   8.742  1.00  0.00    -0.550 OA
ENDBRANCH   4   5
ENDBRANCH   3   4
ENDBRANCH   2   3
ENDBRANCH   1   2
BRANCH   1   8
ATOM      8  C   UNL     1      27.316  -1.186   7.241  1.00  0.00     0.000 C 
BRANCH   8   9
ATOM      9  C   UNL     1      28.237   0.008   7.534  1.00  0.00     0.006 C 
BRANCH   9  10
ATOM     10  C   UNL     1      28.658   0.069   9.008  1.00  0.00     0.053 C 
BRANCH  10  11
ATOM     11  C   UNL     1      30.144  -0.035   9.167  1.00  0.00     0.041 C 
ATOM     12  O   UNL     1      30.911   0.460   8.299  1.00  0.00    -0.550 OA
ATOM     13  O   UNL     1      30.683  -0.710  10.255  1.00  0.00    -0.550 OA
ENDBRANCH  10  11
ENDBRANCH   9  10
ENDBRANCH   8   9
ENDBRANCH   1   8
TORSDOF 8
ENDMDL
MODEL 4
REMARK VINA RESULT:    -5.103     14.520     16.174
REMARK INTER + INTRA:          -8.050
REMARK INTER:                  -7.779
REMARK INTRA:                  -0.271
REMARK UNBOUND:                -0.560
REMARK SMILES O=C([O-])CCCCCCCC(=O)[O-]
REMARK SMILES IDX 7 1 6 2 5 3 4 4 2 5 1 6 3 7 8 8 9 9 10 10 11 11 12 12 13 13
REMARK H PARENT
REMARK Flexibility Score: inf
ROOT
ATOM      1  C   UNL     1      15.080   2.584  14.783  1.00  0.00     0.000 C 
ENDROOT
BRANCH   1   2
ATOM      2  C   UNL     1      13.590   2.396  15.090  1.00  0.00     0.000 C 
BRANCH   2   3
ATOM      3  C   UNL     1      13.227   3.007  16.451  1.00  0.00     0.006 C 
BRANCH   3   4
ATOM      4  C   UNL     1      14.454   3.177  17.357  1.00  0.00     0.053 C 
BRANCH   4   5
ATOM      5  C   UNL     1      14.668   1.980  18.231  1.00  0.00     0.041 C 
ATOM      6  O   UNL     1      13.690   1.426  18.798  1.00  0.00    -0.550 OA
ATOM      7  O   UNL     1      15.953   1.495  18.445  1.00  0.00    -0.550 OA
ENDBRANCH   4   5
ENDBRANCH   3   4
ENDBRANCH   2   3
ENDBRANCH   1   2
BRANCH   1   8
ATOM      8  C   UNL     1      15.300   2.906  13.300  1.00  0.00     0.000 C 
BRANCH   8   9
ATOM      9  C   UNL     1      15.517   1.623  12.484  1.00  0.00     0.006 C 
BRANCH   9  10
ATOM     10  C   UNL     1      16.225   1.894  11.151  1.00  0.00     0.053 C 
BRANCH  10  11
ATOM     11  C   UNL     1      17.437   1.031  10.978  1.00  0.00     0.041 C 
ATOM     12  O   UNL     1      17.781   0.645   9.829  1.00  0.00    -0.550 OA
ATOM     13  O   UNL     1      18.166   0.623  12.087  1.00  0.00    -0.550 OA
ENDBRANCH  10  11
ENDBRANCH   9  10
ENDBRANCH   8   9
ENDBRANCH   1   8
TORSDOF 8
ENDMDL
MODEL 5
REMARK VINA RESULT:    -5.075     15.384     17.620
REMARK INTER + INTRA:          -8.009
REMARK INTER:                  -7.501
REMARK INTRA:                  -0.507
REMARK UNBOUND:                -0.560
REMARK SMILES O=C([O-])CCCCCCCC(=O)[O-]
REMARK SMILES IDX 7 1 6 2 5 3 4 4 2 5 1 6 3 7 8 8 9 9 10 10 11 11 12 12 13 13
REMARK H PARENT
REMARK Flexibility Score: inf
ROOT
ATOM      1  C   UNL     1      13.207   3.020  15.862  1.00  0.00     0.000 C 
ENDROOT
BRANCH   1   2
ATOM      2  C   UNL     1      14.175   1.927  15.394  1.00  0.00     0.000 C 
BRANCH   2   3
ATOM      3  C   UNL     1      15.441   2.541  14.779  1.00  0.00     0.006 C 
BRANCH   3   4
ATOM      4  C   UNL     1      15.259   2.882  13.293  1.00  0.00     0.053 C 
BRANCH   4   5
ATOM      5  C   UNL     1      15.890   1.852  12.407  1.00  0.00     0.041 C 
ATOM      6  O   UNL     1      15.758   1.926  11.157  1.00  0.00    -0.550 OA
ATOM      7  O   UNL     1      16.595   0.793  12.964  1.00  0.00    -0.550 OA
ENDBRANCH   4   5
ENDBRANCH   3   4
ENDBRANCH   2   3
ENDBRANCH   1   2
BRANCH   1   8
ATOM      8  C   UNL     1      13.199   3.129  17.392  1.00  0.00     0.000 C 
BRANCH   8   9
ATOM      9  C   UNL     1      13.638   1.807  18.040  1.00  0.00     0.006 C 
BRANCH   9  10
ATOM     10  C   UNL     1      14.611   2.025  19.205  1.00  0.00     0.053 C 
BRANCH  10  11
ATOM     11  C   UNL     1      15.856   1.206  19.053  1.00  0.00     0.041 C 
ATOM     12  O   UNL     1      16.608   1.377  18.057  1.00  0.00    -0.550 OA
ATOM     13  O   UNL     1      16.168   0.230  19.991  1.00  0.00    -0.550 OA
ENDBRANCH  10  11
ENDBRANCH   9  10
ENDBRANCH   8   9
ENDBRANCH   1   8
TORSDOF 8
ENDMDL
MODEL 6
REMARK VINA RESULT:    -5.067     16.378     18.133
REMARK INTER + INTRA:          -7.998
REMARK INTER:                  -7.645
REMARK INTRA:                  -0.353
REMARK UNBOUND:                -0.560
REMARK SMILES O=C([O-])CCCCCCCC(=O)[O-]
REMARK SMILES IDX 7 1 6 2 5 3 4 4 2 5 1 6 3 7 8 8 9 9 10 10 11 11 12 12 13 13
REMARK H PARENT
REMARK Flexibility Score: inf
ROOT
ATOM      1  C   UNL     1      13.986   3.162  18.488  1.00  0.00     0.000 C 
ENDROOT
BRANCH   1   2
ATOM      2  C   UNL     1      13.198   3.367  17.189  1.00  0.00     0.000 C 
BRANCH   2   3
ATOM      3  C   UNL     1      13.637   2.361  16.115  1.00  0.00     0.006 C 
BRANCH   3   4
ATOM      4  C   UNL     1      14.952   2.771  15.439  1.00  0.00     0.053 C 
BRANCH   4   5
ATOM      5  C   UNL     1      14.974   2.387  13.991  1.00  0.00     0.041 C 
ATOM      6  O   UNL     1      15.502   3.151  13.141  1.00  0.00    -0.550 OA
ATOM      7  O   UNL     1      14.382   1.201  13.577  1.00  0.00    -0.550 OA
ENDBRANCH   4   5
ENDBRANCH   3   4
ENDBRANCH   2   3
ENDBRANCH   1   2
BRANCH   1   8
ATOM      8  C   UNL     1      14.014   1.681  18.887  1.00  0.00     0.000 C 
BRANCH   8   9
ATOM      9  C   UNL     1      15.098   1.416  19.942  1.00  0.00     0.006 C 
BRANCH   9  10
ATOM     10  C   UNL     1      15.357  -0.083  20.145  1.00  0.00     0.053 C 
BRANCH  10  11
ATOM     11  C   UNL     1      16.649  -0.515  19.523  1.00  0.00     0.041 C 
ATOM     12  O   UNL     1      17.552   0.331  19.285  1.00  0.00    -0.550 OA
ATOM     13  O   UNL     1      16.844  -1.845  19.173  1.00  0.00    -0.550 OA
ENDBRANCH  10  11
ENDBRANCH   9  10
ENDBRANCH   8   9
ENDBRANCH   1   8
TORSDOF 8
ENDMDL
MODEL 7
REMARK VINA RESULT:    -5.038     15.798     18.080
REMARK INTER + INTRA:          -7.954
REMARK INTER:                  -7.203
REMARK INTRA:                  -0.751
REMARK UNBOUND:                -0.560
REMARK SMILES O=C([O-])CCCCCCCC(=O)[O-]
REMARK SMILES IDX 7 1 6 2 5 3 4 4 2 5 1 6 3 7 8 8 9 9 10 10 11 11 12 12 13 13
REMARK H PARENT
REMARK Flexibility Score: inf
ROOT
ATOM      1  C   UNL     1      16.799  -0.027  19.616  1.00  0.00     0.000 C 
ENDROOT
BRANCH   1   2
ATOM      2  C   UNL     1      16.782  -1.473  19.105  1.00  0.00     0.000 C 
BRANCH   2   3
ATOM      3  C   UNL     1      17.267  -1.546  17.649  1.00  0.00     0.006 C 
BRANCH   3   4
ATOM      4  C   UNL     1      16.116  -1.400  16.645  1.00  0.00     0.053 C 
BRANCH   4   5
ATOM      5  C   UNL     1      16.332  -0.243  15.719  1.00  0.00     0.041 C 
ATOM      6  O   UNL     1      16.151  -0.380  14.480  1.00  0.00    -0.550 OA
ATOM      7  O   UNL     1      16.764   0.978  16.220  1.00  0.00    -0.550 OA
ENDBRANCH   4   5
ENDBRANCH   3   4
ENDBRANCH   2   3
ENDBRANCH   1   2
BRANCH   1   8
ATOM      8  C   UNL     1      15.505   0.304  20.370  1.00  0.00     0.000 C 
BRANCH   8   9
ATOM      9  C   UNL     1      14.766   1.475  19.704  1.00  0.00     0.006 C 
BRANCH   9  10
ATOM     10  C   UNL     1      13.973   1.034  18.467  1.00  0.00     0.053 C 
BRANCH  10  11
ATOM     11  C   UNL     1      13.561   2.201  17.624  1.00  0.00     0.041 C 
ATOM     12  O   UNL     1      13.227   3.288  18.167  1.00  0.00    -0.550 OA
ATOM     13  O   UNL     1      13.512   2.080  16.241  1.00  0.00    -0.550 OA
ENDBRANCH  10  11
ENDBRANCH   9  10
ENDBRANCH   8   9
ENDBRANCH   1   8
TORSDOF 8
ENDMDL
MODEL 8
REMARK VINA RESULT:    -5.032     15.765     17.658
REMARK INTER + INTRA:          -7.945
REMARK INTER:                  -7.177
REMARK INTRA:                  -0.768
REMARK UNBOUND:                -0.560
REMARK SMILES O=C([O-])CCCCCCCC(=O)[O-]
REMARK SMILES IDX 7 1 6 2 5 3 4 4 2 5 1 6 3 7 8 8 9 9 10 10 11 11 12 12 13 13
REMARK H PARENT
REMARK Flexibility Score: inf
ROOT
ATOM      1  C   UNL     1      16.848  -0.053  19.626  1.00  0.00     0.000 C 
ENDROOT
BRANCH   1   2
ATOM      2  C   UNL     1      15.559   0.380  20.333  1.00  0.00     0.000 C 
BRANCH   2   3
ATOM      3  C   UNL     1      14.908   1.569  19.610  1.00  0.00     0.006 C 
BRANCH   3   4
ATOM      4  C   UNL     1      13.968   1.119  18.483  1.00  0.00     0.053 C 
BRANCH   4   5
ATOM      5  C   UNL     1      13.601   2.257  17.580  1.00  0.00     0.041 C 
ATOM      6  O   UNL     1      13.678   2.125  16.331  1.00  0.00    -0.550 OA
ATOM      7  O   UNL     1      13.204   3.473  18.121  1.00  0.00    -0.550 OA
ENDBRANCH   4   5
ENDBRANCH   3   4
ENDBRANCH   2   3
ENDBRANCH   1   2
BRANCH   1   8
ATOM      8  C   UNL     1      16.746  -1.502  19.134  1.00  0.00     0.000 C 
BRANCH   8   9
ATOM      9  C   UNL     1      17.209  -1.622  17.675  1.00  0.00     0.006 C 
BRANCH   9  10
ATOM     10  C   UNL     1      16.077  -1.335  16.680  1.00  0.00     0.053 C 
BRANCH  10  11
ATOM     11  C   UNL     1      16.417  -0.203  15.760  1.00  0.00     0.041 C 
ATOM     12  O   UNL     1      16.771   0.911  16.230  1.00  0.00    -0.550 OA
ATOM     13  O   UNL     1      16.311  -0.367  14.384  1.00  0.00    -0.550 OA
ENDBRANCH  10  11
ENDBRANCH   9  10
ENDBRANCH   8   9
ENDBRANCH   1   8
TORSDOF 8
ENDMDL
MODEL 9
REMARK VINA RESULT:    -5.008     15.583     17.651
REMARK INTER + INTRA:          -7.911
REMARK INTER:                  -7.027
REMARK INTRA:                  -0.884
REMARK UNBOUND:                -0.560
REMARK SMILES O=C([O-])CCCCCCCC(=O)[O-]
REMARK SMILES IDX 7 1 6 2 5 3 4 4 2 5 1 6 3 7 8 8 9 9 10 10 11 11 12 12 13 13
REMARK H PARENT
REMARK Flexibility Score: inf
ROOT
ATOM      1  C   UNL     1      16.950  -1.791  18.870  1.00  0.00     0.000 C 
ENDROOT
BRANCH   1   2
ATOM      2  C   UNL     1      16.775  -2.016  17.363  1.00  0.00     0.000 C 
BRANCH   2   3
ATOM      3  C   UNL     1      17.289  -0.810  16.563  1.00  0.00     0.006 C 
BRANCH   3   4
ATOM      4  C   UNL     1      16.278  -0.339  15.509  1.00  0.00     0.053 C 
BRANCH   4   5
ATOM      5  C   UNL     1      16.214   1.156  15.431  1.00  0.00     0.041 C 
ATOM      6  O   UNL     1      16.624   1.858  16.392  1.00  0.00    -0.550 OA
ATOM      7  O   UNL     1      15.671   1.771  14.311  1.00  0.00    -0.550 OA
ENDBRANCH   4   5
ENDBRANCH   3   4
ENDBRANCH   2   3
ENDBRANCH   1   2
BRANCH   1   8
ATOM      8  C   UNL     1      16.987  -0.294  19.201  1.00  0.00     0.000 C 
BRANCH   8   9
ATOM      9  C   UNL     1      15.829   0.091  20.135  1.00  0.00     0.006 C 
BRANCH   9  10
ATOM     10  C   UNL     1      14.986   1.242  19.571  1.00  0.00     0.053 C 
BRANCH  10  11
ATOM     11  C   UNL     1      14.022   0.766  18.527  1.00  0.00     0.041 C 
ATOM     12  O   UNL     1      13.566   1.570  17.671  1.00  0.00    -0.550 OA
ATOM     13  O   UNL     1      13.599  -0.558  18.521  1.00  0.00    -0.550 OA
ENDBRANCH  10  11
ENDBRANCH   9  10
ENDBRANCH   8   9
ENDBRANCH   1   8
TORSDOF 8
ENDMDL
