MODEL 1
REMARK VINA RESULT:    -2.870      0.000      0.000
REMARK INTER + INTRA:          -4.770
REMARK INTER:                  -4.379
REMARK INTRA:                  -0.391
REMARK UNBOUND:                -0.391
REMARK SMILES CC1=CCC[C@H](C)C(=O)C[C@H](C(C)C)C(=O)C1
REMARK SMILES IDX 8 1 9 2 6 3 7 4 5 5 4 6 3 7 2 8 1 9 10 11 11 12 15 13 16 14
REMARK SMILES IDX 17 15 12 17 13 18 14 19
REMARK H PARENT
REMARK Flexibility Score: 70.00
ROOT
ATOM      1  C   UNL     1      83.460  -5.678  27.817  1.00  0.00     0.136 C 
ATOM      2  O   UNL     1      83.574  -4.461  27.812  1.00  0.00    -0.299 OA
ENDROOT
BRANCH   1   3
ATOM      3  C   UNL     1      84.037  -6.479  28.972  1.00  0.00     0.053 C 
ATOM      4  C   UNL     1      85.569  -6.381  28.983  1.00  0.00     0.016 C 
BRANCH   3   5
ATOM      5  C   UNL     1      83.443  -5.991  30.311  1.00  0.00     0.015 C 
BRANCH   5   6
ATOM      6  C   UNL     1      82.257  -6.861  30.773  1.00  0.00     0.028 C 
BRANCH   6   7
ATOM      7  C   UNL     1      80.944  -6.192  30.454  1.00  0.00    -0.028 C 
ATOM      8  C   UNL     1      80.054  -6.641  29.538  1.00  0.00    -0.070 CG0
ATOM      9  C   UNL     1      78.825  -5.809  29.279  1.00  0.00     0.039 C 
ATOM     10  G   UNL     1      80.235  -7.951  28.786  1.00  0.00     0.000 G0
ENDBRANCH   6   7
ENDBRANCH   5   6
ENDBRANCH   3   5
ENDBRANCH   1   3
BRANCH   1  11
ATOM     11  C   UNL     1      82.744  -6.363  26.673  1.00  0.00     0.087 C 
BRANCH  11  12
ATOM     12  C   UNL     1      82.165  -7.776  26.998  1.00  0.00     0.066 C 
BRANCH  12  13
ATOM     13  C   UNL     1      80.683  -7.768  27.358  1.00  0.00     0.140 C 
ATOM     14  O   UNL     1      79.839  -7.684  26.479  1.00  0.00    -0.299 OA
BRANCH  13  15
ATOM     15  C   UNL     1      80.237  -7.952  28.790  1.00  0.00     0.106 CG0
ATOM     16  G   UNL     1      80.051  -6.627  29.514  1.00  0.00     0.000 G0
ENDBRANCH  13  15
ENDBRANCH  12  13
BRANCH  12  17
ATOM     17  C   UNL     1      82.500  -8.884  25.946  1.00  0.00    -0.006 C 
ATOM     18  C   UNL     1      83.768  -9.667  26.330  1.00  0.00     0.008 C 
ATOM     19  C   UNL     1      82.622  -8.374  24.501  1.00  0.00     0.008 C 
ENDBRANCH  12  17
ENDBRANCH  11  12
ENDBRANCH   1  11
TORSDOF 1
ENDMDL
MODEL 2
REMARK VINA RESULT:    -2.788      2.657      3.856
REMARK INTER + INTRA:          -4.645
REMARK INTER:                  -5.021
REMARK INTRA:                   0.375
REMARK UNBOUND:                -0.391
REMARK SMILES CC1=CCC[C@H](C)C(=O)C[C@H](C(C)C)C(=O)C1
REMARK SMILES IDX 8 1 9 2 6 3 7 4 5 5 4 6 3 7 2 8 1 9 10 11 11 12 15 13 16 14
REMARK SMILES IDX 17 15 12 17 13 18 14 19
REMARK H PARENT
REMARK Flexibility Score: 70.00
ROOT
ATOM      1  C   UNL     1      85.375  -5.095  30.867  1.00  0.00     0.136 C 
ATOM      2  O   UNL     1      85.433  -4.894  32.072  1.00  0.00    -0.299 OA
ENDROOT
BRANCH   1   3
ATOM      3  C   UNL     1      86.372  -6.038  30.216  1.00  0.00     0.053 C 
ATOM      4  C   UNL     1      87.213  -6.752  31.284  1.00  0.00     0.016 C 
BRANCH   3   5
ATOM      5  C   UNL     1      85.638  -7.057  29.319  1.00  0.00     0.015 C 
BRANCH   5   6
ATOM      6  C   UNL     1      85.152  -8.286  30.113  1.00  0.00     0.028 C 
BRANCH   6   7
ATOM      7  C   UNL     1      83.828  -8.777  29.584  1.00  0.00    -0.028 C 
ATOM      8  C   UNL     1      82.619  -8.366  30.036  1.00  0.00    -0.070 CG0
ATOM      9  C   UNL     1      81.389  -9.017  29.457  1.00  0.00     0.039 C 
ATOM     10  G   UNL     1      82.457  -7.269  31.077  1.00  0.00     0.000 G0
ENDBRANCH   6   7
ENDBRANCH   5   6
ENDBRANCH   3   5
ENDBRANCH   1   3
BRANCH   1  11
ATOM     11  C   UNL     1      84.309  -4.399  30.049  1.00  0.00     0.087 C 
BRANCH  11  12
ATOM     12  C   UNL     1      83.223  -5.338  29.433  1.00  0.00     0.066 C 
BRANCH  12  13
ATOM     13  C   UNL     1      82.231  -5.887  30.453  1.00  0.00     0.140 C 
ATOM     14  O   UNL     1      81.213  -5.263  30.715  1.00  0.00    -0.299 OA
BRANCH  13  15
ATOM     15  C   UNL     1      82.444  -7.243  31.083  1.00  0.00     0.106 CG0
ATOM     16  G   UNL     1      82.602  -8.345  30.046  1.00  0.00     0.000 G0
ENDBRANCH  13  15
ENDBRANCH  12  13
BRANCH  12  17
ATOM     17  C   UNL     1      82.499  -4.768  28.168  1.00  0.00    -0.006 C 
ATOM     18  C   UNL     1      81.802  -5.880  27.364  1.00  0.00     0.008 C 
ATOM     19  C   UNL     1      83.401  -3.942  27.237  1.00  0.00     0.008 C 
ENDBRANCH  12  17
ENDBRANCH  11  12
ENDBRANCH   1  11
TORSDOF 1
ENDMDL
MODEL 3
REMARK VINA RESULT:    -2.750      1.920      3.507
REMARK INTER + INTRA:          -4.588
REMARK INTER:                  -4.157
REMARK INTRA:                  -0.431
REMARK UNBOUND:                -0.391
REMARK SMILES CC1=CCC[C@H](C)C(=O)C[C@H](C(C)C)C(=O)C1
REMARK SMILES IDX 8 1 9 2 6 3 7 4 5 5 4 6 3 7 2 8 1 9 10 11 11 12 15 13 16 14
REMARK SMILES IDX 17 15 12 17 13 18 14 19
REMARK H PARENT
REMARK Flexibility Score: 70.00
ROOT
ATOM      1  C   UNL     1      82.818  -6.262  27.139  1.00  0.00     0.136 C 
ATOM      2  O   UNL     1      82.845  -6.398  25.925  1.00  0.00    -0.299 OA
ENDROOT
BRANCH   1   3
ATOM      3  C   UNL     1      82.369  -4.939  27.735  1.00  0.00     0.053 C 
ATOM      4  C   UNL     1      83.080  -3.767  27.041  1.00  0.00     0.016 C 
BRANCH   3   5
ATOM      5  C   UNL     1      80.835  -4.796  27.626  1.00  0.00     0.015 C 
BRANCH   5   6
ATOM      6  C   UNL     1      80.117  -5.251  28.912  1.00  0.00     0.028 C 
BRANCH   6   7
ATOM      7  C   UNL     1      79.452  -6.589  28.710  1.00  0.00    -0.028 C 
ATOM      8  C   UNL     1      79.735  -7.704  29.424  1.00  0.00    -0.070 CG0
ATOM      9  C   UNL     1      79.039  -8.985  29.041  1.00  0.00     0.039 C 
ATOM     10  G   UNL     1      80.700  -7.708  30.600  1.00  0.00     0.000 G0
ENDBRANCH   6   7
ENDBRANCH   5   6
ENDBRANCH   3   5
ENDBRANCH   1   3
BRANCH   1  11
ATOM     11  C   UNL     1      83.232  -7.417  28.026  1.00  0.00     0.087 C 
BRANCH  11  12
ATOM     12  C   UNL     1      83.063  -7.175  29.559  1.00  0.00     0.066 C 
BRANCH  12  13
ATOM     13  C   UNL     1      82.098  -8.145  30.234  1.00  0.00     0.140 C 
ATOM     14  O   UNL     1      82.472  -9.267  30.540  1.00  0.00    -0.299 OA
BRANCH  13  15
ATOM     15  C   UNL     1      80.703  -7.706  30.612  1.00  0.00     0.106 CG0
ATOM     16  G   UNL     1      79.752  -7.709  29.425  1.00  0.00     0.000 G0
ENDBRANCH  13  15
ENDBRANCH  12  13
BRANCH  12  17
ATOM     17  C   UNL     1      84.401  -7.038  30.358  1.00  0.00    -0.006 C 
ATOM     18  C   UNL     1      84.364  -5.843  31.326  1.00  0.00     0.008 C 
ATOM     19  C   UNL     1      85.660  -6.956  29.480  1.00  0.00     0.008 C 
ENDBRANCH  12  17
ENDBRANCH  11  12
ENDBRANCH   1  11
TORSDOF 1
ENDMDL
MODEL 4
REMARK VINA RESULT:    -2.749      1.927      3.961
REMARK INTER + INTRA:          -4.586
REMARK INTER:                  -4.237
REMARK INTRA:                  -0.349
REMARK UNBOUND:                -0.391
REMARK SMILES CC1=CCC[C@H](C)C(=O)C[C@H](C(C)C)C(=O)C1
REMARK SMILES IDX 8 1 9 2 6 3 7 4 5 5 4 6 3 7 2 8 1 9 10 11 11 12 15 13 16 14
REMARK SMILES IDX 17 15 12 17 13 18 14 19
REMARK H PARENT
REMARK Flexibility Score: 70.00
ROOT
ATOM      1  C   UNL     1      82.887  -7.959  27.443  1.00  0.00     0.136 C 
ATOM      2  O   UNL     1      83.731  -8.833  27.306  1.00  0.00    -0.299 OA
ENDROOT
BRANCH   1   3
ATOM      3  C   UNL     1      81.969  -7.618  26.282  1.00  0.00     0.053 C 
ATOM      4  C   UNL     1      82.626  -7.995  24.947  1.00  0.00     0.016 C 
BRANCH   3   5
ATOM      5  C   UNL     1      80.609  -8.331  26.449  1.00  0.00     0.015 C 
BRANCH   5   6
ATOM      6  C   UNL     1      79.466  -7.340  26.744  1.00  0.00     0.028 C 
BRANCH   6   7
ATOM      7  C   UNL     1      78.767  -7.697  28.032  1.00  0.00    -0.028 C 
ATOM      8  C   UNL     1      78.807  -6.951  29.161  1.00  0.00    -0.070 CG0
ATOM      9  C   UNL     1      78.121  -7.490  30.390  1.00  0.00     0.039 C 
ATOM     10  G   UNL     1      79.490  -5.593  29.229  1.00  0.00     0.000 G0
ENDBRANCH   6   7
ENDBRANCH   5   6
ENDBRANCH   3   5
ENDBRANCH   1   3
BRANCH   1  11
ATOM     11  C   UNL     1      82.775  -7.235  28.767  1.00  0.00     0.087 C 
BRANCH  11  12
ATOM     12  C   UNL     1      82.077  -5.839  28.706  1.00  0.00     0.066 C 
BRANCH  12  13
ATOM     13  C   UNL     1      80.934  -5.677  29.703  1.00  0.00     0.140 C 
ATOM     14  O   UNL     1      81.173  -5.547  30.894  1.00  0.00    -0.299 OA
BRANCH  13  15
ATOM     15  C   UNL     1      79.503  -5.585  29.227  1.00  0.00     0.106 CG0
ATOM     16  G   UNL     1      78.823  -6.945  29.167  1.00  0.00     0.000 G0
ENDBRANCH  13  15
ENDBRANCH  12  13
BRANCH  12  17
ATOM     17  C   UNL     1      83.049  -4.614  28.735  1.00  0.00    -0.006 C 
ATOM     18  C   UNL     1      83.393  -4.130  27.315  1.00  0.00     0.008 C 
ATOM     19  C   UNL     1      84.342  -4.845  29.532  1.00  0.00     0.008 C 
ENDBRANCH  12  17
ENDBRANCH  11  12
ENDBRANCH   1  11
TORSDOF 1
ENDMDL
MODEL 5
REMARK VINA RESULT:    -2.697      2.542      5.478
REMARK INTER + INTRA:          -4.507
REMARK INTER:                  -4.180
REMARK INTRA:                  -0.327
REMARK UNBOUND:                -0.391
REMARK SMILES CC1=CCC[C@H](C)C(=O)C[C@H](C(C)C)C(=O)C1
REMARK SMILES IDX 8 1 9 2 6 3 7 4 5 5 4 6 3 7 2 8 1 9 10 11 11 12 15 13 16 14
REMARK SMILES IDX 17 15 12 17 13 18 14 19
REMARK H PARENT
REMARK Flexibility Score: 70.00
ROOT
ATOM      1  C   UNL     1      82.497  -4.933  28.093  1.00  0.00     0.136 C 
ATOM      2  O   UNL     1      82.379  -4.232  27.098  1.00  0.00    -0.299 OA
ENDROOT
BRANCH   1   3
ATOM      3  C   UNL     1      81.842  -6.304  28.124  1.00  0.00     0.053 C 
ATOM      4  C   UNL     1      80.312  -6.170  28.100  1.00  0.00     0.016 C 
BRANCH   3   5
ATOM      5  C   UNL     1      82.340  -7.162  26.942  1.00  0.00     0.015 C 
BRANCH   5   6
ATOM      6  C   UNL     1      83.868  -7.364  26.973  1.00  0.00     0.028 C 
BRANCH   6   7
ATOM      7  C   UNL     1      84.262  -8.311  28.078  1.00  0.00    -0.028 C 
ATOM      8  C   UNL     1      85.141  -8.018  29.066  1.00  0.00    -0.070 CG0
ATOM      9  C   UNL     1      85.489  -9.106  30.048  1.00  0.00     0.039 C 
ATOM     10  G   UNL     1      85.766  -6.641  29.232  1.00  0.00     0.000 G0
ENDBRANCH   6   7
ENDBRANCH   5   6
ENDBRANCH   3   5
ENDBRANCH   1   3
BRANCH   1  11
ATOM     11  C   UNL     1      83.295  -4.422  29.273  1.00  0.00     0.087 C 
BRANCH  11  12
ATOM     12  C   UNL     1      83.679  -5.499  30.335  1.00  0.00     0.066 C 
BRANCH  12  13
ATOM     13  C   UNL     1      85.165  -5.846  30.352  1.00  0.00     0.140 C 
ATOM     14  O   UNL     1      85.854  -5.542  31.314  1.00  0.00    -0.299 OA
BRANCH  13  15
ATOM     15  C   UNL     1      85.782  -6.646  29.229  1.00  0.00     0.106 CG0
ATOM     16  G   UNL     1      85.137  -8.014  29.068  1.00  0.00     0.000 G0
ENDBRANCH  13  15
ENDBRANCH  12  13
BRANCH  12  17
ATOM     17  C   UNL     1      83.131  -5.232  31.775  1.00  0.00    -0.006 C 
ATOM     18  C   UNL     1      81.829  -6.008  32.040  1.00  0.00     0.008 C 
ATOM     19  C   UNL     1      82.927  -3.746  32.113  1.00  0.00     0.008 C 
ENDBRANCH  12  17
ENDBRANCH  11  12
ENDBRANCH   1  11
TORSDOF 1
ENDMDL
MODEL 6
REMARK VINA RESULT:    -2.677      2.404      3.663
REMARK INTER + INTRA:          -4.476
REMARK INTER:                  -4.296
REMARK INTRA:                  -0.180
REMARK UNBOUND:                -0.391
REMARK SMILES CC1=CCC[C@H](C)C(=O)C[C@H](C(C)C)C(=O)C1
REMARK SMILES IDX 8 1 9 2 6 3 7 4 5 5 4 6 3 7 2 8 1 9 10 11 11 12 15 13 16 14
REMARK SMILES IDX 17 15 12 17 13 18 14 19
REMARK H PARENT
REMARK Flexibility Score: 70.00
ROOT
ATOM      1  C   UNL     1      85.017  -5.508  30.043  1.00  0.00     0.136 C 
ATOM      2  O   UNL     1      85.615  -5.335  31.095  1.00  0.00    -0.299 OA
ENDROOT
BRANCH   1   3
ATOM      3  C   UNL     1      83.836  -4.617  29.698  1.00  0.00     0.053 C 
ATOM      4  C   UNL     1      83.704  -4.464  28.176  1.00  0.00     0.016 C 
BRANCH   3   5
ATOM      5  C   UNL     1      82.538  -5.187  30.310  1.00  0.00     0.015 C 
BRANCH   5   6
ATOM      6  C   UNL     1      81.524  -5.613  29.230  1.00  0.00     0.028 C 
BRANCH   6   7
ATOM      7  C   UNL     1      81.147  -7.064  29.392  1.00  0.00    -0.028 C 
ATOM      8  C   UNL     1      81.637  -8.075  28.636  1.00  0.00    -0.070 CG0
ATOM      9  C   UNL     1      81.094  -9.461  28.871  1.00  0.00     0.039 C 
ATOM     10  G   UNL     1      82.721  -7.871  27.588  1.00  0.00     0.000 G0
ENDBRANCH   6   7
ENDBRANCH   5   6
ENDBRANCH   3   5
ENDBRANCH   1   3
BRANCH   1  11
ATOM     11  C   UNL     1      85.466  -6.607  29.105  1.00  0.00     0.087 C 
BRANCH  11  12
ATOM     12  C   UNL     1      84.747  -7.980  29.293  1.00  0.00     0.066 C 
BRANCH  12  13
ATOM     13  C   UNL     1      84.044  -8.485  28.037  1.00  0.00     0.140 C 
ATOM     14  O   UNL     1      84.503  -9.431  27.416  1.00  0.00    -0.299 OA
BRANCH  13  15
ATOM     15  C   UNL     1      82.729  -7.886  27.596  1.00  0.00     0.106 CG0
ATOM     16  G   UNL     1      81.629  -8.075  28.631  1.00  0.00     0.000 G0
ENDBRANCH  13  15
ENDBRANCH  12  13
BRANCH  12  17
ATOM     17  C   UNL     1      85.618  -9.096  29.958  1.00  0.00    -0.006 C 
ATOM     18  C   UNL     1      84.760 -10.065  30.790  1.00  0.00     0.008 C 
ATOM     19  C   UNL     1      86.783  -8.569  30.812  1.00  0.00     0.008 C 
ENDBRANCH  12  17
ENDBRANCH  11  12
ENDBRANCH   1  11
TORSDOF 1
ENDMDL
MODEL 7
REMARK VINA RESULT:    -2.584      1.874      3.928
REMARK INTER + INTRA:          -4.335
REMARK INTER:                  -3.980
REMARK INTRA:                  -0.355
REMARK UNBOUND:                -0.391
REMARK SMILES CC1=CCC[C@H](C)C(=O)C[C@H](C(C)C)C(=O)C1
REMARK SMILES IDX 8 1 9 2 6 3 7 4 5 5 4 6 3 7 2 8 1 9 10 11 11 12 15 13 16 14
REMARK SMILES IDX 17 15 12 17 13 18 14 19
REMARK H PARENT
REMARK Flexibility Score: 70.00
ROOT
ATOM      1  C   UNL     1      82.305  -5.725  27.253  1.00  0.00     0.136 C 
ATOM      2  O   UNL     1      83.134  -4.851  27.052  1.00  0.00    -0.299 OA
ENDROOT
BRANCH   1   3
ATOM      3  C   UNL     1      82.628  -7.163  26.884  1.00  0.00     0.053 C 
ATOM      4  C   UNL     1      82.756  -7.311  25.361  1.00  0.00     0.016 C 
BRANCH   3   5
ATOM      5  C   UNL     1      83.920  -7.620  27.594  1.00  0.00     0.015 C 
BRANCH   5   6
ATOM      6  C   UNL     1      83.639  -8.209  28.990  1.00  0.00     0.028 C 
BRANCH   6   7
ATOM      7  C   UNL     1      84.131  -7.281  30.072  1.00  0.00    -0.028 C 
ATOM      8  C   UNL     1      83.340  -6.697  31.003  1.00  0.00    -0.070 CG0
ATOM      9  C   UNL     1      83.977  -5.728  31.966  1.00  0.00     0.039 C 
ATOM     10  G   UNL     1      81.853  -6.996  31.128  1.00  0.00     0.000 G0
ENDBRANCH   6   7
ENDBRANCH   5   6
ENDBRANCH   3   5
ENDBRANCH   1   3
BRANCH   1  11
ATOM     11  C   UNL     1      80.971  -5.358  27.868  1.00  0.00     0.087 C 
BRANCH  11  12
ATOM     12  C   UNL     1      80.462  -6.326  28.983  1.00  0.00     0.066 C 
BRANCH  12  13
ATOM     13  C   UNL     1      80.988  -5.995  30.376  1.00  0.00     0.140 C 
ATOM     14  O   UNL     1      80.666  -4.949  30.919  1.00  0.00    -0.299 OA
BRANCH  13  15
ATOM     15  C   UNL     1      81.835  -6.988  31.136  1.00  0.00     0.106 CG0
ATOM     16  G   UNL     1      83.323  -6.696  31.012  1.00  0.00     0.000 G0
ENDBRANCH  13  15
ENDBRANCH  12  13
BRANCH  12  17
ATOM     17  C   UNL     1      78.917  -6.570  28.990  1.00  0.00    -0.006 C 
ATOM     18  C   UNL     1      78.576  -8.047  29.253  1.00  0.00     0.008 C 
ATOM     19  C   UNL     1      78.191  -6.087  27.723  1.00  0.00     0.008 C 
ENDBRANCH  12  17
ENDBRANCH  11  12
ENDBRANCH   1  11
TORSDOF 1
ENDMDL
MODEL 8
REMARK VINA RESULT:    -2.539      2.351      3.478
REMARK INTER + INTRA:          -4.266
REMARK INTER:                  -4.058
REMARK INTRA:                  -0.208
REMARK UNBOUND:                -0.391
REMARK SMILES CC1=CCC[C@H](C)C(=O)C[C@H](C(C)C)C(=O)C1
REMARK SMILES IDX 8 1 9 2 6 3 7 4 5 5 4 6 3 7 2 8 1 9 10 11 11 12 15 13 16 14
REMARK SMILES IDX 17 15 12 17 13 18 14 19
REMARK H PARENT
REMARK Flexibility Score: 70.00
ROOT
ATOM      1  C   UNL     1      83.199  -5.086  28.466  1.00  0.00     0.136 C 
ATOM      2  O   UNL     1      83.746  -4.600  27.486  1.00  0.00    -0.299 OA
ENDROOT
BRANCH   1   3
ATOM      3  C   UNL     1      83.440  -4.475  29.836  1.00  0.00     0.053 C 
ATOM      4  C   UNL     1      82.379  -4.961  30.836  1.00  0.00     0.016 C 
BRANCH   3   5
ATOM      5  C   UNL     1      84.862  -4.816  30.332  1.00  0.00     0.015 C 
BRANCH   5   6
ATOM      6  C   UNL     1      84.854  -5.921  31.406  1.00  0.00     0.028 C 
BRANCH   6   7
ATOM      7  C   UNL     1      85.522  -7.172  30.893  1.00  0.00    -0.028 C 
ATOM      8  C   UNL     1      84.870  -8.313  30.564  1.00  0.00    -0.070 CG0
ATOM      9  C   UNL     1      85.694  -9.503  30.146  1.00  0.00     0.039 C 
ATOM     10  G   UNL     1      83.353  -8.429  30.578  1.00  0.00     0.000 G0
ENDBRANCH   6   7
ENDBRANCH   5   6
ENDBRANCH   3   5
ENDBRANCH   1   3
BRANCH   1  11
ATOM     11  C   UNL     1      82.293  -6.286  28.294  1.00  0.00     0.087 C 
BRANCH  11  12
ATOM     12  C   UNL     1      83.025  -7.648  28.075  1.00  0.00     0.066 C 
BRANCH  12  13
ATOM     13  C   UNL     1      82.779  -8.665  29.185  1.00  0.00     0.140 C 
ATOM     14  O   UNL     1      82.173  -9.699  28.945  1.00  0.00    -0.299 OA
BRANCH  13  15
ATOM     15  C   UNL     1      83.355  -8.455  30.565  1.00  0.00     0.106 CG0
ATOM     16  G   UNL     1      84.870  -8.313  30.546  1.00  0.00     0.000 G0
ENDBRANCH  13  15
ENDBRANCH  12  13
BRANCH  12  17
ATOM     17  C   UNL     1      82.834  -8.279  26.657  1.00  0.00    -0.006 C 
ATOM     18  C   UNL     1      84.056  -9.116  26.239  1.00  0.00     0.008 C 
ATOM     19  C   UNL     1      82.496  -7.267  25.550  1.00  0.00     0.008 C 
ENDBRANCH  12  17
ENDBRANCH  11  12
ENDBRANCH   1  11
TORSDOF 1
ENDMDL
MODEL 9
REMARK VINA RESULT:    -2.303      1.769      3.921
REMARK INTER + INTRA:          -3.906
REMARK INTER:                  -4.189
REMARK INTRA:                   0.283
REMARK UNBOUND:                -0.391
REMARK SMILES CC1=CCC[C@H](C)C(=O)C[C@H](C(C)C)C(=O)C1
REMARK SMILES IDX 8 1 9 2 6 3 7 4 5 5 4 6 3 7 2 8 1 9 10 11 11 12 15 13 16 14
REMARK SMILES IDX 17 15 12 17 13 18 14 19
REMARK H PARENT
REMARK Flexibility Score: 70.00
ROOT
ATOM      1  C   UNL     1      81.507  -4.899  27.797  1.00  0.00     0.136 C 
ATOM      2  O   UNL     1      80.768  -4.096  27.246  1.00  0.00    -0.299 OA
ENDROOT
BRANCH   1   3
ATOM      3  C   UNL     1      83.006  -4.818  27.564  1.00  0.00     0.053 C 
ATOM      4  C   UNL     1      83.374  -3.496  26.875  1.00  0.00     0.016 C 
BRANCH   3   5
ATOM      5  C   UNL     1      83.764  -4.974  28.900  1.00  0.00     0.015 C 
BRANCH   5   6
ATOM      6  C   UNL     1      84.312  -6.402  29.094  1.00  0.00     0.028 C 
BRANCH   6   7
ATOM      7  C   UNL     1      84.313  -7.158  27.790  1.00  0.00    -0.028 C 
ATOM      8  C   UNL     1      83.439  -8.141  27.470  1.00  0.00    -0.070 CG0
ATOM      9  C   UNL     1      83.627  -8.855  26.156  1.00  0.00     0.039 C 
ATOM     10  G   UNL     1      82.272  -8.531  28.365  1.00  0.00     0.000 G0
ENDBRANCH   6   7
ENDBRANCH   5   6
ENDBRANCH   3   5
ENDBRANCH   1   3
BRANCH   1  11
ATOM     11  C   UNL     1      80.913  -5.957  28.701  1.00  0.00     0.087 C 
BRANCH  11  12
ATOM     12  C   UNL     1      80.112  -7.083  27.973  1.00  0.00     0.066 C 
BRANCH  12  13
ATOM     13  C   UNL     1      80.926  -8.343  27.701  1.00  0.00     0.140 C 
ATOM     14  O   UNL     1      80.530  -9.166  26.890  1.00  0.00    -0.299 OA
BRANCH  13  15
ATOM     15  C   UNL     1      82.271  -8.549  28.359  1.00  0.00     0.106 CG0
ATOM     16  G   UNL     1      83.426  -8.127  27.462  1.00  0.00     0.000 G0
ENDBRANCH  13  15
ENDBRANCH  12  13
BRANCH  12  17
ATOM     17  C   UNL     1      78.721  -7.417  28.606  1.00  0.00    -0.006 C 
ATOM     18  C   UNL     1      77.734  -6.245  28.459  1.00  0.00     0.008 C 
ATOM     19  C   UNL     1      78.781  -7.865  30.075  1.00  0.00     0.008 C 
ENDBRANCH  12  17
ENDBRANCH  11  12
ENDBRANCH   1  11
TORSDOF 1
ENDMDL
