MODEL 1
REMARK VINA RESULT:    -7.242      0.000      0.000
REMARK INTER + INTRA:         -11.831
REMARK INTER:                 -10.629
REMARK INTRA:                  -1.202
REMARK UNBOUND:                -1.202
REMARK SMILES Cc1cc2c(C(C)C)c(O)c(O)c(C=O)c2c(O)c1-c1c(C)cc2c(C(C)C)c(O)c(O)c(C=O)c2c1O
REMARK SMILES IDX 1 1 2 2 3 3 4 4 16 5 13 6 11 7 9 8 5 9 17 10 19 11 20 12
REMARK SMILES IDX 37 13 21 14 36 15 23 16 22 17 24 18 33 19 25 20 31 21 29 22
REMARK SMILES IDX 38 23 34 25 35 26 26 27 27 28 28 29 32 30 30 32 18 34 6 36
REMARK SMILES IDX 7 37 8 38 14 39 15 40 10 41 12 43
REMARK H PARENT 38 24 32 31 30 33 18 35 10 42 12 44
REMARK Flexibility Score: inf
ROOT
ATOM      1  C   UNL     1      20.181 -30.929  21.964  1.00  0.00     0.045 C 
ATOM      2  C   UNL     1      20.447 -32.310  22.517  1.00  0.00    -0.039 A 
ATOM      3  C   UNL     1      21.759 -32.784  22.560  1.00  0.00     0.013 A 
ATOM      4  C   UNL     1      22.071 -34.071  23.050  1.00  0.00    -0.006 A 
ATOM      5  C   UNL     1      21.003 -34.948  23.402  1.00  0.00     0.039 A 
ATOM      6  C   UNL     1      21.316 -36.287  23.757  1.00  0.00     0.072 A 
ATOM      7  C   UNL     1      22.629 -36.766  23.649  1.00  0.00     0.169 A 
ATOM      8  C   UNL     1      23.682 -35.886  23.320  1.00  0.00     0.162 A 
ATOM      9  C   UNL     1      23.424 -34.508  23.154  1.00  0.00     0.008 A 
ATOM     10  C   UNL     1      19.662 -34.466  23.347  1.00  0.00     0.132 A 
ATOM     11  C   UNL     1      19.394 -33.146  22.926  1.00  0.00     0.031 A 
ENDROOT
BRANCH  11  12
ATOM     12  C   UNL     1      17.999 -32.635  22.890  1.00  0.00     0.031 A 
ATOM     13  C   UNL     1      17.183 -32.871  21.764  1.00  0.00     0.132 A 
ATOM     14  C   UNL     1      17.506 -31.880  23.968  1.00  0.00    -0.039 A 
ATOM     15  C   UNL     1      15.871 -32.323  21.704  1.00  0.00     0.039 A 
ATOM     16  C   UNL     1      16.274 -31.229  23.842  1.00  0.00     0.013 A 
ATOM     17  C   UNL     1      18.314 -31.698  25.227  1.00  0.00     0.045 C 
ATOM     18  C   UNL     1      15.485 -31.364  22.680  1.00  0.00    -0.006 A 
ATOM     19  C   UNL     1      14.942 -32.681  20.691  1.00  0.00     0.072 A 
ATOM     20  C   UNL     1      14.316 -30.577  22.483  1.00  0.00     0.008 A 
ATOM     21  C   UNL     1      13.695 -32.034  20.616  1.00  0.00     0.169 A 
ATOM     22  C   UNL     1      13.392 -30.970  21.490  1.00  0.00     0.162 A 
BRANCH  13  23
ATOM     23  O   UNL     1      17.685 -33.611  20.686  1.00  0.00    -0.507 OA
ATOM     24  H   UNL     1      17.101 -34.066  20.000  1.00  0.00     0.293 HD
ENDBRANCH  13  23
BRANCH  19  25
ATOM     25  C   UNL     1      15.172 -33.837  19.798  1.00  0.00     0.264 C 
ATOM     26  O   UNL     1      15.021 -35.015  20.218  1.00  0.00    -0.298 OA
ENDBRANCH  19  25
BRANCH  20  27
ATOM     27  C   UNL     1      14.078 -29.290  23.289  1.00  0.00     0.017 C 
ATOM     28  C   UNL     1      14.269 -28.006  22.458  1.00  0.00     0.012 C 
ATOM     29  C   UNL     1      12.711 -29.312  23.976  1.00  0.00     0.012 C 
ENDBRANCH  20  27
BRANCH  21  30
ATOM     30  O   UNL     1      12.768 -32.494  19.671  1.00  0.00    -0.504 OA
ATOM     31  H   UNL     1      12.236 -31.905  19.047  1.00  0.00     0.293 HD
ENDBRANCH  21  30
BRANCH  22  32
ATOM     32  O   UNL     1      12.169 -30.297  21.407  1.00  0.00    -0.504 OA
ATOM     33  H   UNL     1      11.473 -30.272  22.138  1.00  0.00     0.293 HD
ENDBRANCH  22  32
ENDBRANCH  11  12
BRANCH  10  34
ATOM     34  O   UNL     1      18.594 -35.301  23.693  1.00  0.00    -0.507 OA
ATOM     35  H   UNL     1      18.516 -36.267  23.404  1.00  0.00     0.293 HD
ENDBRANCH  10  34
BRANCH   9  36
ATOM     36  C   UNL     1      24.597 -33.515  23.108  1.00  0.00     0.017 C 
ATOM     37  C   UNL     1      24.523 -32.512  24.265  1.00  0.00     0.012 C 
ATOM     38  C   UNL     1      24.730 -32.800  21.752  1.00  0.00     0.012 C 
ENDBRANCH   9  36
BRANCH   6  39
ATOM     39  C   UNL     1      20.302 -37.240  24.244  1.00  0.00     0.264 C 
ATOM     40  O   UNL     1      19.811 -38.095  23.462  1.00  0.00    -0.298 OA
ENDBRANCH   6  39
BRANCH   8  41
ATOM     41  O   UNL     1      24.991 -36.350  23.156  1.00  0.00    -0.504 OA
ATOM     42  H   UNL     1      25.277 -37.064  22.506  1.00  0.00     0.293 HD
ENDBRANCH   8  41
BRANCH   7  43
ATOM     43  O   UNL     1      22.854 -38.125  23.906  1.00  0.00    -0.504 OA
ATOM     44  H   UNL     1      22.135 -38.802  24.118  1.00  0.00     0.293 HD
ENDBRANCH   7  43
TORSDOF 11
ENDMDL
MODEL 2
REMARK VINA RESULT:    -7.159      1.446      8.647
REMARK INTER + INTRA:         -11.709
REMARK INTER:                 -10.241
REMARK INTRA:                  -1.467
REMARK UNBOUND:                -1.202
REMARK SMILES Cc1cc2c(C(C)C)c(O)c(O)c(C=O)c2c(O)c1-c1c(C)cc2c(C(C)C)c(O)c(O)c(C=O)c2c1O
REMARK SMILES IDX 1 1 2 2 3 3 4 4 16 5 13 6 11 7 9 8 5 9 17 10 19 11 20 12
REMARK SMILES IDX 37 13 21 14 36 15 23 16 22 17 24 18 33 19 25 20 31 21 29 22
REMARK SMILES IDX 38 23 34 25 35 26 26 27 27 28 28 29 32 30 30 32 18 34 6 36
REMARK SMILES IDX 7 37 8 38 14 39 15 40 10 41 12 43
REMARK H PARENT 38 24 32 31 30 33 18 35 10 42 12 44
REMARK Flexibility Score: inf
ROOT
ATOM      1  C   UNL     1      18.308 -30.994  25.008  1.00  0.00     0.045 C 
ATOM      2  C   UNL     1      17.709 -31.546  23.736  1.00  0.00    -0.039 A 
ATOM      3  C   UNL     1      16.405 -31.186  23.387  1.00  0.00     0.013 A 
ATOM      4  C   UNL     1      15.784 -31.680  22.220  1.00  0.00    -0.006 A 
ATOM      5  C   UNL     1      16.466 -32.660  21.441  1.00  0.00     0.039 A 
ATOM      6  C   UNL     1      15.780 -33.258  20.351  1.00  0.00     0.072 A 
ATOM      7  C   UNL     1      14.426 -32.977  20.120  1.00  0.00     0.169 A 
ATOM      8  C   UNL     1      13.764 -31.991  20.883  1.00  0.00     0.162 A 
ATOM      9  C   UNL     1      14.480 -31.244  21.842  1.00  0.00     0.008 A 
ATOM     10  C   UNL     1      17.794 -33.034  21.804  1.00  0.00     0.132 A 
ATOM     11  C   UNL     1      18.414 -32.460  22.935  1.00  0.00     0.031 A 
ENDROOT
BRANCH  11  12
ATOM     12  C   UNL     1      19.804 -32.832  23.302  1.00  0.00     0.031 A 
ATOM     13  C   UNL     1      20.050 -33.961  24.112  1.00  0.00     0.132 A 
ATOM     14  C   UNL     1      20.877 -32.031  22.872  1.00  0.00    -0.039 A 
ATOM     15  C   UNL     1      21.377 -34.276  24.517  1.00  0.00     0.039 A 
ATOM     16  C   UNL     1      22.156 -32.263  23.388  1.00  0.00     0.013 A 
ATOM     17  C   UNL     1      20.659 -30.881  21.923  1.00  0.00     0.045 C 
ATOM     18  C   UNL     1      22.407 -33.324  24.284  1.00  0.00    -0.006 A 
ATOM     19  C   UNL     1      21.706 -35.495  25.168  1.00  0.00     0.072 A 
ATOM     20  C   UNL     1      23.665 -33.461  24.935  1.00  0.00     0.008 A 
ATOM     21  C   UNL     1      23.012 -35.713  25.641  1.00  0.00     0.169 A 
ATOM     22  C   UNL     1      23.982 -34.694  25.548  1.00  0.00     0.162 A 
BRANCH  13  23
ATOM     23  O   UNL     1      18.976 -34.746  24.550  1.00  0.00    -0.507 OA
ATOM     24  H   UNL     1      18.642 -34.755  25.503  1.00  0.00     0.293 HD
ENDBRANCH  13  23
BRANCH  19  25
ATOM     25  C   UNL     1      20.756 -36.627  25.224  1.00  0.00     0.264 C 
ATOM     26  O   UNL     1      20.171 -36.924  26.300  1.00  0.00    -0.298 OA
ENDBRANCH  19  25
BRANCH  20  27
ATOM     27  C   UNL     1      24.648 -32.282  25.025  1.00  0.00     0.017 C 
ATOM     28  C   UNL     1      25.288 -31.918  23.672  1.00  0.00     0.012 C 
ATOM     29  C   UNL     1      23.992 -31.064  25.679  1.00  0.00     0.012 C 
ENDBRANCH  20  27
BRANCH  21  30
ATOM     30  O   UNL     1      23.320 -36.971  26.176  1.00  0.00    -0.504 OA
ATOM     31  H   UNL     1      24.003 -37.610  25.798  1.00  0.00     0.293 HD
ENDBRANCH  21  30
BRANCH  22  32
ATOM     32  O   UNL     1      25.276 -34.884  26.042  1.00  0.00    -0.504 OA
ATOM     33  H   UNL     1      25.594 -35.710  26.526  1.00  0.00     0.293 HD
ENDBRANCH  22  32
ENDBRANCH  11  12
BRANCH  10  34
ATOM     34  O   UNL     1      18.492 -33.988  21.055  1.00  0.00    -0.507 OA
ATOM     35  H   UNL     1      18.452 -34.054  20.048  1.00  0.00     0.293 HD
ENDBRANCH  10  34
BRANCH   9  36
ATOM     36  C   UNL     1      13.851 -29.975  22.442  1.00  0.00     0.017 C 
ATOM     37  C   UNL     1      14.784 -28.768  22.296  1.00  0.00     0.012 C 
ATOM     38  C   UNL     1      13.393 -30.160  23.899  1.00  0.00     0.012 C 
ENDBRANCH   9  36
BRANCH   6  39
ATOM     39  C   UNL     1      16.430 -34.196  19.417  1.00  0.00     0.264 C 
ATOM     40  O   UNL     1      16.228 -35.433  19.522  1.00  0.00    -0.298 OA
ENDBRANCH   6  39
BRANCH   8  41
ATOM     41  O   UNL     1      12.402 -31.730  20.706  1.00  0.00    -0.504 OA
ATOM     42  H   UNL     1      11.680 -31.930  21.380  1.00  0.00     0.293 HD
ENDBRANCH   8  41
BRANCH   7  43
ATOM     43  O   UNL     1      13.776 -33.683  19.099  1.00  0.00    -0.504 OA
ATOM     44  H   UNL     1      12.904 -34.182  19.204  1.00  0.00     0.293 HD
ENDBRANCH   7  43
TORSDOF 11
ENDMDL
MODEL 3
REMARK VINA RESULT:    -7.143      5.165      8.437
REMARK INTER + INTRA:         -11.686
REMARK INTER:                 -10.508
REMARK INTRA:                  -1.178
REMARK UNBOUND:                -1.202
REMARK SMILES Cc1cc2c(C(C)C)c(O)c(O)c(C=O)c2c(O)c1-c1c(C)cc2c(C(C)C)c(O)c(O)c(C=O)c2c1O
REMARK SMILES IDX 1 1 2 2 3 3 4 4 16 5 13 6 11 7 9 8 5 9 17 10 19 11 20 12
REMARK SMILES IDX 37 13 21 14 36 15 23 16 22 17 24 18 33 19 25 20 31 21 29 22
REMARK SMILES IDX 38 23 34 25 35 26 26 27 27 28 28 29 32 30 30 32 18 34 6 36
REMARK SMILES IDX 7 37 8 38 14 39 15 40 10 41 12 43
REMARK H PARENT 38 24 32 31 30 33 18 35 10 42 12 44
REMARK Flexibility Score: inf
ROOT
ATOM      1  C   UNL     1      21.318 -29.601  25.724  1.00  0.00     0.045 C 
ATOM      2  C   UNL     1      21.733 -28.610  24.662  1.00  0.00    -0.039 A 
ATOM      3  C   UNL     1      21.956 -27.279  25.023  1.00  0.00     0.013 A 
ATOM      4  C   UNL     1      22.330 -26.303  24.075  1.00  0.00    -0.006 A 
ATOM      5  C   UNL     1      22.370 -26.664  22.696  1.00  0.00     0.039 A 
ATOM      6  C   UNL     1      22.607 -25.647  21.735  1.00  0.00     0.072 A 
ATOM      7  C   UNL     1      22.682 -24.302  22.124  1.00  0.00     0.169 A 
ATOM      8  C   UNL     1      22.662 -23.955  23.492  1.00  0.00     0.162 A 
ATOM      9  C   UNL     1      22.625 -24.967  24.475  1.00  0.00     0.008 A 
ATOM     10  C   UNL     1      22.132 -28.022  22.327  1.00  0.00     0.132 A 
ATOM     11  C   UNL     1      21.837 -28.988  23.313  1.00  0.00     0.031 A 
ENDROOT
BRANCH  11  12
ATOM     12  C   UNL     1      21.610 -30.407  22.933  1.00  0.00     0.031 A 
ATOM     13  C   UNL     1      20.377 -30.808  22.377  1.00  0.00     0.132 A 
ATOM     14  C   UNL     1      22.617 -31.360  23.166  1.00  0.00    -0.039 A 
ATOM     15  C   UNL     1      20.140 -32.178  22.076  1.00  0.00     0.039 A 
ATOM     16  C   UNL     1      22.327 -32.718  23.002  1.00  0.00     0.013 A 
ATOM     17  C   UNL     1      23.980 -30.949  23.661  1.00  0.00     0.045 C 
ATOM     18  C   UNL     1      21.064 -33.151  22.547  1.00  0.00    -0.006 A 
ATOM     19  C   UNL     1      19.001 -32.611  21.346  1.00  0.00     0.072 A 
ATOM     20  C   UNL     1      20.713 -34.531  22.535  1.00  0.00     0.008 A 
ATOM     21  C   UNL     1      18.759 -33.985  21.165  1.00  0.00     0.169 A 
ATOM     22  C   UNL     1      19.595 -34.942  21.777  1.00  0.00     0.162 A 
BRANCH  13  23
ATOM     23  O   UNL     1      19.372 -29.856  22.161  1.00  0.00    -0.507 OA
ATOM     24  H   UNL     1      18.481 -29.867  22.636  1.00  0.00     0.293 HD
ENDBRANCH  13  23
BRANCH  19  25
ATOM     25  C   UNL     1      18.136 -31.658  20.619  1.00  0.00     0.264 C 
ATOM     26  O   UNL     1      16.979 -31.387  21.040  1.00  0.00    -0.298 OA
ENDBRANCH  19  25
BRANCH  20  27
ATOM     27  C   UNL     1      21.494 -35.557  23.373  1.00  0.00     0.017 C 
ATOM     28  C   UNL     1      22.982 -35.652  22.988  1.00  0.00     0.012 C 
ATOM     29  C   UNL     1      21.320 -35.296  24.870  1.00  0.00     0.012 C 
ENDBRANCH  20  27
BRANCH  21  30
ATOM     30  O   UNL     1      17.687 -34.365  20.346  1.00  0.00    -0.504 OA
ATOM     31  H   UNL     1      17.041 -33.728  19.905  1.00  0.00     0.293 HD
ENDBRANCH  21  30
BRANCH  22  32
ATOM     32  O   UNL     1      19.349 -36.310  21.632  1.00  0.00    -0.504 OA
ATOM     33  H   UNL     1      19.578 -37.014  22.319  1.00  0.00     0.293 HD
ENDBRANCH  22  32
ENDBRANCH  11  12
BRANCH  10  34
ATOM     34  O   UNL     1      22.170 -28.409  20.983  1.00  0.00    -0.507 OA
ATOM     35  H   UNL     1      22.589 -27.855  20.249  1.00  0.00     0.293 HD
ENDBRANCH  10  34
BRANCH   9  36
ATOM     36  C   UNL     1      22.918 -24.612  25.943  1.00  0.00     0.017 C 
ATOM     37  C   UNL     1      23.963 -25.557  26.546  1.00  0.00     0.012 C 
ATOM     38  C   UNL     1      21.650 -24.546  26.812  1.00  0.00     0.012 C 
ENDBRANCH   9  36
BRANCH   6  39
ATOM     39  C   UNL     1      22.777 -25.930  20.298  1.00  0.00     0.264 C 
ATOM     40  O   UNL     1      21.889 -25.587  19.476  1.00  0.00    -0.298 OA
ENDBRANCH   6  39
BRANCH   8  41
ATOM     41  O   UNL     1      22.684 -22.618  23.902  1.00  0.00    -0.504 OA
ATOM     42  H   UNL     1      23.494 -22.131  24.251  1.00  0.00     0.293 HD
ENDBRANCH   8  41
BRANCH   7  43
ATOM     43  O   UNL     1      22.803 -23.335  21.118  1.00  0.00    -0.504 OA
ATOM     44  H   UNL     1      22.055 -22.739  20.791  1.00  0.00     0.293 HD
ENDBRANCH   7  43
TORSDOF 11
ENDMDL
MODEL 4
REMARK VINA RESULT:    -7.142     10.171     12.711
REMARK INTER + INTRA:         -11.684
REMARK INTER:                 -10.568
REMARK INTRA:                  -1.117
REMARK UNBOUND:                -1.202
REMARK SMILES Cc1cc2c(C(C)C)c(O)c(O)c(C=O)c2c(O)c1-c1c(C)cc2c(C(C)C)c(O)c(O)c(C=O)c2c1O
REMARK SMILES IDX 1 1 2 2 3 3 4 4 16 5 13 6 11 7 9 8 5 9 17 10 19 11 20 12
REMARK SMILES IDX 37 13 21 14 36 15 23 16 22 17 24 18 33 19 25 20 31 21 29 22
REMARK SMILES IDX 38 23 34 25 35 26 26 27 27 28 28 29 32 30 30 32 18 34 6 36
REMARK SMILES IDX 7 37 8 38 14 39 15 40 10 41 12 43
REMARK H PARENT 38 24 32 31 30 33 18 35 10 42 12 44
REMARK Flexibility Score: inf
ROOT
ATOM      1  C   UNL     1      19.914 -23.072  26.455  1.00  0.00     0.045 C 
ATOM      2  C   UNL     1      21.069 -23.322  27.397  1.00  0.00    -0.039 A 
ATOM      3  C   UNL     1      20.963 -22.910  28.727  1.00  0.00     0.013 A 
ATOM      4  C   UNL     1      22.012 -23.101  29.651  1.00  0.00    -0.006 A 
ATOM      5  C   UNL     1      23.253 -23.624  29.184  1.00  0.00     0.039 A 
ATOM      6  C   UNL     1      24.348 -23.680  30.085  1.00  0.00     0.072 A 
ATOM      7  C   UNL     1      24.245 -23.125  31.369  1.00  0.00     0.169 A 
ATOM      8  C   UNL     1      23.007 -22.628  31.831  1.00  0.00     0.162 A 
ATOM      9  C   UNL     1      21.856 -22.741  31.022  1.00  0.00     0.008 A 
ATOM     10  C   UNL     1      23.364 -24.035  27.821  1.00  0.00     0.132 A 
ATOM     11  C   UNL     1      22.266 -23.901  26.944  1.00  0.00     0.031 A 
ENDROOT
BRANCH  11  12
ATOM     12  C   UNL     1      22.373 -24.349  25.531  1.00  0.00     0.031 A 
ATOM     13  C   UNL     1      22.741 -23.436  24.521  1.00  0.00     0.132 A 
ATOM     14  C   UNL     1      22.067 -25.679  25.197  1.00  0.00    -0.039 A 
ATOM     15  C   UNL     1      22.778 -23.852  23.160  1.00  0.00     0.039 A 
ATOM     16  C   UNL     1      21.967 -26.042  23.850  1.00  0.00     0.013 A 
ATOM     17  C   UNL     1      21.772 -26.703  26.263  1.00  0.00     0.045 C 
ATOM     18  C   UNL     1      22.228 -25.117  22.817  1.00  0.00    -0.006 A 
ATOM     19  C   UNL     1      23.319 -23.037  22.129  1.00  0.00     0.072 A 
ATOM     20  C   UNL     1      21.969 -25.435  21.454  1.00  0.00     0.008 A 
ATOM     21  C   UNL     1      23.237 -23.450  20.787  1.00  0.00     0.169 A 
ATOM     22  C   UNL     1      22.544 -24.630  20.447  1.00  0.00     0.162 A 
BRANCH  13  23
ATOM     23  O   UNL     1      23.030 -22.108  24.858  1.00  0.00    -0.507 OA
ATOM     24  H   UNL     1      22.482 -21.320  24.543  1.00  0.00     0.293 HD
ENDBRANCH  13  23
BRANCH  19  25
ATOM     25  C   UNL     1      24.122 -21.833  22.431  1.00  0.00     0.264 C 
ATOM     26  O   UNL     1      25.231 -21.930  23.023  1.00  0.00    -0.298 OA
ENDBRANCH  19  25
BRANCH  20  27
ATOM     27  C   UNL     1      21.037 -26.598  21.072  1.00  0.00     0.017 C 
ATOM     28  C   UNL     1      19.841 -26.160  20.205  1.00  0.00     0.012 C 
ATOM     29  C   UNL     1      21.817 -27.737  20.414  1.00  0.00     0.012 C 
ENDBRANCH  20  27
BRANCH  21  30
ATOM     30  O   UNL     1      23.881 -22.672  19.816  1.00  0.00    -0.504 OA
ATOM     31  H   UNL     1      24.872 -22.686  19.626  1.00  0.00     0.293 HD
ENDBRANCH  21  30
BRANCH  22  32
ATOM     32  O   UNL     1      22.426 -25.037  19.114  1.00  0.00    -0.504 OA
ATOM     33  H   UNL     1      22.910 -24.613  18.336  1.00  0.00     0.293 HD
ENDBRANCH  22  32
ENDBRANCH  11  12
BRANCH  10  34
ATOM     34  O   UNL     1      24.567 -24.558  27.335  1.00  0.00    -0.507 OA
ATOM     35  H   UNL     1      25.249 -24.019  26.819  1.00  0.00     0.293 HD
ENDBRANCH  10  34
BRANCH   9  36
ATOM     36  C   UNL     1      20.468 -22.493  31.637  1.00  0.00     0.017 C 
ATOM     37  C   UNL     1      20.115 -21.002  31.631  1.00  0.00     0.012 C 
ATOM     38  C   UNL     1      20.312 -23.103  33.040  1.00  0.00     0.012 C 
ENDBRANCH   9  36
BRANCH   6  39
ATOM     39  C   UNL     1      25.638 -24.304  29.736  1.00  0.00     0.264 C 
ATOM     40  O   UNL     1      26.609 -23.589  29.376  1.00  0.00    -0.298 OA
ENDBRANCH   6  39
BRANCH   8  41
ATOM     41  O   UNL     1      22.891 -22.023  33.086  1.00  0.00    -0.504 OA
ATOM     42  H   UNL     1      23.377 -22.317  33.919  1.00  0.00     0.293 HD
ENDBRANCH   8  41
BRANCH   7  43
ATOM     43  O   UNL     1      25.394 -23.110  32.170  1.00  0.00    -0.504 OA
ATOM     44  H   UNL     1      25.995 -22.310  32.308  1.00  0.00     0.293 HD
ENDBRANCH   7  43
TORSDOF 11
ENDMDL
MODEL 5
REMARK VINA RESULT:    -7.137      4.185      8.129
REMARK INTER + INTRA:         -11.677
REMARK INTER:                 -10.657
REMARK INTRA:                  -1.020
REMARK UNBOUND:                -1.202
REMARK SMILES Cc1cc2c(C(C)C)c(O)c(O)c(C=O)c2c(O)c1-c1c(C)cc2c(C(C)C)c(O)c(O)c(C=O)c2c1O
REMARK SMILES IDX 1 1 2 2 3 3 4 4 16 5 13 6 11 7 9 8 5 9 17 10 19 11 20 12
REMARK SMILES IDX 37 13 21 14 36 15 23 16 22 17 24 18 33 19 25 20 31 21 29 22
REMARK SMILES IDX 38 23 34 25 35 26 26 27 27 28 28 29 32 30 30 32 18 34 6 36
REMARK SMILES IDX 7 37 8 38 14 39 15 40 10 41 12 43
REMARK H PARENT 38 24 32 31 30 33 18 35 10 42 12 44
REMARK Flexibility Score: inf
ROOT
ATOM      1  C   UNL     1      21.689 -33.034  22.491  1.00  0.00     0.045 C 
ATOM      2  C   UNL     1      20.205 -32.764  22.414  1.00  0.00    -0.039 A 
ATOM      3  C   UNL     1      19.345 -33.798  22.038  1.00  0.00     0.013 A 
ATOM      4  C   UNL     1      17.951 -33.605  21.932  1.00  0.00    -0.006 A 
ATOM      5  C   UNL     1      17.424 -32.291  22.103  1.00  0.00     0.039 A 
ATOM      6  C   UNL     1      16.042 -32.077  21.855  1.00  0.00     0.072 A 
ATOM      7  C   UNL     1      15.242 -33.107  21.341  1.00  0.00     0.169 A 
ATOM      8  C   UNL     1      15.766 -34.409  21.193  1.00  0.00     0.162 A 
ATOM      9  C   UNL     1      17.082 -34.691  21.618  1.00  0.00     0.008 A 
ATOM     10  C   UNL     1      18.305 -31.233  22.478  1.00  0.00     0.132 A 
ATOM     11  C   UNL     1      19.684 -31.481  22.651  1.00  0.00     0.031 A 
ENDROOT
BRANCH  11  12
ATOM     12  C   UNL     1      20.600 -30.385  23.062  1.00  0.00     0.031 A 
ATOM     13  C   UNL     1      20.960 -30.228  24.417  1.00  0.00     0.132 A 
ATOM     14  C   UNL     1      21.077 -29.478  22.100  1.00  0.00    -0.039 A 
ATOM     15  C   UNL     1      21.783 -29.138  24.816  1.00  0.00     0.039 A 
ATOM     16  C   UNL     1      21.765 -28.335  22.518  1.00  0.00     0.013 A 
ATOM     17  C   UNL     1      20.795 -29.678  20.633  1.00  0.00     0.045 C 
ATOM     18  C   UNL     1      22.046 -28.101  23.881  1.00  0.00    -0.006 A 
ATOM     19  C   UNL     1      22.330 -29.037  26.124  1.00  0.00     0.072 A 
ATOM     20  C   UNL     1      22.597 -26.865  24.322  1.00  0.00     0.008 A 
ATOM     21  C   UNL     1      23.051 -27.888  26.500  1.00  0.00     0.169 A 
ATOM     22  C   UNL     1      23.164 -26.797  25.614  1.00  0.00     0.162 A 
BRANCH  13  23
ATOM     23  O   UNL     1      20.469 -31.126  25.373  1.00  0.00    -0.507 OA
ATOM     24  H   UNL     1      19.837 -30.861  26.115  1.00  0.00     0.293 HD
ENDBRANCH  13  23
BRANCH  19  25
ATOM     25  C   UNL     1      22.311 -30.176  27.065  1.00  0.00     0.264 C 
ATOM     26  O   UNL     1      21.590 -30.145  28.099  1.00  0.00    -0.298 OA
ENDBRANCH  19  25
BRANCH  20  27
ATOM     27  C   UNL     1      22.535 -25.606  23.442  1.00  0.00     0.017 C 
ATOM     28  C   UNL     1      22.900 -25.874  21.969  1.00  0.00     0.012 C 
ATOM     29  C   UNL     1      21.177 -24.913  23.564  1.00  0.00     0.012 C 
ENDBRANCH  20  27
BRANCH  21  30
ATOM     30  O   UNL     1      23.667 -27.877  27.758  1.00  0.00    -0.504 OA
ATOM     31  H   UNL     1      24.574 -27.484  27.955  1.00  0.00     0.293 HD
ENDBRANCH  21  30
BRANCH  22  32
ATOM     32  O   UNL     1      23.850 -25.637  25.985  1.00  0.00    -0.504 OA
ATOM     33  H   UNL     1      24.663 -25.271  25.512  1.00  0.00     0.293 HD
ENDBRANCH  22  32
ENDBRANCH  11  12
BRANCH  10  34
ATOM     34  O   UNL     1      17.817 -29.935  22.659  1.00  0.00    -0.507 OA
ATOM     35  H   UNL     1      17.601 -29.535  23.562  1.00  0.00     0.293 HD
ENDBRANCH  10  34
BRANCH   9  36
ATOM     36  C   UNL     1      17.541 -36.153  21.750  1.00  0.00     0.017 C 
ATOM     37  C   UNL     1      18.369 -36.364  23.022  1.00  0.00     0.012 C 
ATOM     38  C   UNL     1      18.282 -36.668  20.504  1.00  0.00     0.012 C 
ENDBRANCH   9  36
BRANCH   6  39
ATOM     39  C   UNL     1      15.377 -30.786  22.110  1.00  0.00     0.264 C 
ATOM     40  O   UNL     1      15.113 -30.012  21.154  1.00  0.00    -0.298 OA
ENDBRANCH   6  39
BRANCH   8  41
ATOM     41  O   UNL     1      15.003 -35.439  20.634  1.00  0.00    -0.504 OA
ATOM     42  H   UNL     1      14.355 -35.333  19.871  1.00  0.00     0.293 HD
ENDBRANCH   8  41
BRANCH   7  43
ATOM     43  O   UNL     1      13.915 -32.802  21.010  1.00  0.00    -0.504 OA
ATOM     44  H   UNL     1      13.129 -33.424  21.131  1.00  0.00     0.293 HD
ENDBRANCH   7  43
TORSDOF 11
ENDMDL
MODEL 6
REMARK VINA RESULT:    -6.937      2.018      3.455
REMARK INTER + INTRA:         -11.384
REMARK INTER:                  -9.953
REMARK INTRA:                  -1.431
REMARK UNBOUND:                -1.202
REMARK SMILES Cc1cc2c(C(C)C)c(O)c(O)c(C=O)c2c(O)c1-c1c(C)cc2c(C(C)C)c(O)c(O)c(C=O)c2c1O
REMARK SMILES IDX 1 1 2 2 3 3 4 4 16 5 13 6 11 7 9 8 5 9 17 10 19 11 20 12
REMARK SMILES IDX 37 13 21 14 36 15 23 16 22 17 24 18 33 19 25 20 31 21 29 22
REMARK SMILES IDX 38 23 34 25 35 26 26 27 27 28 28 29 32 30 30 32 18 34 6 36
REMARK SMILES IDX 7 37 8 38 14 39 15 40 10 41 12 43
REMARK H PARENT 38 24 32 31 30 33 18 35 10 42 12 44
REMARK Flexibility Score: inf
ROOT
ATOM      1  C   UNL     1      19.089 -36.107  25.253  1.00  0.00     0.045 C 
ATOM      2  C   UNL     1      20.301 -35.351  24.759  1.00  0.00    -0.039 A 
ATOM      3  C   UNL     1      21.575 -35.824  25.081  1.00  0.00     0.013 A 
ATOM      4  C   UNL     1      22.745 -35.154  24.663  1.00  0.00    -0.006 A 
ATOM      5  C   UNL     1      22.617 -33.902  23.992  1.00  0.00     0.039 A 
ATOM      6  C   UNL     1      23.796 -33.166  23.701  1.00  0.00     0.072 A 
ATOM      7  C   UNL     1      25.043 -33.603  24.168  1.00  0.00     0.169 A 
ATOM      8  C   UNL     1      25.164 -34.852  24.813  1.00  0.00     0.162 A 
ATOM      9  C   UNL     1      24.036 -35.692  24.939  1.00  0.00     0.008 A 
ATOM     10  C   UNL     1      21.314 -33.416  23.673  1.00  0.00     0.132 A 
ATOM     11  C   UNL     1      20.168 -34.153  24.038  1.00  0.00     0.031 A 
ENDROOT
BRANCH  11  12
ATOM     12  C   UNL     1      18.811 -33.658  23.687  1.00  0.00     0.031 A 
ATOM     13  C   UNL     1      18.205 -34.042  22.472  1.00  0.00     0.132 A 
ATOM     14  C   UNL     1      18.147 -32.772  24.552  1.00  0.00    -0.039 A 
ATOM     15  C   UNL     1      16.935 -33.514  22.108  1.00  0.00     0.039 A 
ATOM     16  C   UNL     1      16.970 -32.150  24.125  1.00  0.00     0.013 A 
ATOM     17  C   UNL     1      18.720 -32.425  25.902  1.00  0.00     0.045 C 
ATOM     18  C   UNL     1      16.399 -32.438  22.868  1.00  0.00    -0.006 A 
ATOM     19  C   UNL     1      16.196 -34.005  20.999  1.00  0.00     0.072 A 
ATOM     20  C   UNL     1      15.298 -31.690  22.364  1.00  0.00     0.008 A 
ATOM     21  C   UNL     1      14.994 -33.379  20.619  1.00  0.00     0.169 A 
ATOM     22  C   UNL     1      14.559 -32.213  21.281  1.00  0.00     0.162 A 
BRANCH  13  23
ATOM     23  O   UNL     1      18.878 -34.913  21.606  1.00  0.00    -0.507 OA
ATOM     24  H   UNL     1      18.564 -35.123  20.670  1.00  0.00     0.293 HD
ENDBRANCH  13  23
BRANCH  19  25
ATOM     25  C   UNL     1      16.561 -35.265  20.318  1.00  0.00     0.264 C 
ATOM     26  O   UNL     1      17.004 -35.255  19.138  1.00  0.00    -0.298 OA
ENDBRANCH  19  25
BRANCH  20  27
ATOM     27  C   UNL     1      14.943 -30.310  22.943  1.00  0.00     0.017 C 
ATOM     28  C   UNL     1      14.995 -29.179  21.898  1.00  0.00     0.012 C 
ATOM     29  C   UNL     1      13.594 -30.343  23.663  1.00  0.00     0.012 C 
ENDBRANCH  20  27
BRANCH  21  30
ATOM     30  O   UNL     1      14.242 -33.962  19.590  1.00  0.00    -0.504 OA
ATOM     31  H   UNL     1      14.621 -34.312  18.723  1.00  0.00     0.293 HD
ENDBRANCH  21  30
BRANCH  22  32
ATOM     32  O   UNL     1      13.383 -31.562  20.894  1.00  0.00    -0.504 OA
ATOM     33  H   UNL     1      12.958 -31.632  19.982  1.00  0.00     0.293 HD
ENDBRANCH  22  32
ENDBRANCH  11  12
BRANCH  10  34
ATOM     34  O   UNL     1      21.157 -32.194  23.009  1.00  0.00    -0.507 OA
ATOM     35  H   UNL     1      21.659 -31.940  22.169  1.00  0.00     0.293 HD
ENDBRANCH  10  34
BRANCH   9  36
ATOM     36  C   UNL     1      24.225 -37.162  25.350  1.00  0.00     0.017 C 
ATOM     37  C   UNL     1      23.622 -38.113  24.311  1.00  0.00     0.012 C 
ATOM     38  C   UNL     1      23.697 -37.465  26.763  1.00  0.00     0.012 C 
ENDBRANCH   9  36
BRANCH   6  39
ATOM     39  C   UNL     1      23.783 -31.918  22.915  1.00  0.00     0.264 C 
ATOM     40  O   UNL     1      23.835 -30.804  23.497  1.00  0.00    -0.298 OA
ENDBRANCH   6  39
BRANCH   8  41
ATOM     41  O   UNL     1      26.387 -35.286  25.332  1.00  0.00    -0.504 OA
ATOM     42  H   UNL     1      27.293 -34.982  25.014  1.00  0.00     0.293 HD
ENDBRANCH   8  41
BRANCH   7  43
ATOM     43  O   UNL     1      26.152 -32.775  23.947  1.00  0.00    -0.504 OA
ATOM     44  H   UNL     1      26.123 -31.766  23.899  1.00  0.00     0.293 HD
ENDBRANCH   7  43
TORSDOF 11
ENDMDL
MODEL 7
REMARK VINA RESULT:    -6.930      1.877      2.674
REMARK INTER + INTRA:         -11.373
REMARK INTER:                  -9.909
REMARK INTRA:                  -1.464
REMARK UNBOUND:                -1.202
REMARK SMILES Cc1cc2c(C(C)C)c(O)c(O)c(C=O)c2c(O)c1-c1c(C)cc2c(C(C)C)c(O)c(O)c(C=O)c2c1O
REMARK SMILES IDX 1 1 2 2 3 3 4 4 16 5 13 6 11 7 9 8 5 9 17 10 19 11 20 12
REMARK SMILES IDX 37 13 21 14 36 15 23 16 22 17 24 18 33 19 25 20 31 21 29 22
REMARK SMILES IDX 38 23 34 25 35 26 26 27 27 28 28 29 32 30 30 32 18 34 6 36
REMARK SMILES IDX 7 37 8 38 14 39 15 40 10 41 12 43
REMARK H PARENT 38 24 32 31 30 33 18 35 10 42 12 44
REMARK Flexibility Score: inf
ROOT
ATOM      1  C   UNL     1      21.216 -30.503  22.569  1.00  0.00     0.045 C 
ATOM      2  C   UNL     1      21.762 -31.608  23.443  1.00  0.00    -0.039 A 
ATOM      3  C   UNL     1      23.129 -31.640  23.724  1.00  0.00     0.013 A 
ATOM      4  C   UNL     1      23.702 -32.654  24.522  1.00  0.00    -0.006 A 
ATOM      5  C   UNL     1      22.878 -33.735  24.953  1.00  0.00     0.039 A 
ATOM      6  C   UNL     1      23.488 -34.823  25.632  1.00  0.00     0.072 A 
ATOM      7  C   UNL     1      24.882 -34.887  25.769  1.00  0.00     0.169 A 
ATOM      8  C   UNL     1      25.688 -33.804  25.357  1.00  0.00     0.162 A 
ATOM      9  C   UNL     1      25.087 -32.628  24.859  1.00  0.00     0.008 A 
ATOM     10  C   UNL     1      21.483 -33.706  24.656  1.00  0.00     0.132 A 
ATOM     11  C   UNL     1      20.931 -32.634  23.923  1.00  0.00     0.031 A 
ENDROOT
BRANCH  11  12
ATOM     12  C   UNL     1      19.475 -32.592  23.631  1.00  0.00     0.031 A 
ATOM     13  C   UNL     1      18.950 -33.287  22.521  1.00  0.00     0.132 A 
ATOM     14  C   UNL     1      18.623 -31.823  24.443  1.00  0.00    -0.039 A 
ATOM     15  C   UNL     1      17.565 -33.190  22.206  1.00  0.00     0.039 A 
ATOM     16  C   UNL     1      17.298 -31.619  24.047  1.00  0.00     0.013 A 
ATOM     17  C   UNL     1      19.134 -31.153  25.693  1.00  0.00     0.045 C 
ATOM     18  C   UNL     1      16.777 -32.219  22.881  1.00  0.00    -0.006 A 
ATOM     19  C   UNL     1      16.949 -34.011  21.224  1.00  0.00     0.072 A 
ATOM     20  C   UNL     1      15.484 -31.883  22.389  1.00  0.00     0.008 A 
ATOM     21  C   UNL     1      15.601 -33.805  20.877  1.00  0.00     0.169 A 
ATOM     22  C   UNL     1      14.878 -32.731  21.436  1.00  0.00     0.162 A 
BRANCH  13  23
ATOM     23  O   UNL     1      19.805 -34.040  21.707  1.00  0.00    -0.507 OA
ATOM     24  H   UNL     1      19.885 -35.045  21.760  1.00  0.00     0.293 HD
ENDBRANCH  13  23
BRANCH  19  25
ATOM     25  C   UNL     1      17.631 -35.196  20.662  1.00  0.00     0.264 C 
ATOM     26  O   UNL     1      18.047 -35.196  19.473  1.00  0.00    -0.298 OA
ENDBRANCH  19  25
BRANCH  20  27
ATOM     27  C   UNL     1      14.772 -30.595  22.836  1.00  0.00     0.017 C 
ATOM     28  C   UNL     1      14.481 -29.626  21.674  1.00  0.00     0.012 C 
ATOM     29  C   UNL     1      13.504 -30.911  23.631  1.00  0.00     0.012 C 
ENDBRANCH  20  27
BRANCH  21  30
ATOM     30  O   UNL     1      15.003 -34.706  19.986  1.00  0.00    -0.504 OA
ATOM     31  H   UNL     1      14.277 -34.472  19.325  1.00  0.00     0.293 HD
ENDBRANCH  21  30
BRANCH  22  32
ATOM     32  O   UNL     1      13.548 -32.494  21.077  1.00  0.00    -0.504 OA
ATOM     33  H   UNL     1      13.222 -32.347  20.133  1.00  0.00     0.293 HD
ENDBRANCH  22  32
ENDBRANCH  11  12
BRANCH  10  34
ATOM     34  O   UNL     1      20.648 -34.749  25.072  1.00  0.00    -0.507 OA
ATOM     35  H   UNL     1      20.356 -34.891  26.029  1.00  0.00     0.293 HD
ENDBRANCH  10  34
BRANCH   9  36
ATOM     36  C   UNL     1      25.928 -31.349  24.708  1.00  0.00     0.017 C 
ATOM     37  C   UNL     1      26.995 -31.509  23.620  1.00  0.00     0.012 C 
ATOM     38  C   UNL     1      26.544 -30.873  26.035  1.00  0.00     0.012 C 
ENDBRANCH   9  36
BRANCH   6  39
ATOM     39  C   UNL     1      22.714 -35.933  26.217  1.00  0.00     0.264 C 
ATOM     40  O   UNL     1      22.579 -37.012  25.584  1.00  0.00    -0.298 OA
ENDBRANCH   6  39
BRANCH   8  41
ATOM     41  O   UNL     1      27.082 -33.866  25.436  1.00  0.00    -0.504 OA
ATOM     42  H   UNL     1      27.680 -34.345  24.782  1.00  0.00     0.293 HD
ENDBRANCH   8  41
BRANCH   7  43
ATOM     43  O   UNL     1      25.431 -36.039  26.347  1.00  0.00    -0.504 OA
ATOM     44  H   UNL     1      25.674 -36.881  25.845  1.00  0.00     0.293 HD
ENDBRANCH   7  43
TORSDOF 11
ENDMDL
MODEL 8
REMARK VINA RESULT:    -6.919      1.867      9.089
REMARK INTER + INTRA:         -11.357
REMARK INTER:                 -10.103
REMARK INTRA:                  -1.254
REMARK UNBOUND:                -1.202
REMARK SMILES Cc1cc2c(C(C)C)c(O)c(O)c(C=O)c2c(O)c1-c1c(C)cc2c(C(C)C)c(O)c(O)c(C=O)c2c1O
REMARK SMILES IDX 1 1 2 2 3 3 4 4 16 5 13 6 11 7 9 8 5 9 17 10 19 11 20 12
REMARK SMILES IDX 37 13 21 14 36 15 23 16 22 17 24 18 33 19 25 20 31 21 29 22
REMARK SMILES IDX 38 23 34 25 35 26 26 27 27 28 28 29 32 30 30 32 18 34 6 36
REMARK SMILES IDX 7 37 8 38 14 39 15 40 10 41 12 43
REMARK H PARENT 38 24 32 31 30 33 18 35 10 42 12 44
REMARK Flexibility Score: inf
ROOT
ATOM      1  C   UNL     1      19.116 -32.076  25.579  1.00  0.00     0.045 C 
ATOM      2  C   UNL     1      18.435 -32.456  24.284  1.00  0.00    -0.039 A 
ATOM      3  C   UNL     1      17.172 -31.932  24.002  1.00  0.00     0.013 A 
ATOM      4  C   UNL     1      16.477 -32.260  22.818  1.00  0.00    -0.006 A 
ATOM      5  C   UNL     1      17.033 -33.241  21.945  1.00  0.00     0.039 A 
ATOM      6  C   UNL     1      16.264 -33.671  20.832  1.00  0.00     0.072 A 
ATOM      7  C   UNL     1      14.945 -33.229  20.662  1.00  0.00     0.169 A 
ATOM      8  C   UNL     1      14.410 -32.243  21.518  1.00  0.00     0.162 A 
ATOM      9  C   UNL     1      15.222 -31.657  22.513  1.00  0.00     0.008 A 
ATOM     10  C   UNL     1      18.319 -33.784  22.241  1.00  0.00     0.132 A 
ATOM     11  C   UNL     1      19.020 -33.373  23.395  1.00  0.00     0.031 A 
ENDROOT
BRANCH  11  12
ATOM     12  C   UNL     1      20.369 -33.921  23.692  1.00  0.00     0.031 A 
ATOM     13  C   UNL     1      21.523 -33.276  23.202  1.00  0.00     0.132 A 
ATOM     14  C   UNL     1      20.490 -35.109  24.433  1.00  0.00    -0.039 A 
ATOM     15  C   UNL     1      22.810 -33.840  23.432  1.00  0.00     0.039 A 
ATOM     16  C   UNL     1      21.739 -35.730  24.533  1.00  0.00     0.013 A 
ATOM     17  C   UNL     1      19.285 -35.764  25.058  1.00  0.00     0.045 C 
ATOM     18  C   UNL     1      22.894 -35.158  23.959  1.00  0.00    -0.006 A 
ATOM     19  C   UNL     1      24.011 -33.145  23.130  1.00  0.00     0.072 A 
ATOM     20  C   UNL     1      24.129 -35.864  23.918  1.00  0.00     0.008 A 
ATOM     21  C   UNL     1      25.254 -33.786  23.279  1.00  0.00     0.169 A 
ATOM     22  C   UNL     1      25.314 -35.146  23.646  1.00  0.00     0.162 A 
BRANCH  13  23
ATOM     23  O   UNL     1      21.396 -32.101  22.451  1.00  0.00    -0.507 OA
ATOM     24  H   UNL     1      21.802 -31.976  21.535  1.00  0.00     0.293 HD
ENDBRANCH  13  23
BRANCH  19  25
ATOM     25  C   UNL     1      24.015 -31.700  22.816  1.00  0.00     0.264 C 
ATOM     26  O   UNL     1      24.125 -30.842  23.733  1.00  0.00    -0.298 OA
ENDBRANCH  19  25
BRANCH  20  27
ATOM     27  C   UNL     1      24.180 -37.390  24.107  1.00  0.00     0.017 C 
ATOM     28  C   UNL     1      24.926 -38.120  22.974  1.00  0.00     0.012 C 
ATOM     29  C   UNL     1      24.748 -37.758  25.479  1.00  0.00     0.012 C 
ENDBRANCH  20  27
BRANCH  21  30
ATOM     30  O   UNL     1      26.417 -33.030  23.077  1.00  0.00    -0.504 OA
ATOM     31  H   UNL     1      26.634 -32.515  22.237  1.00  0.00     0.293 HD
ENDBRANCH  21  30
BRANCH  22  32
ATOM     32  O   UNL     1      26.541 -35.806  23.768  1.00  0.00    -0.504 OA
ATOM     33  H   UNL     1      27.444 -35.359  23.722  1.00  0.00     0.293 HD
ENDBRANCH  22  32
ENDBRANCH  11  12
BRANCH  10  34
ATOM     34  O   UNL     1      18.894 -34.744  21.400  1.00  0.00    -0.507 OA
ATOM     35  H   UNL     1      19.880 -34.963  21.386  1.00  0.00     0.293 HD
ENDBRANCH  10  34
BRANCH   9  36
ATOM     36  C   UNL     1      14.747 -30.380  23.227  1.00  0.00     0.017 C 
ATOM     37  C   UNL     1      13.468 -30.635  24.032  1.00  0.00     0.012 C 
ATOM     38  C   UNL     1      14.584 -29.182  22.276  1.00  0.00     0.012 C 
ENDBRANCH   9  36
BRANCH   6  39
ATOM     39  C   UNL     1      16.789 -34.595  19.809  1.00  0.00     0.264 C 
ATOM     40  O   UNL     1      16.364 -35.778  19.748  1.00  0.00    -0.298 OA
ENDBRANCH   6  39
BRANCH   8  41
ATOM     41  O   UNL     1      13.081 -31.824  21.401  1.00  0.00    -0.504 OA
ATOM     42  H   UNL     1      12.761 -30.875  21.505  1.00  0.00     0.293 HD
ENDBRANCH   8  41
BRANCH   7  43
ATOM     43  O   UNL     1      14.201 -33.777  19.609  1.00  0.00    -0.504 OA
ATOM     44  H   UNL     1      14.514 -34.522  19.003  1.00  0.00     0.293 HD
ENDBRANCH   7  43
TORSDOF 11
ENDMDL
MODEL 9
REMARK VINA RESULT:    -6.871      4.974      7.952
REMARK INTER + INTRA:         -11.287
REMARK INTER:                  -9.961
REMARK INTRA:                  -1.325
REMARK UNBOUND:                -1.202
REMARK SMILES Cc1cc2c(C(C)C)c(O)c(O)c(C=O)c2c(O)c1-c1c(C)cc2c(C(C)C)c(O)c(O)c(C=O)c2c1O
REMARK SMILES IDX 1 1 2 2 3 3 4 4 16 5 13 6 11 7 9 8 5 9 17 10 19 11 20 12
REMARK SMILES IDX 37 13 21 14 36 15 23 16 22 17 24 18 33 19 25 20 31 21 29 22
REMARK SMILES IDX 38 23 34 25 35 26 26 27 27 28 28 29 32 30 30 32 18 34 6 36
REMARK SMILES IDX 7 37 8 38 14 39 15 40 10 41 12 43
REMARK H PARENT 38 24 32 31 30 33 18 35 10 42 12 44
REMARK Flexibility Score: inf
ROOT
ATOM      1  C   UNL     1      22.978 -29.599  26.895  1.00  0.00     0.045 C 
ATOM      2  C   UNL     1      24.360 -30.020  26.452  1.00  0.00    -0.039 A 
ATOM      3  C   UNL     1      25.392 -30.059  27.393  1.00  0.00     0.013 A 
ATOM      4  C   UNL     1      26.707 -30.429  27.039  1.00  0.00    -0.006 A 
ATOM      5  C   UNL     1      27.011 -30.656  25.664  1.00  0.00     0.039 A 
ATOM      6  C   UNL     1      28.363 -30.886  25.298  1.00  0.00     0.072 A 
ATOM      7  C   UNL     1      29.388 -30.775  26.248  1.00  0.00     0.169 A 
ATOM      8  C   UNL     1      29.078 -30.570  27.609  1.00  0.00     0.162 A 
ATOM      9  C   UNL     1      27.730 -30.534  28.027  1.00  0.00     0.008 A 
ATOM     10  C   UNL     1      25.957 -30.605  24.703  1.00  0.00     0.132 A 
ATOM     11  C   UNL     1      24.638 -30.309  25.106  1.00  0.00     0.031 A 
ENDROOT
BRANCH  11  12
ATOM     12  C   UNL     1      23.536 -30.277  24.110  1.00  0.00     0.031 A 
ATOM     13  C   UNL     1      23.162 -29.062  23.499  1.00  0.00     0.132 A 
ATOM     14  C   UNL     1      22.837 -31.458  23.805  1.00  0.00    -0.039 A 
ATOM     15  C   UNL     1      22.063 -29.023  22.596  1.00  0.00     0.039 A 
ATOM     16  C   UNL     1      21.676 -31.388  23.030  1.00  0.00     0.013 A 
ATOM     17  C   UNL     1      23.277 -32.789  24.360  1.00  0.00     0.045 C 
ATOM     18  C   UNL     1      21.221 -30.164  22.495  1.00  0.00    -0.006 A 
ATOM     19  C   UNL     1      21.762 -27.878  21.811  1.00  0.00     0.072 A 
ATOM     20  C   UNL     1      19.957 -30.063  21.847  1.00  0.00     0.008 A 
ATOM     21  C   UNL     1      20.604 -27.854  21.012  1.00  0.00     0.169 A 
ATOM     22  C   UNL     1      19.693 -28.929  21.048  1.00  0.00     0.162 A 
BRANCH  13  23
ATOM     23  O   UNL     1      23.851 -27.885  23.818  1.00  0.00    -0.507 OA
ATOM     24  H   UNL     1      23.519 -27.207  24.489  1.00  0.00     0.293 HD
ENDBRANCH  13  23
BRANCH  19  25
ATOM     25  C   UNL     1      22.715 -26.757  21.675  1.00  0.00     0.264 C 
ATOM     26  O   UNL     1      23.601 -26.770  20.778  1.00  0.00    -0.298 OA
ENDBRANCH  19  25
BRANCH  20  27
ATOM     27  C   UNL     1      18.871 -31.131  22.051  1.00  0.00     0.017 C 
ATOM     28  C   UNL     1      17.580 -30.575  22.682  1.00  0.00     0.012 C 
ATOM     29  C   UNL     1      18.579 -31.879  20.749  1.00  0.00     0.012 C 
ENDBRANCH  20  27
BRANCH  21  30
ATOM     30  O   UNL     1      20.404 -26.751  20.172  1.00  0.00    -0.504 OA
ATOM     31  H   UNL     1      21.034 -26.458  19.440  1.00  0.00     0.293 HD
ENDBRANCH  21  30
BRANCH  22  32
ATOM     32  O   UNL     1      18.522 -28.906  20.283  1.00  0.00    -0.504 OA
ATOM     33  H   UNL     1      17.959 -28.086  20.113  1.00  0.00     0.293 HD
ENDBRANCH  22  32
ENDBRANCH  11  12
BRANCH  10  34
ATOM     34  O   UNL     1      26.223 -30.830  23.348  1.00  0.00    -0.507 OA
ATOM     35  H   UNL     1      26.836 -31.557  23.007  1.00  0.00     0.293 HD
ENDBRANCH  10  34
BRANCH   9  36
ATOM     36  C   UNL     1      27.396 -30.627  29.525  1.00  0.00     0.017 C 
ATOM     37  C   UNL     1      27.604 -29.281  30.227  1.00  0.00     0.012 C 
ATOM     38  C   UNL     1      28.152 -31.759  30.243  1.00  0.00     0.012 C 
ENDBRANCH   9  36
BRANCH   6  39
ATOM     39  C   UNL     1      28.768 -31.242  23.925  1.00  0.00     0.264 C 
ATOM     40  O   UNL     1      29.219 -30.358  23.151  1.00  0.00    -0.298 OA
ENDBRANCH   6  39
BRANCH   8  41
ATOM     41  O   UNL     1      30.084 -30.405  28.566  1.00  0.00    -0.504 OA
ATOM     42  H   UNL     1      30.427 -31.128  29.178  1.00  0.00     0.293 HD
ENDBRANCH   8  41
BRANCH   7  43
ATOM     43  O   UNL     1      30.711 -30.902  25.802  1.00  0.00    -0.504 OA
ATOM     44  H   UNL     1      31.485 -31.225  26.364  1.00  0.00     0.293 HD
ENDBRANCH   7  43
TORSDOF 11
ENDMDL
