MODEL 1
REMARK VINA RESULT:    -3.958      0.000      0.000
REMARK INTER + INTRA:          -5.792
REMARK INTER:                  -5.347
REMARK INTRA:                  -0.445
REMARK UNBOUND:                -0.445
REMARK SMILES CCCCCCCC(=O)[O-]
REMARK SMILES IDX 5 1 6 2 7 3 8 4 9 5 10 6 4 7 3 8 2 9 1 10
REMARK H PARENT
REMARK Flexibility Score: inf
ROOT
ATOM      1  C   UNL     1     -47.720 -50.063  17.935  1.00  0.00     0.000 C 
ENDROOT
BRANCH   1   2
ATOM      2  C   UNL     1     -47.718 -50.215  16.404  1.00  0.00     0.006 C 
BRANCH   2   3
ATOM      3  C   UNL     1     -48.762 -51.232  15.921  1.00  0.00     0.053 C 
BRANCH   3   4
ATOM      4  C   UNL     1     -49.581 -50.694  14.788  1.00  0.00     0.041 C 
ATOM      5  O   UNL     1     -49.279 -49.593  14.254  1.00  0.00    -0.550 OA
ATOM      6  O   UNL     1     -50.698 -51.390  14.343  1.00  0.00    -0.550 OA
ENDBRANCH   3   4
ENDBRANCH   2   3
ENDBRANCH   1   2
BRANCH   1   7
ATOM      7  C   UNL     1     -48.975 -50.682  18.578  1.00  0.00     0.000 C 
BRANCH   7   8
ATOM      8  C   UNL     1     -49.705 -49.719  19.542  1.00  0.00    -0.000 C 
BRANCH   8   9
ATOM      9  C   UNL     1     -51.201 -49.556  19.226  1.00  0.00    -0.003 C 
ATOM     10  C   UNL     1     -51.701 -50.552  18.182  1.00  0.00     0.004 C 
ENDBRANCH   8   9
ENDBRANCH   7   8
ENDBRANCH   1   7
TORSDOF 6
ENDMDL
MODEL 2
REMARK VINA RESULT:    -3.954      1.906      3.045
REMARK INTER + INTRA:          -5.786
REMARK INTER:                  -5.331
REMARK INTRA:                  -0.455
REMARK UNBOUND:                -0.445
REMARK SMILES CCCCCCCC(=O)[O-]
REMARK SMILES IDX 5 1 6 2 7 3 8 4 9 5 10 6 4 7 3 8 2 9 1 10
REMARK H PARENT
REMARK Flexibility Score: inf
ROOT
ATOM      1  C   UNL     1     -48.742 -49.708  17.933  1.00  0.00     0.000 C 
ENDROOT
BRANCH   1   2
ATOM      2  C   UNL     1     -48.809 -51.017  17.125  1.00  0.00     0.006 C 
BRANCH   2   3
ATOM      3  C   UNL     1     -50.008 -51.044  16.167  1.00  0.00     0.053 C 
BRANCH   3   4
ATOM      4  C   UNL     1     -49.579 -50.947  14.734  1.00  0.00     0.041 C 
ATOM      5  O   UNL     1     -49.568 -49.831  14.151  1.00  0.00    -0.550 OA
ATOM      6  O   UNL     1     -49.224 -52.093  14.034  1.00  0.00    -0.550 OA
ENDBRANCH   3   4
ENDBRANCH   2   3
ENDBRANCH   1   2
BRANCH   1   7
ATOM      7  C   UNL     1     -47.370 -49.019  17.807  1.00  0.00     0.000 C 
BRANCH   7   8
ATOM      8  C   UNL     1     -47.070 -48.515  16.377  1.00  0.00    -0.000 C 
BRANCH   8   9
ATOM      9  C   UNL     1     -47.991 -47.369  15.927  1.00  0.00    -0.003 C 
ATOM     10  C   UNL     1     -48.004 -46.197  16.906  1.00  0.00     0.004 C 
ENDBRANCH   8   9
ENDBRANCH   7   8
ENDBRANCH   1   7
TORSDOF 6
ENDMDL
MODEL 3
REMARK VINA RESULT:    -3.939      2.220      3.960
REMARK INTER + INTRA:          -5.765
REMARK INTER:                  -5.313
REMARK INTRA:                  -0.452
REMARK UNBOUND:                -0.445
REMARK SMILES CCCCCCCC(=O)[O-]
REMARK SMILES IDX 5 1 6 2 7 3 8 4 9 5 10 6 4 7 3 8 2 9 1 10
REMARK H PARENT
REMARK Flexibility Score: inf
ROOT
ATOM      1  C   UNL     1     -47.812 -49.646  18.260  1.00  0.00     0.000 C 
ENDROOT
BRANCH   1   2
ATOM      2  C   UNL     1     -48.937 -50.463  18.920  1.00  0.00     0.006 C 
BRANCH   2   3
ATOM      3  C   UNL     1     -50.247 -49.670  19.020  1.00  0.00     0.053 C 
BRANCH   3   4
ATOM      4  C   UNL     1     -51.446 -50.546  18.817  1.00  0.00     0.041 C 
ATOM      5  O   UNL     1     -52.088 -50.500  17.735  1.00  0.00    -0.550 OA
ATOM      6  O   UNL     1     -51.874 -51.389  19.836  1.00  0.00    -0.550 OA
ENDBRANCH   3   4
ENDBRANCH   2   3
ENDBRANCH   1   2
BRANCH   1   7
ATOM      7  C   UNL     1     -47.555 -50.081  16.806  1.00  0.00     0.000 C 
BRANCH   7   8
ATOM      8  C   UNL     1     -48.136 -51.475  16.475  1.00  0.00    -0.000 C 
BRANCH   8   9
ATOM      9  C   UNL     1     -49.177 -51.449  15.343  1.00  0.00    -0.003 C 
ATOM     10  C   UNL     1     -49.230 -50.108  14.614  1.00  0.00     0.004 C 
ENDBRANCH   8   9
ENDBRANCH   7   8
ENDBRANCH   1   7
TORSDOF 6
ENDMDL
MODEL 4
REMARK VINA RESULT:    -3.930      2.264      4.065
REMARK INTER + INTRA:          -5.754
REMARK INTER:                  -5.296
REMARK INTRA:                  -0.458
REMARK UNBOUND:                -0.445
REMARK SMILES CCCCCCCC(=O)[O-]
REMARK SMILES IDX 5 1 6 2 7 3 8 4 9 5 10 6 4 7 3 8 2 9 1 10
REMARK H PARENT
REMARK Flexibility Score: inf
ROOT
ATOM      1  C   UNL     1     -48.396 -51.192  18.061  1.00  0.00     0.000 C 
ENDROOT
BRANCH   1   2
ATOM      2  C   UNL     1     -49.163 -49.880  18.301  1.00  0.00     0.006 C 
BRANCH   2   3
ATOM      3  C   UNL     1     -50.169 -49.999  19.454  1.00  0.00     0.053 C 
BRANCH   3   4
ATOM      4  C   UNL     1     -51.392 -50.765  19.049  1.00  0.00     0.041 C 
ATOM      5  O   UNL     1     -51.956 -51.536  19.869  1.00  0.00    -0.550 OA
ATOM      6  O   UNL     1     -51.888 -50.653  17.756  1.00  0.00    -0.550 OA
ENDBRANCH   3   4
ENDBRANCH   2   3
ENDBRANCH   1   2
BRANCH   1   7
ATOM      7  C   UNL     1     -48.309 -51.548  16.565  1.00  0.00     0.000 C 
BRANCH   7   8
ATOM      8  C   UNL     1     -48.097 -50.315  15.657  1.00  0.00    -0.000 C 
BRANCH   8   9
ATOM      9  C   UNL     1     -49.173 -50.167  14.568  1.00  0.00    -0.003 C 
ATOM     10  C   UNL     1     -50.280 -51.214  14.679  1.00  0.00     0.004 C 
ENDBRANCH   8   9
ENDBRANCH   7   8
ENDBRANCH   1   7
TORSDOF 6
ENDMDL
MODEL 5
REMARK VINA RESULT:    -3.889     14.680     15.808
REMARK INTER + INTRA:          -5.699
REMARK INTER:                  -5.261
REMARK INTRA:                  -0.437
REMARK UNBOUND:                -0.445
REMARK SMILES CCCCCCCC(=O)[O-]
REMARK SMILES IDX 5 1 6 2 7 3 8 4 9 5 10 6 4 7 3 8 2 9 1 10
REMARK H PARENT
REMARK Flexibility Score: inf
ROOT
ATOM      1  C   UNL     1     -45.284 -51.835  31.627  1.00  0.00     0.000 C 
ENDROOT
BRANCH   1   2
ATOM      2  C   UNL     1     -44.724 -51.088  30.404  1.00  0.00     0.006 C 
BRANCH   2   3
ATOM      3  C   UNL     1     -43.673 -50.040  30.796  1.00  0.00     0.053 C 
BRANCH   3   4
ATOM      4  C   UNL     1     -42.283 -50.595  30.736  1.00  0.00     0.041 C 
ATOM      5  O   UNL     1     -41.364 -50.077  31.423  1.00  0.00    -0.550 OA
ATOM      6  O   UNL     1     -41.994 -51.663  29.895  1.00  0.00    -0.550 OA
ENDBRANCH   3   4
ENDBRANCH   2   3
ENDBRANCH   1   2
BRANCH   1   7
ATOM      7  C   UNL     1     -46.608 -51.225  32.122  1.00  0.00     0.000 C 
BRANCH   7   8
ATOM      8  C   UNL     1     -46.555 -50.766  33.597  1.00  0.00    -0.000 C 
BRANCH   8   9
ATOM      9  C   UNL     1     -46.914 -49.283  33.789  1.00  0.00    -0.003 C 
ATOM     10  C   UNL     1     -46.633 -48.437  32.548  1.00  0.00     0.004 C 
ENDBRANCH   8   9
ENDBRANCH   7   8
ENDBRANCH   1   7
TORSDOF 6
ENDMDL
MODEL 6
REMARK VINA RESULT:    -3.830     14.927     16.232
REMARK INTER + INTRA:          -5.618
REMARK INTER:                  -5.196
REMARK INTRA:                  -0.422
REMARK UNBOUND:                -0.445
REMARK SMILES CCCCCCCC(=O)[O-]
REMARK SMILES IDX 5 1 6 2 7 3 8 4 9 5 10 6 4 7 3 8 2 9 1 10
REMARK H PARENT
REMARK Flexibility Score: inf
ROOT
ATOM      1  C   UNL     1     -41.544 -48.004  28.164  1.00  0.00     0.000 C 
ENDROOT
BRANCH   1   2
ATOM      2  C   UNL     1     -41.024 -49.390  28.584  1.00  0.00     0.006 C 
BRANCH   2   3
ATOM      3  C   UNL     1     -41.948 -50.071  29.603  1.00  0.00     0.053 C 
BRANCH   3   4
ATOM      4  C   UNL     1     -41.370 -50.044  30.985  1.00  0.00     0.041 C 
ATOM      5  O   UNL     1     -41.923 -50.688  31.915  1.00  0.00    -0.550 OA
ATOM      6  O   UNL     1     -40.240 -49.281  31.253  1.00  0.00    -0.550 OA
ENDBRANCH   3   4
ENDBRANCH   2   3
ENDBRANCH   1   2
BRANCH   1   7
ATOM      7  C   UNL     1     -40.401 -47.052  27.766  1.00  0.00     0.000 C 
BRANCH   7   8
ATOM      8  C   UNL     1     -39.404 -46.782  28.916  1.00  0.00    -0.000 C 
BRANCH   8   9
ATOM      9  C   UNL     1     -37.945 -47.095  28.544  1.00  0.00    -0.003 C 
ATOM     10  C   UNL     1     -37.535 -48.524  28.894  1.00  0.00     0.004 C 
ENDBRANCH   8   9
ENDBRANCH   7   8
ENDBRANCH   1   7
TORSDOF 6
ENDMDL
MODEL 7
REMARK VINA RESULT:    -3.796     14.539     15.862
REMARK INTER + INTRA:          -5.573
REMARK INTER:                  -5.089
REMARK INTRA:                  -0.484
REMARK UNBOUND:                -0.445
REMARK SMILES CCCCCCCC(=O)[O-]
REMARK SMILES IDX 5 1 6 2 7 3 8 4 9 5 10 6 4 7 3 8 2 9 1 10
REMARK H PARENT
REMARK Flexibility Score: inf
ROOT
ATOM      1  C   UNL     1     -45.900 -49.865  31.123  1.00  0.00     0.000 C 
ENDROOT
BRANCH   1   2
ATOM      2  C   UNL     1     -44.840 -50.611  30.294  1.00  0.00     0.006 C 
BRANCH   2   3
ATOM      3  C   UNL     1     -43.542 -49.806  30.154  1.00  0.00     0.053 C 
BRANCH   3   4
ATOM      4  C   UNL     1     -42.339 -50.618  30.525  1.00  0.00     0.041 C 
ATOM      5  O   UNL     1     -41.598 -50.255  31.476  1.00  0.00    -0.550 OA
ATOM      6  O   UNL     1     -42.017 -51.758  29.799  1.00  0.00    -0.550 OA
ENDBRANCH   3   4
ENDBRANCH   2   3
ENDBRANCH   1   2
BRANCH   1   7
ATOM      7  C   UNL     1     -46.629 -50.798  32.108  1.00  0.00     0.000 C 
BRANCH   7   8
ATOM      8  C   UNL     1     -45.885 -52.131  32.350  1.00  0.00    -0.000 C 
BRANCH   8   9
ATOM      9  C   UNL     1     -45.285 -52.249  33.760  1.00  0.00    -0.003 C 
ATOM     10  C   UNL     1     -43.830 -51.790  33.829  1.00  0.00     0.004 C 
ENDBRANCH   8   9
ENDBRANCH   7   8
ENDBRANCH   1   7
TORSDOF 6
ENDMDL
MODEL 8
REMARK VINA RESULT:    -3.764      2.323      3.996
REMARK INTER + INTRA:          -5.530
REMARK INTER:                  -5.000
REMARK INTRA:                  -0.529
REMARK UNBOUND:                -0.445
REMARK SMILES CCCCCCCC(=O)[O-]
REMARK SMILES IDX 5 1 6 2 7 3 8 4 9 5 10 6 4 7 3 8 2 9 1 10
REMARK H PARENT
REMARK Flexibility Score: inf
ROOT
ATOM      1  C   UNL     1     -47.917 -48.387  18.974  1.00  0.00     0.000 C 
ENDROOT
BRANCH   1   2
ATOM      2  C   UNL     1     -49.438 -48.574  19.118  1.00  0.00     0.006 C 
BRANCH   2   3
ATOM      3  C   UNL     1     -49.819 -50.036  19.386  1.00  0.00     0.053 C 
BRANCH   3   4
ATOM      4  C   UNL     1     -51.182 -50.363  18.856  1.00  0.00     0.041 C 
ATOM      5  O   UNL     1     -51.338 -50.637  17.637  1.00  0.00    -0.550 OA
ATOM      6  O   UNL     1     -52.284 -50.331  19.701  1.00  0.00    -0.550 OA
ENDBRANCH   3   4
ENDBRANCH   2   3
ENDBRANCH   1   2
BRANCH   1   7
ATOM      7  C   UNL     1     -47.292 -49.427  18.026  1.00  0.00     0.000 C 
BRANCH   7   8
ATOM      8  C   UNL     1     -47.402 -49.037  16.535  1.00  0.00    -0.000 C 
BRANCH   8   9
ATOM      9  C   UNL     1     -47.970 -50.160  15.650  1.00  0.00    -0.003 C 
ATOM     10  C   UNL     1     -48.136 -51.481  16.399  1.00  0.00     0.004 C 
ENDBRANCH   8   9
ENDBRANCH   7   8
ENDBRANCH   1   7
TORSDOF 6
ENDMDL
MODEL 9
REMARK VINA RESULT:    -3.751      4.464      6.273
REMARK INTER + INTRA:          -5.512
REMARK INTER:                  -5.085
REMARK INTRA:                  -0.427
REMARK UNBOUND:                -0.445
REMARK SMILES CCCCCCCC(=O)[O-]
REMARK SMILES IDX 5 1 6 2 7 3 8 4 9 5 10 6 4 7 3 8 2 9 1 10
REMARK H PARENT
REMARK Flexibility Score: inf
ROOT
ATOM      1  C   UNL     1     -53.323 -48.642  22.243  1.00  0.00     0.000 C 
ENDROOT
BRANCH   1   2
ATOM      2  C   UNL     1     -51.812 -48.845  22.034  1.00  0.00     0.006 C 
BRANCH   2   3
ATOM      3  C   UNL     1     -51.433 -48.881  20.547  1.00  0.00     0.053 C 
BRANCH   3   4
ATOM      4  C   UNL     1     -52.177 -49.951  19.808  1.00  0.00     0.041 C 
ATOM      5  O   UNL     1     -52.050 -51.158  20.144  1.00  0.00    -0.550 OA
ATOM      6  O   UNL     1     -52.983 -49.618  18.726  1.00  0.00    -0.550 OA
ENDBRANCH   3   4
ENDBRANCH   2   3
ENDBRANCH   1   2
BRANCH   1   7
ATOM      7  C   UNL     1     -53.689 -47.157  22.423  1.00  0.00     0.000 C 
BRANCH   7   8
ATOM      8  C   UNL     1     -55.002 -46.762  21.709  1.00  0.00    -0.000 C 
BRANCH   8   9
ATOM      9  C   UNL     1     -55.446 -47.776  20.642  1.00  0.00    -0.003 C 
ATOM     10  C   UNL     1     -56.789 -48.428  20.963  1.00  0.00     0.004 C 
ENDBRANCH   8   9
ENDBRANCH   7   8
ENDBRANCH   1   7
TORSDOF 6
ENDMDL
