MODEL 1
REMARK VINA RESULT:    -6.457      0.000      0.000
REMARK INTER + INTRA:          -7.023
REMARK INTER:                  -7.023
REMARK INTRA:                   0.000
REMARK UNBOUND:                 0.000
REMARK SMILES Cc1cc(O)c2c(c1)C(=O)c1cc(O)cc(O)c1C2=O
REMARK SMILES IDX 1 1 2 2 8 3 7 4 6 5 4 6 3 7 19 8 20 9 18 10 11 11 9 12 10 13
REMARK SMILES IDX 12 14 13 15 15 16 16 17 5 18 17 20 14 22
REMARK H PARENT 5 19 17 21 14 23
REMARK Flexibility Score: inf
ROOT
ATOM      1  C   UNL     1       7.237 -14.952 -48.880  1.00  0.00     0.044 C 
ATOM      2  C   UNL     1       8.259 -14.230 -48.051  1.00  0.00    -0.047 A 
ATOM      3  C   UNL     1       7.892 -13.105 -47.304  1.00  0.00     0.016 A 
ATOM      4  C   UNL     1       8.830 -12.449 -46.490  1.00  0.00     0.038 A 
ATOM      5  C   UNL     1      10.152 -12.942 -46.401  1.00  0.00     0.076 A 
ATOM      6  C   UNL     1      10.530 -14.055 -47.196  1.00  0.00     0.127 A 
ATOM      7  C   UNL     1       9.573 -14.703 -47.983  1.00  0.00     0.050 A 
ATOM      8  C   UNL     1      11.071 -12.312 -45.419  1.00  0.00     0.201 C 
ATOM      9  O   UNL     1      11.984 -12.996 -44.886  1.00  0.00    -0.288 OA
ATOM     10  C   UNL     1      10.797 -10.936 -44.929  1.00  0.00     0.076 A 
ATOM     11  C   UNL     1       9.475 -10.447 -45.019  1.00  0.00     0.041 A 
ATOM     12  C   UNL     1       8.442 -11.239 -45.726  1.00  0.00     0.194 C 
ATOM     13  O   UNL     1       7.235 -10.871 -45.700  1.00  0.00    -0.289 OA
ATOM     14  C   UNL     1       9.146  -9.208 -44.443  1.00  0.00     0.059 A 
ATOM     15  C   UNL     1      10.123  -8.447 -43.793  1.00  0.00     0.120 A 
ATOM     16  C   UNL     1      11.437  -8.909 -43.737  1.00  0.00     0.093 A 
ATOM     17  C   UNL     1      11.794 -10.128 -44.321  1.00  0.00     0.131 A 
ENDROOT
BRANCH   6  18
ATOM     18  O   UNL     1      11.843 -14.527 -47.259  1.00  0.00    -0.507 OA
ATOM     19  H   UNL     1      12.392 -14.765 -46.445  1.00  0.00     0.293 HD
ENDBRANCH   6  18
BRANCH  17  20
ATOM     20  O   UNL     1      13.145 -10.481 -44.304  1.00  0.00    -0.507 OA
ATOM     21  H   UNL     1      13.898  -9.808 -44.254  1.00  0.00     0.293 HD
ENDBRANCH  17  20
BRANCH  15  22
ATOM     22  O   UNL     1       9.799  -7.225 -43.209  1.00  0.00    -0.508 OA
ATOM     23  H   UNL     1      10.178  -6.949 -42.310  1.00  0.00     0.293 HD
ENDBRANCH  15  22
TORSDOF 3
ENDMDL
MODEL 2
REMARK VINA RESULT:    -6.309      2.185      5.633
REMARK INTER + INTRA:          -6.862
REMARK INTER:                  -6.862
REMARK INTRA:                   0.000
REMARK UNBOUND:                 0.000
REMARK SMILES Cc1cc(O)c2c(c1)C(=O)c1cc(O)cc(O)c1C2=O
REMARK SMILES IDX 1 1 2 2 8 3 7 4 6 5 4 6 3 7 19 8 20 9 18 10 11 11 9 12 10 13
REMARK SMILES IDX 12 14 13 15 15 16 16 17 5 18 17 20 14 22
REMARK H PARENT 5 19 17 21 14 23
REMARK Flexibility Score: inf
ROOT
ATOM      1  C   UNL     1      15.478 -12.668 -43.513  1.00  0.00     0.044 C 
ATOM      2  C   UNL     1      14.110 -12.183 -43.894  1.00  0.00    -0.047 A 
ATOM      3  C   UNL     1      13.045 -13.085 -43.994  1.00  0.00     0.016 A 
ATOM      4  C   UNL     1      11.751 -12.635 -44.306  1.00  0.00     0.038 A 
ATOM      5  C   UNL     1      11.513 -11.255 -44.494  1.00  0.00     0.076 A 
ATOM      6  C   UNL     1      12.605 -10.350 -44.437  1.00  0.00     0.127 A 
ATOM      7  C   UNL     1      13.879 -10.820 -44.106  1.00  0.00     0.050 A 
ATOM      8  C   UNL     1      10.109 -10.803 -44.676  1.00  0.00     0.201 C 
ATOM      9  O   UNL     1       9.764  -9.657 -44.286  1.00  0.00    -0.288 OA
ATOM     10  C   UNL     1       9.078 -11.768 -45.140  1.00  0.00     0.076 A 
ATOM     11  C   UNL     1       9.320 -13.146 -44.949  1.00  0.00     0.041 A 
ATOM     12  C   UNL     1      10.635 -13.601 -44.441  1.00  0.00     0.194 C 
ATOM     13  O   UNL     1      10.813 -14.816 -44.148  1.00  0.00    -0.289 OA
ATOM     14  C   UNL     1       8.313 -14.081 -45.248  1.00  0.00     0.059 A 
ATOM     15  C   UNL     1       7.078 -13.657 -45.747  1.00  0.00     0.120 A 
ATOM     16  C   UNL     1       6.851 -12.301 -45.974  1.00  0.00     0.093 A 
ATOM     17  C   UNL     1       7.843 -11.353 -45.705  1.00  0.00     0.131 A 
ENDROOT
BRANCH   6  18
ATOM     18  O   UNL     1      12.476  -8.991 -44.732  1.00  0.00    -0.507 OA
ATOM     19  H   UNL     1      12.547  -8.612 -45.666  1.00  0.00     0.293 HD
ENDBRANCH   6  18
BRANCH  17  20
ATOM     20  O   UNL     1       7.575 -10.025 -46.043  1.00  0.00    -0.507 OA
ATOM     21  H   UNL     1       7.612  -9.261 -45.382  1.00  0.00     0.293 HD
ENDBRANCH  17  20
BRANCH  15  22
ATOM     22  O   UNL     1       6.074 -14.579 -46.032  1.00  0.00    -0.508 OA
ATOM     23  H   UNL     1       5.950 -15.419 -45.476  1.00  0.00     0.293 HD
ENDBRANCH  15  22
TORSDOF 3
ENDMDL
MODEL 3
REMARK VINA RESULT:    -6.307      2.522      5.636
REMARK INTER + INTRA:          -6.860
REMARK INTER:                  -6.860
REMARK INTRA:                   0.000
REMARK UNBOUND:                 0.000
REMARK SMILES Cc1cc(O)c2c(c1)C(=O)c1cc(O)cc(O)c1C2=O
REMARK SMILES IDX 1 1 2 2 8 3 7 4 6 5 4 6 3 7 19 8 20 9 18 10 11 11 9 12 10 13
REMARK SMILES IDX 12 14 13 15 15 16 16 17 5 18 17 20 14 22
REMARK H PARENT 5 19 17 21 14 23
REMARK Flexibility Score: inf
ROOT
ATOM      1  C   UNL     1      11.344  -8.121 -44.631  1.00  0.00     0.044 C 
ATOM      2  C   UNL     1      10.922  -9.552 -44.470  1.00  0.00    -0.047 A 
ATOM      3  C   UNL     1       9.795 -10.034 -45.144  1.00  0.00     0.016 A 
ATOM      4  C   UNL     1       9.417 -11.382 -45.036  1.00  0.00     0.038 A 
ATOM      5  C   UNL     1      10.196 -12.271 -44.261  1.00  0.00     0.076 A 
ATOM      6  C   UNL     1      11.312 -11.767 -43.543  1.00  0.00     0.127 A 
ATOM      7  C   UNL     1      11.679 -10.425 -43.683  1.00  0.00     0.050 A 
ATOM      8  C   UNL     1       9.851 -13.716 -44.290  1.00  0.00     0.201 C 
ATOM      9  O   UNL     1      10.754 -14.580 -44.136  1.00  0.00    -0.288 OA
ATOM     10  C   UNL     1       8.483 -14.140 -44.687  1.00  0.00     0.076 A 
ATOM     11  C   UNL     1       7.708 -13.249 -45.463  1.00  0.00     0.041 A 
ATOM     12  C   UNL     1       8.203 -11.878 -45.728  1.00  0.00     0.194 C 
ATOM     13  O   UNL     1       7.578 -11.123 -46.523  1.00  0.00    -0.289 OA
ATOM     14  C   UNL     1       6.466 -13.665 -45.974  1.00  0.00     0.059 A 
ATOM     15  C   UNL     1       5.986 -14.951 -45.709  1.00  0.00     0.120 A 
ATOM     16  C   UNL     1       6.730 -15.818 -44.911  1.00  0.00     0.093 A 
ATOM     17  C   UNL     1       7.959 -15.421 -44.373  1.00  0.00     0.131 A 
ENDROOT
BRANCH   6  18
ATOM     18  O   UNL     1      12.059 -12.550 -42.660  1.00  0.00    -0.507 OA
ATOM     19  H   UNL     1      11.653 -13.244 -42.047  1.00  0.00     0.293 HD
ENDBRANCH   6  18
BRANCH  17  20
ATOM     20  O   UNL     1       8.603 -16.310 -43.510  1.00  0.00    -0.507 OA
ATOM     21  H   UNL     1       8.836 -17.261 -43.760  1.00  0.00     0.293 HD
ENDBRANCH  17  20
BRANCH  15  22
ATOM     22  O   UNL     1       4.762 -15.372 -46.224  1.00  0.00    -0.508 OA
ATOM     23  H   UNL     1       4.615 -15.479 -47.222  1.00  0.00     0.293 HD
ENDBRANCH  15  22
TORSDOF 3
ENDMDL
MODEL 4
REMARK VINA RESULT:    -6.162      2.439      5.253
REMARK INTER + INTRA:          -6.703
REMARK INTER:                  -6.703
REMARK INTRA:                   0.000
REMARK UNBOUND:                 0.000
REMARK SMILES Cc1cc(O)c2c(c1)C(=O)c1cc(O)cc(O)c1C2=O
REMARK SMILES IDX 1 1 2 2 8 3 7 4 6 5 4 6 3 7 19 8 20 9 18 10 11 11 9 12 10 13
REMARK SMILES IDX 12 14 13 15 15 16 16 17 5 18 17 20 14 22
REMARK H PARENT 5 19 17 21 14 23
REMARK Flexibility Score: inf
ROOT
ATOM      1  C   UNL     1      16.372 -11.904 -42.650  1.00  0.00     0.044 C 
ATOM      2  C   UNL     1      15.180 -12.367 -43.434  1.00  0.00    -0.047 A 
ATOM      3  C   UNL     1      14.076 -11.523 -43.602  1.00  0.00     0.016 A 
ATOM      4  C   UNL     1      12.974 -11.930 -44.372  1.00  0.00     0.038 A 
ATOM      5  C   UNL     1      12.986 -13.193 -45.007  1.00  0.00     0.076 A 
ATOM      6  C   UNL     1      14.088 -14.062 -44.796  1.00  0.00     0.127 A 
ATOM      7  C   UNL     1      15.181 -13.627 -44.042  1.00  0.00     0.050 A 
ATOM      8  C   UNL     1      11.870 -13.525 -45.929  1.00  0.00     0.201 C 
ATOM      9  O   UNL     1      12.073 -14.291 -46.909  1.00  0.00    -0.288 OA
ATOM     10  C   UNL     1      10.573 -12.810 -45.807  1.00  0.00     0.076 A 
ATOM     11  C   UNL     1      10.565 -11.548 -45.173  1.00  0.00     0.041 A 
ATOM     12  C   UNL     1      11.795 -11.043 -44.518  1.00  0.00     0.194 C 
ATOM     13  O   UNL     1      11.830  -9.867 -44.063  1.00  0.00    -0.289 OA
ATOM     14  C   UNL     1       9.389 -10.779 -45.159  1.00  0.00     0.059 A 
ATOM     15  C   UNL     1       8.220 -11.261 -45.757  1.00  0.00     0.120 A 
ATOM     16  C   UNL     1       8.215 -12.523 -46.349  1.00  0.00     0.093 A 
ATOM     17  C   UNL     1       9.367 -13.316 -46.358  1.00  0.00     0.131 A 
ENDROOT
BRANCH   6  18
ATOM     18  O   UNL     1      14.122 -15.370 -45.285  1.00  0.00    -0.507 OA
ATOM     19  H   UNL     1      14.361 -16.173 -44.720  1.00  0.00     0.293 HD
ENDBRANCH   6  18
BRANCH  17  20
ATOM     20  O   UNL     1       9.260 -14.603 -46.889  1.00  0.00    -0.507 OA
ATOM     21  H   UNL     1       9.950 -15.015 -47.501  1.00  0.00     0.293 HD
ENDBRANCH  17  20
BRANCH  15  22
ATOM     22  O   UNL     1       7.056 -10.497 -45.757  1.00  0.00    -0.508 OA
ATOM     23  H   UNL     1       6.679 -10.103 -44.902  1.00  0.00     0.293 HD
ENDBRANCH  15  22
TORSDOF 3
ENDMDL
MODEL 5
REMARK VINA RESULT:    -6.089      2.739      4.498
REMARK INTER + INTRA:          -6.623
REMARK INTER:                  -6.623
REMARK INTRA:                   0.000
REMARK UNBOUND:                 0.000
REMARK SMILES Cc1cc(O)c2c(c1)C(=O)c1cc(O)cc(O)c1C2=O
REMARK SMILES IDX 1 1 2 2 8 3 7 4 6 5 4 6 3 7 19 8 20 9 18 10 11 11 9 12 10 13
REMARK SMILES IDX 12 14 13 15 15 16 16 17 5 18 17 20 14 22
REMARK H PARENT 5 19 17 21 14 23
REMARK Flexibility Score: inf
ROOT
ATOM      1  C   UNL     1       7.497 -11.122 -45.758  1.00  0.00     0.044 C 
ATOM      2  C   UNL     1       8.869 -11.721 -45.867  1.00  0.00    -0.047 A 
ATOM      3  C   UNL     1       9.820 -11.490 -44.867  1.00  0.00     0.016 A 
ATOM      4  C   UNL     1      11.092 -12.081 -44.937  1.00  0.00     0.038 A 
ATOM      5  C   UNL     1      11.410 -12.941 -46.013  1.00  0.00     0.076 A 
ATOM      6  C   UNL     1      10.458 -13.135 -47.048  1.00  0.00     0.127 A 
ATOM      7  C   UNL     1       9.192 -12.551 -46.945  1.00  0.00     0.050 A 
ATOM      8  C   UNL     1      12.708 -13.662 -45.975  1.00  0.00     0.201 C 
ATOM      9  O   UNL     1      12.813 -14.793 -46.519  1.00  0.00    -0.288 OA
ATOM     10  C   UNL     1      13.819 -13.139 -45.138  1.00  0.00     0.076 A 
ATOM     11  C   UNL     1      13.497 -12.281 -44.063  1.00  0.00     0.041 A 
ATOM     12  C   UNL     1      12.104 -11.806 -43.889  1.00  0.00     0.194 C 
ATOM     13  O   UNL     1      11.785 -11.146 -42.862  1.00  0.00    -0.289 OA
ATOM     14  C   UNL     1      14.501 -11.876 -43.166  1.00  0.00     0.059 A 
ATOM     15  C   UNL     1      15.820 -12.305 -43.338  1.00  0.00     0.120 A 
ATOM     16  C   UNL     1      16.148 -13.119 -44.421  1.00  0.00     0.093 A 
ATOM     17  C   UNL     1      15.172 -13.519 -45.339  1.00  0.00     0.131 A 
ENDROOT
BRANCH   6  18
ATOM     18  O   UNL     1      10.738 -13.868 -48.203  1.00  0.00    -0.507 OA
ATOM     19  H   UNL     1      10.534 -14.853 -48.304  1.00  0.00     0.293 HD
ENDBRANCH   6  18
BRANCH  17  20
ATOM     20  O   UNL     1      15.592 -14.259 -46.447  1.00  0.00    -0.507 OA
ATOM     21  H   UNL     1      16.520 -14.195 -46.842  1.00  0.00     0.293 HD
ENDBRANCH  17  20
BRANCH  15  22
ATOM     22  O   UNL     1      16.815 -11.916 -42.445  1.00  0.00    -0.508 OA
ATOM     23  H   UNL     1      17.773 -11.772 -42.746  1.00  0.00     0.293 HD
ENDBRANCH  15  22
TORSDOF 3
ENDMDL
MODEL 6
REMARK VINA RESULT:    -5.994     12.926     14.241
REMARK INTER + INTRA:          -6.520
REMARK INTER:                  -6.520
REMARK INTRA:                   0.000
REMARK UNBOUND:                 0.000
REMARK SMILES Cc1cc(O)c2c(c1)C(=O)c1cc(O)cc(O)c1C2=O
REMARK SMILES IDX 1 1 2 2 8 3 7 4 6 5 4 6 3 7 19 8 20 9 18 10 11 11 9 12 10 13
REMARK SMILES IDX 12 14 13 15 15 16 16 17 5 18 17 20 14 22
REMARK H PARENT 5 19 17 21 14 23
REMARK Flexibility Score: inf
ROOT
ATOM      1  C   UNL     1      16.811 -21.283 -40.028  1.00  0.00     0.044 C 
ATOM      2  C   UNL     1      15.589 -21.928 -39.443  1.00  0.00    -0.047 A 
ATOM      3  C   UNL     1      14.585 -21.142 -38.865  1.00  0.00     0.016 A 
ATOM      4  C   UNL     1      13.417 -21.732 -38.355  1.00  0.00     0.038 A 
ATOM      5  C   UNL     1      13.237 -23.131 -38.449  1.00  0.00     0.076 A 
ATOM      6  C   UNL     1      14.277 -23.928 -38.994  1.00  0.00     0.127 A 
ATOM      7  C   UNL     1      15.422 -23.315 -39.512  1.00  0.00     0.050 A 
ATOM      8  C   UNL     1      11.929 -23.699 -38.033  1.00  0.00     0.201 C 
ATOM      9  O   UNL     1      11.495 -24.744 -38.587  1.00  0.00    -0.288 OA
ATOM     10  C   UNL     1      11.052 -22.935 -37.108  1.00  0.00     0.076 A 
ATOM     11  C   UNL     1      11.235 -21.537 -37.018  1.00  0.00     0.041 A 
ATOM     12  C   UNL     1      12.374 -20.895 -37.716  1.00  0.00     0.194 C 
ATOM     13  O   UNL     1      12.468 -19.637 -37.745  1.00  0.00    -0.289 OA
ATOM     14  C   UNL     1      10.340 -20.762 -36.261  1.00  0.00     0.059 A 
ATOM     15  C   UNL     1       9.277 -21.366 -35.584  1.00  0.00     0.120 A 
ATOM     16  C   UNL     1       9.117 -22.750 -35.638  1.00  0.00     0.093 A 
ATOM     17  C   UNL     1      10.007 -23.545 -36.367  1.00  0.00     0.131 A 
ENDROOT
BRANCH   6  18
ATOM     18  O   UNL     1      14.230 -25.323 -39.010  1.00  0.00    -0.507 OA
ATOM     19  H   UNL     1      13.571 -25.867 -38.470  1.00  0.00     0.293 HD
ENDBRANCH   6  18
BRANCH  17  20
ATOM     20  O   UNL     1       9.836 -24.930 -36.300  1.00  0.00    -0.507 OA
ATOM     21  H   UNL     1       9.264 -25.455 -36.947  1.00  0.00     0.293 HD
ENDBRANCH  17  20
BRANCH  15  22
ATOM     22  O   UNL     1       8.379 -20.600 -34.843  1.00  0.00    -0.508 OA
ATOM     23  H   UNL     1       7.481 -20.321 -35.222  1.00  0.00     0.293 HD
ENDBRANCH  15  22
TORSDOF 3
ENDMDL
MODEL 7
REMARK VINA RESULT:    -5.917      2.638      4.525
REMARK INTER + INTRA:          -6.436
REMARK INTER:                  -6.436
REMARK INTRA:                   0.000
REMARK UNBOUND:                 0.000
REMARK SMILES Cc1cc(O)c2c(c1)C(=O)c1cc(O)cc(O)c1C2=O
REMARK SMILES IDX 1 1 2 2 8 3 7 4 6 5 4 6 3 7 19 8 20 9 18 10 11 11 9 12 10 13
REMARK SMILES IDX 12 14 13 15 15 16 16 17 5 18 17 20 14 22
REMARK H PARENT 5 19 17 21 14 23
REMARK Flexibility Score: inf
ROOT
ATOM      1  C   UNL     1      15.649 -16.008 -46.620  1.00  0.00     0.044 C 
ATOM      2  C   UNL     1      14.892 -14.866 -46.007  1.00  0.00    -0.047 A 
ATOM      3  C   UNL     1      13.544 -14.664 -46.324  1.00  0.00     0.016 A 
ATOM      4  C   UNL     1      12.814 -13.626 -45.722  1.00  0.00     0.038 A 
ATOM      5  C   UNL     1      13.436 -12.791 -44.766  1.00  0.00     0.076 A 
ATOM      6  C   UNL     1      14.815 -12.972 -44.482  1.00  0.00     0.127 A 
ATOM      7  C   UNL     1      15.514 -14.024 -45.080  1.00  0.00     0.050 A 
ATOM      8  C   UNL     1      12.595 -11.802 -44.044  1.00  0.00     0.201 C 
ATOM      9  O   UNL     1      12.892 -11.465 -42.867  1.00  0.00    -0.288 OA
ATOM     10  C   UNL     1      11.305 -11.358 -44.636  1.00  0.00     0.076 A 
ATOM     11  C   UNL     1      10.687 -12.196 -45.591  1.00  0.00     0.041 A 
ATOM     12  C   UNL     1      11.395 -13.399 -46.087  1.00  0.00     0.194 C 
ATOM     13  O   UNL     1      10.799 -14.217 -46.839  1.00  0.00    -0.289 OA
ATOM     14  C   UNL     1       9.404 -11.880 -46.071  1.00  0.00     0.059 A 
ATOM     15  C   UNL     1       8.741 -10.735 -45.622  1.00  0.00     0.120 A 
ATOM     16  C   UNL     1       9.366  -9.885 -44.710  1.00  0.00     0.093 A 
ATOM     17  C   UNL     1      10.650 -10.166 -44.233  1.00  0.00     0.131 A 
ENDROOT
BRANCH   6  18
ATOM     18  O   UNL     1      15.533 -12.115 -43.645  1.00  0.00    -0.507 OA
ATOM     19  H   UNL     1      16.500 -12.261 -43.391  1.00  0.00     0.293 HD
ENDBRANCH   6  18
BRANCH  17  20
ATOM     20  O   UNL     1      11.246  -9.222 -43.392  1.00  0.00    -0.507 OA
ATOM     21  H   UNL     1      10.850  -8.931 -42.510  1.00  0.00     0.293 HD
ENDBRANCH  17  20
BRANCH  15  22
ATOM     22  O   UNL     1       7.464 -10.425 -46.085  1.00  0.00    -0.508 OA
ATOM     23  H   UNL     1       7.042  -9.520 -45.913  1.00  0.00     0.293 HD
ENDBRANCH  15  22
TORSDOF 3
ENDMDL
MODEL 8
REMARK VINA RESULT:    -5.911     12.413     14.088
REMARK INTER + INTRA:          -6.429
REMARK INTER:                  -6.429
REMARK INTRA:                   0.000
REMARK UNBOUND:                 0.000
REMARK SMILES Cc1cc(O)c2c(c1)C(=O)c1cc(O)cc(O)c1C2=O
REMARK SMILES IDX 1 1 2 2 8 3 7 4 6 5 4 6 3 7 19 8 20 9 18 10 11 11 9 12 10 13
REMARK SMILES IDX 12 14 13 15 15 16 16 17 5 18 17 20 14 22
REMARK H PARENT 5 19 17 21 14 23
REMARK Flexibility Score: inf
ROOT
ATOM      1  C   UNL     1       8.213 -22.145 -34.883  1.00  0.00     0.044 C 
ATOM      2  C   UNL     1       9.396 -21.773 -35.728  1.00  0.00    -0.047 A 
ATOM      3  C   UNL     1      10.153 -22.768 -36.356  1.00  0.00     0.016 A 
ATOM      4  C   UNL     1      11.236 -22.429 -37.185  1.00  0.00     0.038 A 
ATOM      5  C   UNL     1      11.550 -21.069 -37.410  1.00  0.00     0.076 A 
ATOM      6  C   UNL     1      10.808 -20.066 -36.734  1.00  0.00     0.127 A 
ATOM      7  C   UNL     1       9.723 -20.428 -35.930  1.00  0.00     0.050 A 
ATOM      8  C   UNL     1      12.605 -20.749 -38.406  1.00  0.00     0.201 C 
ATOM      9  O   UNL     1      12.546 -19.673 -39.058  1.00  0.00    -0.288 OA
ATOM     10  C   UNL     1      13.617 -21.776 -38.766  1.00  0.00     0.076 A 
ATOM     11  C   UNL     1      13.298 -23.134 -38.540  1.00  0.00     0.041 A 
ATOM     12  C   UNL     1      12.052 -23.490 -37.821  1.00  0.00     0.194 C 
ATOM     13  O   UNL     1      11.699 -24.698 -37.729  1.00  0.00    -0.289 OA
ATOM     14  C   UNL     1      14.168 -24.141 -38.992  1.00  0.00     0.059 A 
ATOM     15  C   UNL     1      15.354 -23.809 -39.653  1.00  0.00     0.120 A 
ATOM     16  C   UNL     1      15.690 -22.470 -39.842  1.00  0.00     0.093 A 
ATOM     17  C   UNL     1      14.852 -21.449 -39.383  1.00  0.00     0.131 A 
ENDROOT
BRANCH   6  18
ATOM     18  O   UNL     1      11.132 -18.709 -36.806  1.00  0.00    -0.507 OA
ATOM     19  H   UNL     1      11.733 -18.315 -37.517  1.00  0.00     0.293 HD
ENDBRANCH   6  18
BRANCH  17  20
ATOM     20  O   UNL     1      15.299 -20.133 -39.528  1.00  0.00    -0.507 OA
ATOM     21  H   UNL     1      14.723 -19.324 -39.345  1.00  0.00     0.293 HD
ENDBRANCH  17  20
BRANCH  15  22
ATOM     22  O   UNL     1      16.213 -24.805 -40.114  1.00  0.00    -0.508 OA
ATOM     23  H   UNL     1      15.892 -25.533 -40.743  1.00  0.00     0.293 HD
ENDBRANCH  15  22
TORSDOF 3
ENDMDL
MODEL 9
REMARK VINA RESULT:    -5.850      2.269      5.979
REMARK INTER + INTRA:          -6.363
REMARK INTER:                  -6.363
REMARK INTRA:                   0.000
REMARK UNBOUND:                 0.000
REMARK SMILES Cc1cc(O)c2c(c1)C(=O)c1cc(O)cc(O)c1C2=O
REMARK SMILES IDX 1 1 2 2 8 3 7 4 6 5 4 6 3 7 19 8 20 9 18 10 11 11 9 12 10 13
REMARK SMILES IDX 12 14 13 15 15 16 16 17 5 18 17 20 14 22
REMARK H PARENT 5 19 17 21 14 23
REMARK Flexibility Score: inf
ROOT
ATOM      1  C   UNL     1      10.105  -7.739 -43.022  1.00  0.00     0.044 C 
ATOM      2  C   UNL     1      10.240  -9.011 -43.806  1.00  0.00    -0.047 A 
ATOM      3  C   UNL     1      11.362  -9.829 -43.633  1.00  0.00     0.016 A 
ATOM      4  C   UNL     1      11.478 -11.044 -44.329  1.00  0.00     0.038 A 
ATOM      5  C   UNL     1      10.440 -11.462 -45.193  1.00  0.00     0.076 A 
ATOM      6  C   UNL     1       9.326 -10.607 -45.400  1.00  0.00     0.127 A 
ATOM      7  C   UNL     1       9.225  -9.412 -44.681  1.00  0.00     0.050 A 
ATOM      8  C   UNL     1      10.530 -12.817 -45.795  1.00  0.00     0.201 C 
ATOM      9  O   UNL     1       9.478 -13.454 -46.066  1.00  0.00    -0.288 OA
ATOM     10  C   UNL     1      11.850 -13.491 -45.901  1.00  0.00     0.076 A 
ATOM     11  C   UNL     1      12.884 -13.071 -45.036  1.00  0.00     0.041 A 
ATOM     12  C   UNL     1      12.684 -11.889 -44.165  1.00  0.00     0.194 C 
ATOM     13  O   UNL     1      13.552 -11.588 -43.300  1.00  0.00    -0.289 OA
ATOM     14  C   UNL     1      14.102 -13.773 -45.008  1.00  0.00     0.059 A 
ATOM     15  C   UNL     1      14.303 -14.876 -45.844  1.00  0.00     0.120 A 
ATOM     16  C   UNL     1      13.299 -15.268 -46.728  1.00  0.00     0.093 A 
ATOM     17  C   UNL     1      12.086 -14.574 -46.788  1.00  0.00     0.131 A 
ENDROOT
BRANCH   6  18
ATOM     18  O   UNL     1       8.320 -10.887 -46.327  1.00  0.00    -0.507 OA
ATOM     19  H   UNL     1       8.148 -10.329 -47.152  1.00  0.00     0.293 HD
ENDBRANCH   6  18
BRANCH  17  20
ATOM     20  O   UNL     1      11.165 -14.968 -47.761  1.00  0.00    -0.507 OA
ATOM     21  H   UNL     1      10.522 -14.333 -48.213  1.00  0.00     0.293 HD
ENDBRANCH  17  20
BRANCH  15  22
ATOM     22  O   UNL     1      15.503 -15.583 -45.811  1.00  0.00    -0.508 OA
ATOM     23  H   UNL     1      15.869 -16.046 -46.635  1.00  0.00     0.293 HD
ENDBRANCH  15  22
TORSDOF 3
ENDMDL
