MODEL 1
REMARK VINA RESULT:    -4.691      0.000      0.000
REMARK INTER + INTRA:          -4.399
REMARK INTER:                  -4.965
REMARK INTRA:                   0.566
REMARK UNBOUND:                 0.566
REMARK SMILES CC(C)[C@H]1CC[C@@H](C)CC1=O
REMARK SMILES IDX 8 1 7 2 6 3 5 4 4 5 10 6 11 7 9 8 2 9 1 10 3 11
REMARK H PARENT
REMARK Flexibility Score: inf
ROOT
ATOM      1  C   UNL     1      28.218 -42.357  -1.123  1.00  0.00     0.008 C 
ATOM      2  C   UNL     1      27.007 -41.670  -1.775  1.00  0.00    -0.007 C 
ATOM      3  C   UNL     1      27.403 -40.350  -2.476  1.00  0.00     0.004 C 
ATOM      4  C   UNL     1      27.742 -39.217  -1.486  1.00  0.00     0.012 C 
ATOM      5  C   UNL     1      26.590 -38.960  -0.483  1.00  0.00     0.058 C 
ATOM      6  C   UNL     1      26.230 -40.293   0.150  1.00  0.00     0.136 C 
ATOM      7  O   UNL     1      26.310 -40.478   1.356  1.00  0.00    -0.299 OA
ATOM      8  C   UNL     1      25.875 -41.434  -0.757  1.00  0.00     0.079 C 
ENDROOT
BRANCH   5   9
ATOM      9  C   UNL     1      26.924 -37.854   0.572  1.00  0.00    -0.007 C 
ATOM     10  C   UNL     1      25.875 -37.837   1.700  1.00  0.00     0.008 C 
ATOM     11  C   UNL     1      26.999 -36.446  -0.047  1.00  0.00     0.008 C 
ENDBRANCH   5   9
TORSDOF 1
ENDMDL
MODEL 2
REMARK VINA RESULT:    -4.501      1.607      2.710
REMARK INTER + INTRA:          -4.198
REMARK INTER:                  -4.514
REMARK INTRA:                   0.316
REMARK UNBOUND:                 0.566
REMARK SMILES CC(C)[C@H]1CC[C@@H](C)CC1=O
REMARK SMILES IDX 8 1 7 2 6 3 5 4 4 5 10 6 11 7 9 8 2 9 1 10 3 11
REMARK H PARENT
REMARK Flexibility Score: inf
ROOT
ATOM      1  C   UNL     1      25.875 -40.681  -3.708  1.00  0.00     0.008 C 
ATOM      2  C   UNL     1      27.205 -40.806  -2.947  1.00  0.00    -0.007 C 
ATOM      3  C   UNL     1      27.097 -41.788  -1.757  1.00  0.00     0.004 C 
ATOM      4  C   UNL     1      26.270 -41.226  -0.583  1.00  0.00     0.012 C 
ATOM      5  C   UNL     1      26.810 -39.859  -0.095  1.00  0.00     0.058 C 
ATOM      6  C   UNL     1      26.918 -38.952  -1.308  1.00  0.00     0.136 C 
ATOM      7  O   UNL     1      26.302 -37.899  -1.385  1.00  0.00    -0.299 OA
ATOM      8  C   UNL     1      27.722 -39.432  -2.481  1.00  0.00     0.079 C 
ENDROOT
BRANCH   5   9
ATOM      9  C   UNL     1      25.960 -39.234   1.059  1.00  0.00    -0.007 C 
ATOM     10  C   UNL     1      26.538 -37.874   1.493  1.00  0.00     0.008 C 
ATOM     11  C   UNL     1      25.876 -40.147   2.297  1.00  0.00     0.008 C 
ENDBRANCH   5   9
TORSDOF 1
ENDMDL
MODEL 3
REMARK VINA RESULT:    -4.187     21.896     23.074
REMARK INTER + INTRA:          -3.866
REMARK INTER:                  -3.704
REMARK INTRA:                  -0.162
REMARK UNBOUND:                 0.566
REMARK SMILES CC(C)[C@H]1CC[C@@H](C)CC1=O
REMARK SMILES IDX 8 1 7 2 6 3 5 4 4 5 10 6 11 7 9 8 2 9 1 10 3 11
REMARK H PARENT
REMARK Flexibility Score: inf
ROOT
ATOM      1  C   UNL     1      43.133 -33.928  13.125  1.00  0.00     0.008 C 
ATOM      2  C   UNL     1      44.444 -34.110  12.343  1.00  0.00    -0.007 C 
ATOM      3  C   UNL     1      45.604 -33.301  12.970  1.00  0.00     0.004 C 
ATOM      4  C   UNL     1      45.470 -31.781  12.746  1.00  0.00     0.012 C 
ATOM      5  C   UNL     1      45.325 -31.426  11.246  1.00  0.00     0.058 C 
ATOM      6  C   UNL     1      44.193 -32.268  10.685  1.00  0.00     0.136 C 
ATOM      7  O   UNL     1      43.197 -31.764  10.187  1.00  0.00    -0.299 OA
ATOM      8  C   UNL     1      44.269 -33.758  10.854  1.00  0.00     0.079 C 
ENDROOT
BRANCH   5   9
ATOM      9  C   UNL     1      45.131 -29.895  10.988  1.00  0.00    -0.007 C 
ATOM     10  C   UNL     1      46.100 -29.394   9.900  1.00  0.00     0.008 C 
ATOM     11  C   UNL     1      45.340 -29.048  12.257  1.00  0.00     0.008 C 
ENDBRANCH   5   9
TORSDOF 1
ENDMDL
MODEL 4
REMARK VINA RESULT:    -4.160     21.794     23.103
REMARK INTER + INTRA:          -3.837
REMARK INTER:                  -3.677
REMARK INTRA:                  -0.160
REMARK UNBOUND:                 0.566
REMARK SMILES CC(C)[C@H]1CC[C@@H](C)CC1=O
REMARK SMILES IDX 8 1 7 2 6 3 5 4 4 5 10 6 11 7 9 8 2 9 1 10 3 11
REMARK H PARENT
REMARK Flexibility Score: inf
ROOT
ATOM      1  C   UNL     1      45.704 -29.850   9.797  1.00  0.00     0.008 C 
ATOM      2  C   UNL     1      44.752 -29.796  11.002  1.00  0.00    -0.007 C 
ATOM      3  C   UNL     1      45.455 -30.227  12.310  1.00  0.00     0.004 C 
ATOM      4  C   UNL     1      45.739 -31.741  12.374  1.00  0.00     0.012 C 
ATOM      5  C   UNL     1      44.456 -32.581  12.159  1.00  0.00     0.058 C 
ATOM      6  C   UNL     1      43.800 -32.094  10.878  1.00  0.00     0.136 C 
ATOM      7  O   UNL     1      43.612 -32.837   9.925  1.00  0.00    -0.299 OA
ATOM      8  C   UNL     1      43.482 -30.633  10.758  1.00  0.00     0.079 C 
ENDROOT
BRANCH   5   9
ATOM      9  C   UNL     1      44.719 -34.123  12.161  1.00  0.00    -0.007 C 
ATOM     10  C   UNL     1      43.679 -34.856  13.029  1.00  0.00     0.008 C 
ATOM     11  C   UNL     1      46.125 -34.486  12.673  1.00  0.00     0.008 C 
ENDBRANCH   5   9
TORSDOF 1
ENDMDL
MODEL 5
REMARK VINA RESULT:    -3.933     21.506     22.877
REMARK INTER + INTRA:          -3.597
REMARK INTER:                  -3.574
REMARK INTRA:                  -0.023
REMARK UNBOUND:                 0.566
REMARK SMILES CC(C)[C@H]1CC[C@@H](C)CC1=O
REMARK SMILES IDX 8 1 7 2 6 3 5 4 4 5 10 6 11 7 9 8 2 9 1 10 3 11
REMARK H PARENT
REMARK Flexibility Score: inf
ROOT
ATOM      1  C   UNL     1      42.790 -29.300  11.506  1.00  0.00     0.008 C 
ATOM      2  C   UNL     1      43.343 -30.210  10.398  1.00  0.00    -0.007 C 
ATOM      3  C   UNL     1      42.569 -31.546  10.310  1.00  0.00     0.004 C 
ATOM      4  C   UNL     1      42.867 -32.496  11.488  1.00  0.00     0.012 C 
ATOM      5  C   UNL     1      44.383 -32.771  11.643  1.00  0.00     0.058 C 
ATOM      6  C   UNL     1      45.087 -31.426  11.696  1.00  0.00     0.136 C 
ATOM      7  O   UNL     1      45.756 -31.085  12.661  1.00  0.00    -0.299 OA
ATOM      8  C   UNL     1      44.853 -30.460  10.573  1.00  0.00     0.079 C 
ENDROOT
BRANCH   5   9
ATOM      9  C   UNL     1      44.724 -33.687  12.864  1.00  0.00    -0.007 C 
ATOM     10  C   UNL     1      46.125 -34.308  12.710  1.00  0.00     0.008 C 
ATOM     11  C   UNL     1      43.704 -34.824  13.057  1.00  0.00     0.008 C 
ENDBRANCH   5   9
TORSDOF 1
ENDMDL
MODEL 6
REMARK VINA RESULT:    -3.878     20.226     21.466
REMARK INTER + INTRA:          -3.539
REMARK INTER:                  -3.405
REMARK INTRA:                  -0.134
REMARK UNBOUND:                 0.566
REMARK SMILES CC(C)[C@H]1CC[C@@H](C)CC1=O
REMARK SMILES IDX 8 1 7 2 6 3 5 4 4 5 10 6 11 7 9 8 2 9 1 10 3 11
REMARK H PARENT
REMARK Flexibility Score: inf
ROOT
ATOM      1  C   UNL     1      45.372 -31.908  13.080  1.00  0.00     0.008 C 
ATOM      2  C   UNL     1      45.136 -32.720  11.796  1.00  0.00    -0.007 C 
ATOM      3  C   UNL     1      44.995 -31.807  10.556  1.00  0.00     0.004 C 
ATOM      4  C   UNL     1      43.663 -31.030  10.525  1.00  0.00     0.012 C 
ATOM      5  C   UNL     1      42.440 -31.973  10.632  1.00  0.00     0.058 C 
ATOM      6  C   UNL     1      42.649 -32.858  11.848  1.00  0.00     0.136 C 
ATOM      7  O   UNL     1      41.864 -32.867  12.784  1.00  0.00    -0.299 OA
ATOM      8  C   UNL     1      43.919 -33.654  11.933  1.00  0.00     0.079 C 
ENDROOT
BRANCH   5   9
ATOM      9  C   UNL     1      41.073 -31.212  10.660  1.00  0.00    -0.007 C 
ATOM     10  C   UNL     1      39.964 -32.049   9.994  1.00  0.00     0.008 C 
ATOM     11  C   UNL     1      41.140 -29.843   9.958  1.00  0.00     0.008 C 
ENDBRANCH   5   9
TORSDOF 1
ENDMDL
MODEL 7
REMARK VINA RESULT:    -3.854     21.876     23.035
REMARK INTER + INTRA:          -3.513
REMARK INTER:                  -3.340
REMARK INTRA:                  -0.173
REMARK UNBOUND:                 0.566
REMARK SMILES CC(C)[C@H]1CC[C@@H](C)CC1=O
REMARK SMILES IDX 8 1 7 2 6 3 5 4 4 5 10 6 11 7 9 8 2 9 1 10 3 11
REMARK H PARENT
REMARK Flexibility Score: inf
ROOT
ATOM      1  C   UNL     1      45.744 -33.967  12.465  1.00  0.00     0.008 C 
ATOM      2  C   UNL     1      44.377 -33.271  12.571  1.00  0.00    -0.007 C 
ATOM      3  C   UNL     1      43.625 -33.272  11.220  1.00  0.00     0.004 C 
ATOM      4  C   UNL     1      44.239 -32.306  10.186  1.00  0.00     0.012 C 
ATOM      5  C   UNL     1      44.346 -30.861  10.733  1.00  0.00     0.058 C 
ATOM      6  C   UNL     1      45.067 -30.931  12.068  1.00  0.00     0.136 C 
ATOM      7  O   UNL     1      46.121 -30.343  12.265  1.00  0.00    -0.299 OA
ATOM      8  C   UNL     1      44.513 -31.841  13.125  1.00  0.00     0.079 C 
ENDROOT
BRANCH   5   9
ATOM      9  C   UNL     1      45.017 -29.868   9.729  1.00  0.00    -0.007 C 
ATOM     10  C   UNL     1      43.953 -29.117   8.905  1.00  0.00     0.008 C 
ATOM     11  C   UNL     1      45.984 -30.567   8.756  1.00  0.00     0.008 C 
ENDBRANCH   5   9
TORSDOF 1
ENDMDL
MODEL 8
REMARK VINA RESULT:    -3.810     21.664     23.058
REMARK INTER + INTRA:          -3.466
REMARK INTER:                  -3.303
REMARK INTRA:                  -0.163
REMARK UNBOUND:                 0.566
REMARK SMILES CC(C)[C@H]1CC[C@@H](C)CC1=O
REMARK SMILES IDX 8 1 7 2 6 3 5 4 4 5 10 6 11 7 9 8 2 9 1 10 3 11
REMARK H PARENT
REMARK Flexibility Score: inf
ROOT
ATOM      1  C   UNL     1      42.789 -29.626   9.736  1.00  0.00     0.008 C 
ATOM      2  C   UNL     1      44.215 -29.413  10.269  1.00  0.00    -0.007 C 
ATOM      3  C   UNL     1      45.196 -30.478   9.727  1.00  0.00     0.004 C 
ATOM      4  C   UNL     1      44.978 -31.873  10.348  1.00  0.00     0.012 C 
ATOM      5  C   UNL     1      45.038 -31.835  11.895  1.00  0.00     0.058 C 
ATOM      6  C   UNL     1      44.076 -30.756  12.362  1.00  0.00     0.136 C 
ATOM      7  O   UNL     1      43.131 -31.007  13.096  1.00  0.00    -0.299 OA
ATOM      8  C   UNL     1      44.242 -29.372  11.808  1.00  0.00     0.079 C 
ENDROOT
BRANCH   5   9
ATOM      9  C   UNL     1      44.765 -33.224  12.559  1.00  0.00    -0.007 C 
ATOM     10  C   UNL     1      46.081 -33.990  12.791  1.00  0.00     0.008 C 
ATOM     11  C   UNL     1      43.826 -34.110  11.720  1.00  0.00     0.008 C 
ENDBRANCH   5   9
TORSDOF 1
ENDMDL
MODEL 9
REMARK VINA RESULT:    -2.086     21.250     22.468
REMARK INTER + INTRA:          -1.642
REMARK INTER:                  -1.484
REMARK INTRA:                  -0.158
REMARK UNBOUND:                 0.566
REMARK SMILES CC(C)[C@H]1CC[C@@H](C)CC1=O
REMARK SMILES IDX 8 1 7 2 6 3 5 4 4 5 10 6 11 7 9 8 2 9 1 10 3 11
REMARK H PARENT
REMARK Flexibility Score: inf
ROOT
ATOM      1  C   UNL     1      45.833 -34.165  11.969  1.00  0.00     0.008 C 
ATOM      2  C   UNL     1      45.111 -33.453  13.125  1.00  0.00    -0.007 C 
ATOM      3  C   UNL     1      43.593 -33.747  13.123  1.00  0.00     0.004 C 
ATOM      4  C   UNL     1      42.841 -33.039  11.978  1.00  0.00     0.012 C 
ATOM      5  C   UNL     1      43.085 -31.510  11.983  1.00  0.00     0.058 C 
ATOM      6  C   UNL     1      44.587 -31.287  12.011  1.00  0.00     0.136 C 
ATOM      7  O   UNL     1      45.168 -30.678  11.124  1.00  0.00    -0.299 OA
ATOM      8  C   UNL     1      45.378 -31.936  13.109  1.00  0.00     0.079 C 
ENDROOT
BRANCH   5   9
ATOM      9  C   UNL     1      42.381 -30.768  10.799  1.00  0.00    -0.007 C 
ATOM     10  C   UNL     1      41.744 -29.450  11.279  1.00  0.00     0.008 C 
ATOM     11  C   UNL     1      41.291 -31.622  10.126  1.00  0.00     0.008 C 
ENDBRANCH   5   9
TORSDOF 1
ENDMDL
