MODEL 1
REMARK VINA RESULT:    -6.280      0.000      0.000
REMARK INTER + INTRA:          -7.955
REMARK INTER:                  -7.565
REMARK INTRA:                  -0.390
REMARK UNBOUND:                -0.390
REMARK SMILES COc1ccc([C@H]2CC(=O)c3c(O)cc(O)cc3O2)cc1O
REMARK SMILES IDX 7 1 8 2 9 3 10 4 11 5 12 6 14 7 15 8 17 9 18 10 19 11 6 12
REMARK SMILES IDX 3 13 21 14 4 15 20 16 5 17 2 18 1 19 22 20 13 22 16 24
REMARK H PARENT 22 21 13 23 16 25
REMARK Flexibility Score: inf
ROOT
ATOM      1  C   UNL     1     111.467 114.060 110.468  1.00  0.00     0.211 C 
ATOM      2  C   UNL     1     110.311 113.850 111.459  1.00  0.00     0.131 C 
ATOM      3  C   UNL     1     109.077 113.450 110.706  1.00  0.00     0.174 C 
ATOM      4  O   UNL     1     108.375 112.494 111.124  1.00  0.00    -0.294 OA
ATOM      5  C   UNL     1     108.747 114.160 109.452  1.00  0.00     0.102 A 
ATOM      6  C   UNL     1     107.459 114.169 108.854  1.00  0.00     0.133 A 
ATOM      7  C   UNL     1     107.273 114.806 107.624  1.00  0.00     0.093 A 
ATOM      8  C   UNL     1     108.326 115.488 107.006  1.00  0.00     0.123 A 
ATOM      9  C   UNL     1     109.577 115.533 107.617  1.00  0.00     0.093 A 
ATOM     10  C   UNL     1     109.796 114.868 108.824  1.00  0.00     0.138 A 
ATOM     11  O   UNL     1     111.068 114.923 109.403  1.00  0.00    -0.484 OA
ENDROOT
BRANCH   1  12
ATOM     12  C   UNL     1     112.682 114.632 111.157  1.00  0.00    -0.003 A 
ATOM     13  C   UNL     1     114.968 115.683 112.433  1.00  0.00     0.160 A 
ATOM     14  C   UNL     1     114.662 116.047 111.109  1.00  0.00     0.158 A 
ATOM     15  C   UNL     1     114.108 114.805 113.116  1.00  0.00     0.051 A 
ATOM     16  C   UNL     1     113.528 115.524 110.479  1.00  0.00     0.057 A 
ATOM     17  C   UNL     1     112.969 114.292 112.490  1.00  0.00     0.011 A 
BRANCH  13  18
ATOM     18  O   UNL     1     116.124 116.211 113.029  1.00  0.00    -0.493 OA
ATOM     19  C   UNL     1     116.124 117.247 114.005  1.00  0.00     0.278 C 
ENDBRANCH  13  18
BRANCH  14  20
ATOM     20  O   UNL     1     115.477 116.927 110.401  1.00  0.00    -0.504 OA
ATOM     21  H   UNL     1     116.423 117.147 110.688  1.00  0.00     0.293 HD
ENDBRANCH  14  20
ENDBRANCH   1  12
BRANCH   6  22
ATOM     22  O   UNL     1     106.337 113.590 109.454  1.00  0.00    -0.507 OA
ATOM     23  H   UNL     1     105.913 113.933 110.305  1.00  0.00     0.293 HD
ENDBRANCH   6  22
BRANCH   8  24
ATOM     24  O   UNL     1     108.135 116.132 105.785  1.00  0.00    -0.508 OA
ATOM     25  H   UNL     1     107.785 117.085 105.727  1.00  0.00     0.293 HD
ENDBRANCH   8  24
TORSDOF 5
ENDMDL
MODEL 2
REMARK VINA RESULT:    -6.101      2.125      7.610
REMARK INTER + INTRA:          -7.739
REMARK INTER:                  -7.375
REMARK INTRA:                  -0.364
REMARK UNBOUND:                -0.390
REMARK SMILES COc1ccc([C@H]2CC(=O)c3c(O)cc(O)cc3O2)cc1O
REMARK SMILES IDX 7 1 8 2 9 3 10 4 11 5 12 6 14 7 15 8 17 9 18 10 19 11 6 12
REMARK SMILES IDX 3 13 21 14 4 15 20 16 5 17 2 18 1 19 22 20 13 22 16 24
REMARK H PARENT 22 21 13 23 16 25
REMARK Flexibility Score: inf
ROOT
ATOM      1  C   UNL     1     109.188 115.061 109.318  1.00  0.00     0.211 C 
ATOM      2  C   UNL     1     108.931 114.032 110.430  1.00  0.00     0.131 C 
ATOM      3  C   UNL     1     110.069 114.059 111.405  1.00  0.00     0.174 C 
ATOM      4  O   UNL     1     109.832 114.067 112.639  1.00  0.00    -0.294 OA
ATOM      5  C   UNL     1     111.451 114.131 110.883  1.00  0.00     0.102 A 
ATOM      6  C   UNL     1     112.606 113.780 111.631  1.00  0.00     0.133 A 
ATOM      7  C   UNL     1     113.873 113.961 111.068  1.00  0.00     0.093 A 
ATOM      8  C   UNL     1     114.014 114.425 109.757  1.00  0.00     0.123 A 
ATOM      9  C   UNL     1     112.882 114.714 108.998  1.00  0.00     0.093 A 
ATOM     10  C   UNL     1     111.609 114.581 109.554  1.00  0.00     0.138 A 
ATOM     11  O   UNL     1     110.495 114.893 108.767  1.00  0.00    -0.484 OA
ENDROOT
BRANCH   1  12
ATOM     12  C   UNL     1     108.157 114.949 108.219  1.00  0.00    -0.003 A 
ATOM     13  C   UNL     1     106.239 114.715 106.164  1.00  0.00     0.160 A 
ATOM     14  C   UNL     1     105.944 114.272 107.466  1.00  0.00     0.158 A 
ATOM     15  C   UNL     1     107.495 115.294 105.908  1.00  0.00     0.051 A 
ATOM     16  C   UNL     1     106.897 114.389 108.483  1.00  0.00     0.057 A 
ATOM     17  C   UNL     1     108.442 115.422 106.927  1.00  0.00     0.011 A 
BRANCH  13  18
ATOM     18  O   UNL     1     105.267 114.565 105.162  1.00  0.00    -0.493 OA
ATOM     19  C   UNL     1     105.219 113.477 104.246  1.00  0.00     0.278 C 
ENDBRANCH  13  18
BRANCH  14  20
ATOM     20  O   UNL     1     104.707 113.708 107.768  1.00  0.00    -0.504 OA
ATOM     21  H   UNL     1     103.910 113.773 107.146  1.00  0.00     0.293 HD
ENDBRANCH  14  20
ENDBRANCH   1  12
BRANCH   6  22
ATOM     22  O   UNL     1     112.546 113.224 112.911  1.00  0.00    -0.507 OA
ATOM     23  H   UNL     1     111.963 113.582 113.655  1.00  0.00     0.293 HD
ENDBRANCH   6  22
BRANCH   8  24
ATOM     24  O   UNL     1     115.278 114.594 109.195  1.00  0.00    -0.508 OA
ATOM     25  H   UNL     1     115.962 113.841 109.169  1.00  0.00     0.293 HD
ENDBRANCH   8  24
TORSDOF 5
ENDMDL
MODEL 3
REMARK VINA RESULT:    -6.093      2.212      3.576
REMARK INTER + INTRA:          -7.729
REMARK INTER:                  -7.346
REMARK INTRA:                  -0.383
REMARK UNBOUND:                -0.390
REMARK SMILES COc1ccc([C@H]2CC(=O)c3c(O)cc(O)cc3O2)cc1O
REMARK SMILES IDX 7 1 8 2 9 3 10 4 11 5 12 6 14 7 15 8 17 9 18 10 19 11 6 12
REMARK SMILES IDX 3 13 21 14 4 15 20 16 5 17 2 18 1 19 22 20 13 22 16 24
REMARK H PARENT 22 21 13 23 16 25
REMARK Flexibility Score: inf
ROOT
ATOM      1  C   UNL     1     108.048 114.444 109.864  1.00  0.00     0.211 C 
ATOM      2  C   UNL     1     107.401 115.674 110.519  1.00  0.00     0.131 C 
ATOM      3  C   UNL     1     106.043 115.898 109.924  1.00  0.00     0.174 C 
ATOM      4  O   UNL     1     105.066 116.143 110.675  1.00  0.00    -0.294 OA
ATOM      5  C   UNL     1     105.878 115.770 108.459  1.00  0.00     0.102 A 
ATOM      6  C   UNL     1     104.790 116.314 107.727  1.00  0.00     0.133 A 
ATOM      7  C   UNL     1     104.688 116.066 106.355  1.00  0.00     0.093 A 
ATOM      8  C   UNL     1     105.678 115.340 105.684  1.00  0.00     0.123 A 
ATOM      9  C   UNL     1     106.778 114.854 106.387  1.00  0.00     0.093 A 
ATOM     10  C   UNL     1     106.878 115.054 107.765  1.00  0.00     0.138 A 
ATOM     11  O   UNL     1     107.990 114.540 108.441  1.00  0.00    -0.484 OA
ENDROOT
BRANCH   1  12
ATOM     12  C   UNL     1     109.483 114.280 110.304  1.00  0.00    -0.003 A 
ATOM     13  C   UNL     1     112.165 113.949 111.114  1.00  0.00     0.160 A 
ATOM     14  C   UNL     1     111.863 114.329 109.794  1.00  0.00     0.158 A 
ATOM     15  C   UNL     1     111.113 113.757 112.027  1.00  0.00     0.051 A 
ATOM     16  C   UNL     1     110.532 114.492 109.394  1.00  0.00     0.057 A 
ATOM     17  C   UNL     1     109.784 113.932 111.631  1.00  0.00     0.011 A 
BRANCH  13  18
ATOM     18  O   UNL     1     113.510 113.776 111.476  1.00  0.00    -0.493 OA
ATOM     19  C   UNL     1     114.292 114.753 112.156  1.00  0.00     0.278 C 
ENDBRANCH  13  18
BRANCH  14  20
ATOM     20  O   UNL     1     112.873 114.547 108.861  1.00  0.00    -0.504 OA
ATOM     21  H   UNL     1     112.703 114.552 107.862  1.00  0.00     0.293 HD
ENDBRANCH  14  20
ENDBRANCH   1  12
BRANCH   6  22
ATOM     22  O   UNL     1     103.812 117.127 108.307  1.00  0.00    -0.507 OA
ATOM     23  H   UNL     1     103.965 117.694 109.129  1.00  0.00     0.293 HD
ENDBRANCH   6  22
BRANCH   8  24
ATOM     24  O   UNL     1     105.579 115.103 104.315  1.00  0.00    -0.508 OA
ATOM     25  H   UNL     1     104.956 115.643 103.718  1.00  0.00     0.293 HD
ENDBRANCH   8  24
TORSDOF 5
ENDMDL
MODEL 4
REMARK VINA RESULT:    -5.936      3.350      8.963
REMARK INTER + INTRA:          -7.540
REMARK INTER:                  -7.180
REMARK INTRA:                  -0.360
REMARK UNBOUND:                -0.390
REMARK SMILES COc1ccc([C@H]2CC(=O)c3c(O)cc(O)cc3O2)cc1O
REMARK SMILES IDX 7 1 8 2 9 3 10 4 11 5 12 6 14 7 15 8 17 9 18 10 19 11 6 12
REMARK SMILES IDX 3 13 21 14 4 15 20 16 5 17 2 18 1 19 22 20 13 22 16 24
REMARK H PARENT 22 21 13 23 16 25
REMARK Flexibility Score: inf
ROOT
ATOM      1  C   UNL     1     106.481 115.117 107.088  1.00  0.00     0.211 C 
ATOM      2  C   UNL     1     105.994 114.685 108.481  1.00  0.00     0.131 C 
ATOM      3  C   UNL     1     106.959 115.174 109.519  1.00  0.00     0.174 C 
ATOM      4  O   UNL     1     106.525 115.725 110.562  1.00  0.00    -0.294 OA
ATOM      5  C   UNL     1     108.409 115.043 109.260  1.00  0.00     0.102 A 
ATOM      6  C   UNL     1     109.408 115.093 110.269  1.00  0.00     0.133 A 
ATOM      7  C   UNL     1     110.757 115.039 109.907  1.00  0.00     0.093 A 
ATOM      8  C   UNL     1     111.133 114.873 108.570  1.00  0.00     0.123 A 
ATOM      9  C   UNL     1     110.156 114.764 107.583  1.00  0.00     0.093 A 
ATOM     10  C   UNL     1     108.804 114.858 107.917  1.00  0.00     0.138 A 
ATOM     11  O   UNL     1     107.850 114.757 106.898  1.00  0.00    -0.484 OA
ENDROOT
BRANCH   1  12
ATOM     12  C   UNL     1     105.639 114.500 105.997  1.00  0.00    -0.003 A 
ATOM     13  C   UNL     1     104.045 113.366 103.965  1.00  0.00     0.160 A 
ATOM     14  C   UNL     1     104.802 114.524 103.712  1.00  0.00     0.158 A 
ATOM     15  C   UNL     1     104.110 112.772 105.237  1.00  0.00     0.051 A 
ATOM     16  C   UNL     1     105.591 115.085 104.721  1.00  0.00     0.057 A 
ATOM     17  C   UNL     1     104.908 113.326 106.242  1.00  0.00     0.011 A 
BRANCH  13  18
ATOM     18  O   UNL     1     103.249 112.841 102.934  1.00  0.00    -0.493 OA
ATOM     19  C   UNL     1     103.602 111.712 102.142  1.00  0.00     0.278 C 
ENDBRANCH  13  18
BRANCH  14  20
ATOM     20  O   UNL     1     104.781 115.137 102.461  1.00  0.00    -0.504 OA
ATOM     21  H   UNL     1     104.108 115.854 102.215  1.00  0.00     0.293 HD
ENDBRANCH  14  20
ENDBRANCH   1  12
BRANCH   6  22
ATOM     22  O   UNL     1     109.111 115.164 111.633  1.00  0.00    -0.507 OA
ATOM     23  H   UNL     1     108.877 114.362 112.201  1.00  0.00     0.293 HD
ENDBRANCH   6  22
BRANCH   8  24
ATOM     24  O   UNL     1     112.478 114.809 108.214  1.00  0.00    -0.508 OA
ATOM     25  H   UNL     1     112.971 113.923 108.126  1.00  0.00     0.293 HD
ENDBRANCH   8  24
TORSDOF 5
ENDMDL
MODEL 5
REMARK VINA RESULT:    -5.929      2.592      4.328
REMARK INTER + INTRA:          -7.533
REMARK INTER:                  -7.170
REMARK INTRA:                  -0.363
REMARK UNBOUND:                -0.390
REMARK SMILES COc1ccc([C@H]2CC(=O)c3c(O)cc(O)cc3O2)cc1O
REMARK SMILES IDX 7 1 8 2 9 3 10 4 11 5 12 6 14 7 15 8 17 9 18 10 19 11 6 12
REMARK SMILES IDX 3 13 21 14 4 15 20 16 5 17 2 18 1 19 22 20 13 22 16 24
REMARK H PARENT 22 21 13 23 16 25
REMARK Flexibility Score: inf
ROOT
ATOM      1  C   UNL     1     107.514 114.576 110.097  1.00  0.00     0.211 C 
ATOM      2  C   UNL     1     107.072 116.028 110.336  1.00  0.00     0.131 C 
ATOM      3  C   UNL     1     105.599 116.148 110.084  1.00  0.00     0.174 C 
ATOM      4  O   UNL     1     104.877 116.776 110.899  1.00  0.00    -0.294 OA
ATOM      5  C   UNL     1     105.023 115.472 108.901  1.00  0.00     0.102 A 
ATOM      6  C   UNL     1     103.766 115.801 108.327  1.00  0.00     0.133 A 
ATOM      7  C   UNL     1     103.278 115.045 107.257  1.00  0.00     0.093 A 
ATOM      8  C   UNL     1     104.039 114.009 106.707  1.00  0.00     0.123 A 
ATOM      9  C   UNL     1     105.298 113.720 107.229  1.00  0.00     0.093 A 
ATOM     10  C   UNL     1     105.787 114.435 108.323  1.00  0.00     0.138 A 
ATOM     11  O   UNL     1     107.050 114.109 108.829  1.00  0.00    -0.484 OA
ENDROOT
BRANCH   1  12
ATOM     12  C   UNL     1     109.016 114.441 110.168  1.00  0.00    -0.003 A 
ATOM     13  C   UNL     1     111.821 114.165 110.287  1.00  0.00     0.160 A 
ATOM     14  C   UNL     1     111.204 114.654 109.122  1.00  0.00     0.158 A 
ATOM     15  C   UNL     1     111.022 113.836 111.397  1.00  0.00     0.051 A 
ATOM     16  C   UNL     1     109.813 114.789 109.065  1.00  0.00     0.057 A 
ATOM     17  C   UNL     1     109.634 113.983 111.343  1.00  0.00     0.011 A 
BRANCH  13  18
ATOM     18  O   UNL     1     113.218 114.024 110.304  1.00  0.00    -0.493 OA
ATOM     19  C   UNL     1     114.111 114.941 110.926  1.00  0.00     0.278 C 
ENDBRANCH  13  18
BRANCH  14  20
ATOM     20  O   UNL     1     111.958 115.008 108.005  1.00  0.00    -0.504 OA
ATOM     21  H   UNL     1     111.744 115.819 107.436  1.00  0.00     0.293 HD
ENDBRANCH  14  20
ENDBRANCH   1  12
BRANCH   6  22
ATOM     22  O   UNL     1     102.989 116.879 108.759  1.00  0.00    -0.507 OA
ATOM     23  H   UNL     1     103.014 117.251 109.698  1.00  0.00     0.293 HD
ENDBRANCH   6  22
BRANCH   8  24
ATOM     24  O   UNL     1     103.553 113.264 105.634  1.00  0.00    -0.508 OA
ATOM     25  H   UNL     1     103.546 112.246 105.644  1.00  0.00     0.293 HD
ENDBRANCH   8  24
TORSDOF 5
ENDMDL
MODEL 6
REMARK VINA RESULT:    -5.831      3.021      7.995
REMARK INTER + INTRA:          -7.414
REMARK INTER:                  -7.034
REMARK INTRA:                  -0.380
REMARK UNBOUND:                -0.390
REMARK SMILES COc1ccc([C@H]2CC(=O)c3c(O)cc(O)cc3O2)cc1O
REMARK SMILES IDX 7 1 8 2 9 3 10 4 11 5 12 6 14 7 15 8 17 9 18 10 19 11 6 12
REMARK SMILES IDX 3 13 21 14 4 15 20 16 5 17 2 18 1 19 22 20 13 22 16 24
REMARK H PARENT 22 21 13 23 16 25
REMARK Flexibility Score: inf
ROOT
ATOM      1  C   UNL     1     107.625 114.739 109.008  1.00  0.00     0.211 C 
ATOM      2  C   UNL     1     108.508 115.522 108.023  1.00  0.00     0.131 C 
ATOM      3  C   UNL     1     109.880 114.918 107.996  1.00  0.00     0.174 C 
ATOM      4  O   UNL     1     110.448 114.711 106.894  1.00  0.00    -0.294 OA
ATOM      5  C   UNL     1     110.510 114.526 109.276  1.00  0.00     0.102 A 
ATOM      6  C   UNL     1     111.904 114.315 109.447  1.00  0.00     0.133 A 
ATOM      7  C   UNL     1     112.387 113.869 110.681  1.00  0.00     0.093 A 
ATOM      8  C   UNL     1     111.523 113.688 111.765  1.00  0.00     0.123 A 
ATOM      9  C   UNL     1     110.162 113.951 111.618  1.00  0.00     0.093 A 
ATOM     10  C   UNL     1     109.652 114.356 110.384  1.00  0.00     0.138 A 
ATOM     11  O   UNL     1     108.279 114.599 110.270  1.00  0.00    -0.484 OA
ENDROOT
BRANCH   1  12
ATOM     12  C   UNL     1     106.289 115.414 109.202  1.00  0.00    -0.003 A 
ATOM     13  C   UNL     1     103.782 116.653 109.578  1.00  0.00     0.160 A 
ATOM     14  C   UNL     1     104.769 116.727 110.577  1.00  0.00     0.158 A 
ATOM     15  C   UNL     1     104.071 115.971 108.383  1.00  0.00     0.051 A 
ATOM     16  C   UNL     1     106.011 116.111 110.389  1.00  0.00     0.057 A 
ATOM     17  C   UNL     1     105.316 115.366 108.190  1.00  0.00     0.011 A 
BRANCH  13  18
ATOM     18  O   UNL     1     102.541 117.266 109.808  1.00  0.00    -0.493 OA
ATOM     19  C   UNL     1     101.369 116.574 110.227  1.00  0.00     0.278 C 
ENDBRANCH  13  18
BRANCH  14  20
ATOM     20  O   UNL     1     104.533 117.406 111.770  1.00  0.00    -0.504 OA
ATOM     21  H   UNL     1     104.531 118.418 111.832  1.00  0.00     0.293 HD
ENDBRANCH  14  20
ENDBRANCH   1  12
BRANCH   6  22
ATOM     22  O   UNL     1     112.842 114.562 108.441  1.00  0.00    -0.507 OA
ATOM     23  H   UNL     1     112.915 115.437 107.941  1.00  0.00     0.293 HD
ENDBRANCH   6  22
BRANCH   8  24
ATOM     24  O   UNL     1     112.009 113.253 112.996  1.00  0.00    -0.508 OA
ATOM     25  H   UNL     1     112.633 113.824 113.561  1.00  0.00     0.293 HD
ENDBRANCH   8  24
TORSDOF 5
ENDMDL
MODEL 7
REMARK VINA RESULT:    -5.730      2.975      8.615
REMARK INTER + INTRA:          -7.292
REMARK INTER:                  -6.932
REMARK INTRA:                  -0.361
REMARK UNBOUND:                -0.390
REMARK SMILES COc1ccc([C@H]2CC(=O)c3c(O)cc(O)cc3O2)cc1O
REMARK SMILES IDX 7 1 8 2 9 3 10 4 11 5 12 6 14 7 15 8 17 9 18 10 19 11 6 12
REMARK SMILES IDX 3 13 21 14 4 15 20 16 5 17 2 18 1 19 22 20 13 22 16 24
REMARK H PARENT 22 21 13 23 16 25
REMARK Flexibility Score: inf
ROOT
ATOM      1  C   UNL     1     107.124 114.387 108.179  1.00  0.00     0.211 C 
ATOM      2  C   UNL     1     108.016 115.202 107.230  1.00  0.00     0.131 C 
ATOM      3  C   UNL     1     109.446 114.794 107.418  1.00  0.00     0.174 C 
ATOM      4  O   UNL     1     110.170 114.579 106.413  1.00  0.00    -0.294 OA
ATOM      5  C   UNL     1     109.955 114.599 108.793  1.00  0.00     0.102 A 
ATOM      6  C   UNL     1     111.332 114.597 109.141  1.00  0.00     0.133 A 
ATOM      7  C   UNL     1     111.709 114.323 110.460  1.00  0.00     0.093 A 
ATOM      8  C   UNL     1     110.745 114.113 111.451  1.00  0.00     0.123 A 
ATOM      9  C   UNL     1     109.391 114.172 111.126  1.00  0.00     0.093 A 
ATOM     10  C   UNL     1     108.993 114.402 109.808  1.00  0.00     0.138 A 
ATOM     11  O   UNL     1     107.626 114.442 109.515  1.00  0.00    -0.484 OA
ENDROOT
BRANCH   1  12
ATOM     12  C   UNL     1     105.698 114.884 108.153  1.00  0.00    -0.003 A 
ATOM     13  C   UNL     1     103.039 115.824 108.080  1.00  0.00     0.160 A 
ATOM     14  C   UNL     1     103.386 114.622 107.438  1.00  0.00     0.158 A 
ATOM     15  C   UNL     1     104.031 116.539 108.774  1.00  0.00     0.051 A 
ATOM     16  C   UNL     1     104.705 114.158 107.475  1.00  0.00     0.057 A 
ATOM     17  C   UNL     1     105.347 116.069 108.821  1.00  0.00     0.011 A 
BRANCH  13  18
ATOM     18  O   UNL     1     101.710 116.270 108.005  1.00  0.00    -0.493 OA
ATOM     19  C   UNL     1     100.729 116.043 109.012  1.00  0.00     0.278 C 
ENDBRANCH  13  18
BRANCH  14  20
ATOM     20  O   UNL     1     102.433 113.873 106.753  1.00  0.00    -0.504 OA
ATOM     21  H   UNL     1     102.678 113.203 106.032  1.00  0.00     0.293 HD
ENDBRANCH  14  20
ENDBRANCH   1  12
BRANCH   6  22
ATOM     22  O   UNL     1     112.350 114.889 108.230  1.00  0.00    -0.507 OA
ATOM     23  H   UNL     1     112.838 114.191 107.687  1.00  0.00     0.293 HD
ENDBRANCH   6  22
BRANCH   8  24
ATOM     24  O   UNL     1     111.124 113.851 112.766  1.00  0.00    -0.508 OA
ATOM     25  H   UNL     1     112.076 113.585 113.010  1.00  0.00     0.293 HD
ENDBRANCH   8  24
TORSDOF 5
ENDMDL
MODEL 8
REMARK VINA RESULT:    -5.460      3.712      9.408
REMARK INTER + INTRA:          -6.968
REMARK INTER:                  -6.619
REMARK INTRA:                  -0.349
REMARK UNBOUND:                -0.390
REMARK SMILES COc1ccc([C@H]2CC(=O)c3c(O)cc(O)cc3O2)cc1O
REMARK SMILES IDX 7 1 8 2 9 3 10 4 11 5 12 6 14 7 15 8 17 9 18 10 19 11 6 12
REMARK SMILES IDX 3 13 21 14 4 15 20 16 5 17 2 18 1 19 22 20 13 22 16 24
REMARK H PARENT 22 21 13 23 16 25
REMARK Flexibility Score: inf
ROOT
ATOM      1  C   UNL     1     105.921 115.075 107.054  1.00  0.00     0.211 C 
ATOM      2  C   UNL     1     105.690 114.577 108.489  1.00  0.00     0.131 C 
ATOM      3  C   UNL     1     106.778 115.101 109.378  1.00  0.00     0.174 C 
ATOM      4  O   UNL     1     106.484 115.596 110.496  1.00  0.00    -0.294 OA
ATOM      5  C   UNL     1     108.173 115.071 108.888  1.00  0.00     0.102 A 
ATOM      6  C   UNL     1     109.316 115.161 109.727  1.00  0.00     0.133 A 
ATOM      7  C   UNL     1     110.590 115.204 109.154  1.00  0.00     0.093 A 
ATOM      8  C   UNL     1     110.756 115.097 107.770  1.00  0.00     0.123 A 
ATOM      9  C   UNL     1     109.642 114.950 106.947  1.00  0.00     0.093 A 
ATOM     10  C   UNL     1     108.358 114.947 107.494  1.00  0.00     0.138 A 
ATOM     11  O   UNL     1     107.261 114.810 106.636  1.00  0.00    -0.484 OA
ENDROOT
BRANCH   1  12
ATOM     12  C   UNL     1     104.953 114.433 106.088  1.00  0.00    -0.003 A 
ATOM     13  C   UNL     1     103.141 113.214 104.304  1.00  0.00     0.160 A 
ATOM     14  C   UNL     1     102.673 114.065 105.321  1.00  0.00     0.158 A 
ATOM     15  C   UNL     1     104.524 112.996 104.177  1.00  0.00     0.051 A 
ATOM     16  C   UNL     1     103.574 114.667 106.205  1.00  0.00     0.057 A 
ATOM     17  C   UNL     1     105.425 113.608 105.053  1.00  0.00     0.011 A 
BRANCH  13  18
ATOM     18  O   UNL     1     102.207 112.610 103.446  1.00  0.00    -0.493 OA
ATOM     19  C   UNL     1     102.536 111.643 102.454  1.00  0.00     0.278 C 
ENDBRANCH  13  18
BRANCH  14  20
ATOM     20  O   UNL     1     101.312 114.321 105.473  1.00  0.00    -0.504 OA
ATOM     21  H   UNL     1     100.600 113.822 104.953  1.00  0.00     0.293 HD
ENDBRANCH  14  20
ENDBRANCH   1  12
BRANCH   6  22
ATOM     22  O   UNL     1     109.238 115.178 111.122  1.00  0.00    -0.507 OA
ATOM     23  H   UNL     1     109.455 114.384 111.709  1.00  0.00     0.293 HD
ENDBRANCH   6  22
BRANCH   8  24
ATOM     24  O   UNL     1     112.028 115.130 107.203  1.00  0.00    -0.508 OA
ATOM     25  H   UNL     1     112.332 114.440 106.519  1.00  0.00     0.293 HD
ENDBRANCH   8  24
TORSDOF 5
ENDMDL
MODEL 9
REMARK VINA RESULT:    -5.431      3.661      6.759
REMARK INTER + INTRA:          -6.932
REMARK INTER:                  -6.610
REMARK INTRA:                  -0.322
REMARK UNBOUND:                -0.390
REMARK SMILES COc1ccc([C@H]2CC(=O)c3c(O)cc(O)cc3O2)cc1O
REMARK SMILES IDX 7 1 8 2 9 3 10 4 11 5 12 6 14 7 15 8 17 9 18 10 19 11 6 12
REMARK SMILES IDX 3 13 21 14 4 15 20 16 5 17 2 18 1 19 22 20 13 22 16 24
REMARK H PARENT 22 21 13 23 16 25
REMARK Flexibility Score: inf
ROOT
ATOM      1  C   UNL     1     105.950 114.854 107.103  1.00  0.00     0.211 C 
ATOM      2  C   UNL     1     106.266 116.015 106.147  1.00  0.00     0.131 C 
ATOM      3  C   UNL     1     105.188 116.113 105.110  1.00  0.00     0.174 C 
ATOM      4  O   UNL     1     104.701 117.236 104.822  1.00  0.00    -0.294 OA
ATOM      5  C   UNL     1     104.682 114.870 104.489  1.00  0.00     0.102 A 
ATOM      6  C   UNL     1     103.973 114.823 103.260  1.00  0.00     0.133 A 
ATOM      7  C   UNL     1     103.469 113.602 102.801  1.00  0.00     0.093 A 
ATOM      8  C   UNL     1     103.708 112.419 103.506  1.00  0.00     0.123 A 
ATOM      9  C   UNL     1     104.455 112.451 104.682  1.00  0.00     0.093 A 
ATOM     10  C   UNL     1     104.931 113.664 105.181  1.00  0.00     0.138 A 
ATOM     11  O   UNL     1     105.666 113.660 106.371  1.00  0.00    -0.484 OA
ENDROOT
BRANCH   1  12
ATOM     12  C   UNL     1     107.092 114.603 108.058  1.00  0.00    -0.003 A 
ATOM     13  C   UNL     1     109.229 114.109 109.832  1.00  0.00     0.160 A 
ATOM     14  C   UNL     1     109.482 114.507 108.507  1.00  0.00     0.158 A 
ATOM     15  C   UNL     1     107.897 113.981 110.264  1.00  0.00     0.051 A 
ATOM     16  C   UNL     1     108.421 114.750 107.629  1.00  0.00     0.057 A 
ATOM     17  C   UNL     1     106.837 114.236 109.390  1.00  0.00     0.011 A 
BRANCH  13  18
ATOM     18  O   UNL     1     110.318 113.854 110.680  1.00  0.00    -0.493 OA
ATOM     19  C   UNL     1     110.228 113.763 112.098  1.00  0.00     0.278 C 
ENDBRANCH  13  18
BRANCH  14  20
ATOM     20  O   UNL     1     110.786 114.662 108.040  1.00  0.00    -0.504 OA
ATOM     21  H   UNL     1     110.998 114.878 107.073  1.00  0.00     0.293 HD
ENDBRANCH  14  20
ENDBRANCH   1  12
BRANCH   6  22
ATOM     22  O   UNL     1     103.772 115.945 102.452  1.00  0.00    -0.507 OA
ATOM     23  H   UNL     1     104.245 116.098 101.572  1.00  0.00     0.293 HD
ENDBRANCH   6  22
BRANCH   8  24
ATOM     24  O   UNL     1     103.214 111.202 103.040  1.00  0.00    -0.508 OA
ATOM     25  H   UNL     1     103.469 110.316 103.471  1.00  0.00     0.293 HD
ENDBRANCH   8  24
TORSDOF 5
ENDMDL
