MODEL 1
REMARK VINA RESULT:    -3.362      0.000      0.000
REMARK INTER + INTRA:          -3.460
REMARK INTER:                  -3.460
REMARK INTRA:                   0.000
REMARK UNBOUND:                 0.000
REMARK SMILES Cc1ccccc1O
REMARK SMILES IDX 1 1 2 2 3 3 4 4 5 5 6 6 7 7 8 8
REMARK H PARENT 8 9
REMARK Flexibility Score: inf
ROOT
ATOM      1  C   UNL     1      15.008  96.634  10.009  1.00  0.00     0.048 C 
ATOM      2  C   UNL     1      16.315  96.798   9.286  1.00  0.00    -0.009 A 
ATOM      3  C   UNL     1      16.929  98.060   9.209  1.00  0.00     0.007 A 
ATOM      4  C   UNL     1      18.145  98.213   8.536  1.00  0.00     0.001 A 
ATOM      5  C   UNL     1      18.757  97.110   7.937  1.00  0.00     0.004 A 
ATOM      6  C   UNL     1      18.156  95.851   8.008  1.00  0.00     0.046 A 
ATOM      7  C   UNL     1      16.935  95.688   8.680  1.00  0.00     0.118 A 
ENDROOT
BRANCH   7   8
ATOM      8  O   UNL     1      16.338  94.430   8.749  1.00  0.00    -0.508 OA
ATOM      9  H   UNL     1      15.513  94.264   9.316  1.00  0.00     0.293 HD
ENDBRANCH   7   8
TORSDOF 1
ENDMDL
MODEL 2
REMARK VINA RESULT:    -3.315      1.628      3.007
REMARK INTER + INTRA:          -3.412
REMARK INTER:                  -3.412
REMARK INTRA:                   0.000
REMARK UNBOUND:                 0.000
REMARK SMILES Cc1ccccc1O
REMARK SMILES IDX 1 1 2 2 3 3 4 4 5 5 6 6 7 7 8 8
REMARK H PARENT 8 9
REMARK Flexibility Score: inf
ROOT
ATOM      1  C   UNL     1      18.205  98.593   8.633  1.00  0.00     0.048 C 
ATOM      2  C   UNL     1      17.629  97.205   8.668  1.00  0.00    -0.009 A 
ATOM      3  C   UNL     1      18.395  96.108   8.239  1.00  0.00     0.007 A 
ATOM      4  C   UNL     1      17.859  94.818   8.271  1.00  0.00     0.001 A 
ATOM      5  C   UNL     1      16.556  94.612   8.731  1.00  0.00     0.004 A 
ATOM      6  C   UNL     1      15.786  95.695   9.160  1.00  0.00     0.046 A 
ATOM      7  C   UNL     1      16.316  96.994   9.131  1.00  0.00     0.118 A 
ENDROOT
BRANCH   7   8
ATOM      8  O   UNL     1      15.544  98.073   9.560  1.00  0.00    -0.508 OA
ATOM      9  H   UNL     1      15.663  98.478  10.483  1.00  0.00     0.293 HD
ENDBRANCH   7   8
TORSDOF 1
ENDMDL
MODEL 3
REMARK VINA RESULT:    -3.244      1.118      2.239
REMARK INTER + INTRA:          -3.339
REMARK INTER:                  -3.339
REMARK INTRA:                   0.000
REMARK UNBOUND:                 0.000
REMARK SMILES Cc1ccccc1O
REMARK SMILES IDX 1 1 2 2 3 3 4 4 5 5 6 6 7 7 8 8
REMARK H PARENT 8 9
REMARK Flexibility Score: inf
ROOT
ATOM      1  C   UNL     1      16.538  94.376   8.691  1.00  0.00     0.048 C 
ATOM      2  C   UNL     1      17.073  95.779   8.638  1.00  0.00    -0.009 A 
ATOM      3  C   UNL     1      18.311  96.044   8.029  1.00  0.00     0.007 A 
ATOM      4  C   UNL     1      18.809  97.349   7.981  1.00  0.00     0.001 A 
ATOM      5  C   UNL     1      18.077  98.399   8.540  1.00  0.00     0.004 A 
ATOM      6  C   UNL     1      16.846  98.147   9.148  1.00  0.00     0.046 A 
ATOM      7  C   UNL     1      16.337  96.841   9.202  1.00  0.00     0.118 A 
ENDROOT
BRANCH   7   8
ATOM      8  O   UNL     1      15.107  96.593   9.809  1.00  0.00    -0.508 OA
ATOM      9  H   UNL     1      14.283  96.361   9.266  1.00  0.00     0.293 HD
ENDBRANCH   7   8
TORSDOF 1
ENDMDL
MODEL 4
REMARK VINA RESULT:    -3.136      1.648      2.814
REMARK INTER + INTRA:          -3.228
REMARK INTER:                  -3.228
REMARK INTRA:                   0.000
REMARK UNBOUND:                 0.000
REMARK SMILES Cc1ccccc1O
REMARK SMILES IDX 1 1 2 2 3 3 4 4 5 5 6 6 7 7 8 8
REMARK H PARENT 8 9
REMARK Flexibility Score: inf
ROOT
ATOM      1  C   UNL     1      18.203  99.311   8.632  1.00  0.00     0.048 C 
ATOM      2  C   UNL     1      17.601  97.936   8.706  1.00  0.00    -0.009 A 
ATOM      3  C   UNL     1      16.387  97.728   9.384  1.00  0.00     0.007 A 
ATOM      4  C   UNL     1      15.828  96.450   9.453  1.00  0.00     0.001 A 
ATOM      5  C   UNL     1      16.473  95.369   8.848  1.00  0.00     0.004 A 
ATOM      6  C   UNL     1      17.680  95.564   8.172  1.00  0.00     0.046 A 
ATOM      7  C   UNL     1      18.250  96.844   8.098  1.00  0.00     0.118 A 
ENDROOT
BRANCH   7   8
ATOM      8  O   UNL     1      19.454  97.034   7.422  1.00  0.00    -0.508 OA
ATOM      9  H   UNL     1      19.573  96.747   6.457  1.00  0.00     0.293 HD
ENDBRANCH   7   8
TORSDOF 1
ENDMDL
MODEL 5
REMARK VINA RESULT:    -2.984      1.637      3.118
REMARK INTER + INTRA:          -3.071
REMARK INTER:                  -3.071
REMARK INTRA:                   0.000
REMARK UNBOUND:                 0.000
REMARK SMILES Cc1ccccc1O
REMARK SMILES IDX 1 1 2 2 3 3 4 4 5 5 6 6 7 7 8 8
REMARK H PARENT 8 9
REMARK Flexibility Score: inf
ROOT
ATOM      1  C   UNL     1      18.150  94.352   8.050  1.00  0.00     0.048 C 
ATOM      2  C   UNL     1      17.341  95.513   8.554  1.00  0.00    -0.009 A 
ATOM      3  C   UNL     1      16.110  95.295   9.194  1.00  0.00     0.007 A 
ATOM      4  C   UNL     1      15.357  96.376   9.662  1.00  0.00     0.001 A 
ATOM      5  C   UNL     1      15.826  97.680   9.496  1.00  0.00     0.004 A 
ATOM      6  C   UNL     1      17.048  97.909   8.861  1.00  0.00     0.046 A 
ATOM      7  C   UNL     1      17.811  96.831   8.387  1.00  0.00     0.118 A 
ENDROOT
BRANCH   7   8
ATOM      8  O   UNL     1      19.031  97.062   7.754  1.00  0.00    -0.508 OA
ATOM      9  H   UNL     1      19.320  96.525   6.944  1.00  0.00     0.293 HD
ENDBRANCH   7   8
TORSDOF 1
ENDMDL
MODEL 6
REMARK VINA RESULT:    -2.894      1.803      2.566
REMARK INTER + INTRA:          -2.978
REMARK INTER:                  -2.978
REMARK INTRA:                   0.000
REMARK UNBOUND:                 0.000
REMARK SMILES Cc1ccccc1O
REMARK SMILES IDX 1 1 2 2 3 3 4 4 5 5 6 6 7 7 8 8
REMARK H PARENT 8 9
REMARK Flexibility Score: inf
ROOT
ATOM      1  C   UNL     1      15.306  97.784   9.768  1.00  0.00     0.048 C 
ATOM      2  C   UNL     1      16.253  96.775   9.182  1.00  0.00    -0.009 A 
ATOM      3  C   UNL     1      15.939  95.406   9.210  1.00  0.00     0.007 A 
ATOM      4  C   UNL     1      16.820  94.468   8.666  1.00  0.00     0.001 A 
ATOM      5  C   UNL     1      18.021  94.888   8.090  1.00  0.00     0.004 A 
ATOM      6  C   UNL     1      18.344  96.246   8.056  1.00  0.00     0.046 A 
ATOM      7  C   UNL     1      17.466  97.195   8.601  1.00  0.00     0.118 A 
ENDROOT
BRANCH   7   8
ATOM      8  O   UNL     1      17.792  98.550   8.565  1.00  0.00    -0.508 OA
ATOM      9  H   UNL     1      18.127  99.037   9.389  1.00  0.00     0.293 HD
ENDBRANCH   7   8
TORSDOF 1
ENDMDL
MODEL 7
REMARK VINA RESULT:    -2.709      1.051      2.685
REMARK INTER + INTRA:          -2.788
REMARK INTER:                  -2.788
REMARK INTRA:                   0.000
REMARK UNBOUND:                 0.000
REMARK SMILES Cc1ccccc1O
REMARK SMILES IDX 1 1 2 2 3 3 4 4 5 5 6 6 7 7 8 8
REMARK H PARENT 8 9
REMARK Flexibility Score: inf
ROOT
ATOM      1  C   UNL     1      19.055  97.362   7.841  1.00  0.00     0.048 C 
ATOM      2  C   UNL     1      17.749  96.945   8.457  1.00  0.00    -0.009 A 
ATOM      3  C   UNL     1      16.913  97.899   9.061  1.00  0.00     0.007 A 
ATOM      4  C   UNL     1      15.699  97.511   9.635  1.00  0.00     0.001 A 
ATOM      5  C   UNL     1      15.310  96.170   9.610  1.00  0.00     0.004 A 
ATOM      6  C   UNL     1      16.133  95.213   9.012  1.00  0.00     0.046 A 
ATOM      7  C   UNL     1      17.354  95.593   8.434  1.00  0.00     0.118 A 
ENDROOT
BRANCH   7   8
ATOM      8  O   UNL     1      18.173  94.636   7.837  1.00  0.00    -0.508 OA
ATOM      9  H   UNL     1      18.764  94.024   8.390  1.00  0.00     0.293 HD
ENDBRANCH   7   8
TORSDOF 1
ENDMDL
