MODEL 1
REMARK VINA RESULT:    13.201      0.000      0.000
REMARK INTER + INTRA:          17.601
REMARK INTER:                  18.217
REMARK INTRA:                  -0.616
REMARK UNBOUND:                -0.616
REMARK SMILES C=C(CC[C@@H](C(=O)[O-])[C@H]1CC[C@@]2(C)C3=C(CC[C@]12C)[C@]1(C)CC[C@H](O)C(C)(C)[C@H]1CC3)C(C)C
REMARK SMILES IDX 4 1 5 2 6 3 7 4 8 5 9 6 10 7 18 8 11 9 12 10 17 11 19 12
REMARK SMILES IDX 13 13 14 14 16 15 15 16 31 17 20 18 30 19 29 20 22 21 21 22
REMARK SMILES IDX 26 23 23 24 24 25 27 26 28 27 25 28 3 30 2 31 1 32 32 33
REMARK SMILES IDX 33 34 34 35
REMARK H PARENT 25 29
REMARK Flexibility Score: inf
ROOT
ATOM      1  C   UNL     1       2.251  41.679  12.926  1.00  0.00     0.014 C 
ENDROOT
BRANCH   1   2
ATOM      2  C   UNL     1       2.899  43.041  12.561  1.00  0.00     0.039 C 
BRANCH   2   3
ATOM      3  C   UNL     1       4.275  43.135  13.173  1.00  0.00     0.045 C 
ATOM      4  O   UNL     1       4.983  42.101  13.288  1.00  0.00    -0.550 OA
ATOM      5  O   UNL     1       4.794  44.361  13.574  1.00  0.00    -0.550 OA
ENDBRANCH   2   3
BRANCH   2   6
ATOM      6  C   UNL     1       2.920  43.341  11.025  1.00  0.00     0.004 C 
ATOM      7  C   UNL     1       1.792  42.605  10.256  1.00  0.00     0.006 C 
ATOM      8  C   UNL     1       2.749  44.825  10.577  1.00  0.00    -0.020 C 
ATOM      9  C   UNL     1       1.304  43.546   9.138  1.00  0.00     0.012 C 
ATOM     10  C   UNL     1       2.352  44.671   9.080  1.00  0.00    -0.006 C 
ATOM     11  C   UNL     1       4.010  45.706  10.640  1.00  0.00     0.012 C 
ATOM     12  C   UNL     1       1.624  45.513  11.429  1.00  0.00     0.012 C 
ATOM     13  C   UNL     1       3.500  44.183   8.136  1.00  0.00     0.017 C 
ATOM     14  C   UNL     1       1.917  46.019   8.527  1.00  0.00    -0.064 C 
ATOM     15  C   UNL     1       3.823  47.042   9.867  1.00  0.00     0.032 C 
ATOM     16  C   UNL     1       2.656  47.134   8.851  1.00  0.00    -0.064 C 
ATOM     17  C   UNL     1       0.678  46.075   7.644  1.00  0.00     0.032 C 
ATOM     18  C   UNL     1       2.448  48.461   8.083  1.00  0.00    -0.008 C 
ATOM     19  C   UNL     1       0.526  47.357   6.827  1.00  0.00     0.009 C 
ATOM     20  C   UNL     1       0.934  48.579   7.671  1.00  0.00     0.007 C 
ATOM     21  C   UNL     1       2.807  49.681   8.980  1.00  0.00     0.014 C 
ATOM     22  C   UNL     1       3.434  48.398   6.883  1.00  0.00     0.016 C 
ATOM     23  C   UNL     1       0.440  49.975   7.108  1.00  0.00    -0.006 C 
ATOM     24  C   UNL     1       2.442  51.028   8.345  1.00  0.00     0.033 C 
ATOM     25  C   UNL     1       0.936  51.124   8.045  1.00  0.00     0.120 C 
ATOM     26  C   UNL     1      -1.117  50.008   7.104  1.00  0.00     0.014 C 
ATOM     27  C   UNL     1       0.883  50.260   5.645  1.00  0.00     0.014 C 
BRANCH  25  28
ATOM     28  O   UNL     1       0.226  51.105   9.260  1.00  0.00    -0.393 OA
ATOM     29  H   UNL     1       0.838  51.446   9.962  1.00  0.00     0.210 HD
ENDBRANCH  25  28
ENDBRANCH   2   6
ENDBRANCH   1   2
BRANCH   1  30
ATOM     30  C   UNL     1       0.728  41.717  13.139  1.00  0.00     0.031 C 
BRANCH  30  31
ATOM     31  C   UNL     1       0.315  40.735  14.223  1.00  0.00    -0.075 C 
ATOM     32  C   UNL     1       0.144  39.445  13.885  1.00  0.00     0.008 C 
BRANCH  31  33
ATOM     33  C   UNL     1       0.023  41.161  15.663  1.00  0.00     0.008 C 
ATOM     34  C   UNL     1      -0.896  42.385  15.779  1.00  0.00     0.012 C 
ATOM     35  C   UNL     1      -0.559  39.989  16.465  1.00  0.00     0.012 C 
ENDBRANCH  31  33
ENDBRANCH  30  31
ENDBRANCH   1  30
TORSDOF 7
ENDMDL
MODEL 2
REMARK VINA RESULT:    14.205      2.150      8.352
REMARK INTER + INTRA:          18.987
REMARK INTER:                  16.832
REMARK INTRA:                   2.156
REMARK UNBOUND:                -0.616
REMARK SMILES C=C(CC[C@@H](C(=O)[O-])[C@H]1CC[C@@]2(C)C3=C(CC[C@]12C)[C@]1(C)CC[C@H](O)C(C)(C)[C@H]1CC3)C(C)C
REMARK SMILES IDX 4 1 5 2 6 3 7 4 8 5 9 6 10 7 18 8 11 9 12 10 17 11 19 12
REMARK SMILES IDX 13 13 14 14 16 15 15 16 31 17 20 18 30 19 29 20 22 21 21 22
REMARK SMILES IDX 26 23 23 24 24 25 27 26 28 27 25 28 3 30 2 31 1 32 32 33
REMARK SMILES IDX 33 34 34 35
REMARK H PARENT 25 29
REMARK Flexibility Score: inf
ROOT
ATOM      1  C   UNL     1       1.935  48.617   9.110  1.00  0.00     0.014 C 
ENDROOT
BRANCH   1   2
ATOM      2  C   UNL     1       2.874  47.862   8.131  1.00  0.00     0.039 C 
BRANCH   2   3
ATOM      3  C   UNL     1       3.903  48.813   7.571  1.00  0.00     0.045 C 
ATOM      4  O   UNL     1       3.680  49.410   6.485  1.00  0.00    -0.550 OA
ATOM      5  O   UNL     1       5.080  49.076   8.262  1.00  0.00    -0.550 OA
ENDBRANCH   2   3
BRANCH   2   6
ATOM      6  C   UNL     1       3.532  46.582   8.745  1.00  0.00     0.004 C 
ATOM      7  C   UNL     1       4.759  46.909   9.637  1.00  0.00     0.006 C 
ATOM      8  C   UNL     1       2.648  45.688   9.668  1.00  0.00    -0.020 C 
ATOM      9  C   UNL     1       4.752  45.917  10.815  1.00  0.00     0.012 C 
ATOM     10  C   UNL     1       3.714  44.848  10.429  1.00  0.00    -0.006 C 
ATOM     11  C   UNL     1       1.697  44.707   8.958  1.00  0.00     0.012 C 
ATOM     12  C   UNL     1       1.796  46.591  10.629  1.00  0.00     0.012 C 
ATOM     13  C   UNL     1       4.457  43.777   9.563  1.00  0.00     0.017 C 
ATOM     14  C   UNL     1       3.045  44.069  11.551  1.00  0.00    -0.064 C 
ATOM     15  C   UNL     1       1.123  43.644   9.938  1.00  0.00     0.032 C 
ATOM     16  C   UNL     1       1.845  43.445  11.295  1.00  0.00    -0.064 C 
ATOM     17  C   UNL     1       3.730  44.021  12.908  1.00  0.00     0.032 C 
ATOM     18  C   UNL     1       1.280  42.401  12.286  1.00  0.00    -0.008 C 
ATOM     19  C   UNL     1       3.219  42.932  13.851  1.00  0.00     0.009 C 
ATOM     20  C   UNL     1       1.687  42.815  13.749  1.00  0.00     0.007 C 
ATOM     21  C   UNL     1      -0.274  42.349  12.208  1.00  0.00     0.014 C 
ATOM     22  C   UNL     1       1.863  41.038  11.822  1.00  0.00     0.016 C 
ATOM     23  C   UNL     1       0.995  42.039  14.944  1.00  0.00    -0.006 C 
ATOM     24  C   UNL     1      -0.906  41.475  13.297  1.00  0.00     0.033 C 
ATOM     25  C   UNL     1      -0.548  41.977  14.706  1.00  0.00     0.120 C 
ATOM     26  C   UNL     1       1.239  42.813  16.273  1.00  0.00     0.014 C 
ATOM     27  C   UNL     1       1.550  40.604  15.172  1.00  0.00     0.014 C 
BRANCH  25  28
ATOM     28  O   UNL     1      -1.123  43.248  14.899  1.00  0.00    -0.393 OA
ATOM     29  H   UNL     1      -2.107  43.121  14.938  1.00  0.00     0.210 HD
ENDBRANCH  25  28
ENDBRANCH   2   6
ENDBRANCH   1   2
BRANCH   1  30
ATOM     30  C   UNL     1       1.377  49.950   8.583  1.00  0.00     0.031 C 
BRANCH  30  31
ATOM     31  C   UNL     1       0.076  49.725   7.830  1.00  0.00    -0.075 C 
ATOM     32  C   UNL     1      -0.447  50.754   7.139  1.00  0.00     0.008 C 
BRANCH  31  33
ATOM     33  C   UNL     1      -0.694  48.405   7.877  1.00  0.00     0.008 C 
ATOM     34  C   UNL     1       0.051  47.223   7.242  1.00  0.00     0.012 C 
ATOM     35  C   UNL     1      -1.089  48.063   9.320  1.00  0.00     0.012 C 
ENDBRANCH  31  33
ENDBRANCH  30  31
ENDBRANCH   1  30
TORSDOF 7
ENDMDL
MODEL 3
REMARK VINA RESULT:    14.989      2.538      8.431
REMARK INTER + INTRA:          20.069
REMARK INTER:                  15.395
REMARK INTRA:                   4.674
REMARK UNBOUND:                -0.616
REMARK SMILES C=C(CC[C@@H](C(=O)[O-])[C@H]1CC[C@@]2(C)C3=C(CC[C@]12C)[C@]1(C)CC[C@H](O)C(C)(C)[C@H]1CC3)C(C)C
REMARK SMILES IDX 4 1 5 2 6 3 7 4 8 5 9 6 10 7 18 8 11 9 12 10 17 11 19 12
REMARK SMILES IDX 13 13 14 14 16 15 15 16 31 17 20 18 30 19 29 20 22 21 21 22
REMARK SMILES IDX 26 23 23 24 24 25 27 26 28 27 25 28 3 30 2 31 1 32 32 33
REMARK SMILES IDX 33 34 34 35
REMARK H PARENT 25 29
REMARK Flexibility Score: inf
ROOT
ATOM      1  C   UNL     1       2.821  50.877   8.328  1.00  0.00     0.014 C 
ENDROOT
BRANCH   1   2
ATOM      2  C   UNL     1       1.326  50.890   7.914  1.00  0.00     0.039 C 
BRANCH   2   3
ATOM      3  C   UNL     1       1.208  51.066   6.420  1.00  0.00     0.045 C 
ATOM      4  O   UNL     1       2.247  51.122   5.711  1.00  0.00    -0.550 OA
ATOM      5  O   UNL     1      -0.038  51.121   5.805  1.00  0.00    -0.550 OA
ENDBRANCH   2   3
BRANCH   2   6
ATOM      6  C   UNL     1       0.516  49.650   8.423  1.00  0.00     0.004 C 
ATOM      7  C   UNL     1      -0.361  49.012   7.314  1.00  0.00     0.006 C 
ATOM      8  C   UNL     1       1.325  48.440   8.981  1.00  0.00    -0.020 C 
ATOM      9  C   UNL     1      -0.346  47.488   7.534  1.00  0.00     0.012 C 
ATOM     10  C   UNL     1       0.275  47.292   8.928  1.00  0.00    -0.006 C 
ATOM     11  C   UNL     1       1.817  48.560  10.435  1.00  0.00     0.012 C 
ATOM     12  C   UNL     1       2.568  48.160   8.063  1.00  0.00     0.012 C 
ATOM     13  C   UNL     1      -0.886  47.407   9.970  1.00  0.00     0.017 C 
ATOM     14  C   UNL     1       0.955  45.964   9.223  1.00  0.00    -0.064 C 
ATOM     15  C   UNL     1       2.304  47.194  10.997  1.00  0.00     0.032 C 
ATOM     16  C   UNL     1       1.871  45.907  10.249  1.00  0.00    -0.064 C 
ATOM     17  C   UNL     1       0.597  44.760   8.365  1.00  0.00     0.032 C 
ATOM     18  C   UNL     1       2.358  44.541  10.788  1.00  0.00    -0.008 C 
ATOM     19  C   UNL     1       1.009  43.408   8.946  1.00  0.00     0.009 C 
ATOM     20  C   UNL     1       2.401  43.511   9.598  1.00  0.00     0.007 C 
ATOM     21  C   UNL     1       3.791  44.660  11.383  1.00  0.00     0.014 C 
ATOM     22  C   UNL     1       1.361  44.169  11.920  1.00  0.00     0.016 C 
ATOM     23  C   UNL     1       3.118  42.124   9.864  1.00  0.00    -0.006 C 
ATOM     24  C   UNL     1       4.405  43.307  11.759  1.00  0.00     0.033 C 
ATOM     25  C   UNL     1       4.505  42.371  10.542  1.00  0.00     0.120 C 
ATOM     26  C   UNL     1       3.377  41.409   8.504  1.00  0.00     0.014 C 
ATOM     27  C   UNL     1       2.282  41.132  10.721  1.00  0.00     0.014 C 
BRANCH  25  28
ATOM     28  O   UNL     1       5.411  42.922   9.615  1.00  0.00    -0.393 OA
ATOM     29  H   UNL     1       5.820  43.718  10.044  1.00  0.00     0.210 HD
ENDBRANCH  25  28
ENDBRANCH   2   6
ENDBRANCH   1   2
BRANCH   1  30
ATOM     30  C   UNL     1       3.696  49.854   7.583  1.00  0.00     0.031 C 
BRANCH  30  31
ATOM     31  C   UNL     1       5.130  49.911   8.085  1.00  0.00    -0.075 C 
ATOM     32  C   UNL     1       5.694  51.117   8.269  1.00  0.00     0.008 C 
BRANCH  31  33
ATOM     33  C   UNL     1       5.976  48.660   8.326  1.00  0.00     0.008 C 
ATOM     34  C   UNL     1       7.317  48.935   9.019  1.00  0.00     0.012 C 
ATOM     35  C   UNL     1       5.179  47.616   9.121  1.00  0.00     0.012 C 
ENDBRANCH  31  33
ENDBRANCH  30  31
ENDBRANCH   1  30
TORSDOF 7
ENDMDL
MODEL 4
REMARK VINA RESULT:    15.830      1.925      8.443
REMARK INTER + INTRA:          21.229
REMARK INTER:                  19.522
REMARK INTRA:                   1.707
REMARK UNBOUND:                -0.616
REMARK SMILES C=C(CC[C@@H](C(=O)[O-])[C@H]1CC[C@@]2(C)C3=C(CC[C@]12C)[C@]1(C)CC[C@H](O)C(C)(C)[C@H]1CC3)C(C)C
REMARK SMILES IDX 4 1 5 2 6 3 7 4 8 5 9 6 10 7 18 8 11 9 12 10 17 11 19 12
REMARK SMILES IDX 13 13 14 14 16 15 15 16 31 17 20 18 30 19 29 20 22 21 21 22
REMARK SMILES IDX 26 23 23 24 24 25 27 26 28 27 25 28 3 30 2 31 1 32 32 33
REMARK SMILES IDX 33 34 34 35
REMARK H PARENT 25 29
REMARK Flexibility Score: inf
ROOT
ATOM      1  C   UNL     1       4.503  47.639   8.103  1.00  0.00     0.014 C 
ENDROOT
BRANCH   1   2
ATOM      2  C   UNL     1       4.639  46.638   9.280  1.00  0.00     0.039 C 
BRANCH   2   3
ATOM      3  C   UNL     1       4.363  47.340  10.586  1.00  0.00     0.045 C 
ATOM      4  O   UNL     1       3.276  47.953  10.751  1.00  0.00    -0.550 OA
ATOM      5  O   UNL     1       5.276  47.282  11.633  1.00  0.00    -0.550 OA
ENDBRANCH   2   3
BRANCH   2   6
ATOM      6  C   UNL     1       3.770  45.346   9.115  1.00  0.00     0.004 C 
ATOM      7  C   UNL     1       4.622  44.090   8.791  1.00  0.00     0.006 C 
ATOM      8  C   UNL     1       2.914  44.891  10.337  1.00  0.00    -0.020 C 
ATOM      9  C   UNL     1       3.974  42.894   9.513  1.00  0.00     0.012 C 
ATOM     10  C   UNL     1       2.603  43.408   9.985  1.00  0.00    -0.006 C 
ATOM     11  C   UNL     1       1.571  45.619  10.536  1.00  0.00     0.012 C 
ATOM     12  C   UNL     1       3.751  45.033  11.657  1.00  0.00     0.012 C 
ATOM     13  C   UNL     1       1.602  43.203   8.799  1.00  0.00     0.017 C 
ATOM     14  C   UNL     1       1.960  42.724  11.181  1.00  0.00    -0.064 C 
ATOM     15  C   UNL     1       0.656  44.878  11.552  1.00  0.00     0.032 C 
ATOM     16  C   UNL     1       0.989  43.401  11.884  1.00  0.00    -0.064 C 
ATOM     17  C   UNL     1       2.424  41.323  11.551  1.00  0.00     0.032 C 
ATOM     18  C   UNL     1       0.096  42.653  12.903  1.00  0.00    -0.008 C 
ATOM     19  C   UNL     1       1.492  40.562  12.493  1.00  0.00     0.009 C 
ATOM     20  C   UNL     1       0.941  41.508  13.575  1.00  0.00     0.007 C 
ATOM     21  C   UNL     1      -0.395  43.619  14.020  1.00  0.00     0.014 C 
ATOM     22  C   UNL     1      -1.125  42.150  12.084  1.00  0.00     0.016 C 
ATOM     23  C   UNL     1       0.311  40.786  14.836  1.00  0.00    -0.006 C 
ATOM     24  C   UNL     1      -1.125  42.902  15.162  1.00  0.00     0.033 C 
ATOM     25  C   UNL     1      -0.225  41.856  15.842  1.00  0.00     0.120 C 
ATOM     26  C   UNL     1       1.415  39.963  15.565  1.00  0.00     0.014 C 
ATOM     27  C   UNL     1      -0.821  39.777  14.489  1.00  0.00     0.014 C 
BRANCH  25  28
ATOM     28  O   UNL     1       0.848  42.516  16.471  1.00  0.00    -0.393 OA
ATOM     29  H   UNL     1       0.626  42.581  17.436  1.00  0.00     0.210 HD
ENDBRANCH  25  28
ENDBRANCH   2   6
ENDBRANCH   1   2
BRANCH   1  30
ATOM     30  C   UNL     1       3.066  47.874   7.606  1.00  0.00     0.031 C 
BRANCH  30  31
ATOM     31  C   UNL     1       2.747  49.360   7.575  1.00  0.00    -0.075 C 
ATOM     32  C   UNL     1       3.668  50.200   7.071  1.00  0.00     0.008 C 
BRANCH  31  33
ATOM     33  C   UNL     1       1.456  49.945   8.149  1.00  0.00     0.008 C 
ATOM     34  C   UNL     1       0.866  51.094   7.319  1.00  0.00     0.012 C 
ATOM     35  C   UNL     1       0.404  48.843   8.342  1.00  0.00     0.012 C 
ENDBRANCH  31  33
ENDBRANCH  30  31
ENDBRANCH   1  30
TORSDOF 7
ENDMDL
MODEL 5
REMARK VINA RESULT:    16.026      2.403      3.972
REMARK INTER + INTRA:          21.499
REMARK INTER:                  22.033
REMARK INTRA:                  -0.534
REMARK UNBOUND:                -0.616
REMARK SMILES C=C(CC[C@@H](C(=O)[O-])[C@H]1CC[C@@]2(C)C3=C(CC[C@]12C)[C@]1(C)CC[C@H](O)C(C)(C)[C@H]1CC3)C(C)C
REMARK SMILES IDX 4 1 5 2 6 3 7 4 8 5 9 6 10 7 18 8 11 9 12 10 17 11 19 12
REMARK SMILES IDX 13 13 14 14 16 15 15 16 31 17 20 18 30 19 29 20 22 21 21 22
REMARK SMILES IDX 26 23 23 24 24 25 27 26 28 27 25 28 3 30 2 31 1 32 32 33
REMARK SMILES IDX 33 34 34 35
REMARK H PARENT 25 29
REMARK Flexibility Score: inf
ROOT
ATOM      1  C   UNL     1       1.805  39.609  12.299  1.00  0.00     0.014 C 
ENDROOT
BRANCH   1   2
ATOM      2  C   UNL     1       1.144  41.005  12.438  1.00  0.00     0.039 C 
BRANCH   2   3
ATOM      3  C   UNL     1       0.203  41.013  13.617  1.00  0.00     0.045 C 
ATOM      4  O   UNL     1       0.525  41.620  14.672  1.00  0.00    -0.550 OA
ATOM      5  O   UNL     1      -1.040  40.396  13.541  1.00  0.00    -0.550 OA
ENDBRANCH   2   3
BRANCH   2   6
ATOM      6  C   UNL     1       2.168  42.188  12.498  1.00  0.00     0.004 C 
ATOM      7  C   UNL     1       3.579  41.784  11.994  1.00  0.00     0.006 C 
ATOM      8  C   UNL     1       1.844  43.466  11.667  1.00  0.00    -0.020 C 
ATOM      9  C   UNL     1       4.166  42.995  11.246  1.00  0.00     0.012 C 
ATOM     10  C   UNL     1       3.231  44.168  11.590  1.00  0.00    -0.006 C 
ATOM     11  C   UNL     1       0.851  44.458  12.301  1.00  0.00     0.012 C 
ATOM     12  C   UNL     1       1.297  43.059  10.253  1.00  0.00     0.012 C 
ATOM     13  C   UNL     1       3.739  44.782  12.937  1.00  0.00     0.017 C 
ATOM     14  C   UNL     1       3.161  45.331  10.614  1.00  0.00    -0.064 C 
ATOM     15  C   UNL     1       0.856  45.831  11.570  1.00  0.00     0.032 C 
ATOM     16  C   UNL     1       2.060  46.158  10.651  1.00  0.00    -0.064 C 
ATOM     17  C   UNL     1       4.309  45.525   9.634  1.00  0.00     0.032 C 
ATOM     18  C   UNL     1       2.075  47.514   9.907  1.00  0.00    -0.008 C 
ATOM     19  C   UNL     1       4.361  46.899   8.965  1.00  0.00     0.009 C 
ATOM     20  C   UNL     1       2.941  47.368   8.601  1.00  0.00     0.007 C 
ATOM     21  C   UNL     1       0.634  47.933   9.494  1.00  0.00     0.014 C 
ATOM     22  C   UNL     1       2.634  48.538  10.933  1.00  0.00     0.016 C 
ATOM     23  C   UNL     1       2.878  48.553   7.551  1.00  0.00    -0.006 C 
ATOM     24  C   UNL     1       0.599  49.169   8.588  1.00  0.00     0.033 C 
ATOM     25  C   UNL     1       1.387  48.941   7.286  1.00  0.00     0.120 C 
ATOM     26  C   UNL     1       3.490  48.078   6.200  1.00  0.00     0.014 C 
ATOM     27  C   UNL     1       3.684  49.815   7.971  1.00  0.00     0.014 C 
BRANCH  25  28
ATOM     28  O   UNL     1       0.747  47.937   6.534  1.00  0.00    -0.393 OA
ATOM     29  H   UNL     1       1.214  47.885   5.660  1.00  0.00     0.210 HD
ENDBRANCH  25  28
ENDBRANCH   2   6
ENDBRANCH   1   2
BRANCH   1  30
ATOM     30  C   UNL     1       1.122  38.480  13.090  1.00  0.00     0.031 C 
BRANCH  30  31
ATOM     31  C   UNL     1       1.334  37.141  12.404  1.00  0.00    -0.075 C 
ATOM     32  C   UNL     1       2.486  36.940  11.739  1.00  0.00     0.008 C 
BRANCH  31  33
ATOM     33  C   UNL     1       0.273  36.041  12.381  1.00  0.00     0.008 C 
ATOM     34  C   UNL     1      -1.125  36.510  12.809  1.00  0.00     0.012 C 
ATOM     35  C   UNL     1       0.204  35.386  10.994  1.00  0.00     0.012 C 
ENDBRANCH  31  33
ENDBRANCH  30  31
ENDBRANCH   1  30
TORSDOF 7
ENDMDL
