MODEL 1
REMARK VINA RESULT:    15.867      0.000      0.000
REMARK INTER + INTRA:          19.641
REMARK INTER:                  20.041
REMARK INTRA:                  -0.400
REMARK UNBOUND:                -0.400
REMARK SMILES Oc1ccc(CCc2cc(O)cc(O)c2)cc1
REMARK SMILES IDX 6 1 5 2 4 3 3 4 2 5 16 6 17 7 1 8 7 10 8 11 15 12 9 13 13 14
REMARK SMILES IDX 10 15 12 16 14 17 11 19
REMARK H PARENT 1 9 14 18 11 20
REMARK Flexibility Score: inf
ROOT
ATOM      1  C   UNL     1      10.016  10.084  31.925  1.00  0.00     0.040 C 
ENDROOT
BRANCH   1   2
ATOM      2  C   UNL     1      10.722  11.028  30.990  1.00  0.00    -0.047 A 
ATOM      3  C   UNL     1      10.029  12.107  30.415  1.00  0.00     0.007 A 
ATOM      4  C   UNL     1      10.693  13.003  29.573  1.00  0.00     0.046 A 
ATOM      5  C   UNL     1      12.057  12.837  29.303  1.00  0.00     0.115 A 
ATOM      6  C   UNL     1      12.092  10.873  30.727  1.00  0.00     0.007 A 
ATOM      7  C   UNL     1      12.755  11.770  29.885  1.00  0.00     0.046 A 
BRANCH   5   8
ATOM      8  O   UNL     1      12.706  13.737  28.462  1.00  0.00    -0.508 OA
ATOM      9  H   UNL     1      12.298  14.028  27.581  1.00  0.00     0.293 HD
ENDBRANCH   5   8
ENDBRANCH   1   2
BRANCH   1  10
ATOM     10  C   UNL     1       8.503  10.127  31.692  1.00  0.00     0.040 C 
BRANCH  10  11
ATOM     11  C   UNL     1       7.864   8.834  32.123  1.00  0.00    -0.040 A 
ATOM     12  C   UNL     1       6.829   8.268  31.361  1.00  0.00     0.050 A 
ATOM     13  C   UNL     1       8.336   8.154  33.257  1.00  0.00     0.050 A 
ATOM     14  C   UNL     1       6.256   7.047  31.743  1.00  0.00     0.119 A 
ATOM     15  C   UNL     1       7.764   6.932  33.640  1.00  0.00     0.119 A 
ATOM     16  C   UNL     1       6.723   6.386  32.882  1.00  0.00     0.092 A 
BRANCH  14  17
ATOM     17  O   UNL     1       5.224   6.483  30.996  1.00  0.00    -0.508 OA
ATOM     18  H   UNL     1       4.945   6.870  30.102  1.00  0.00     0.293 HD
ENDBRANCH  14  17
BRANCH  15  19
ATOM     19  O   UNL     1       8.222   6.256  34.768  1.00  0.00    -0.508 OA
ATOM     20  H   UNL     1       7.594   5.992  35.518  1.00  0.00     0.293 HD
ENDBRANCH  15  19
ENDBRANCH  10  11
ENDBRANCH   1  10
TORSDOF 6
ENDMDL
MODEL 2
REMARK VINA RESULT:    15.882      1.432      2.135
REMARK INTER + INTRA:          19.660
REMARK INTER:                  20.040
REMARK INTRA:                  -0.381
REMARK UNBOUND:                -0.400
REMARK SMILES Oc1ccc(CCc2cc(O)cc(O)c2)cc1
REMARK SMILES IDX 6 1 5 2 4 3 3 4 2 5 16 6 17 7 1 8 7 10 8 11 15 12 9 13 13 14
REMARK SMILES IDX 10 15 12 16 14 17 11 19
REMARK H PARENT 1 9 14 18 11 20
REMARK Flexibility Score: inf
ROOT
ATOM      1  C   UNL     1       9.202  10.939  31.393  1.00  0.00     0.040 C 
ENDROOT
BRANCH   1   2
ATOM      2  C   UNL     1      10.431  11.437  30.680  1.00  0.00    -0.047 A 
ATOM      3  C   UNL     1      10.387  12.633  29.944  1.00  0.00     0.007 A 
ATOM      4  C   UNL     1      11.536  13.112  29.310  1.00  0.00     0.046 A 
ATOM      5  C   UNL     1      12.742  12.409  29.411  1.00  0.00     0.115 A 
ATOM      6  C   UNL     1      11.645  10.742  30.791  1.00  0.00     0.007 A 
ATOM      7  C   UNL     1      12.794  11.223  30.155  1.00  0.00     0.046 A 
BRANCH   5   8
ATOM      8  O   UNL     1      13.879  12.899  28.774  1.00  0.00    -0.508 OA
ATOM      9  H   UNL     1      14.748  13.042  29.275  1.00  0.00     0.293 HD
ENDBRANCH   5   8
ENDBRANCH   1   2
BRANCH   1  10
ATOM     10  C   UNL     1       9.362   9.465  31.776  1.00  0.00     0.040 C 
BRANCH  10  11
ATOM     11  C   UNL     1       8.037   8.878  32.183  1.00  0.00    -0.040 A 
ATOM     12  C   UNL     1       7.352   9.385  33.298  1.00  0.00     0.050 A 
ATOM     13  C   UNL     1       7.450   7.857  31.419  1.00  0.00     0.050 A 
ATOM     14  C   UNL     1       6.102   8.862  33.659  1.00  0.00     0.119 A 
ATOM     15  C   UNL     1       6.201   7.332  31.778  1.00  0.00     0.119 A 
ATOM     16  C   UNL     1       5.533   7.835  32.900  1.00  0.00     0.092 A 
BRANCH  14  17
ATOM     17  O   UNL     1       5.418   9.356  34.767  1.00  0.00    -0.508 OA
ATOM     18  H   UNL     1       5.729   9.159  35.712  1.00  0.00     0.293 HD
ENDBRANCH  14  17
BRANCH  15  19
ATOM     19  O   UNL     1       5.615   6.314  31.029  1.00  0.00    -0.508 OA
ATOM     20  H   UNL     1       6.096   5.437  30.862  1.00  0.00     0.293 HD
ENDBRANCH  15  19
ENDBRANCH  10  11
ENDBRANCH   1  10
TORSDOF 6
ENDMDL
