MODEL 1
REMARK VINA RESULT:    -4.800      0.000      0.000
REMARK INTER + INTRA:          -5.875
REMARK INTER:                  -6.765
REMARK INTRA:                   0.890
REMARK UNBOUND:                 0.890
REMARK SMILES CC1=CCC(=C(C)C)C(=O)CC(C)=CCC1
REMARK SMILES IDX 12 1 14 2 13 3 15 4 16 5 2 6 1 7 3 8 11 10 9 11 10 12 5 13
REMARK SMILES IDX 6 14 7 15 8 16 4 17
REMARK H PARENT
REMARK Flexibility Score: 60.00
ROOT
ATOM      1  C   UNL     1     108.095  49.690  64.500  1.00  0.00    -0.070 C 
ATOM      2  C   UNL     1     107.787  48.721  65.392  1.00  0.00    -0.027 C 
ATOM      3  C   UNL     1     106.962  50.457  63.865  1.00  0.00     0.039 C 
ENDROOT
BRANCH   2   4
ATOM      4  C   UNL     1     108.777  47.765  66.005  1.00  0.00     0.032 C 
BRANCH   4   5
ATOM      5  C   UNL     1     109.883  47.442  64.995  1.00  0.00     0.034 C 
BRANCH   5   6
ATOM      6  C   UNL     1     109.501  46.317  64.055  1.00  0.00    -0.077 C 
ATOM      7  C   UNL     1     108.917  45.055  64.637  1.00  0.00     0.039 C 
ATOM      8  C   UNL     1     109.587  46.407  62.704  1.00  0.00    -0.023 CG0
ATOM      9  G   UNL     1     110.189  47.539  61.891  1.00  0.00     0.000 G0
ENDBRANCH   5   6
ENDBRANCH   4   5
ENDBRANCH   2   4
BRANCH   1  10
ATOM     10  C   UNL     1     109.517  50.055  64.123  1.00  0.00     0.111 C 
BRANCH  10  11
ATOM     11  C   UNL     1     109.738  49.990  62.631  1.00  0.00     0.163 C 
ATOM     12  O   UNL     1     110.300  50.982  62.090  1.00  0.00    -0.294 OA
BRANCH  11  13
ATOM     13  C   UNL     1     109.351  48.816  61.779  1.00  0.00    -0.002 C 
ATOM     14  C   UNL     1     108.385  48.943  60.817  1.00  0.00    -0.069 C 
ATOM     15  C   UNL     1     108.130  47.862  59.791  1.00  0.00     0.039 C 
ATOM     16  C   UNL     1     107.483  50.155  60.759  1.00  0.00     0.039 C 
BRANCH  13  17
ATOM     17  C   UNL     1     110.186  47.546  61.896  1.00  0.00     0.066 CG0
ATOM     18  G   UNL     1     109.582  46.412  62.705  1.00  0.00     0.000 G0
ENDBRANCH  13  17
ENDBRANCH  11  13
ENDBRANCH  10  11
ENDBRANCH   1  10
TORSDOF 0
ENDMDL
MODEL 2
REMARK VINA RESULT:    -4.700      1.646      3.170
REMARK INTER + INTRA:          -5.734
REMARK INTER:                  -5.931
REMARK INTRA:                   0.198
REMARK UNBOUND:                 0.890
REMARK SMILES CC1=CCC(=C(C)C)C(=O)CC(C)=CCC1
REMARK SMILES IDX 12 1 14 2 13 3 15 4 16 5 2 6 1 7 3 8 11 10 9 11 10 12 5 13
REMARK SMILES IDX 6 14 7 15 8 16 4 17
REMARK H PARENT
REMARK Flexibility Score: 60.00
ROOT
ATOM      1  C   UNL     1     109.165  48.324  61.253  1.00  0.00    -0.070 C 
ATOM      2  C   UNL     1     108.932  47.117  61.816  1.00  0.00    -0.027 C 
ATOM      3  C   UNL     1     108.361  48.708  60.036  1.00  0.00     0.039 C 
ENDROOT
BRANCH   2   4
ATOM      4  C   UNL     1     109.739  46.515  62.937  1.00  0.00     0.032 C 
BRANCH   4   5
ATOM      5  C   UNL     1     108.851  46.315  64.170  1.00  0.00     0.034 C 
BRANCH   5   6
ATOM      6  C   UNL     1     109.092  47.363  65.236  1.00  0.00    -0.077 C 
ATOM      7  C   UNL     1     110.025  47.033  66.376  1.00  0.00     0.039 C 
ATOM      8  C   UNL     1     108.573  48.615  65.190  1.00  0.00    -0.023 CG0
ATOM      9  G   UNL     1     107.572  49.162  64.187  1.00  0.00     0.000 G0
ENDBRANCH   5   6
ENDBRANCH   4   5
ENDBRANCH   2   4
BRANCH   1  10
ATOM     10  C   UNL     1     110.177  49.315  61.793  1.00  0.00     0.111 C 
BRANCH  10  11
ATOM     11  C   UNL     1     109.590  50.184  62.879  1.00  0.00     0.163 C 
ATOM     12  O   UNL     1     110.389  50.920  63.520  1.00  0.00    -0.294 OA
BRANCH  11  13
ATOM     13  C   UNL     1     108.127  50.231  63.212  1.00  0.00    -0.002 C 
ATOM     14  C   UNL     1     107.287  51.078  62.540  1.00  0.00    -0.069 C 
ATOM     15  C   UNL     1     105.784  50.993  62.677  1.00  0.00     0.039 C 
ATOM     16  C   UNL     1     107.822  52.182  61.656  1.00  0.00     0.039 C 
BRANCH  13  17
ATOM     17  C   UNL     1     107.584  49.187  64.182  1.00  0.00     0.066 CG0
ATOM     18  G   UNL     1     108.570  48.626  65.192  1.00  0.00     0.000 G0
ENDBRANCH  13  17
ENDBRANCH  11  13
ENDBRANCH  10  11
ENDBRANCH   1  10
TORSDOF 0
ENDMDL
MODEL 3
REMARK VINA RESULT:    -4.413      1.460      3.470
REMARK INTER + INTRA:          -5.328
REMARK INTER:                  -6.137
REMARK INTRA:                   0.809
REMARK UNBOUND:                 0.890
REMARK SMILES CC1=CCC(=C(C)C)C(=O)CC(C)=CCC1
REMARK SMILES IDX 12 1 14 2 13 3 15 4 16 5 2 6 1 7 3 8 11 10 9 11 10 12 5 13
REMARK SMILES IDX 6 14 7 15 8 16 4 17
REMARK H PARENT
REMARK Flexibility Score: 60.00
ROOT
ATOM      1  C   UNL     1     108.520  51.572  61.496  1.00  0.00    -0.070 C 
ATOM      2  C   UNL     1     107.584  50.808  60.888  1.00  0.00    -0.027 C 
ATOM      3  C   UNL     1     108.182  53.014  61.784  1.00  0.00     0.039 C 
ENDROOT
BRANCH   2   4
ATOM      4  C   UNL     1     107.804  49.401  60.395  1.00  0.00     0.032 C 
BRANCH   4   5
ATOM      5  C   UNL     1     107.911  48.443  61.587  1.00  0.00     0.034 C 
BRANCH   5   6
ATOM      6  C   UNL     1     109.143  47.565  61.518  1.00  0.00    -0.077 C 
ATOM      7  C   UNL     1     109.389  46.761  60.265  1.00  0.00     0.039 C 
ATOM      8  C   UNL     1     110.084  47.514  62.494  1.00  0.00    -0.023 CG0
ATOM      9  G   UNL     1     110.035  48.179  63.858  1.00  0.00     0.000 G0
ENDBRANCH   5   6
ENDBRANCH   4   5
ENDBRANCH   2   4
BRANCH   1  10
ATOM     10  C   UNL     1     109.878  51.050  61.918  1.00  0.00     0.111 C 
BRANCH  10  11
ATOM     11  C   UNL     1     109.921  50.714  63.389  1.00  0.00     0.163 C 
ATOM     12  O   UNL     1     110.514  51.530  64.147  1.00  0.00    -0.294 OA
BRANCH  11  13
ATOM     13  C   UNL     1     109.286  49.491  63.985  1.00  0.00    -0.002 C 
ATOM     14  C   UNL     1     108.004  49.537  64.463  1.00  0.00    -0.069 C 
ATOM     15  C   UNL     1     107.250  48.286  64.854  1.00  0.00     0.039 C 
ATOM     16  C   UNL     1     107.285  50.850  64.673  1.00  0.00     0.039 C 
BRANCH  13  17
ATOM     17  C   UNL     1     110.040  48.172  63.875  1.00  0.00     0.066 CG0
ATOM     18  G   UNL     1     110.086  47.533  62.497  1.00  0.00     0.000 G0
ENDBRANCH  13  17
ENDBRANCH  11  13
ENDBRANCH  10  11
ENDBRANCH   1  10
TORSDOF 0
ENDMDL
MODEL 4
REMARK VINA RESULT:    -4.241      1.563      2.134
REMARK INTER + INTRA:          -5.086
REMARK INTER:                  -6.255
REMARK INTRA:                   1.169
REMARK UNBOUND:                 0.890
REMARK SMILES CC1=CCC(=C(C)C)C(=O)CC(C)=CCC1
REMARK SMILES IDX 12 1 14 2 13 3 15 4 16 5 2 6 1 7 3 8 11 10 9 11 10 12 5 13
REMARK SMILES IDX 6 14 7 15 8 16 4 17
REMARK H PARENT
REMARK Flexibility Score: 60.00
ROOT
ATOM      1  C   UNL     1     106.832  49.840  63.391  1.00  0.00    -0.070 C 
ATOM      2  C   UNL     1     107.438  49.655  64.587  1.00  0.00    -0.027 C 
ATOM      3  C   UNL     1     106.415  51.240  63.016  1.00  0.00     0.039 C 
ENDROOT
BRANCH   2   4
ATOM      4  C   UNL     1     107.784  48.314  65.181  1.00  0.00     0.032 C 
BRANCH   4   5
ATOM      5  C   UNL     1     109.279  48.032  64.994  1.00  0.00     0.034 C 
BRANCH   5   6
ATOM      6  C   UNL     1     109.542  46.956  63.961  1.00  0.00    -0.077 C 
ATOM      7  C   UNL     1     109.354  45.512  64.356  1.00  0.00     0.039 C 
ATOM      8  C   UNL     1     109.869  47.218  62.671  1.00  0.00    -0.023 CG0
ATOM      9  G   UNL     1     110.170  48.573  62.052  1.00  0.00     0.000 G0
ENDBRANCH   5   6
ENDBRANCH   4   5
ENDBRANCH   2   4
BRANCH   1  10
ATOM     10  C   UNL     1     106.571  48.719  62.406  1.00  0.00     0.111 C 
BRANCH  10  11
ATOM     11  C   UNL     1     107.665  48.611  61.371  1.00  0.00     0.163 C 
ATOM     12  O   UNL     1     107.436  47.883  60.366  1.00  0.00    -0.294 OA
BRANCH  11  13
ATOM     13  C   UNL     1     108.979  49.331  61.467  1.00  0.00    -0.002 C 
ATOM     14  C   UNL     1     109.058  50.672  61.202  1.00  0.00    -0.069 C 
ATOM     15  C   UNL     1     110.300  51.478  61.509  1.00  0.00     0.039 C 
ATOM     16  C   UNL     1     107.920  51.414  60.539  1.00  0.00     0.039 C 
BRANCH  13  17
ATOM     17  C   UNL     1     110.168  48.569  62.040  1.00  0.00     0.066 CG0
ATOM     18  G   UNL     1     109.867  47.219  62.668  1.00  0.00     0.000 G0
ENDBRANCH  13  17
ENDBRANCH  11  13
ENDBRANCH  10  11
ENDBRANCH   1  10
TORSDOF 0
ENDMDL
MODEL 5
REMARK VINA RESULT:    -4.066      2.157      3.733
REMARK INTER + INTRA:          -4.839
REMARK INTER:                  -5.325
REMARK INTRA:                   0.485
REMARK UNBOUND:                 0.890
REMARK SMILES CC1=CCC(=C(C)C)C(=O)CC(C)=CCC1
REMARK SMILES IDX 12 1 14 2 13 3 15 4 16 5 2 6 1 7 3 8 11 10 9 11 10 12 5 13
REMARK SMILES IDX 6 14 7 15 8 16 4 17
REMARK H PARENT
REMARK Flexibility Score: 60.00
ROOT
ATOM      1  C   UNL     1     109.829  48.433  61.752  1.00  0.00    -0.070 C 
ATOM      2  C   UNL     1     110.236  47.483  62.626  1.00  0.00    -0.027 C 
ATOM      3  C   UNL     1     110.848  49.435  61.268  1.00  0.00     0.039 C 
ENDROOT
BRANCH   2   4
ATOM      4  C   UNL     1     109.328  46.503  63.321  1.00  0.00     0.032 C 
BRANCH   4   5
ATOM      5  C   UNL     1     108.121  47.240  63.913  1.00  0.00     0.034 C 
BRANCH   5   6
ATOM      6  C   UNL     1     108.521  48.265  64.954  1.00  0.00    -0.077 C 
ATOM      7  C   UNL     1     109.393  47.826  66.104  1.00  0.00     0.039 C 
ATOM      8  C   UNL     1     108.199  49.580  64.874  1.00  0.00    -0.023 CG0
ATOM      9  G   UNL     1     107.292  50.248  63.855  1.00  0.00     0.000 G0
ENDBRANCH   5   6
ENDBRANCH   4   5
ENDBRANCH   2   4
BRANCH   1  10
ATOM     10  C   UNL     1     108.412  48.529  61.224  1.00  0.00     0.111 C 
BRANCH  10  11
ATOM     11  C   UNL     1     107.859  49.929  61.345  1.00  0.00     0.163 C 
ATOM     12  O   UNL     1     107.248  50.392  60.344  1.00  0.00    -0.294 OA
BRANCH  11  13
ATOM     13  C   UNL     1     107.980  50.770  62.582  1.00  0.00    -0.002 C 
ATOM     14  C   UNL     1     108.534  52.021  62.521  1.00  0.00    -0.069 C 
ATOM     15  C   UNL     1     108.465  52.986  63.683  1.00  0.00     0.039 C 
ATOM     16  C   UNL     1     109.294  52.489  61.301  1.00  0.00     0.039 C 
BRANCH  13  17
ATOM     17  C   UNL     1     107.306  50.267  63.853  1.00  0.00     0.066 CG0
ATOM     18  G   UNL     1     108.205  49.585  64.870  1.00  0.00     0.000 G0
ENDBRANCH  13  17
ENDBRANCH  11  13
ENDBRANCH  10  11
ENDBRANCH   1  10
TORSDOF 0
ENDMDL
MODEL 6
REMARK VINA RESULT:    -3.889      2.119      3.944
REMARK INTER + INTRA:          -4.590
REMARK INTER:                  -5.690
REMARK INTRA:                   1.100
REMARK UNBOUND:                 0.890
REMARK SMILES CC1=CCC(=C(C)C)C(=O)CC(C)=CCC1
REMARK SMILES IDX 12 1 14 2 13 3 15 4 16 5 2 6 1 7 3 8 11 10 9 11 10 12 5 13
REMARK SMILES IDX 6 14 7 15 8 16 4 17
REMARK H PARENT
REMARK Flexibility Score: 60.00
ROOT
ATOM      1  C   UNL     1     109.631  47.773  63.911  1.00  0.00    -0.070 C 
ATOM      2  C   UNL     1     110.240  47.748  62.703  1.00  0.00    -0.027 C 
ATOM      3  C   UNL     1     109.111  46.472  64.471  1.00  0.00     0.039 C 
ENDROOT
BRANCH   2   4
ATOM      4  C   UNL     1     110.683  48.966  61.935  1.00  0.00     0.032 C 
BRANCH   4   5
ATOM      5  C   UNL     1     109.527  49.488  61.073  1.00  0.00     0.034 C 
BRANCH   5   6
ATOM      6  C   UNL     1     108.375  48.508  60.993  1.00  0.00    -0.077 C 
ATOM      7  C   UNL     1     108.575  47.216  60.240  1.00  0.00     0.039 C 
ATOM      8  C   UNL     1     107.188  48.691  61.624  1.00  0.00    -0.023 CG0
ATOM      9  G   UNL     1     106.730  49.922  62.387  1.00  0.00     0.000 G0
ENDBRANCH   5   6
ENDBRANCH   4   5
ENDBRANCH   2   4
BRANCH   1  10
ATOM     10  C   UNL     1     109.464  49.033  64.736  1.00  0.00     0.111 C 
BRANCH  10  11
ATOM     11  C   UNL     1     108.093  49.642  64.564  1.00  0.00     0.163 C 
ATOM     12  O   UNL     1     107.249  49.422  65.476  1.00  0.00    -0.294 OA
BRANCH  11  13
ATOM     13  C   UNL     1     107.700  50.497  63.395  1.00  0.00    -0.002 C 
ATOM     14  C   UNL     1     108.330  51.690  63.163  1.00  0.00    -0.069 C 
ATOM     15  C   UNL     1     108.131  52.466  61.881  1.00  0.00     0.039 C 
ATOM     16  C   UNL     1     109.226  52.325  64.202  1.00  0.00     0.039 C 
BRANCH  13  17
ATOM     17  C   UNL     1     106.717  49.915  62.386  1.00  0.00     0.066 CG0
ATOM     18  G   UNL     1     107.181  48.686  61.623  1.00  0.00     0.000 G0
ENDBRANCH  13  17
ENDBRANCH  11  13
ENDBRANCH  10  11
ENDBRANCH   1  10
TORSDOF 0
ENDMDL
MODEL 7
REMARK VINA RESULT:    -3.881      1.930      4.708
REMARK INTER + INTRA:          -4.579
REMARK INTER:                  -6.453
REMARK INTRA:                   1.874
REMARK UNBOUND:                 0.890
REMARK SMILES CC1=CCC(=C(C)C)C(=O)CC(C)=CCC1
REMARK SMILES IDX 12 1 14 2 13 3 15 4 16 5 2 6 1 7 3 8 11 10 9 11 10 12 5 13
REMARK SMILES IDX 6 14 7 15 8 16 4 17
REMARK H PARENT
REMARK Flexibility Score: 60.00
ROOT
ATOM      1  C   UNL     1     108.751  49.087  60.897  1.00  0.00    -0.070 C 
ATOM      2  C   UNL     1     108.383  50.388  60.865  1.00  0.00    -0.027 C 
ATOM      3  C   UNL     1     107.795  48.064  60.336  1.00  0.00     0.039 C 
ENDROOT
BRANCH   2   4
ATOM      4  C   UNL     1     109.144  51.517  61.510  1.00  0.00     0.032 C 
BRANCH   4   5
ATOM      5  C   UNL     1     108.382  52.023  62.741  1.00  0.00     0.034 C 
BRANCH   5   6
ATOM      6  C   UNL     1     107.362  51.022  63.243  1.00  0.00    -0.077 C 
ATOM      7  C   UNL     1     105.898  51.295  62.998  1.00  0.00     0.039 C 
ATOM      8  C   UNL     1     107.692  49.850  63.841  1.00  0.00    -0.023 CG0
ATOM      9  G   UNL     1     109.078  49.379  64.246  1.00  0.00     0.000 G0
ENDBRANCH   5   6
ENDBRANCH   4   5
ENDBRANCH   2   4
BRANCH   1  10
ATOM     10  C   UNL     1     110.079  48.609  61.449  1.00  0.00     0.111 C 
BRANCH  10  11
ATOM     11  C   UNL     1     109.899  47.583  62.542  1.00  0.00     0.163 C 
ATOM     12  O   UNL     1     110.224  46.394  62.273  1.00  0.00    -0.294 OA
BRANCH  11  13
ATOM     13  C   UNL     1     109.384  47.907  63.915  1.00  0.00    -0.002 C 
ATOM     14  C   UNL     1     109.358  46.948  64.892  1.00  0.00    -0.069 C 
ATOM     15  C   UNL     1     109.070  47.285  66.337  1.00  0.00     0.039 C 
ATOM     16  C   UNL     1     109.570  45.486  64.569  1.00  0.00     0.039 C 
BRANCH  13  17
ATOM     17  C   UNL     1     109.067  49.364  64.230  1.00  0.00     0.066 CG0
ATOM     18  G   UNL     1     107.682  49.854  63.843  1.00  0.00     0.000 G0
ENDBRANCH  13  17
ENDBRANCH  11  13
ENDBRANCH  10  11
ENDBRANCH   1  10
TORSDOF 0
ENDMDL
MODEL 8
REMARK VINA RESULT:    -3.807      1.857      3.220
REMARK INTER + INTRA:          -4.475
REMARK INTER:                  -5.211
REMARK INTRA:                   0.735
REMARK UNBOUND:                 0.890
REMARK SMILES CC1=CCC(=C(C)C)C(=O)CC(C)=CCC1
REMARK SMILES IDX 12 1 14 2 13 3 15 4 16 5 2 6 1 7 3 8 11 10 9 11 10 12 5 13
REMARK SMILES IDX 6 14 7 15 8 16 4 17
REMARK H PARENT
REMARK Flexibility Score: 60.00
ROOT
ATOM      1  C   UNL     1     108.160  48.987  64.474  1.00  0.00    -0.070 C 
ATOM      2  C   UNL     1     107.695  48.246  63.442  1.00  0.00    -0.027 C 
ATOM      3  C   UNL     1     108.688  48.262  65.687  1.00  0.00     0.039 C 
ENDROOT
BRANCH   2   4
ATOM      4  C   UNL     1     107.001  48.800  62.225  1.00  0.00     0.032 C 
BRANCH   4   5
ATOM      5  C   UNL     1     107.945  48.748  61.018  1.00  0.00     0.034 C 
BRANCH   5   6
ATOM      6  C   UNL     1     109.334  48.273  61.389  1.00  0.00    -0.077 C 
ATOM      7  C   UNL     1     109.565  46.795  61.587  1.00  0.00     0.039 C 
ATOM      8  C   UNL     1     110.409  49.096  61.482  1.00  0.00    -0.023 CG0
ATOM      9  G   UNL     1     110.421  50.612  61.384  1.00  0.00     0.000 G0
ENDBRANCH   5   6
ENDBRANCH   4   5
ENDBRANCH   2   4
BRANCH   1  10
ATOM     10  C   UNL     1     108.196  50.501  64.464  1.00  0.00     0.111 C 
BRANCH  10  11
ATOM     11  C   UNL     1     109.414  51.032  63.746  1.00  0.00     0.163 C 
ATOM     12  O   UNL     1     110.466  51.174  64.427  1.00  0.00    -0.294 OA
BRANCH  11  13
ATOM     13  C   UNL     1     109.439  51.371  62.283  1.00  0.00    -0.002 C 
ATOM     14  C   UNL     1     108.717  52.430  61.802  1.00  0.00    -0.069 C 
ATOM     15  C   UNL     1     108.894  52.945  60.392  1.00  0.00     0.039 C 
ATOM     16  C   UNL     1     107.663  53.113  62.643  1.00  0.00     0.039 C 
BRANCH  13  17
ATOM     17  C   UNL     1     110.426  50.620  61.396  1.00  0.00     0.066 CG0
ATOM     18  G   UNL     1     110.408  49.105  61.497  1.00  0.00     0.000 G0
ENDBRANCH  13  17
ENDBRANCH  11  13
ENDBRANCH  10  11
ENDBRANCH   1  10
TORSDOF 0
ENDMDL
MODEL 9
REMARK VINA RESULT:    -3.710      2.534      5.233
REMARK INTER + INTRA:          -4.338
REMARK INTER:                  -4.836
REMARK INTRA:                   0.498
REMARK UNBOUND:                 0.890
REMARK SMILES CC1=CCC(=C(C)C)C(=O)CC(C)=CCC1
REMARK SMILES IDX 12 1 14 2 13 3 15 4 16 5 2 6 1 7 3 8 11 10 9 11 10 12 5 13
REMARK SMILES IDX 6 14 7 15 8 16 4 17
REMARK H PARENT
REMARK Flexibility Score: 60.00
ROOT
ATOM      1  C   UNL     1     109.738  49.378  61.475  1.00  0.00    -0.070 C 
ATOM      2  C   UNL     1     110.243  50.628  61.589  1.00  0.00    -0.027 C 
ATOM      3  C   UNL     1     110.627  48.217  61.843  1.00  0.00     0.039 C 
ENDROOT
BRANCH   2   4
ATOM      4  C   UNL     1     109.551  51.885  61.127  1.00  0.00     0.032 C 
BRANCH   4   5
ATOM      5  C   UNL     1     108.808  52.531  62.301  1.00  0.00     0.034 C 
BRANCH   5   6
ATOM      6  C   UNL     1     107.312  52.297  62.241  1.00  0.00    -0.077 C 
ATOM      7  C   UNL     1     106.492  53.106  61.268  1.00  0.00     0.039 C 
ATOM      8  C   UNL     1     106.672  51.345  62.965  1.00  0.00    -0.023 CG0
ATOM      9  G   UNL     1     107.263  50.453  64.043  1.00  0.00     0.000 G0
ENDBRANCH   5   6
ENDBRANCH   4   5
ENDBRANCH   2   4
BRANCH   1  10
ATOM     10  C   UNL     1     108.323  49.089  61.015  1.00  0.00     0.111 C 
BRANCH  10  11
ATOM     11  C   UNL     1     107.436  48.657  62.159  1.00  0.00     0.163 C 
ATOM     12  O   UNL     1     106.453  47.919  61.875  1.00  0.00    -0.294 OA
BRANCH  11  13
ATOM     13  C   UNL     1     107.676  49.038  63.591  1.00  0.00    -0.002 C 
ATOM     14  C   UNL     1     108.383  48.210  64.421  1.00  0.00    -0.069 C 
ATOM     15  C   UNL     1     108.844  48.654  65.791  1.00  0.00     0.039 C 
ATOM     16  C   UNL     1     108.700  46.784  64.032  1.00  0.00     0.039 C 
BRANCH  13  17
ATOM     17  C   UNL     1     107.269  50.439  64.032  1.00  0.00     0.066 CG0
ATOM     18  G   UNL     1     106.669  51.336  62.964  1.00  0.00     0.000 G0
ENDBRANCH  13  17
ENDBRANCH  11  13
ENDBRANCH  10  11
ENDBRANCH   1  10
TORSDOF 0
ENDMDL
