MODEL 1
REMARK VINA RESULT:    -5.406      0.000      0.000
REMARK INTER + INTRA:          -6.826
REMARK INTER:                  -6.512
REMARK INTRA:                  -0.313
REMARK UNBOUND:                -0.313
REMARK SMILES Oc1cc(O)c2cc(O)c(-c3ccc(O)c(O)c3)[o+]c2c1
REMARK SMILES IDX 10 1 19 2 20 3 21 4 2 5 3 6 4 7 6 8 7 9 8 10 11 11 12 12
REMARK SMILES IDX 13 13 14 14 18 15 16 16 15 17 17 19 9 21 1 23 5 25
REMARK H PARENT 15 18 17 20 9 22 1 24 5 26
REMARK Flexibility Score: inf
ROOT
ATOM      1  C   UNL     1      -4.234  88.242  -8.413  1.00  0.00     0.402 A 
ATOM      2  O   UNL     1      -4.880  87.285  -9.074  1.00  0.00    -0.202 OA
ATOM      3  C   UNL     1      -4.504  86.010  -9.064  1.00  0.00     0.368 A 
ATOM      4  C   UNL     1      -5.248  85.076  -9.791  1.00  0.00     0.162 A 
ATOM      5  C   UNL     1      -4.874  83.732  -9.803  1.00  0.00     0.128 A 
ATOM      6  C   UNL     1      -3.748  83.316  -9.084  1.00  0.00     0.093 A 
ATOM      7  C   UNL     1      -2.987  84.231  -8.347  1.00  0.00     0.136 A 
ATOM      8  C   UNL     1      -3.365  85.599  -8.331  1.00  0.00     0.125 A 
ATOM      9  C   UNL     1      -2.670  86.584  -7.611  1.00  0.00     0.078 A 
ATOM     10  C   UNL     1      -3.106  87.912  -7.639  1.00  0.00     0.223 A 
ENDROOT
BRANCH   1  11
ATOM     11  C   UNL     1      -4.746  89.628  -8.510  1.00  0.00     0.087 A 
ATOM     12  C   UNL     1      -5.505  90.202  -7.475  1.00  0.00     0.022 A 
ATOM     13  C   UNL     1      -5.959  91.519  -7.580  1.00  0.00     0.051 A 
ATOM     14  C   UNL     1      -5.651  92.285  -8.711  1.00  0.00     0.157 A 
ATOM     15  C   UNL     1      -4.424  90.407  -9.634  1.00  0.00     0.068 A 
ATOM     16  C   UNL     1      -4.880  91.729  -9.739  1.00  0.00     0.158 A 
BRANCH  14  17
ATOM     17  O   UNL     1      -6.104  93.599  -8.819  1.00  0.00    -0.504 OA
ATOM     18  H   UNL     1      -6.778  93.871  -9.525  1.00  0.00     0.293 HD
ENDBRANCH  14  17
BRANCH  16  19
ATOM     19  O   UNL     1      -4.568  92.496 -10.861  1.00  0.00    -0.504 OA
ATOM     20  H   UNL     1      -4.451  92.074 -11.774  1.00  0.00     0.293 HD
ENDBRANCH  16  19
ENDBRANCH   1  11
BRANCH  10  21
ATOM     21  O   UNL     1      -2.446  88.882  -6.884  1.00  0.00    -0.500 OA
ATOM     22  H   UNL     1      -1.996  89.680  -7.319  1.00  0.00     0.294 HD
ENDBRANCH  10  21
BRANCH   5  23
ATOM     23  O   UNL     1      -5.628  82.817 -10.534  1.00  0.00    -0.507 OA
ATOM     24  H   UNL     1      -5.189  82.137 -11.144  1.00  0.00     0.293 HD
ENDBRANCH   5  23
BRANCH   7  25
ATOM     25  O   UNL     1      -1.875  83.737  -7.659  1.00  0.00    -0.507 OA
ATOM     26  H   UNL     1      -1.326  84.274  -7.004  1.00  0.00     0.293 HD
ENDBRANCH   7  25
TORSDOF 6
ENDMDL
MODEL 2
REMARK VINA RESULT:    -5.138      6.470      8.448
REMARK INTER + INTRA:          -6.503
REMARK INTER:                  -6.198
REMARK INTRA:                  -0.305
REMARK UNBOUND:                -0.313
REMARK SMILES Oc1cc(O)c2cc(O)c(-c3ccc(O)c(O)c3)[o+]c2c1
REMARK SMILES IDX 10 1 19 2 20 3 21 4 2 5 3 6 4 7 6 8 7 9 8 10 11 11 12 12
REMARK SMILES IDX 13 13 14 14 18 15 16 16 15 17 17 19 9 21 1 23 5 25
REMARK H PARENT 15 18 17 20 9 22 1 24 5 26
REMARK Flexibility Score: inf
ROOT
ATOM      1  C   UNL     1      -8.462  91.305 -13.363  1.00  0.00     0.402 A 
ATOM      2  O   UNL     1      -7.852  91.111 -14.530  1.00  0.00    -0.202 OA
ATOM      3  C   UNL     1      -6.531  91.088 -14.667  1.00  0.00     0.368 A 
ATOM      4  C   UNL     1      -5.983  90.880 -15.936  1.00  0.00     0.162 A 
ATOM      5  C   UNL     1      -4.599  90.854 -16.111  1.00  0.00     0.128 A 
ATOM      6  C   UNL     1      -3.755  91.038 -15.011  1.00  0.00     0.093 A 
ATOM      7  C   UNL     1      -4.278  91.247 -13.730  1.00  0.00     0.136 A 
ATOM      8  C   UNL     1      -5.685  91.272 -13.547  1.00  0.00     0.125 A 
ATOM      9  C   UNL     1      -6.299  91.463 -12.298  1.00  0.00     0.078 A 
ATOM     10  C   UNL     1      -7.693  91.471 -12.196  1.00  0.00     0.223 A 
ENDROOT
BRANCH   1  11
ATOM     11  C   UNL     1      -9.943  91.320 -13.341  1.00  0.00     0.087 A 
ATOM     12  C   UNL     1     -10.661  92.519 -13.187  1.00  0.00     0.022 A 
ATOM     13  C   UNL     1     -12.058  92.511 -13.192  1.00  0.00     0.051 A 
ATOM     14  C   UNL     1     -12.757  91.309 -13.364  1.00  0.00     0.157 A 
ATOM     15  C   UNL     1     -10.649  90.120 -13.533  1.00  0.00     0.068 A 
ATOM     16  C   UNL     1     -12.051  90.112 -13.537  1.00  0.00     0.158 A 
BRANCH  14  17
ATOM     17  O   UNL     1     -14.151  91.297 -13.368  1.00  0.00    -0.504 OA
ATOM     18  H   UNL     1     -14.682  91.659 -14.151  1.00  0.00     0.293 HD
ENDBRANCH  14  17
BRANCH  16  19
ATOM     19  O   UNL     1     -12.749  88.918 -13.716  1.00  0.00    -0.504 OA
ATOM     20  H   UNL     1     -13.756  88.904 -13.818  1.00  0.00     0.293 HD
ENDBRANCH  16  19
ENDBRANCH   1  11
BRANCH  10  21
ATOM     21  O   UNL     1      -8.303  91.610 -10.949  1.00  0.00    -0.500 OA
ATOM     22  H   UNL     1      -9.287  91.407 -10.812  1.00  0.00     0.294 HD
ENDBRANCH  10  21
BRANCH   5  23
ATOM     23  O   UNL     1      -4.072  90.645 -17.384  1.00  0.00    -0.507 OA
ATOM     24  H   UNL     1      -4.617  90.828 -18.219  1.00  0.00     0.293 HD
ENDBRANCH   5  23
BRANCH   7  25
ATOM     25  O   UNL     1      -3.368  91.426 -12.683  1.00  0.00    -0.507 OA
ATOM     26  H   UNL     1      -3.488  92.087 -11.930  1.00  0.00     0.293 HD
ENDBRANCH   7  25
TORSDOF 6
ENDMDL
MODEL 3
REMARK VINA RESULT:    -5.111      4.628      6.930
REMARK INTER + INTRA:          -6.470
REMARK INTER:                  -6.141
REMARK INTRA:                  -0.329
REMARK UNBOUND:                -0.313
REMARK SMILES Oc1cc(O)c2cc(O)c(-c3ccc(O)c(O)c3)[o+]c2c1
REMARK SMILES IDX 10 1 19 2 20 3 21 4 2 5 3 6 4 7 6 8 7 9 8 10 11 11 12 12
REMARK SMILES IDX 13 13 14 14 18 15 16 16 15 17 17 19 9 21 1 23 5 25
REMARK H PARENT 15 18 17 20 9 22 1 24 5 26
REMARK Flexibility Score: inf
ROOT
ATOM      1  C   UNL     1      -6.228  90.329 -13.078  1.00  0.00     0.402 A 
ATOM      2  O   UNL     1      -5.376  90.753 -12.148  1.00  0.00    -0.202 OA
ATOM      3  C   UNL     1      -5.395  90.324 -10.890  1.00  0.00     0.368 A 
ATOM      4  C   UNL     1      -4.459  90.831  -9.984  1.00  0.00     0.162 A 
ATOM      5  C   UNL     1      -4.458  90.401  -8.657  1.00  0.00     0.128 A 
ATOM      6  C   UNL     1      -5.400  89.459  -8.229  1.00  0.00     0.093 A 
ATOM      7  C   UNL     1      -6.347  88.935  -9.117  1.00  0.00     0.136 A 
ATOM      8  C   UNL     1      -6.350  89.368 -10.469  1.00  0.00     0.125 A 
ATOM      9  C   UNL     1      -7.254  88.889 -11.431  1.00  0.00     0.078 A 
ATOM     10  C   UNL     1      -7.193  89.359 -12.746  1.00  0.00     0.223 A 
ENDROOT
BRANCH   1  11
ATOM     11  C   UNL     1      -6.111  90.891 -14.442  1.00  0.00     0.087 A 
ATOM     12  C   UNL     1      -6.993  91.885 -14.903  1.00  0.00     0.022 A 
ATOM     13  C   UNL     1      -6.849  92.416 -16.188  1.00  0.00     0.051 A 
ATOM     14  C   UNL     1      -5.816  91.972 -17.024  1.00  0.00     0.157 A 
ATOM     15  C   UNL     1      -5.065  90.465 -15.278  1.00  0.00     0.068 A 
ATOM     16  C   UNL     1      -4.921  90.997 -16.567  1.00  0.00     0.158 A 
BRANCH  14  17
ATOM     17  O   UNL     1      -5.670  92.499 -18.306  1.00  0.00    -0.504 OA
ATOM     18  H   UNL     1      -6.462  92.601 -18.930  1.00  0.00     0.293 HD
ENDBRANCH  14  17
BRANCH  16  19
ATOM     19  O   UNL     1      -3.889  90.563 -17.398  1.00  0.00    -0.504 OA
ATOM     20  H   UNL     1      -2.919  90.621 -17.113  1.00  0.00     0.293 HD
ENDBRANCH  16  19
ENDBRANCH   1  11
BRANCH  10  21
ATOM     21  O   UNL     1      -8.057  88.847 -13.714  1.00  0.00    -0.500 OA
ATOM     22  H   UNL     1      -8.185  87.849 -13.838  1.00  0.00     0.294 HD
ENDBRANCH  10  21
BRANCH   5  23
ATOM     23  O   UNL     1      -3.517  90.919  -7.770  1.00  0.00    -0.507 OA
ATOM     24  H   UNL     1      -3.505  90.647  -6.793  1.00  0.00     0.293 HD
ENDBRANCH   5  23
BRANCH   7  25
ATOM     25  O   UNL     1      -7.255  88.000  -8.611  1.00  0.00    -0.507 OA
ATOM     26  H   UNL     1      -7.116  87.473  -7.761  1.00  0.00     0.293 HD
ENDBRANCH   7  25
TORSDOF 6
ENDMDL
MODEL 4
REMARK VINA RESULT:    -5.104      4.756      7.784
REMARK INTER + INTRA:          -6.462
REMARK INTER:                  -6.190
REMARK INTRA:                  -0.271
REMARK UNBOUND:                -0.313
REMARK SMILES Oc1cc(O)c2cc(O)c(-c3ccc(O)c(O)c3)[o+]c2c1
REMARK SMILES IDX 10 1 19 2 20 3 21 4 2 5 3 6 4 7 6 8 7 9 8 10 11 11 12 12
REMARK SMILES IDX 13 13 14 14 18 15 16 16 15 17 17 19 9 21 1 23 5 25
REMARK H PARENT 15 18 17 20 9 22 1 24 5 26
REMARK Flexibility Score: inf
ROOT
ATOM      1  C   UNL     1      -7.555  84.018  -8.827  1.00  0.00     0.402 A 
ATOM      2  O   UNL     1      -8.407  83.035  -9.105  1.00  0.00    -0.202 OA
ATOM      3  C   UNL     1      -9.720  83.214  -9.203  1.00  0.00     0.368 A 
ATOM      4  C   UNL     1     -10.536  82.118  -9.497  1.00  0.00     0.162 A 
ATOM      5  C   UNL     1     -11.918  82.275  -9.602  1.00  0.00     0.128 A 
ATOM      6  C   UNL     1     -12.492  83.536  -9.411  1.00  0.00     0.093 A 
ATOM      7  C   UNL     1     -11.697  84.650  -9.116  1.00  0.00     0.136 A 
ATOM      8  C   UNL     1     -10.290  84.495  -9.010  1.00  0.00     0.125 A 
ATOM      9  C   UNL     1      -9.415  85.556  -8.730  1.00  0.00     0.078 A 
ATOM     10  C   UNL     1      -8.039  85.327  -8.646  1.00  0.00     0.223 A 
ENDROOT
BRANCH   1  11
ATOM     11  C   UNL     1      -6.114  83.690  -8.735  1.00  0.00     0.087 A 
ATOM     12  C   UNL     1      -5.430  83.729  -7.507  1.00  0.00     0.022 A 
ATOM     13  C   UNL     1      -4.076  83.393  -7.441  1.00  0.00     0.051 A 
ATOM     14  C   UNL     1      -3.389  83.001  -8.597  1.00  0.00     0.157 A 
ATOM     15  C   UNL     1      -5.424  83.276  -9.887  1.00  0.00     0.068 A 
ATOM     16  C   UNL     1      -4.065  82.939  -9.822  1.00  0.00     0.158 A 
BRANCH  14  17
ATOM     17  O   UNL     1      -2.036  82.667  -8.535  1.00  0.00    -0.504 OA
ATOM     18  H   UNL     1      -1.673  81.841  -8.997  1.00  0.00     0.293 HD
ENDBRANCH  14  17
BRANCH  16  19
ATOM     19  O   UNL     1      -3.380  82.541 -10.969  1.00  0.00    -0.504 OA
ATOM     20  H   UNL     1      -3.780  82.660 -11.892  1.00  0.00     0.293 HD
ENDBRANCH  16  19
ENDBRANCH   1  11
BRANCH  10  21
ATOM     21  O   UNL     1      -7.164  86.390  -8.418  1.00  0.00    -0.500 OA
ATOM     22  H   UNL     1      -7.477  87.254  -7.990  1.00  0.00     0.294 HD
ENDBRANCH  10  21
BRANCH   5  23
ATOM     23  O   UNL     1     -12.714  81.170  -9.897  1.00  0.00    -0.507 OA
ATOM     24  H   UNL     1     -12.762  80.371  -9.274  1.00  0.00     0.293 HD
ENDBRANCH   5  23
BRANCH   7  25
ATOM     25  O   UNL     1     -12.347  85.875  -8.935  1.00  0.00    -0.507 OA
ATOM     26  H   UNL     1     -13.169  86.165  -9.446  1.00  0.00     0.293 HD
ENDBRANCH   7  25
TORSDOF 6
ENDMDL
MODEL 5
REMARK VINA RESULT:    -5.080     10.601     13.297
REMARK INTER + INTRA:          -6.433
REMARK INTER:                  -6.140
REMARK INTRA:                  -0.292
REMARK UNBOUND:                -0.313
REMARK SMILES Oc1cc(O)c2cc(O)c(-c3ccc(O)c(O)c3)[o+]c2c1
REMARK SMILES IDX 10 1 19 2 20 3 21 4 2 5 3 6 4 7 6 8 7 9 8 10 11 11 12 12
REMARK SMILES IDX 13 13 14 14 18 15 16 16 15 17 17 19 9 21 1 23 5 25
REMARK H PARENT 15 18 17 20 9 22 1 24 5 26
REMARK Flexibility Score: inf
ROOT
ATOM      1  C   UNL     1      -2.922  91.806 -19.595  1.00  0.00     0.402 A 
ATOM      2  O   UNL     1      -3.412  92.933 -20.106  1.00  0.00    -0.202 OA
ATOM      3  C   UNL     1      -3.364  93.229 -21.400  1.00  0.00     0.368 A 
ATOM      4  C   UNL     1      -3.904  94.440 -21.841  1.00  0.00     0.162 A 
ATOM      5  C   UNL     1      -3.864  94.779 -23.194  1.00  0.00     0.128 A 
ATOM      6  C   UNL     1      -3.280  93.902 -24.115  1.00  0.00     0.093 A 
ATOM      7  C   UNL     1      -2.733  92.683 -23.699  1.00  0.00     0.136 A 
ATOM      8  C   UNL     1      -2.773  92.334 -22.324  1.00  0.00     0.125 A 
ATOM      9  C   UNL     1      -2.260  91.128 -21.817  1.00  0.00     0.078 A 
ATOM     10  C   UNL     1      -2.340  90.851 -20.450  1.00  0.00     0.223 A 
ENDROOT
BRANCH   1  11
ATOM     11  C   UNL     1      -3.027  91.596 -18.133  1.00  0.00     0.087 A 
ATOM     12  C   UNL     1      -1.897  91.672 -17.299  1.00  0.00     0.022 A 
ATOM     13  C   UNL     1      -2.025  91.493 -15.919  1.00  0.00     0.051 A 
ATOM     14  C   UNL     1      -3.282  91.249 -15.352  1.00  0.00     0.157 A 
ATOM     15  C   UNL     1      -4.288  91.372 -17.556  1.00  0.00     0.068 A 
ATOM     16  C   UNL     1      -4.416  91.191 -16.171  1.00  0.00     0.158 A 
BRANCH  14  17
ATOM     17  O   UNL     1      -3.413  91.068 -13.976  1.00  0.00    -0.504 OA
ATOM     18  H   UNL     1      -4.308  90.857 -13.552  1.00  0.00     0.293 HD
ENDBRANCH  14  17
BRANCH  16  19
ATOM     19  O   UNL     1      -5.667  90.956 -15.603  1.00  0.00    -0.504 OA
ATOM     20  H   UNL     1      -6.514  90.982 -16.158  1.00  0.00     0.293 HD
ENDBRANCH  16  19
ENDBRANCH   1  11
BRANCH  10  21
ATOM     21  O   UNL     1      -1.877  89.632 -19.954  1.00  0.00    -0.500 OA
ATOM     22  H   UNL     1      -1.962  88.774 -20.486  1.00  0.00     0.294 HD
ENDBRANCH  10  21
BRANCH   5  23
ATOM     23  O   UNL     1      -4.409  95.991 -23.614  1.00  0.00    -0.507 OA
ATOM     24  H   UNL     1      -4.754  96.117 -24.559  1.00  0.00     0.293 HD
ENDBRANCH   5  23
BRANCH   7  25
ATOM     25  O   UNL     1      -2.164  91.864 -24.680  1.00  0.00    -0.507 OA
ATOM     26  H   UNL     1      -1.666  92.207 -25.489  1.00  0.00     0.293 HD
ENDBRANCH   7  25
TORSDOF 6
ENDMDL
MODEL 6
REMARK VINA RESULT:    -5.015      5.888      8.023
REMARK INTER + INTRA:          -6.354
REMARK INTER:                  -6.048
REMARK INTRA:                  -0.307
REMARK UNBOUND:                -0.313
REMARK SMILES Oc1cc(O)c2cc(O)c(-c3ccc(O)c(O)c3)[o+]c2c1
REMARK SMILES IDX 10 1 19 2 20 3 21 4 2 5 3 6 4 7 6 8 7 9 8 10 11 11 12 12
REMARK SMILES IDX 13 13 14 14 18 15 16 16 15 17 17 19 9 21 1 23 5 25
REMARK H PARENT 15 18 17 20 9 22 1 24 5 26
REMARK Flexibility Score: inf
ROOT
ATOM      1  C   UNL     1      -5.639  91.672 -14.846  1.00  0.00     0.402 A 
ATOM      2  O   UNL     1      -6.404  90.685 -14.384  1.00  0.00    -0.202 OA
ATOM      3  C   UNL     1      -6.349  90.245 -13.132  1.00  0.00     0.368 A 
ATOM      4  C   UNL     1      -7.192  89.201 -12.741  1.00  0.00     0.162 A 
ATOM      5  C   UNL     1      -7.153  88.715 -11.433  1.00  0.00     0.128 A 
ATOM      6  C   UNL     1      -6.265  89.275 -10.509  1.00  0.00     0.093 A 
ATOM      7  C   UNL     1      -5.411  90.322 -10.875  1.00  0.00     0.136 A 
ATOM      8  C   UNL     1      -5.449  90.820 -12.203  1.00  0.00     0.125 A 
ATOM      9  C   UNL     1      -4.639  91.874 -12.657  1.00  0.00     0.078 A 
ATOM     10  C   UNL     1      -4.736  92.314 -13.979  1.00  0.00     0.223 A 
ENDROOT
BRANCH   1  11
ATOM     11  C   UNL     1      -5.787  92.066 -16.266  1.00  0.00     0.087 A 
ATOM     12  C   UNL     1      -6.855  92.875 -16.694  1.00  0.00     0.022 A 
ATOM     13  C   UNL     1      -6.961  93.252 -18.035  1.00  0.00     0.051 A 
ATOM     14  C   UNL     1      -5.997  92.839 -18.963  1.00  0.00     0.157 A 
ATOM     15  C   UNL     1      -4.813  91.672 -17.198  1.00  0.00     0.068 A 
ATOM     16  C   UNL     1      -4.920  92.050 -18.544  1.00  0.00     0.158 A 
BRANCH  14  17
ATOM     17  O   UNL     1      -6.101  93.213 -20.302  1.00  0.00    -0.504 OA
ATOM     18  H   UNL     1      -6.887  93.756 -20.641  1.00  0.00     0.293 HD
ENDBRANCH  14  17
BRANCH  16  19
ATOM     19  O   UNL     1      -3.958  91.647 -19.468  1.00  0.00    -0.504 OA
ATOM     20  H   UNL     1      -3.612  92.277 -20.182  1.00  0.00     0.293 HD
ENDBRANCH  16  19
ENDBRANCH   1  11
BRANCH  10  21
ATOM     21  O   UNL     1      -3.968  93.394 -14.416  1.00  0.00    -0.500 OA
ATOM     22  H   UNL     1      -3.005  93.515 -14.123  1.00  0.00     0.294 HD
ENDBRANCH  10  21
BRANCH   5  23
ATOM     23  O   UNL     1      -8.001  87.674 -11.063  1.00  0.00    -0.507 OA
ATOM     24  H   UNL     1      -8.631  87.242 -11.729  1.00  0.00     0.293 HD
ENDBRANCH   5  23
BRANCH   7  25
ATOM     25  O   UNL     1      -4.551  90.825  -9.894  1.00  0.00    -0.507 OA
ATOM     26  H   UNL     1      -4.858  91.267  -9.040  1.00  0.00     0.293 HD
ENDBRANCH   7  25
TORSDOF 6
ENDMDL
MODEL 7
REMARK VINA RESULT:    -4.991      7.161     10.035
REMARK INTER + INTRA:          -6.325
REMARK INTER:                  -5.977
REMARK INTRA:                  -0.347
REMARK UNBOUND:                -0.313
REMARK SMILES Oc1cc(O)c2cc(O)c(-c3ccc(O)c(O)c3)[o+]c2c1
REMARK SMILES IDX 10 1 19 2 20 3 21 4 2 5 3 6 4 7 6 8 7 9 8 10 11 11 12 12
REMARK SMILES IDX 13 13 14 14 18 15 16 16 15 17 17 19 9 21 1 23 5 25
REMARK H PARENT 15 18 17 20 9 22 1 24 5 26
REMARK Flexibility Score: inf
ROOT
ATOM      1  C   UNL     1      -3.945  92.001 -15.801  1.00  0.00     0.402 A 
ATOM      2  O   UNL     1      -4.813  92.592 -16.619  1.00  0.00    -0.202 OA
ATOM      3  C   UNL     1      -4.623  92.698 -17.930  1.00  0.00     0.368 A 
ATOM      4  C   UNL     1      -5.592  93.338 -18.708  1.00  0.00     0.162 A 
ATOM      5  C   UNL     1      -5.417  93.468 -20.086  1.00  0.00     0.128 A 
ATOM      6  C   UNL     1      -4.266  92.955 -20.693  1.00  0.00     0.093 A 
ATOM      7  C   UNL     1      -3.282  92.308 -19.937  1.00  0.00     0.136 A 
ATOM      8  C   UNL     1      -3.456  92.173 -18.535  1.00  0.00     0.125 A 
ATOM      9  C   UNL     1      -2.528  91.530 -17.700  1.00  0.00     0.078 A 
ATOM     10  C   UNL     1      -2.772  91.431 -16.327  1.00  0.00     0.223 A 
ENDROOT
BRANCH   1  11
ATOM     11  C   UNL     1      -4.266  91.956 -14.356  1.00  0.00     0.087 A 
ATOM     12  C   UNL     1      -4.949  90.864 -13.792  1.00  0.00     0.022 A 
ATOM     13  C   UNL     1      -5.221  90.833 -12.422  1.00  0.00     0.051 A 
ATOM     14  C   UNL     1      -4.804  91.883 -11.594  1.00  0.00     0.157 A 
ATOM     15  C   UNL     1      -3.832  92.997 -13.518  1.00  0.00     0.068 A 
ATOM     16  C   UNL     1      -4.105  92.966 -12.143  1.00  0.00     0.158 A 
BRANCH  14  17
ATOM     17  O   UNL     1      -5.075  91.856 -10.227  1.00  0.00    -0.504 OA
ATOM     18  H   UNL     1      -4.484  91.346  -9.580  1.00  0.00     0.293 HD
ENDBRANCH  14  17
BRANCH  16  19
ATOM     19  O   UNL     1      -3.684  94.006 -11.317  1.00  0.00    -0.504 OA
ATOM     20  H   UNL     1      -3.689  94.968 -11.632  1.00  0.00     0.293 HD
ENDBRANCH  16  19
ENDBRANCH   1  11
BRANCH  10  21
ATOM     21  O   UNL     1      -1.875  90.748 -15.504  1.00  0.00    -0.500 OA
ATOM     22  H   UNL     1      -0.887  90.691 -15.726  1.00  0.00     0.294 HD
ENDBRANCH  10  21
BRANCH   5  23
ATOM     23  O   UNL     1      -6.395  94.110 -20.844  1.00  0.00    -0.507 OA
ATOM     24  H   UNL     1      -6.572  95.103 -20.747  1.00  0.00     0.293 HD
ENDBRANCH   5  23
BRANCH   7  25
ATOM     25  O   UNL     1      -2.159  91.826 -20.618  1.00  0.00    -0.507 OA
ATOM     26  H   UNL     1      -1.767  90.906 -20.489  1.00  0.00     0.293 HD
ENDBRANCH   7  25
TORSDOF 6
ENDMDL
MODEL 8
REMARK VINA RESULT:    -4.968      8.838     11.755
REMARK INTER + INTRA:          -6.297
REMARK INTER:                  -5.980
REMARK INTRA:                  -0.318
REMARK UNBOUND:                -0.313
REMARK SMILES Oc1cc(O)c2cc(O)c(-c3ccc(O)c(O)c3)[o+]c2c1
REMARK SMILES IDX 10 1 19 2 20 3 21 4 2 5 3 6 4 7 6 8 7 9 8 10 11 11 12 12
REMARK SMILES IDX 13 13 14 14 18 15 16 16 15 17 17 19 9 21 1 23 5 25
REMARK H PARENT 15 18 17 20 9 22 1 24 5 26
REMARK Flexibility Score: inf
ROOT
ATOM      1  C   UNL     1      -4.011  91.958 -17.783  1.00  0.00     0.402 A 
ATOM      2  O   UNL     1      -4.859  92.705 -18.486  1.00  0.00    -0.202 OA
ATOM      3  C   UNL     1      -4.606  93.130 -19.719  1.00  0.00     0.368 A 
ATOM      4  C   UNL     1      -5.559  93.913 -20.377  1.00  0.00     0.162 A 
ATOM      5  C   UNL     1      -5.319  94.377 -21.671  1.00  0.00     0.128 A 
ATOM      6  C   UNL     1      -4.118  94.059 -22.313  1.00  0.00     0.093 A 
ATOM      7  C   UNL     1      -3.148  93.276 -21.677  1.00  0.00     0.136 A 
ATOM      8  C   UNL     1      -3.389  92.800 -20.362  1.00  0.00     0.125 A 
ATOM      9  C   UNL     1      -2.480  92.000 -19.651  1.00  0.00     0.078 A 
ATOM     10  C   UNL     1      -2.789  91.564 -18.360  1.00  0.00     0.223 A 
ENDROOT
BRANCH   1  11
ATOM     11  C   UNL     1      -4.403  91.555 -16.414  1.00  0.00     0.087 A 
ATOM     12  C   UNL     1      -5.277  90.475 -16.190  1.00  0.00     0.022 A 
ATOM     13  C   UNL     1      -5.615  90.099 -14.888  1.00  0.00     0.051 A 
ATOM     14  C   UNL     1      -5.077  90.785 -13.792  1.00  0.00     0.157 A 
ATOM     15  C   UNL     1      -3.850  92.226 -15.310  1.00  0.00     0.068 A 
ATOM     16  C   UNL     1      -4.191  91.849 -14.003  1.00  0.00     0.158 A 
BRANCH  14  17
ATOM     17  O   UNL     1      -5.414  90.413 -12.491  1.00  0.00    -0.504 OA
ATOM     18  H   UNL     1      -4.751  89.944 -11.886  1.00  0.00     0.293 HD
ENDBRANCH  14  17
BRANCH  16  19
ATOM     19  O   UNL     1      -3.650  92.525 -12.910  1.00  0.00    -0.504 OA
ATOM     20  H   UNL     1      -2.803  92.206 -12.457  1.00  0.00     0.293 HD
ENDBRANCH  16  19
ENDBRANCH   1  11
BRANCH  10  21
ATOM     21  O   UNL     1      -1.908  90.728 -17.673  1.00  0.00    -0.500 OA
ATOM     22  H   UNL     1      -2.031  89.721 -17.660  1.00  0.00     0.294 HD
ENDBRANCH  10  21
BRANCH   5  23
ATOM     23  O   UNL     1      -6.282  95.156 -22.309  1.00  0.00    -0.507 OA
ATOM     24  H   UNL     1      -6.037  96.020 -22.780  1.00  0.00     0.293 HD
ENDBRANCH   5  23
BRANCH   7  25
ATOM     25  O   UNL     1      -1.973  93.005 -22.386  1.00  0.00    -0.507 OA
ATOM     26  H   UNL     1      -1.582  92.082 -22.508  1.00  0.00     0.293 HD
ENDBRANCH   7  25
TORSDOF 6
ENDMDL
MODEL 9
REMARK VINA RESULT:    -4.950      1.375      2.675
REMARK INTER + INTRA:          -6.276
REMARK INTER:                  -6.143
REMARK INTRA:                  -0.133
REMARK UNBOUND:                -0.313
REMARK SMILES Oc1cc(O)c2cc(O)c(-c3ccc(O)c(O)c3)[o+]c2c1
REMARK SMILES IDX 10 1 19 2 20 3 21 4 2 5 3 6 4 7 6 8 7 9 8 10 11 11 12 12
REMARK SMILES IDX 13 13 14 14 18 15 16 16 15 17 17 19 9 21 1 23 5 25
REMARK H PARENT 15 18 17 20 9 22 1 24 5 26
REMARK Flexibility Score: inf
ROOT
ATOM      1  C   UNL     1      -5.200  88.031  -9.058  1.00  0.00     0.402 A 
ATOM      2  O   UNL     1      -4.200  87.175  -8.866  1.00  0.00    -0.202 OA
ATOM      3  C   UNL     1      -4.329  85.860  -9.007  1.00  0.00     0.368 A 
ATOM      4  C   UNL     1      -3.220  85.039  -8.780  1.00  0.00     0.162 A 
ATOM      5  C   UNL     1      -3.328  83.655  -8.917  1.00  0.00     0.128 A 
ATOM      6  C   UNL     1      -4.551  83.084  -9.281  1.00  0.00     0.093 A 
ATOM      7  C   UNL     1      -5.677  83.883  -9.514  1.00  0.00     0.136 A 
ATOM      8  C   UNL     1      -5.572  85.292  -9.378  1.00  0.00     0.125 A 
ATOM      9  C   UNL     1      -6.643  86.172  -9.603  1.00  0.00     0.078 A 
ATOM     10  C   UNL     1      -6.462  87.550  -9.455  1.00  0.00     0.223 A 
ENDROOT
BRANCH   1  11
ATOM     11  C   UNL     1      -4.933  89.474  -8.860  1.00  0.00     0.087 A 
ATOM     12  C   UNL     1      -4.491  89.974  -7.623  1.00  0.00     0.022 A 
ATOM     13  C   UNL     1      -4.224  91.337  -7.466  1.00  0.00     0.051 A 
ATOM     14  C   UNL     1      -4.381  92.216  -8.546  1.00  0.00     0.157 A 
ATOM     15  C   UNL     1      -5.069  90.358  -9.945  1.00  0.00     0.068 A 
ATOM     16  C   UNL     1      -4.802  91.725  -9.788  1.00  0.00     0.158 A 
BRANCH  14  17
ATOM     17  O   UNL     1      -4.117  93.576  -8.392  1.00  0.00    -0.504 OA
ATOM     18  H   UNL     1      -4.527  94.268  -9.009  1.00  0.00     0.293 HD
ENDBRANCH  14  17
BRANCH  16  19
ATOM     19  O   UNL     1      -4.950  92.601 -10.862  1.00  0.00    -0.504 OA
ATOM     20  H   UNL     1      -4.162  93.109 -11.244  1.00  0.00     0.293 HD
ENDBRANCH  16  19
ENDBRANCH   1  11
BRANCH  10  21
ATOM     21  O   UNL     1      -7.511  88.428  -9.727  1.00  0.00    -0.500 OA
ATOM     22  H   UNL     1      -7.364  89.289 -10.241  1.00  0.00     0.294 HD
ENDBRANCH  10  21
BRANCH   5  23
ATOM     23  O   UNL     1      -2.210  82.855  -8.687  1.00  0.00    -0.507 OA
ATOM     24  H   UNL     1      -1.669  82.469  -9.453  1.00  0.00     0.293 HD
ENDBRANCH   5  23
BRANCH   7  25
ATOM     25  O   UNL     1      -6.864  83.235  -9.871  1.00  0.00    -0.507 OA
ATOM     26  H   UNL     1      -7.759  83.693  -9.955  1.00  0.00     0.293 HD
ENDBRANCH   7  25
TORSDOF 6
ENDMDL
