MODEL 1
REMARK VINA RESULT:    -2.333      0.000      0.000
REMARK INTER + INTRA:          -2.401
REMARK INTER:                  -2.401
REMARK INTRA:                   0.000
REMARK UNBOUND:                 0.000
REMARK SMILES O=c1ccc2ccc(O)cc2o1
REMARK SMILES IDX 6 1 7 2 8 3 10 4 11 5 5 6 4 7 3 8 2 9 1 10 12 11 9 12
REMARK H PARENT 9 13
REMARK Flexibility Score: inf
ROOT
ATOM      1  C   UNL     1      -5.430  -2.087   2.467  1.00  0.00     0.016 A 
ATOM      2  C   UNL     1      -5.802  -2.660   1.246  1.00  0.00     0.047 A 
ATOM      3  C   UNL     1      -5.036  -2.428   0.094  1.00  0.00     0.119 A 
ATOM      4  C   UNL     1      -3.895  -1.620   0.164  1.00  0.00     0.094 A 
ATOM      5  C   UNL     1      -3.516  -1.043   1.381  1.00  0.00     0.142 A 
ATOM      6  C   UNL     1      -4.288  -1.278   2.540  1.00  0.00     0.018 A 
ATOM      7  C   UNL     1      -3.884  -0.686   3.741  1.00  0.00     0.019 A 
ATOM      8  C   UNL     1      -2.740   0.111   3.761  1.00  0.00     0.094 A 
ATOM      9  C   UNL     1      -2.024   0.299   2.574  1.00  0.00     0.336 A 
ATOM     10  O   UNL     1      -0.989   1.015   2.571  1.00  0.00    -0.246 OA
ATOM     11  O   UNL     1      -2.431  -0.275   1.444  1.00  0.00    -0.423 OA
ENDROOT
BRANCH   3  12
ATOM     12  O   UNL     1      -5.400  -2.996  -1.125  1.00  0.00    -0.508 OA
ATOM     13  H   UNL     1      -6.330  -3.368  -1.278  1.00  0.00     0.293 HD
ENDBRANCH   3  12
TORSDOF 1
ENDMDL
MODEL 2
REMARK VINA RESULT:    -0.336      0.782      4.219
REMARK INTER + INTRA:          -0.346
REMARK INTER:                  -0.346
REMARK INTRA:                   0.000
REMARK UNBOUND:                 0.000
REMARK SMILES O=c1ccc2ccc(O)cc2o1
REMARK SMILES IDX 6 1 7 2 8 3 10 4 11 5 5 6 4 7 3 8 2 9 1 10 12 11 9 12
REMARK H PARENT 9 13
REMARK Flexibility Score: inf
ROOT
ATOM      1  C   UNL     1      -3.877  -0.869   3.947  1.00  0.00     0.016 A 
ATOM      2  C   UNL     1      -2.711  -0.121   4.141  1.00  0.00     0.047 A 
ATOM      3  C   UNL     1      -1.922   0.256   3.044  1.00  0.00     0.119 A 
ATOM      4  C   UNL     1      -2.302  -0.117   1.750  1.00  0.00     0.094 A 
ATOM      5  C   UNL     1      -3.465  -0.866   1.546  1.00  0.00     0.142 A 
ATOM      6  C   UNL     1      -4.259  -1.244   2.652  1.00  0.00     0.018 A 
ATOM      7  C   UNL     1      -5.416  -1.993   2.417  1.00  0.00     0.019 A 
ATOM      8  C   UNL     1      -5.753  -2.341   1.109  1.00  0.00     0.094 A 
ATOM      9  C   UNL     1      -4.919  -1.931   0.062  1.00  0.00     0.336 A 
ATOM     10  O   UNL     1      -5.205  -2.235  -1.125  1.00  0.00    -0.246 OA
ATOM     11  O   UNL     1      -3.822  -1.219   0.314  1.00  0.00    -0.423 OA
ENDROOT
BRANCH   3  12
ATOM     12  O   UNL     1      -0.760   1.002   3.231  1.00  0.00    -0.508 OA
ATOM     13  H   UNL     1      -0.587   1.505   4.093  1.00  0.00     0.293 HD
ENDBRANCH   3  12
TORSDOF 1
ENDMDL
MODEL 3
REMARK VINA RESULT:    -0.204      0.913      1.026
REMARK INTER + INTRA:          -0.210
REMARK INTER:                  -0.210
REMARK INTRA:                   0.000
REMARK UNBOUND:                 0.000
REMARK SMILES O=c1ccc2ccc(O)cc2o1
REMARK SMILES IDX 6 1 7 2 8 3 10 4 11 5 5 6 4 7 3 8 2 9 1 10 12 11 9 12
REMARK H PARENT 9 13
REMARK Flexibility Score: inf
ROOT
ATOM      1  C   UNL     1      -5.062  -1.087   3.167  1.00  0.00     0.016 A 
ATOM      2  C   UNL     1      -5.713  -1.596   2.039  1.00  0.00     0.047 A 
ATOM      3  C   UNL     1      -5.057  -1.634   0.800  1.00  0.00     0.119 A 
ATOM      4  C   UNL     1      -3.744  -1.160   0.691  1.00  0.00     0.094 A 
ATOM      5  C   UNL     1      -3.085  -0.648   1.813  1.00  0.00     0.142 A 
ATOM      6  C   UNL     1      -3.748  -0.611   3.060  1.00  0.00     0.018 A 
ATOM      7  C   UNL     1      -3.063  -0.093   4.164  1.00  0.00     0.019 A 
ATOM      8  C   UNL     1      -1.757   0.367   4.005  1.00  0.00     0.094 A 
ATOM      9  C   UNL     1      -1.163   0.299   2.739  1.00  0.00     0.336 A 
ATOM     10  O   UNL     1       0.015   0.710   2.575  1.00  0.00    -0.246 OA
ATOM     11  O   UNL     1      -1.837  -0.198   1.705  1.00  0.00    -0.423 OA
ENDROOT
BRANCH   3  12
ATOM     12  O   UNL     1      -5.699  -2.141  -0.327  1.00  0.00    -0.508 OA
ATOM     13  H   UNL     1      -5.185  -2.610  -1.064  1.00  0.00     0.293 HD
ENDBRANCH   3  12
TORSDOF 1
ENDMDL
