MODEL 1
REMARK VINA RESULT:    -3.736      0.000      0.000
REMARK INTER + INTRA:          -9.415
REMARK INTER:                  -7.230
REMARK INTRA:                  -2.184
REMARK UNBOUND:                -2.184
REMARK SMILES CCCCCCCCCCCCCCCCCC(=O)[O-]
REMARK SMILES IDX 10 1 11 2 12 3 13 4 14 5 15 6 16 7 17 8 18 9 19 10 20 11
REMARK SMILES IDX 9 12 8 13 7 14 6 15 5 16 4 17 3 18 2 19 1 20
REMARK H PARENT
REMARK Flexibility Score: inf
ROOT
ATOM      1  C   UNL     1     -16.971  21.697  43.402  1.00  0.00     0.000 C 
ENDROOT
BRANCH   1   2
ATOM      2  C   UNL     1     -17.610  20.604  44.279  1.00  0.00     0.000 C 
BRANCH   2   3
ATOM      3  C   UNL     1     -18.154  21.158  45.605  1.00  0.00     0.000 C 
BRANCH   3   4
ATOM      4  C   UNL     1     -19.582  20.667  45.908  1.00  0.00     0.000 C 
BRANCH   4   5
ATOM      5  C   UNL     1     -20.563  21.820  46.170  1.00  0.00     0.000 C 
BRANCH   5   6
ATOM      6  C   UNL     1     -20.226  23.079  45.353  1.00  0.00     0.000 C 
BRANCH   6   7
ATOM      7  C   UNL     1     -21.208  24.237  45.610  1.00  0.00     0.006 C 
BRANCH   7   8
ATOM      8  C   UNL     1     -22.640  23.791  45.948  1.00  0.00     0.053 C 
BRANCH   8   9
ATOM      9  C   UNL     1     -23.595  24.070  44.829  1.00  0.00     0.041 C 
ATOM     10  O   UNL     1     -23.264  24.841  43.891  1.00  0.00    -0.550 OA
ATOM     11  O   UNL     1     -24.864  23.504  44.840  1.00  0.00    -0.550 OA
ENDBRANCH   8   9
ENDBRANCH   7   8
ENDBRANCH   6   7
ENDBRANCH   5   6
ENDBRANCH   4   5
ENDBRANCH   3   4
ENDBRANCH   2   3
ENDBRANCH   1   2
BRANCH   1  12
ATOM     12  C   UNL     1     -17.987  22.375  42.470  1.00  0.00     0.000 C 
BRANCH  12  13
ATOM     13  C   UNL     1     -17.913  23.908  42.531  1.00  0.00    -0.000 C 
BRANCH  13  14
ATOM     14  C   UNL     1     -16.938  24.367  43.625  1.00  0.00    -0.000 C 
BRANCH  14  15
ATOM     15  C   UNL     1     -16.070  25.556  43.184  1.00  0.00    -0.000 C 
BRANCH  15  16
ATOM     16  C   UNL     1     -14.577  25.195  43.084  1.00  0.00    -0.000 C 
BRANCH  16  17
ATOM     17  C   UNL     1     -14.245  24.413  41.804  1.00  0.00    -0.000 C 
BRANCH  17  18
ATOM     18  C   UNL     1     -13.574  23.060  42.096  1.00  0.00    -0.000 C 
BRANCH  18  19
ATOM     19  C   UNL     1     -12.923  23.014  43.487  1.00  0.00    -0.003 C 
ATOM     20  C   UNL     1     -13.387  21.818  44.318  1.00  0.00     0.004 C 
ENDBRANCH  18  19
ENDBRANCH  17  18
ENDBRANCH  16  17
ENDBRANCH  15  16
ENDBRANCH  14  15
ENDBRANCH  13  14
ENDBRANCH  12  13
ENDBRANCH   1  12
TORSDOF 16
ENDMDL
MODEL 2
REMARK VINA RESULT:    -3.645      3.633      6.279
REMARK INTER + INTRA:          -9.240
REMARK INTER:                  -6.105
REMARK INTRA:                  -3.135
REMARK UNBOUND:                -2.184
REMARK SMILES CCCCCCCCCCCCCCCCCC(=O)[O-]
REMARK SMILES IDX 10 1 11 2 12 3 13 4 14 5 15 6 16 7 17 8 18 9 19 10 20 11
REMARK SMILES IDX 9 12 8 13 7 14 6 15 5 16 4 17 3 18 2 19 1 20
REMARK H PARENT
REMARK Flexibility Score: inf
ROOT
ATOM      1  C   UNL     1     -17.586  25.040  45.637  1.00  0.00     0.000 C 
ENDROOT
BRANCH   1   2
ATOM      2  C   UNL     1     -18.014  23.808  46.455  1.00  0.00     0.000 C 
BRANCH   2   3
ATOM      3  C   UNL     1     -19.435  23.334  46.106  1.00  0.00     0.000 C 
BRANCH   3   4
ATOM      4  C   UNL     1     -19.437  22.160  45.111  1.00  0.00     0.000 C 
BRANCH   4   5
ATOM      5  C   UNL     1     -18.872  20.866  45.718  1.00  0.00     0.000 C 
BRANCH   5   6
ATOM      6  C   UNL     1     -17.992  20.085  44.729  1.00  0.00     0.000 C 
BRANCH   6   7
ATOM      7  C   UNL     1     -16.940  20.972  44.037  1.00  0.00     0.006 C 
BRANCH   7   8
ATOM      8  C   UNL     1     -15.596  21.059  44.779  1.00  0.00     0.053 C 
BRANCH   8   9
ATOM      9  C   UNL     1     -14.465  21.392  43.855  1.00  0.00     0.041 C 
ATOM     10  O   UNL     1     -13.311  20.942  44.080  1.00  0.00    -0.550 OA
ATOM     11  O   UNL     1     -14.678  22.226  42.766  1.00  0.00    -0.550 OA
ENDBRANCH   8   9
ENDBRANCH   7   8
ENDBRANCH   6   7
ENDBRANCH   5   6
ENDBRANCH   4   5
ENDBRANCH   3   4
ENDBRANCH   2   3
ENDBRANCH   1   2
BRANCH   1  12
ATOM     12  C   UNL     1     -16.440  24.732  44.661  1.00  0.00     0.000 C 
BRANCH  12  13
ATOM     13  C   UNL     1     -16.753  25.174  43.224  1.00  0.00    -0.000 C 
BRANCH  13  14
ATOM     14  C   UNL     1     -17.600  24.118  42.498  1.00  0.00    -0.000 C 
BRANCH  14  15
ATOM     15  C   UNL     1     -19.038  24.593  42.235  1.00  0.00    -0.000 C 
BRANCH  15  16
ATOM     16  C   UNL     1     -19.124  26.110  41.985  1.00  0.00    -0.000 C 
BRANCH  16  17
ATOM     17  C   UNL     1     -20.158  26.797  42.890  1.00  0.00    -0.000 C 
BRANCH  17  18
ATOM     18  C   UNL     1     -20.975  25.792  43.721  1.00  0.00    -0.000 C 
BRANCH  18  19
ATOM     19  C   UNL     1     -21.257  26.298  45.145  1.00  0.00    -0.003 C 
ATOM     20  C   UNL     1     -20.385  27.492  45.531  1.00  0.00     0.004 C 
ENDBRANCH  18  19
ENDBRANCH  17  18
ENDBRANCH  16  17
ENDBRANCH  15  16
ENDBRANCH  14  15
ENDBRANCH  13  14
ENDBRANCH  12  13
ENDBRANCH   1  12
TORSDOF 16
ENDMDL
MODEL 3
REMARK VINA RESULT:    -3.634      3.956      6.961
REMARK INTER + INTRA:          -9.217
REMARK INTER:                  -6.840
REMARK INTRA:                  -2.377
REMARK UNBOUND:                -2.184
REMARK SMILES CCCCCCCCCCCCCCCCCC(=O)[O-]
REMARK SMILES IDX 10 1 11 2 12 3 13 4 14 5 15 6 16 7 17 8 18 9 19 10 20 11
REMARK SMILES IDX 9 12 8 13 7 14 6 15 5 16 4 17 3 18 2 19 1 20
REMARK H PARENT
REMARK Flexibility Score: inf
ROOT
ATOM      1  C   UNL     1     -19.172  22.717  44.713  1.00  0.00     0.000 C 
ENDROOT
BRANCH   1   2
ATOM      2  C   UNL     1     -18.754  21.288  45.109  1.00  0.00     0.000 C 
BRANCH   2   3
ATOM      3  C   UNL     1     -17.594  20.756  44.253  1.00  0.00     0.000 C 
BRANCH   3   4
ATOM      4  C   UNL     1     -16.333  20.462  45.086  1.00  0.00     0.000 C 
BRANCH   4   5
ATOM      5  C   UNL     1     -15.059  21.051  44.461  1.00  0.00     0.000 C 
BRANCH   5   6
ATOM      6  C   UNL     1     -15.360  22.011  43.298  1.00  0.00     0.000 C 
BRANCH   6   7
ATOM      7  C   UNL     1     -14.110  22.763  42.806  1.00  0.00     0.006 C 
BRANCH   7   8
ATOM      8  C   UNL     1     -14.406  24.101  42.110  1.00  0.00     0.053 C 
BRANCH   8   9
ATOM      9  C   UNL     1     -13.340  24.471  41.125  1.00  0.00     0.041 C 
ATOM     10  O   UNL     1     -12.422  25.267  41.454  1.00  0.00    -0.550 OA
ATOM     11  O   UNL     1     -13.381  23.964  39.832  1.00  0.00    -0.550 OA
ENDBRANCH   8   9
ENDBRANCH   7   8
ENDBRANCH   6   7
ENDBRANCH   5   6
ENDBRANCH   4   5
ENDBRANCH   3   4
ENDBRANCH   2   3
ENDBRANCH   1   2
BRANCH   1  12
ATOM     12  C   UNL     1     -18.168  23.778  45.188  1.00  0.00     0.000 C 
BRANCH  12  13
ATOM     13  C   UNL     1     -17.731  24.725  44.061  1.00  0.00    -0.000 C 
BRANCH  13  14
ATOM     14  C   UNL     1     -18.337  24.294  42.717  1.00  0.00    -0.000 C 
BRANCH  14  15
ATOM     15  C   UNL     1     -18.990  25.463  41.961  1.00  0.00    -0.000 C 
BRANCH  15  16
ATOM     16  C   UNL     1     -18.946  26.780  42.757  1.00  0.00    -0.000 C 
BRANCH  16  17
ATOM     17  C   UNL     1     -20.170  27.669  42.492  1.00  0.00    -0.000 C 
BRANCH  17  18
ATOM     18  C   UNL     1     -21.470  27.063  43.050  1.00  0.00    -0.000 C 
BRANCH  18  19
ATOM     19  C   UNL     1     -21.278  26.439  44.441  1.00  0.00    -0.003 C 
ATOM     20  C   UNL     1     -21.996  25.098  44.590  1.00  0.00     0.004 C 
ENDBRANCH  18  19
ENDBRANCH  17  18
ENDBRANCH  16  17
ENDBRANCH  15  16
ENDBRANCH  14  15
ENDBRANCH  13  14
ENDBRANCH  12  13
ENDBRANCH   1  12
TORSDOF 16
ENDMDL
MODEL 4
REMARK VINA RESULT:    -3.627      3.101      6.743
REMARK INTER + INTRA:          -9.205
REMARK INTER:                  -7.280
REMARK INTRA:                  -1.924
REMARK UNBOUND:                -2.184
REMARK SMILES CCCCCCCCCCCCCCCCCC(=O)[O-]
REMARK SMILES IDX 10 1 11 2 12 3 13 4 14 5 15 6 16 7 17 8 18 9 19 10 20 11
REMARK SMILES IDX 9 12 8 13 7 14 6 15 5 16 4 17 3 18 2 19 1 20
REMARK H PARENT
REMARK Flexibility Score: inf
ROOT
ATOM      1  C   UNL     1     -18.464  20.260  45.127  1.00  0.00     0.000 C 
ENDROOT
BRANCH   1   2
ATOM      2  C   UNL     1     -17.623  20.860  43.985  1.00  0.00     0.000 C 
BRANCH   2   3
ATOM      3  C   UNL     1     -17.750  22.389  43.902  1.00  0.00     0.000 C 
BRANCH   3   4
ATOM      4  C   UNL     1     -17.913  22.890  42.455  1.00  0.00     0.000 C 
BRANCH   4   5
ATOM      5  C   UNL     1     -18.735  24.184  42.365  1.00  0.00     0.000 C 
BRANCH   5   6
ATOM      6  C   UNL     1     -19.247  24.656  43.736  1.00  0.00     0.000 C 
BRANCH   6   7
ATOM      7  C   UNL     1     -19.467  26.179  43.799  1.00  0.00     0.006 C 
BRANCH   7   8
ATOM      8  C   UNL     1     -20.237  26.759  42.602  1.00  0.00     0.053 C 
BRANCH   8   9
ATOM      9  C   UNL     1     -20.125  28.251  42.530  1.00  0.00     0.041 C 
ATOM     10  O   UNL     1     -21.141  28.951  42.277  1.00  0.00    -0.550 OA
ATOM     11  O   UNL     1     -18.893  28.866  42.709  1.00  0.00    -0.550 OA
ENDBRANCH   8   9
ENDBRANCH   7   8
ENDBRANCH   6   7
ENDBRANCH   5   6
ENDBRANCH   4   5
ENDBRANCH   3   4
ENDBRANCH   2   3
ENDBRANCH   1   2
BRANCH   1  12
ATOM     12  C   UNL     1     -19.232  21.329  45.920  1.00  0.00     0.000 C 
BRANCH  12  13
ATOM     13  C   UNL     1     -20.437  20.752  46.676  1.00  0.00    -0.000 C 
BRANCH  13  14
ATOM     14  C   UNL     1     -21.577  21.778  46.756  1.00  0.00    -0.000 C 
BRANCH  14  15
ATOM     15  C   UNL     1     -21.339  22.998  45.852  1.00  0.00    -0.000 C 
BRANCH  15  16
ATOM     16  C   UNL     1     -22.193  24.212  46.259  1.00  0.00    -0.000 C 
BRANCH  16  17
ATOM     17  C   UNL     1     -22.924  24.844  45.065  1.00  0.00    -0.000 C 
BRANCH  17  18
ATOM     18  C   UNL     1     -23.908  23.870  44.393  1.00  0.00    -0.000 C 
BRANCH  18  19
ATOM     19  C   UNL     1     -25.026  23.414  45.344  1.00  0.00    -0.003 C 
ATOM     20  C   UNL     1     -25.130  21.893  45.446  1.00  0.00     0.004 C 
ENDBRANCH  18  19
ENDBRANCH  17  18
ENDBRANCH  16  17
ENDBRANCH  15  16
ENDBRANCH  14  15
ENDBRANCH  13  14
ENDBRANCH  12  13
ENDBRANCH   1  12
TORSDOF 16
ENDMDL
MODEL 5
REMARK VINA RESULT:    -3.572      2.062      2.332
REMARK INTER + INTRA:          -9.098
REMARK INTER:                  -6.461
REMARK INTRA:                  -2.636
REMARK UNBOUND:                -2.184
REMARK SMILES CCCCCCCCCCCCCCCCCC(=O)[O-]
REMARK SMILES IDX 10 1 11 2 12 3 13 4 14 5 15 6 16 7 17 8 18 9 19 10 20 11
REMARK SMILES IDX 9 12 8 13 7 14 6 15 5 16 4 17 3 18 2 19 1 20
REMARK H PARENT
REMARK Flexibility Score: inf
ROOT
ATOM      1  C   UNL     1     -17.101  21.477  43.744  1.00  0.00     0.000 C 
ENDROOT
BRANCH   1   2
ATOM      2  C   UNL     1     -17.852  20.459  44.623  1.00  0.00     0.000 C 
BRANCH   2   3
ATOM      3  C   UNL     1     -18.335  21.070  45.948  1.00  0.00     0.000 C 
BRANCH   3   4
ATOM      4  C   UNL     1     -19.855  21.311  45.967  1.00  0.00     0.000 C 
BRANCH   4   5
ATOM      5  C   UNL     1     -20.239  22.717  45.480  1.00  0.00     0.000 C 
BRANCH   5   6
ATOM      6  C   UNL     1     -19.376  23.819  46.119  1.00  0.00     0.000 C 
BRANCH   6   7
ATOM      7  C   UNL     1     -19.473  25.161  45.370  1.00  0.00     0.006 C 
BRANCH   7   8
ATOM      8  C   UNL     1     -20.376  25.130  44.127  1.00  0.00     0.053 C 
BRANCH   8   9
ATOM      9  C   UNL     1     -20.247  26.377  43.306  1.00  0.00     0.041 C 
ATOM     10  O   UNL     1     -19.816  26.315  42.124  1.00  0.00    -0.550 OA
ATOM     11  O   UNL     1     -20.570  27.610  43.858  1.00  0.00    -0.550 OA
ENDBRANCH   8   9
ENDBRANCH   7   8
ENDBRANCH   6   7
ENDBRANCH   5   6
ENDBRANCH   4   5
ENDBRANCH   3   4
ENDBRANCH   2   3
ENDBRANCH   1   2
BRANCH   1  12
ATOM     12  C   UNL     1     -17.974  22.035  42.609  1.00  0.00     0.000 C 
BRANCH  12  13
ATOM     13  C   UNL     1     -17.693  23.517  42.322  1.00  0.00    -0.000 C 
BRANCH  13  14
ATOM     14  C   UNL     1     -16.734  24.106  43.367  1.00  0.00    -0.000 C 
BRANCH  14  15
ATOM     15  C   UNL     1     -16.445  25.597  43.131  1.00  0.00    -0.000 C 
BRANCH  15  16
ATOM     16  C   UNL     1     -15.009  25.991  43.522  1.00  0.00    -0.000 C 
BRANCH  16  17
ATOM     17  C   UNL     1     -14.173  26.440  42.313  1.00  0.00    -0.000 C 
BRANCH  17  18
ATOM     18  C   UNL     1     -13.397  25.279  41.668  1.00  0.00    -0.000 C 
BRANCH  18  19
ATOM     19  C   UNL     1     -12.922  24.244  42.699  1.00  0.00    -0.003 C 
ATOM     20  C   UNL     1     -13.442  22.837  42.406  1.00  0.00     0.004 C 
ENDBRANCH  18  19
ENDBRANCH  17  18
ENDBRANCH  16  17
ENDBRANCH  15  16
ENDBRANCH  14  15
ENDBRANCH  13  14
ENDBRANCH  12  13
ENDBRANCH   1  12
TORSDOF 16
ENDMDL
MODEL 6
REMARK VINA RESULT:    -3.550      1.842      3.736
REMARK INTER + INTRA:          -9.056
REMARK INTER:                  -6.708
REMARK INTRA:                  -2.348
REMARK UNBOUND:                -2.184
REMARK SMILES CCCCCCCCCCCCCCCCCC(=O)[O-]
REMARK SMILES IDX 10 1 11 2 12 3 13 4 14 5 15 6 16 7 17 8 18 9 19 10 20 11
REMARK SMILES IDX 9 12 8 13 7 14 6 15 5 16 4 17 3 18 2 19 1 20
REMARK H PARENT
REMARK Flexibility Score: inf
ROOT
ATOM      1  C   UNL     1     -16.205  21.008  44.389  1.00  0.00     0.000 C 
ENDROOT
BRANCH   1   2
ATOM      2  C   UNL     1     -17.661  20.600  44.099  1.00  0.00     0.000 C 
BRANCH   2   3
ATOM      3  C   UNL     1     -18.370  20.030  45.338  1.00  0.00     0.000 C 
BRANCH   3   4
ATOM      4  C   UNL     1     -19.385  21.017  45.943  1.00  0.00     0.000 C 
BRANCH   4   5
ATOM      5  C   UNL     1     -19.559  22.285  45.092  1.00  0.00     0.000 C 
BRANCH   5   6
ATOM      6  C   UNL     1     -19.400  23.574  45.915  1.00  0.00     0.000 C 
BRANCH   6   7
ATOM      7  C   UNL     1     -20.713  24.371  46.034  1.00  0.00     0.006 C 
BRANCH   7   8
ATOM      8  C   UNL     1     -21.939  23.667  45.430  1.00  0.00     0.053 C 
BRANCH   8   9
ATOM      9  C   UNL     1     -22.791  24.605  44.632  1.00  0.00     0.041 C 
ATOM     10  O   UNL     1     -23.990  24.315  44.381  1.00  0.00    -0.550 OA
ATOM     11  O   UNL     1     -22.250  25.785  44.137  1.00  0.00    -0.550 OA
ENDBRANCH   8   9
ENDBRANCH   7   8
ENDBRANCH   6   7
ENDBRANCH   5   6
ENDBRANCH   4   5
ENDBRANCH   3   4
ENDBRANCH   2   3
ENDBRANCH   1   2
BRANCH   1  12
ATOM     12  C   UNL     1     -15.726  22.162  43.494  1.00  0.00     0.000 C 
BRANCH  12  13
ATOM     13  C   UNL     1     -15.904  23.536  44.157  1.00  0.00    -0.000 C 
BRANCH  13  14
ATOM     14  C   UNL     1     -16.622  24.511  43.212  1.00  0.00    -0.000 C 
BRANCH  14  15
ATOM     15  C   UNL     1     -17.739  23.833  42.401  1.00  0.00    -0.000 C 
BRANCH  15  16
ATOM     16  C   UNL     1     -18.944  24.762  42.163  1.00  0.00    -0.000 C 
BRANCH  16  17
ATOM     17  C   UNL     1     -18.949  25.973  43.110  1.00  0.00    -0.000 C 
BRANCH  17  18
ATOM     18  C   UNL     1     -19.503  27.242  42.440  1.00  0.00    -0.000 C 
BRANCH  18  19
ATOM     19  C   UNL     1     -18.417  28.038  41.699  1.00  0.00    -0.003 C 
ATOM     20  C   UNL     1     -17.906  29.231  42.505  1.00  0.00     0.004 C 
ENDBRANCH  18  19
ENDBRANCH  17  18
ENDBRANCH  16  17
ENDBRANCH  15  16
ENDBRANCH  14  15
ENDBRANCH  13  14
ENDBRANCH  12  13
ENDBRANCH   1  12
TORSDOF 16
ENDMDL
MODEL 7
REMARK VINA RESULT:    -3.548      3.532      6.826
REMARK INTER + INTRA:          -9.052
REMARK INTER:                  -6.482
REMARK INTRA:                  -2.570
REMARK UNBOUND:                -2.184
REMARK SMILES CCCCCCCCCCCCCCCCCC(=O)[O-]
REMARK SMILES IDX 10 1 11 2 12 3 13 4 14 5 15 6 16 7 17 8 18 9 19 10 20 11
REMARK SMILES IDX 9 12 8 13 7 14 6 15 5 16 4 17 3 18 2 19 1 20
REMARK H PARENT
REMARK Flexibility Score: inf
ROOT
ATOM      1  C   UNL     1     -18.336  22.184  43.981  1.00  0.00     0.000 C 
ENDROOT
BRANCH   1   2
ATOM      2  C   UNL     1     -17.822  20.802  44.424  1.00  0.00     0.000 C 
BRANCH   2   3
ATOM      3  C   UNL     1     -16.297  20.776  44.617  1.00  0.00     0.000 C 
BRANCH   3   4
ATOM      4  C   UNL     1     -15.782  21.990  45.411  1.00  0.00     0.000 C 
BRANCH   4   5
ATOM      5  C   UNL     1     -14.668  22.751  44.675  1.00  0.00     0.000 C 
BRANCH   5   6
ATOM      6  C   UNL     1     -14.342  22.138  43.302  1.00  0.00     0.000 C 
BRANCH   6   7
ATOM      7  C   UNL     1     -13.407  23.026  42.460  1.00  0.00     0.006 C 
BRANCH   7   8
ATOM      8  C   UNL     1     -14.098  24.233  41.806  1.00  0.00     0.053 C 
BRANCH   8   9
ATOM      9  C   UNL     1     -13.493  25.532  42.242  1.00  0.00     0.041 C 
ATOM     10  O   UNL     1     -13.792  26.026  43.360  1.00  0.00    -0.550 OA
ATOM     11  O   UNL     1     -12.625  26.213  41.398  1.00  0.00    -0.550 OA
ENDBRANCH   8   9
ENDBRANCH   7   8
ENDBRANCH   6   7
ENDBRANCH   5   6
ENDBRANCH   4   5
ENDBRANCH   3   4
ENDBRANCH   2   3
ENDBRANCH   1   2
BRANCH   1  12
ATOM     12  C   UNL     1     -17.979  22.507  42.522  1.00  0.00     0.000 C 
BRANCH  12  13
ATOM     13  C   UNL     1     -18.006  24.014  42.226  1.00  0.00    -0.000 C 
BRANCH  13  14
ATOM     14  C   UNL     1     -17.435  24.815  43.406  1.00  0.00    -0.000 C 
BRANCH  14  15
ATOM     15  C   UNL     1     -18.458  25.793  44.007  1.00  0.00    -0.000 C 
BRANCH  15  16
ATOM     16  C   UNL     1     -19.708  25.957  43.124  1.00  0.00    -0.000 C 
BRANCH  16  17
ATOM     17  C   UNL     1     -20.980  25.421  43.799  1.00  0.00    -0.000 C 
BRANCH  17  18
ATOM     18  C   UNL     1     -20.678  24.656  45.100  1.00  0.00    -0.000 C 
BRANCH  18  19
ATOM     19  C   UNL     1     -21.817  23.704  45.500  1.00  0.00    -0.003 C 
ATOM     20  C   UNL     1     -21.318  22.469  46.250  1.00  0.00     0.004 C 
ENDBRANCH  18  19
ENDBRANCH  17  18
ENDBRANCH  16  17
ENDBRANCH  15  16
ENDBRANCH  14  15
ENDBRANCH  13  14
ENDBRANCH  12  13
ENDBRANCH   1  12
TORSDOF 16
ENDMDL
MODEL 8
REMARK VINA RESULT:    -3.515      2.212      6.212
REMARK INTER + INTRA:          -8.987
REMARK INTER:                  -6.854
REMARK INTRA:                  -2.133
REMARK UNBOUND:                -2.184
REMARK SMILES CCCCCCCCCCCCCCCCCC(=O)[O-]
REMARK SMILES IDX 10 1 11 2 12 3 13 4 14 5 15 6 16 7 17 8 18 9 19 10 20 11
REMARK SMILES IDX 9 12 8 13 7 14 6 15 5 16 4 17 3 18 2 19 1 20
REMARK H PARENT
REMARK Flexibility Score: inf
ROOT
ATOM      1  C   UNL     1     -15.883  21.370  44.033  1.00  0.00     0.000 C 
ENDROOT
BRANCH   1   2
ATOM      2  C   UNL     1     -15.155  22.506  43.290  1.00  0.00     0.000 C 
BRANCH   2   3
ATOM      3  C   UNL     1     -16.125  23.560  42.733  1.00  0.00     0.000 C 
BRANCH   3   4
ATOM      4  C   UNL     1     -16.343  24.733  43.706  1.00  0.00     0.000 C 
BRANCH   4   5
ATOM      5  C   UNL     1     -17.808  25.194  43.761  1.00  0.00     0.000 C 
BRANCH   5   6
ATOM      6  C   UNL     1     -18.621  24.722  42.544  1.00  0.00     0.000 C 
BRANCH   6   7
ATOM      7  C   UNL     1     -19.405  25.865  41.871  1.00  0.00     0.006 C 
BRANCH   7   8
ATOM      8  C   UNL     1     -19.244  27.232  42.554  1.00  0.00     0.053 C 
BRANCH   8   9
ATOM      9  C   UNL     1     -20.563  27.900  42.794  1.00  0.00     0.041 C 
ATOM     10  O   UNL     1     -21.629  27.356  42.404  1.00  0.00    -0.550 OA
ATOM     11  O   UNL     1     -20.612  29.139  43.419  1.00  0.00    -0.550 OA
ENDBRANCH   8   9
ENDBRANCH   7   8
ENDBRANCH   6   7
ENDBRANCH   5   6
ENDBRANCH   4   5
ENDBRANCH   3   4
ENDBRANCH   2   3
ENDBRANCH   1   2
BRANCH   1  12
ATOM     12  C   UNL     1     -17.351  21.229  43.604  1.00  0.00     0.000 C 
BRANCH  12  13
ATOM     13  C   UNL     1     -18.283  20.907  44.782  1.00  0.00    -0.000 C 
BRANCH  13  14
ATOM     14  C   UNL     1     -19.166  22.115  45.129  1.00  0.00    -0.000 C 
BRANCH  14  15
ATOM     15  C   UNL     1     -20.328  21.748  46.066  1.00  0.00    -0.000 C 
BRANCH  15  16
ATOM     16  C   UNL     1     -21.407  22.845  46.128  1.00  0.00    -0.000 C 
BRANCH  16  17
ATOM     17  C   UNL     1     -21.049  24.071  45.274  1.00  0.00    -0.000 C 
BRANCH  17  18
ATOM     18  C   UNL     1     -22.274  24.943  44.952  1.00  0.00    -0.000 C 
BRANCH  18  19
ATOM     19  C   UNL     1     -23.446  24.126  44.384  1.00  0.00    -0.003 C 
ATOM     20  C   UNL     1     -24.715  24.251  45.225  1.00  0.00     0.004 C 
ENDBRANCH  18  19
ENDBRANCH  17  18
ENDBRANCH  16  17
ENDBRANCH  15  16
ENDBRANCH  14  15
ENDBRANCH  13  14
ENDBRANCH  12  13
ENDBRANCH   1  12
TORSDOF 16
ENDMDL
MODEL 9
REMARK VINA RESULT:    -3.506      2.799      4.518
REMARK INTER + INTRA:          -8.970
REMARK INTER:                  -6.246
REMARK INTRA:                  -2.724
REMARK UNBOUND:                -2.184
REMARK SMILES CCCCCCCCCCCCCCCCCC(=O)[O-]
REMARK SMILES IDX 10 1 11 2 12 3 13 4 14 5 15 6 16 7 17 8 18 9 19 10 20 11
REMARK SMILES IDX 9 12 8 13 7 14 6 15 5 16 4 17 3 18 2 19 1 20
REMARK H PARENT
REMARK Flexibility Score: inf
ROOT
ATOM      1  C   UNL     1     -18.602  21.352  46.826  1.00  0.00     0.000 C 
ENDROOT
BRANCH   1   2
ATOM      2  C   UNL     1     -19.591  22.514  47.033  1.00  0.00     0.000 C 
BRANCH   2   3
ATOM      3  C   UNL     1     -20.649  22.591  45.920  1.00  0.00     0.000 C 
BRANCH   3   4
ATOM      4  C   UNL     1     -20.543  23.887  45.095  1.00  0.00     0.000 C 
BRANCH   4   5
ATOM      5  C   UNL     1     -21.898  24.590  44.919  1.00  0.00     0.000 C 
BRANCH   5   6
ATOM      6  C   UNL     1     -21.812  25.811  43.988  1.00  0.00     0.000 C 
BRANCH   6   7
ATOM      7  C   UNL     1     -20.365  26.284  43.756  1.00  0.00     0.006 C 
BRANCH   7   8
ATOM      8  C   UNL     1     -20.080  26.779  42.329  1.00  0.00     0.053 C 
BRANCH   8   9
ATOM      9  C   UNL     1     -19.295  28.055  42.322  1.00  0.00     0.041 C 
ATOM     10  O   UNL     1     -18.083  28.051  41.982  1.00  0.00    -0.550 OA
ATOM     11  O   UNL     1     -19.894  29.242  42.724  1.00  0.00    -0.550 OA
ENDBRANCH   8   9
ENDBRANCH   7   8
ENDBRANCH   6   7
ENDBRANCH   5   6
ENDBRANCH   4   5
ENDBRANCH   3   4
ENDBRANCH   2   3
ENDBRANCH   1   2
BRANCH   1  12
ATOM     12  C   UNL     1     -19.083  20.348  45.767  1.00  0.00     0.000 C 
BRANCH  12  13
ATOM     13  C   UNL     1     -17.991  19.998  44.746  1.00  0.00    -0.000 C 
BRANCH  13  14
ATOM     14  C   UNL     1     -16.877  21.055  44.751  1.00  0.00    -0.000 C 
BRANCH  14  15
ATOM     15  C   UNL     1     -16.663  21.695  43.370  1.00  0.00    -0.000 C 
BRANCH  15  16
ATOM     16  C   UNL     1     -17.976  22.198  42.742  1.00  0.00    -0.000 C 
BRANCH  16  17
ATOM     17  C   UNL     1     -17.958  23.711  42.473  1.00  0.00    -0.000 C 
BRANCH  17  18
ATOM     18  C   UNL     1     -16.602  24.354  42.815  1.00  0.00    -0.000 C 
BRANCH  18  19
ATOM     19  C   UNL     1     -16.720  25.427  43.909  1.00  0.00    -0.003 C 
ATOM     20  C   UNL     1     -17.099  24.843  45.270  1.00  0.00     0.004 C 
ENDBRANCH  18  19
ENDBRANCH  17  18
ENDBRANCH  16  17
ENDBRANCH  15  16
ENDBRANCH  14  15
ENDBRANCH  13  14
ENDBRANCH  12  13
ENDBRANCH   1  12
TORSDOF 16
ENDMDL
