MODEL 1
REMARK VINA RESULT:    -5.832      0.000      0.000
REMARK INTER + INTRA:          -7.362
REMARK INTER:                  -6.685
REMARK INTRA:                  -0.677
REMARK UNBOUND:                -0.677
REMARK SMILES C=C(C)[C@@H]1CC[C@@]2(C(=O)[O-])CC[C@]3(C)[C@@H](CC[C@@H]4[C@@]5(C)CC[C@H](O)C(C)(C)[C@@H]5CC[C@]43C)[C@@H]12
REMARK SMILES IDX 7 1 6 2 33 3 11 4 5 5 15 6 4 7 12 8 16 9 13 10 17 11 31 12
REMARK SMILES IDX 14 13 18 14 30 15 32 16 19 17 29 18 21 19 20 20 28 21 22 22
REMARK SMILES IDX 25 23 23 24 26 25 27 26 8 27 9 28 10 29 2 30 3 31 1 32 24 33
REMARK H PARENT 24 34
REMARK Flexibility Score: inf
ROOT
ATOM      1  C   UNL     1     -11.359 -26.325 -43.197  1.00  0.00     0.014 C 
ATOM      2  C   UNL     1     -11.070 -27.106 -44.490  1.00  0.00     0.014 C 
ATOM      3  C   UNL     1     -10.028 -26.485 -42.407  1.00  0.00     0.012 C 
ATOM      4  C   UNL     1     -12.603 -26.943 -42.465  1.00  0.00     0.014 C 
ATOM      5  C   UNL     1     -10.236 -28.307 -44.074  1.00  0.00     0.009 C 
ATOM      6  C   UNL     1     -10.127 -26.188 -40.867  1.00  0.00     0.000 C 
ATOM      7  C   UNL     1      -9.466 -27.880 -42.815  1.00  0.00     0.018 C 
ATOM      8  C   UNL     1     -12.292 -27.593 -41.106  1.00  0.00     0.008 C 
ATOM      9  C   UNL     1      -8.820 -26.570 -40.138  1.00  0.00     0.005 C 
ATOM     10  C   UNL     1     -11.464 -26.666 -40.148  1.00  0.00    -0.024 C 
ATOM     11  C   UNL     1      -8.813 -26.177 -38.655  1.00  0.00     0.005 C 
ATOM     12  C   UNL     1     -11.153 -27.384 -38.719  1.00  0.00    -0.024 C 
ATOM     13  C   UNL     1     -12.366 -25.385 -39.955  1.00  0.00     0.012 C 
ATOM     14  C   UNL     1     -10.149 -26.454 -37.893  1.00  0.00     0.002 C 
ATOM     15  C   UNL     1     -12.493 -27.593 -37.913  1.00  0.00     0.008 C 
ATOM     16  C   UNL     1     -10.513 -28.812 -38.907  1.00  0.00     0.012 C 
ATOM     17  C   UNL     1      -9.996 -26.789 -36.341  1.00  0.00    -0.026 C 
ATOM     18  C   UNL     1     -12.327 -27.896 -36.411  1.00  0.00     0.005 C 
ATOM     19  C   UNL     1      -9.149 -25.683 -35.601  1.00  0.00     0.010 C 
ATOM     20  C   UNL     1      -9.242 -28.145 -36.121  1.00  0.00     0.012 C 
ATOM     21  C   UNL     1     -11.463 -26.797 -35.754  1.00  0.00     0.003 C 
ATOM     22  C   UNL     1      -9.990 -24.613 -34.905  1.00  0.00     0.033 C 
ATOM     23  C   UNL     1     -11.575 -26.595 -34.193  1.00  0.00    -0.006 C 
ATOM     24  C   UNL     1     -10.907 -25.208 -33.805  1.00  0.00     0.120 C 
ATOM     25  C   UNL     1     -13.069 -26.524 -33.769  1.00  0.00     0.014 C 
ATOM     26  C   UNL     1     -10.948 -27.776 -33.408  1.00  0.00     0.014 C 
ENDROOT
BRANCH   1  27
ATOM     27  C   UNL     1     -11.658 -24.878 -43.560  1.00  0.00     0.048 C 
ATOM     28  O   UNL     1     -10.754 -24.000 -43.556  1.00  0.00    -0.550 OA
ATOM     29  O   UNL     1     -12.962 -24.501 -43.865  1.00  0.00    -0.550 OA
ENDBRANCH   1  27
BRANCH   7  30
ATOM     30  C   UNL     1      -7.958 -27.878 -43.062  1.00  0.00    -0.077 C 
ATOM     31  C   UNL     1      -7.115 -29.101 -42.790  1.00  0.00     0.039 C 
ATOM     32  C   UNL     1      -7.343 -26.759 -43.478  1.00  0.00     0.008 C 
ENDBRANCH   7  30
BRANCH  24  33
ATOM     33  O   UNL     1     -10.195 -25.307 -32.594  1.00  0.00    -0.393 OA
ATOM     34  H   UNL     1     -10.851 -25.206 -31.855  1.00  0.00     0.210 HD
ENDBRANCH  24  33
TORSDOF 3
ENDMDL
MODEL 2
REMARK VINA RESULT:    -5.575      4.583      7.597
REMARK INTER + INTRA:          -7.067
REMARK INTER:                  -6.406
REMARK INTRA:                  -0.660
REMARK UNBOUND:                -0.677
REMARK SMILES C=C(C)[C@@H]1CC[C@@]2(C(=O)[O-])CC[C@]3(C)[C@@H](CC[C@@H]4[C@@]5(C)CC[C@H](O)C(C)(C)[C@@H]5CC[C@]43C)[C@@H]12
REMARK SMILES IDX 7 1 6 2 33 3 11 4 5 5 15 6 4 7 12 8 16 9 13 10 17 11 31 12
REMARK SMILES IDX 14 13 18 14 30 15 32 16 19 17 29 18 21 19 20 20 28 21 22 22
REMARK SMILES IDX 25 23 23 24 26 25 27 26 8 27 9 28 10 29 2 30 3 31 1 32 24 33
REMARK H PARENT 24 34
REMARK Flexibility Score: inf
ROOT
ATOM      1  C   UNL     1     -15.996 -26.482 -49.029  1.00  0.00     0.014 C 
ATOM      2  C   UNL     1     -16.363 -27.320 -50.265  1.00  0.00     0.014 C 
ATOM      3  C   UNL     1     -14.443 -26.571 -49.016  1.00  0.00     0.012 C 
ATOM      4  C   UNL     1     -16.671 -27.091 -47.749  1.00  0.00     0.014 C 
ATOM      5  C   UNL     1     -15.380 -28.479 -50.290  1.00  0.00     0.009 C 
ATOM      6  C   UNL     1     -13.765 -26.198 -47.648  1.00  0.00     0.000 C 
ATOM      7  C   UNL     1     -14.100 -27.971 -49.607  1.00  0.00     0.018 C 
ATOM      8  C   UNL     1     -15.689 -27.664 -46.715  1.00  0.00     0.008 C 
ATOM      9  C   UNL     1     -12.253 -26.513 -47.669  1.00  0.00     0.005 C 
ATOM     10  C   UNL     1     -14.534 -26.670 -46.337  1.00  0.00    -0.024 C 
ATOM     11  C   UNL     1     -11.517 -26.045 -46.406  1.00  0.00     0.005 C 
ATOM     12  C   UNL     1     -13.512 -27.307 -45.239  1.00  0.00    -0.024 C 
ATOM     13  C   UNL     1     -15.273 -25.402 -45.755  1.00  0.00     0.012 C 
ATOM     14  C   UNL     1     -12.273 -26.313 -45.065  1.00  0.00     0.002 C 
ATOM     15  C   UNL     1     -14.253 -27.507 -43.860  1.00  0.00     0.008 C 
ATOM     16  C   UNL     1     -12.990 -28.728 -45.679  1.00  0.00     0.012 C 
ATOM     17  C   UNL     1     -11.343 -26.566 -43.794  1.00  0.00    -0.026 C 
ATOM     18  C   UNL     1     -13.338 -27.729 -42.639  1.00  0.00     0.005 C 
ATOM     19  C   UNL     1     -10.290 -25.405 -43.619  1.00  0.00     0.010 C 
ATOM     20  C   UNL     1     -10.520 -27.891 -43.941  1.00  0.00     0.012 C 
ATOM     21  C   UNL     1     -12.311 -26.578 -42.545  1.00  0.00     0.003 C 
ATOM     22  C   UNL     1     -10.713 -24.320 -42.628  1.00  0.00     0.033 C 
ATOM     23  C   UNL     1     -11.631 -26.300 -41.149  1.00  0.00    -0.006 C 
ATOM     24  C   UNL     1     -10.922 -24.880 -41.197  1.00  0.00     0.120 C 
ATOM     25  C   UNL     1     -12.708 -26.242 -40.030  1.00  0.00     0.014 C 
ATOM     26  C   UNL     1     -10.640 -27.424 -40.752  1.00  0.00     0.014 C 
ENDROOT
BRANCH   1  27
ATOM     27  C   UNL     1     -16.504 -25.063 -49.237  1.00  0.00     0.048 C 
ATOM     28  O   UNL     1     -17.124 -24.447 -48.328  1.00  0.00    -0.550 OA
ATOM     29  O   UNL     1     -16.318 -24.439 -50.466  1.00  0.00    -0.550 OA
ENDBRANCH   1  27
BRANCH   7  30
ATOM     30  C   UNL     1     -12.925 -27.947 -50.583  1.00  0.00    -0.077 C 
ATOM     31  C   UNL     1     -11.728 -28.847 -50.395  1.00  0.00     0.039 C 
ATOM     32  C   UNL     1     -12.912 -27.075 -51.605  1.00  0.00     0.008 C 
ENDBRANCH   7  30
BRANCH  24  33
ATOM     33  O   UNL     1      -9.693 -24.900 -40.510  1.00  0.00    -0.393 OA
ATOM     34  H   UNL     1      -9.892 -25.058 -39.550  1.00  0.00     0.210 HD
ENDBRANCH  24  33
TORSDOF 3
ENDMDL
MODEL 3
REMARK VINA RESULT:    -5.431      1.822      2.924
REMARK INTER + INTRA:          -6.902
REMARK INTER:                  -6.274
REMARK INTRA:                  -0.628
REMARK UNBOUND:                -0.677
REMARK SMILES C=C(C)[C@@H]1CC[C@@]2(C(=O)[O-])CC[C@]3(C)[C@@H](CC[C@@H]4[C@@]5(C)CC[C@H](O)C(C)(C)[C@@H]5CC[C@]43C)[C@@H]12
REMARK SMILES IDX 7 1 6 2 33 3 11 4 5 5 15 6 4 7 12 8 16 9 13 10 17 11 31 12
REMARK SMILES IDX 14 13 18 14 30 15 32 16 19 17 29 18 21 19 20 20 28 21 22 22
REMARK SMILES IDX 25 23 23 24 26 25 27 26 8 27 9 28 10 29 2 30 3 31 1 32 24 33
REMARK H PARENT 24 34
REMARK Flexibility Score: inf
ROOT
ATOM      1  C   UNL     1     -14.362 -24.876 -43.534  1.00  0.00     0.014 C 
ATOM      2  C   UNL     1     -14.892 -25.391 -44.883  1.00  0.00     0.014 C 
ATOM      3  C   UNL     1     -12.895 -25.396 -43.534  1.00  0.00     0.012 C 
ATOM      4  C   UNL     1     -15.232 -25.451 -42.362  1.00  0.00     0.014 C 
ATOM      5  C   UNL     1     -14.266 -26.762 -45.082  1.00  0.00     0.009 C 
ATOM      6  C   UNL     1     -12.199 -25.429 -42.125  1.00  0.00     0.000 C 
ATOM      7  C   UNL     1     -12.927 -26.735 -44.329  1.00  0.00     0.018 C 
ATOM      8  C   UNL     1     -14.491 -26.419 -41.424  1.00  0.00     0.008 C 
ATOM      9  C   UNL     1     -10.834 -26.146 -42.192  1.00  0.00     0.005 C 
ATOM     10  C   UNL     1     -13.124 -25.852 -40.901  1.00  0.00    -0.024 C 
ATOM     11  C   UNL     1     -10.052 -26.090 -40.872  1.00  0.00     0.005 C 
ATOM     12  C   UNL     1     -12.366 -26.901 -39.910  1.00  0.00    -0.024 C 
ATOM     13  C   UNL     1     -13.509 -24.526 -40.135  1.00  0.00     0.012 C 
ATOM     14  C   UNL     1     -10.909 -26.328 -39.587  1.00  0.00     0.002 C 
ATOM     15  C   UNL     1     -13.190 -27.083 -38.578  1.00  0.00     0.008 C 
ATOM     16  C   UNL     1     -12.237 -28.332 -40.559  1.00  0.00     0.012 C 
ATOM     17  C   UNL     1     -10.139 -27.011 -38.368  1.00  0.00    -0.026 C 
ATOM     18  C   UNL     1     -12.425 -27.726 -37.404  1.00  0.00     0.005 C 
ATOM     19  C   UNL     1      -8.815 -26.228 -38.020  1.00  0.00     0.010 C 
ATOM     20  C   UNL     1      -9.708 -28.477 -38.713  1.00  0.00     0.012 C 
ATOM     21  C   UNL     1     -11.126 -26.933 -37.137  1.00  0.00     0.003 C 
ATOM     22  C   UNL     1      -8.965 -25.223 -36.877  1.00  0.00     0.033 C 
ATOM     23  C   UNL     1     -10.455 -27.060 -35.714  1.00  0.00    -0.006 C 
ATOM     24  C   UNL     1      -9.381 -25.903 -35.546  1.00  0.00     0.120 C 
ATOM     25  C   UNL     1     -11.522 -26.867 -34.600  1.00  0.00     0.014 C 
ATOM     26  C   UNL     1      -9.831 -28.462 -35.490  1.00  0.00     0.014 C 
ENDROOT
BRANCH   1  27
ATOM     27  C   UNL     1     -14.449 -23.357 -43.526  1.00  0.00     0.048 C 
ATOM     28  O   UNL     1     -13.413 -22.641 -43.473  1.00  0.00    -0.550 OA
ATOM     29  O   UNL     1     -15.695 -22.740 -43.538  1.00  0.00    -0.550 OA
ENDBRANCH   1  27
BRANCH   7  30
ATOM     30  C   UNL     1     -11.749 -26.899 -45.290  1.00  0.00    -0.077 C 
ATOM     31  C   UNL     1     -10.853 -28.113 -45.236  1.00  0.00     0.039 C 
ATOM     32  C   UNL     1     -11.456 -25.929 -46.171  1.00  0.00     0.008 C 
ENDBRANCH   7  30
BRANCH  24  33
ATOM     33  O   UNL     1      -8.236 -26.365 -34.869  1.00  0.00    -0.393 OA
ATOM     34  H   UNL     1      -7.452 -25.896 -35.258  1.00  0.00     0.210 HD
ENDBRANCH  24  33
TORSDOF 3
ENDMDL
MODEL 4
REMARK VINA RESULT:    -5.137      1.344      1.926
REMARK INTER + INTRA:          -6.565
REMARK INTER:                  -5.819
REMARK INTRA:                  -0.746
REMARK UNBOUND:                -0.677
REMARK SMILES C=C(C)[C@@H]1CC[C@@]2(C(=O)[O-])CC[C@]3(C)[C@@H](CC[C@@H]4[C@@]5(C)CC[C@H](O)C(C)(C)[C@@H]5CC[C@]43C)[C@@H]12
REMARK SMILES IDX 7 1 6 2 33 3 11 4 5 5 15 6 4 7 12 8 16 9 13 10 17 11 31 12
REMARK SMILES IDX 14 13 18 14 30 15 32 16 19 17 29 18 21 19 20 20 28 21 22 22
REMARK SMILES IDX 25 23 23 24 26 25 27 26 8 27 9 28 10 29 2 30 3 31 1 32 24 33
REMARK H PARENT 24 34
REMARK Flexibility Score: inf
ROOT
ATOM      1  C   UNL     1     -13.486 -27.024 -42.118  1.00  0.00     0.014 C 
ATOM      2  C   UNL     1     -13.385 -27.660 -43.515  1.00  0.00     0.014 C 
ATOM      3  C   UNL     1     -12.014 -26.603 -41.837  1.00  0.00     0.012 C 
ATOM      4  C   UNL     1     -14.047 -28.070 -41.091  1.00  0.00     0.014 C 
ATOM      5  C   UNL     1     -12.060 -28.404 -43.539  1.00  0.00     0.009 C 
ATOM      6  C   UNL     1     -11.676 -26.322 -40.328  1.00  0.00     0.000 C 
ATOM      7  C   UNL     1     -11.132 -27.661 -42.565  1.00  0.00     0.018 C 
ATOM      8  C   UNL     1     -13.053 -28.494 -39.997  1.00  0.00     0.008 C 
ATOM      9  C   UNL     1     -10.160 -26.117 -40.123  1.00  0.00     0.005 C 
ATOM     10  C   UNL     1     -12.377 -27.279 -39.268  1.00  0.00    -0.024 C 
ATOM     11  C   UNL     1      -9.790 -25.707 -38.691  1.00  0.00     0.005 C 
ATOM     12  C   UNL     1     -11.332 -27.763 -38.114  1.00  0.00    -0.024 C 
ATOM     13  C   UNL     1     -13.579 -26.470 -38.641  1.00  0.00     0.012 C 
ATOM     14  C   UNL     1     -10.554 -26.478 -37.567  1.00  0.00     0.002 C 
ATOM     15  C   UNL     1     -12.110 -28.473 -36.940  1.00  0.00     0.008 C 
ATOM     16  C   UNL     1     -10.294 -28.812 -38.666  1.00  0.00     0.012 C 
ATOM     17  C   UNL     1      -9.750 -26.672 -36.202  1.00  0.00    -0.026 C 
ATOM     18  C   UNL     1     -11.326 -28.634 -35.622  1.00  0.00     0.005 C 
ATOM     19  C   UNL     1      -9.203 -25.294 -35.663  1.00  0.00     0.010 C 
ATOM     20  C   UNL     1      -8.501 -27.597 -36.401  1.00  0.00     0.012 C 
ATOM     21  C   UNL     1     -10.791 -27.257 -35.167  1.00  0.00     0.003 C 
ATOM     22  C   UNL     1     -10.095 -24.637 -34.610  1.00  0.00     0.033 C 
ATOM     23  C   UNL     1     -10.421 -27.068 -33.645  1.00  0.00    -0.006 C 
ATOM     24  C   UNL     1     -10.259 -25.517 -33.344  1.00  0.00     0.120 C 
ATOM     25  C   UNL     1     -11.572 -27.597 -32.745  1.00  0.00     0.014 C 
ATOM     26  C   UNL     1      -9.150 -27.866 -33.253  1.00  0.00     0.014 C 
ENDROOT
BRANCH   1  27
ATOM     27  C   UNL     1     -14.433 -25.836 -42.193  1.00  0.00     0.048 C 
ATOM     28  O   UNL     1     -15.562 -25.860 -41.632  1.00  0.00    -0.550 OA
ATOM     29  O   UNL     1     -14.071 -24.712 -42.928  1.00  0.00    -0.550 OA
ENDBRANCH   1  27
BRANCH   7  30
ATOM     30  C   UNL     1      -9.935 -27.055 -43.297  1.00  0.00    -0.077 C 
ATOM     31  C   UNL     1      -8.588 -27.736 -43.301  1.00  0.00     0.039 C 
ATOM     32  C   UNL     1     -10.049 -25.864 -43.908  1.00  0.00     0.008 C 
ENDBRANCH   7  30
BRANCH  24  33
ATOM     33  O   UNL     1      -9.192 -25.279 -32.457  1.00  0.00    -0.393 OA
ATOM     34  H   UNL     1      -8.660 -26.116 -32.401  1.00  0.00     0.210 HD
ENDBRANCH  24  33
TORSDOF 3
ENDMDL
MODEL 5
REMARK VINA RESULT:    -4.660      4.115      7.595
REMARK INTER + INTRA:          -6.018
REMARK INTER:                  -5.402
REMARK INTRA:                  -0.616
REMARK UNBOUND:                -0.677
REMARK SMILES C=C(C)[C@@H]1CC[C@@]2(C(=O)[O-])CC[C@]3(C)[C@@H](CC[C@@H]4[C@@]5(C)CC[C@H](O)C(C)(C)[C@@H]5CC[C@]43C)[C@@H]12
REMARK SMILES IDX 7 1 6 2 33 3 11 4 5 5 15 6 4 7 12 8 16 9 13 10 17 11 31 12
REMARK SMILES IDX 14 13 18 14 30 15 32 16 19 17 29 18 21 19 20 20 28 21 22 22
REMARK SMILES IDX 25 23 23 24 26 25 27 26 8 27 9 28 10 29 2 30 3 31 1 32 24 33
REMARK H PARENT 24 34
REMARK Flexibility Score: inf
ROOT
ATOM      1  C   UNL     1     -14.407 -23.904 -41.498  1.00  0.00     0.014 C 
ATOM      2  C   UNL     1     -15.431 -23.794 -40.355  1.00  0.00     0.014 C 
ATOM      3  C   UNL     1     -14.317 -25.443 -41.716  1.00  0.00     0.012 C 
ATOM      4  C   UNL     1     -13.047 -23.251 -41.064  1.00  0.00     0.014 C 
ATOM      5  C   UNL     1     -15.153 -24.969 -39.431  1.00  0.00     0.009 C 
ATOM      6  C   UNL     1     -13.047 -25.932 -42.502  1.00  0.00     0.000 C 
ATOM      7  C   UNL     1     -14.558 -26.077 -40.313  1.00  0.00     0.018 C 
ATOM      8  C   UNL     1     -11.874 -24.235 -40.931  1.00  0.00     0.008 C 
ATOM      9  C   UNL     1     -12.940 -27.472 -42.488  1.00  0.00     0.005 C 
ATOM     10  C   UNL     1     -11.692 -25.159 -42.187  1.00  0.00    -0.024 C 
ATOM     11  C   UNL     1     -11.792 -28.010 -43.354  1.00  0.00     0.005 C 
ATOM     12  C   UNL     1     -10.440 -26.188 -42.015  1.00  0.00    -0.024 C 
ATOM     13  C   UNL     1     -11.444 -24.160 -43.385  1.00  0.00     0.012 C 
ATOM     14  C   UNL     1     -10.454 -27.210 -43.243  1.00  0.00     0.002 C 
ATOM     15  C   UNL     1      -9.081 -25.389 -41.982  1.00  0.00     0.008 C 
ATOM     16  C   UNL     1     -10.524 -26.991 -40.661  1.00  0.00     0.012 C 
ATOM     17  C   UNL     1      -9.125 -28.068 -43.459  1.00  0.00    -0.026 C 
ATOM     18  C   UNL     1      -7.808 -26.229 -42.212  1.00  0.00     0.005 C 
ATOM     19  C   UNL     1      -9.183 -28.877 -44.811  1.00  0.00     0.010 C 
ATOM     20  C   UNL     1      -8.935 -29.124 -42.318  1.00  0.00     0.012 C 
ATOM     21  C   UNL     1      -7.944 -27.021 -43.533  1.00  0.00     0.003 C 
ATOM     22  C   UNL     1      -8.483 -28.189 -45.983  1.00  0.00     0.033 C 
ATOM     23  C   UNL     1      -6.625 -27.528 -44.235  1.00  0.00    -0.006 C 
ATOM     24  C   UNL     1      -6.970 -27.971 -45.720  1.00  0.00     0.120 C 
ATOM     25  C   UNL     1      -5.589 -26.372 -44.326  1.00  0.00     0.014 C 
ATOM     26  C   UNL     1      -5.944 -28.670 -43.437  1.00  0.00     0.014 C 
ENDROOT
BRANCH   1  27
ATOM     27  C   UNL     1     -14.953 -23.168 -42.712  1.00  0.00     0.048 C 
ATOM     28  O   UNL     1     -15.357 -21.976 -42.630  1.00  0.00    -0.550 OA
ATOM     29  O   UNL     1     -15.050 -23.830 -43.931  1.00  0.00    -0.550 OA
ENDBRANCH   1  27
BRANCH   7  30
ATOM     30  C   UNL     1     -15.471 -27.303 -40.351  1.00  0.00    -0.077 C 
ATOM     31  C   UNL     1     -15.169 -28.533 -39.529  1.00  0.00     0.039 C 
ATOM     32  C   UNL     1     -16.537 -27.327 -41.166  1.00  0.00     0.008 C 
ENDBRANCH   7  30
BRANCH  24  33
ATOM     33  O   UNL     1      -6.252 -29.125 -46.087  1.00  0.00    -0.393 OA
ATOM     34  H   UNL     1      -5.403 -28.825 -46.505  1.00  0.00     0.210 HD
ENDBRANCH  24  33
TORSDOF 3
ENDMDL
MODEL 6
REMARK VINA RESULT:    -4.578      1.590      8.351
REMARK INTER + INTRA:          -5.925
REMARK INTER:                  -5.172
REMARK INTRA:                  -0.753
REMARK UNBOUND:                -0.677
REMARK SMILES C=C(C)[C@@H]1CC[C@@]2(C(=O)[O-])CC[C@]3(C)[C@@H](CC[C@@H]4[C@@]5(C)CC[C@H](O)C(C)(C)[C@@H]5CC[C@]43C)[C@@H]12
REMARK SMILES IDX 7 1 6 2 33 3 11 4 5 5 15 6 4 7 12 8 16 9 13 10 17 11 31 12
REMARK SMILES IDX 14 13 18 14 30 15 32 16 19 17 29 18 21 19 20 20 28 21 22 22
REMARK SMILES IDX 25 23 23 24 26 25 27 26 8 27 9 28 10 29 2 30 3 31 1 32 24 33
REMARK H PARENT 24 34
REMARK Flexibility Score: inf
ROOT
ATOM      1  C   UNL     1     -11.610 -26.850 -33.033  1.00  0.00     0.014 C 
ATOM      2  C   UNL     1     -12.178 -27.706 -31.887  1.00  0.00     0.014 C 
ATOM      3  C   UNL     1     -12.772 -26.871 -34.069  1.00  0.00     0.012 C 
ATOM      4  C   UNL     1     -10.279 -27.486 -33.569  1.00  0.00     0.014 C 
ATOM      5  C   UNL     1     -12.970 -28.820 -32.552  1.00  0.00     0.009 C 
ATOM      6  C   UNL     1     -12.367 -26.466 -35.533  1.00  0.00     0.000 C 
ATOM      7  C   UNL     1     -13.464 -28.255 -33.893  1.00  0.00     0.018 C 
ATOM      8  C   UNL     1     -10.353 -28.014 -35.011  1.00  0.00     0.008 C 
ATOM      9  C   UNL     1     -13.526 -26.714 -36.523  1.00  0.00     0.005 C 
ATOM     10  C   UNL     1     -10.940 -26.970 -36.026  1.00  0.00    -0.024 C 
ATOM     11  C   UNL     1     -13.230 -26.212 -37.943  1.00  0.00     0.005 C 
ATOM     12  C   UNL     1     -11.003 -27.560 -37.544  1.00  0.00    -0.024 C 
ATOM     13  C   UNL     1      -9.960 -25.734 -35.938  1.00  0.00     0.012 C 
ATOM     14  C   UNL     1     -11.787 -26.511 -38.461  1.00  0.00     0.002 C 
ATOM     15  C   UNL     1      -9.544 -27.789 -38.098  1.00  0.00     0.008 C 
ATOM     16  C   UNL     1     -11.731 -28.956 -37.600  1.00  0.00     0.012 C 
ATOM     17  C   UNL     1     -11.655 -26.721 -40.037  1.00  0.00    -0.026 C 
ATOM     18  C   UNL     1      -9.433 -27.969 -39.625  1.00  0.00     0.005 C 
ATOM     19  C   UNL     1     -12.294 -25.514 -40.827  1.00  0.00     0.010 C 
ATOM     20  C   UNL     1     -12.413 -28.009 -40.508  1.00  0.00     0.012 C 
ATOM     21  C   UNL     1     -10.105 -26.773 -40.338  1.00  0.00     0.003 C 
ATOM     22  C   UNL     1     -11.287 -24.448 -41.260  1.00  0.00     0.033 C 
ATOM     23  C   UNL     1      -9.686 -26.463 -41.827  1.00  0.00    -0.006 C 
ATOM     24  C   UNL     1     -10.204 -25.014 -42.215  1.00  0.00     0.120 C 
ATOM     25  C   UNL     1      -8.137 -26.452 -41.957  1.00  0.00     0.014 C 
ATOM     26  C   UNL     1     -10.205 -27.543 -42.813  1.00  0.00     0.014 C 
ENDROOT
BRANCH   1  27
ATOM     27  C   UNL     1     -11.321 -25.455 -32.500  1.00  0.00     0.048 C 
ATOM     28  O   UNL     1     -12.253 -24.678 -32.155  1.00  0.00    -0.550 OA
ATOM     29  O   UNL     1     -10.007 -25.006 -32.425  1.00  0.00    -0.550 OA
ENDBRANCH   1  27
BRANCH   7  30
ATOM     30  C   UNL     1     -14.989 -28.181 -33.933  1.00  0.00    -0.077 C 
ATOM     31  C   UNL     1     -15.743 -27.097 -33.199  1.00  0.00     0.039 C 
ATOM     32  C   UNL     1     -15.696 -29.120 -34.583  1.00  0.00     0.008 C 
ENDBRANCH   7  30
BRANCH  24  33
ATOM     33  O   UNL     1     -10.675 -24.979 -43.542  1.00  0.00    -0.393 OA
ATOM     34  H   UNL     1     -11.319 -25.726 -43.648  1.00  0.00     0.210 HD
ENDBRANCH  24  33
TORSDOF 3
ENDMDL
MODEL 7
REMARK VINA RESULT:    -4.439      4.405      6.425
REMARK INTER + INTRA:          -5.765
REMARK INTER:                  -5.093
REMARK INTRA:                  -0.672
REMARK UNBOUND:                -0.677
REMARK SMILES C=C(C)[C@@H]1CC[C@@]2(C(=O)[O-])CC[C@]3(C)[C@@H](CC[C@@H]4[C@@]5(C)CC[C@H](O)C(C)(C)[C@@H]5CC[C@]43C)[C@@H]12
REMARK SMILES IDX 7 1 6 2 33 3 11 4 5 5 15 6 4 7 12 8 16 9 13 10 17 11 31 12
REMARK SMILES IDX 14 13 18 14 30 15 32 16 19 17 29 18 21 19 20 20 28 21 22 22
REMARK SMILES IDX 25 23 23 24 26 25 27 26 8 27 9 28 10 29 2 30 3 31 1 32 24 33
REMARK H PARENT 24 34
REMARK Flexibility Score: inf
ROOT
ATOM      1  C   UNL     1     -11.377 -26.707 -44.285  1.00  0.00     0.014 C 
ATOM      2  C   UNL     1     -11.248 -27.099 -45.767  1.00  0.00     0.014 C 
ATOM      3  C   UNL     1     -12.889 -26.952 -44.007  1.00  0.00     0.012 C 
ATOM      4  C   UNL     1     -10.936 -25.214 -44.086  1.00  0.00     0.014 C 
ATOM      5  C   UNL     1     -12.528 -26.624 -46.437  1.00  0.00     0.009 C 
ATOM      6  C   UNL     1     -13.454 -26.242 -42.724  1.00  0.00     0.000 C 
ATOM      7  C   UNL     1     -13.615 -26.648 -45.352  1.00  0.00     0.018 C 
ATOM      8  C   UNL     1     -12.063 -24.262 -43.654  1.00  0.00     0.008 C 
ATOM      9  C   UNL     1     -14.991 -26.371 -42.645  1.00  0.00     0.005 C 
ATOM     10  C   UNL     1     -12.883 -24.788 -42.423  1.00  0.00    -0.024 C 
ATOM     11  C   UNL     1     -15.582 -25.811 -41.344  1.00  0.00     0.005 C 
ATOM     12  C   UNL     1     -14.068 -23.755 -41.991  1.00  0.00    -0.024 C 
ATOM     13  C   UNL     1     -11.817 -24.942 -41.269  1.00  0.00     0.012 C 
ATOM     14  C   UNL     1     -14.964 -24.457 -40.869  1.00  0.00     0.002 C 
ATOM     15  C   UNL     1     -13.446 -22.416 -41.436  1.00  0.00     0.008 C 
ATOM     16  C   UNL     1     -14.975 -23.357 -43.217  1.00  0.00     0.012 C 
ATOM     17  C   UNL     1     -15.953 -23.500 -40.060  1.00  0.00    -0.026 C 
ATOM     18  C   UNL     1     -14.409 -21.514 -40.640  1.00  0.00     0.005 C 
ATOM     19  C   UNL     1     -16.623 -24.264 -38.853  1.00  0.00     0.010 C 
ATOM     20  C   UNL     1     -17.125 -22.990 -40.966  1.00  0.00     0.012 C 
ATOM     21  C   UNL     1     -15.055 -22.329 -39.496  1.00  0.00     0.003 C 
ATOM     22  C   UNL     1     -15.920 -24.052 -37.511  1.00  0.00     0.033 C 
ATOM     23  C   UNL     1     -15.651 -21.541 -38.266  1.00  0.00    -0.006 C 
ATOM     24  C   UNL     1     -15.912 -22.563 -37.079  1.00  0.00     0.120 C 
ATOM     25  C   UNL     1     -14.626 -20.490 -37.755  1.00  0.00     0.014 C 
ATOM     26  C   UNL     1     -16.936 -20.759 -38.644  1.00  0.00     0.014 C 
ENDROOT
BRANCH   1  27
ATOM     27  C   UNL     1     -10.473 -27.612 -43.463  1.00  0.00     0.048 C 
ATOM     28  O   UNL     1     -10.914 -28.659 -42.915  1.00  0.00    -0.550 OA
ATOM     29  O   UNL     1      -9.139 -27.265 -43.274  1.00  0.00    -0.550 OA
ENDBRANCH   1  27
BRANCH   7  30
ATOM     30  C   UNL     1     -14.712 -27.656 -45.690  1.00  0.00    -0.077 C 
ATOM     31  C   UNL     1     -14.714 -29.045 -45.098  1.00  0.00     0.039 C 
ATOM     32  C   UNL     1     -15.674 -27.338 -46.572  1.00  0.00     0.008 C 
ENDBRANCH   7  30
BRANCH  24  33
ATOM     33  O   UNL     1     -17.106 -22.259 -36.398  1.00  0.00    -0.393 OA
ATOM     34  H   UNL     1     -17.101 -21.284 -36.211  1.00  0.00     0.210 HD
ENDBRANCH  24  33
TORSDOF 3
ENDMDL
MODEL 8
REMARK VINA RESULT:    -4.430      3.436      8.509
REMARK INTER + INTRA:          -5.754
REMARK INTER:                  -5.162
REMARK INTRA:                  -0.593
REMARK UNBOUND:                -0.677
REMARK SMILES C=C(C)[C@@H]1CC[C@@]2(C(=O)[O-])CC[C@]3(C)[C@@H](CC[C@@H]4[C@@]5(C)CC[C@H](O)C(C)(C)[C@@H]5CC[C@]43C)[C@@H]12
REMARK SMILES IDX 7 1 6 2 33 3 11 4 5 5 15 6 4 7 12 8 16 9 13 10 17 11 31 12
REMARK SMILES IDX 14 13 18 14 30 15 32 16 19 17 29 18 21 19 20 20 28 21 22 22
REMARK SMILES IDX 25 23 23 24 26 25 27 26 8 27 9 28 10 29 2 30 3 31 1 32 24 33
REMARK H PARENT 24 34
REMARK Flexibility Score: inf
ROOT
ATOM      1  C   UNL     1      -9.863 -26.516 -40.278  1.00  0.00     0.014 C 
ATOM      2  C   UNL     1      -8.464 -26.054 -39.836  1.00  0.00     0.014 C 
ATOM      3  C   UNL     1      -9.555 -27.312 -41.579  1.00  0.00     0.012 C 
ATOM      4  C   UNL     1     -10.790 -25.270 -40.508  1.00  0.00     0.014 C 
ATOM      5  C   UNL     1      -7.712 -25.722 -41.115  1.00  0.00     0.009 C 
ATOM      6  C   UNL     1     -10.789 -27.549 -42.524  1.00  0.00     0.000 C 
ATOM      7  C   UNL     1      -8.315 -26.613 -42.212  1.00  0.00     0.018 C 
ATOM      8  C   UNL     1     -11.230 -25.056 -41.965  1.00  0.00     0.008 C 
ATOM      9  C   UNL     1     -10.351 -28.159 -43.873  1.00  0.00     0.005 C 
ATOM     10  C   UNL     1     -11.825 -26.346 -42.632  1.00  0.00    -0.024 C 
ATOM     11  C   UNL     1     -11.530 -28.534 -44.781  1.00  0.00     0.005 C 
ATOM     12  C   UNL     1     -12.282 -26.084 -44.174  1.00  0.00    -0.024 C 
ATOM     13  C   UNL     1     -13.065 -26.725 -41.730  1.00  0.00     0.012 C 
ATOM     14  C   UNL     1     -12.688 -27.485 -44.826  1.00  0.00     0.002 C 
ATOM     15  C   UNL     1     -13.502 -25.085 -44.217  1.00  0.00     0.008 C 
ATOM     16  C   UNL     1     -11.129 -25.423 -45.022  1.00  0.00     0.012 C 
ATOM     17  C   UNL     1     -13.493 -27.414 -46.201  1.00  0.00    -0.026 C 
ATOM     18  C   UNL     1     -14.282 -25.043 -45.546  1.00  0.00     0.005 C 
ATOM     19  C   UNL     1     -14.013 -28.839 -46.632  1.00  0.00     0.010 C 
ATOM     20  C   UNL     1     -12.584 -26.902 -47.371  1.00  0.00     0.012 C 
ATOM     21  C   UNL     1     -14.733 -26.472 -45.927  1.00  0.00     0.003 C 
ATOM     22  C   UNL     1     -15.460 -29.125 -46.230  1.00  0.00     0.033 C 
ATOM     23  C   UNL     1     -15.944 -26.629 -46.925  1.00  0.00    -0.006 C 
ATOM     24  C   UNL     1     -16.459 -28.130 -46.877  1.00  0.00     0.120 C 
ATOM     25  C   UNL     1     -17.125 -25.720 -46.481  1.00  0.00     0.014 C 
ATOM     26  C   UNL     1     -15.570 -26.195 -48.366  1.00  0.00     0.014 C 
ENDROOT
BRANCH   1  27
ATOM     27  C   UNL     1     -10.455 -27.387 -39.180  1.00  0.00     0.048 C 
ATOM     28  O   UNL     1     -11.550 -27.093 -38.628  1.00  0.00    -0.550 OA
ATOM     29  O   UNL     1      -9.761 -28.510 -38.744  1.00  0.00    -0.550 OA
ENDBRANCH   1  27
BRANCH   7  30
ATOM     30  C   UNL     1      -7.279 -27.595 -42.758  1.00  0.00    -0.077 C 
ATOM     31  C   UNL     1      -6.221 -27.155 -43.742  1.00  0.00     0.039 C 
ATOM     32  C   UNL     1      -7.326 -28.891 -42.411  1.00  0.00     0.008 C 
ENDBRANCH   7  30
BRANCH  24  33
ATOM     33  O   UNL     1     -16.821 -28.586 -48.159  1.00  0.00    -0.393 OA
ATOM     34  H   UNL     1     -17.760 -28.904 -48.107  1.00  0.00     0.210 HD
ENDBRANCH  24  33
TORSDOF 3
ENDMDL
MODEL 9
REMARK VINA RESULT:    -4.097      4.417     10.220
REMARK INTER + INTRA:          -5.373
REMARK INTER:                  -4.830
REMARK INTRA:                  -0.543
REMARK UNBOUND:                -0.677
REMARK SMILES C=C(C)[C@@H]1CC[C@@]2(C(=O)[O-])CC[C@]3(C)[C@@H](CC[C@@H]4[C@@]5(C)CC[C@H](O)C(C)(C)[C@@H]5CC[C@]43C)[C@@H]12
REMARK SMILES IDX 7 1 6 2 33 3 11 4 5 5 15 6 4 7 12 8 16 9 13 10 17 11 31 12
REMARK SMILES IDX 14 13 18 14 30 15 32 16 19 17 29 18 21 19 20 20 28 21 22 22
REMARK SMILES IDX 25 23 23 24 26 25 27 26 8 27 9 28 10 29 2 30 3 31 1 32 24 33
REMARK H PARENT 24 34
REMARK Flexibility Score: inf
ROOT
ATOM      1  C   UNL     1     -11.437 -25.426 -42.031  1.00  0.00     0.014 C 
ATOM      2  C   UNL     1     -11.390 -25.561 -40.499  1.00  0.00     0.014 C 
ATOM      3  C   UNL     1     -12.912 -24.996 -42.281  1.00  0.00     0.012 C 
ATOM      4  C   UNL     1     -11.059 -26.794 -42.701  1.00  0.00     0.014 C 
ATOM      5  C   UNL     1     -12.735 -26.140 -40.090  1.00  0.00     0.009 C 
ATOM      6  C   UNL     1     -13.424 -25.196 -43.754  1.00  0.00     0.000 C 
ATOM      7  C   UNL     1     -13.743 -25.679 -41.154  1.00  0.00     0.018 C 
ATOM      8  C   UNL     1     -12.201 -27.466 -43.481  1.00  0.00     0.008 C 
ATOM      9  C   UNL     1     -14.943 -24.940 -43.857  1.00  0.00     0.005 C 
ATOM     10  C   UNL     1     -12.908 -26.503 -44.500  1.00  0.00    -0.024 C 
ATOM     11  C   UNL     1     -15.471 -24.990 -45.298  1.00  0.00     0.005 C 
ATOM     12  C   UNL     1     -14.111 -27.245 -45.311  1.00  0.00    -0.024 C 
ATOM     13  C   UNL     1     -11.758 -26.048 -45.483  1.00  0.00     0.012 C 
ATOM     14  C   UNL     1     -14.892 -26.149 -46.172  1.00  0.00     0.002 C 
ATOM     15  C   UNL     1     -13.520 -28.364 -46.254  1.00  0.00     0.008 C 
ATOM     16  C   UNL     1     -15.118 -27.965 -44.335  1.00  0.00     0.012 C 
ATOM     17  C   UNL     1     -15.870 -26.708 -47.302  1.00  0.00    -0.026 C 
ATOM     18  C   UNL     1     -14.472 -28.878 -47.353  1.00  0.00     0.005 C 
ATOM     19  C   UNL     1     -16.416 -25.540 -48.211  1.00  0.00     0.010 C 
ATOM     20  C   UNL     1     -17.125 -27.407 -46.677  1.00  0.00     0.012 C 
ATOM     21  C   UNL     1     -14.996 -27.685 -48.184  1.00  0.00     0.003 C 
ATOM     22  C   UNL     1     -15.635 -25.341 -49.510  1.00  0.00     0.033 C 
ATOM     23  C   UNL     1     -15.546 -27.973 -49.634  1.00  0.00    -0.006 C 
ATOM     24  C   UNL     1     -15.673 -26.598 -50.418  1.00  0.00     0.120 C 
ATOM     25  C   UNL     1     -14.543 -28.863 -50.420  1.00  0.00     0.014 C 
ATOM     26  C   UNL     1     -16.891 -28.744 -49.603  1.00  0.00     0.014 C 
ENDROOT
BRANCH   1  27
ATOM     27  C   UNL     1     -10.434 -24.365 -42.456  1.00  0.00     0.048 C 
ATOM     28  O   UNL     1      -9.327 -24.234 -41.865  1.00  0.00    -0.550 OA
ATOM     29  O   UNL     1     -10.753 -23.490 -43.489  1.00  0.00    -0.550 OA
ENDBRANCH   1  27
BRANCH   7  30
ATOM     30  C   UNL     1     -14.808 -24.767 -40.548  1.00  0.00    -0.077 C 
ATOM     31  C   UNL     1     -14.614 -23.271 -40.476  1.00  0.00     0.039 C 
ATOM     32  C   UNL     1     -15.923 -25.292 -40.013  1.00  0.00     0.008 C 
ENDBRANCH   7  30
BRANCH  24  33
ATOM     33  O   UNL     1     -16.831 -26.572 -51.218  1.00  0.00    -0.393 OA
ATOM     34  H   UNL     1     -16.571 -26.874 -52.127  1.00  0.00     0.210 HD
ENDBRANCH  24  33
TORSDOF 3
ENDMDL
