MODEL 1
REMARK VINA RESULT:    -2.284      0.000      0.000
REMARK INTER + INTRA:          -5.056
REMARK INTER:                  -3.619
REMARK INTRA:                  -1.437
REMARK UNBOUND:                -1.437
REMARK SMILES CCCCCCCCCCCC=O
REMARK SMILES IDX 7 1 6 2 5 3 4 4 3 5 2 6 1 7 8 8 9 9 10 10 11 11 12 12 13 13
REMARK H PARENT
REMARK Flexibility Score: inf
ROOT
ATOM      1  C   UNL     1     119.195 114.633 115.286  1.00  0.00     0.000 C 
ENDROOT
BRANCH   1   2
ATOM      2  C   UNL     1     119.517 113.742 114.069  1.00  0.00     0.000 C 
BRANCH   2   3
ATOM      3  C   UNL     1     120.047 114.493 112.836  1.00  0.00    -0.000 C 
BRANCH   3   4
ATOM      4  C   UNL     1     118.937 115.218 112.056  1.00  0.00    -0.000 C 
BRANCH   4   5
ATOM      5  C   UNL     1     119.219 116.721 111.875  1.00  0.00    -0.000 C 
BRANCH   5   6
ATOM      6  C   UNL     1     118.255 117.657 112.625  1.00  0.00    -0.003 C 
ATOM      7  C   UNL     1     118.762 118.052 114.012  1.00  0.00     0.004 C 
ENDBRANCH   5   6
ENDBRANCH   4   5
ENDBRANCH   3   4
ENDBRANCH   2   3
ENDBRANCH   1   2
BRANCH   1   8
ATOM      8  C   UNL     1     117.760 114.453 115.825  1.00  0.00     0.000 C 
BRANCH   8   9
ATOM      9  C   UNL     1     116.762 114.092 114.710  1.00  0.00     0.000 C 
BRANCH   9  10
ATOM     10  C   UNL     1     115.924 115.296 114.253  1.00  0.00     0.008 C 
BRANCH  10  11
ATOM     11  C   UNL     1     115.192 115.040 112.929  1.00  0.00     0.072 C 
BRANCH  11  12
ATOM     12  C   UNL     1     114.558 113.683 112.922  1.00  0.00     0.224 C 
ATOM     13  O   UNL     1     114.681 112.947 111.954  1.00  0.00    -0.303 OA
ENDBRANCH  11  12
ENDBRANCH  10  11
ENDBRANCH   9  10
ENDBRANCH   8   9
ENDBRANCH   1   8
TORSDOF 10
ENDMDL
MODEL 2
REMARK VINA RESULT:    -2.274      1.596      2.422
REMARK INTER + INTRA:          -5.041
REMARK INTER:                  -3.739
REMARK INTRA:                  -1.302
REMARK UNBOUND:                -1.437
REMARK SMILES CCCCCCCCCCCC=O
REMARK SMILES IDX 7 1 6 2 5 3 4 4 3 5 2 6 1 7 8 8 9 9 10 10 11 11 12 12 13 13
REMARK H PARENT
REMARK Flexibility Score: inf
ROOT
ATOM      1  C   UNL     1     118.775 116.306 114.081  1.00  0.00     0.000 C 
ENDROOT
BRANCH   1   2
ATOM      2  C   UNL     1     119.256 116.273 112.616  1.00  0.00     0.000 C 
BRANCH   2   3
ATOM      3  C   UNL     1     119.175 117.619 111.875  1.00  0.00    -0.000 C 
BRANCH   3   4
ATOM      4  C   UNL     1     118.984 118.813 112.826  1.00  0.00    -0.000 C 
BRANCH   4   5
ATOM      5  C   UNL     1     117.849 119.754 112.381  1.00  0.00    -0.000 C 
BRANCH   5   6
ATOM      6  C   UNL     1     116.434 119.157 112.480  1.00  0.00    -0.003 C 
ATOM      7  C   UNL     1     115.944 119.014 113.920  1.00  0.00     0.004 C 
ENDBRANCH   5   6
ENDBRANCH   4   5
ENDBRANCH   3   4
ENDBRANCH   2   3
ENDBRANCH   1   2
BRANCH   1   8
ATOM      8  C   UNL     1     117.398 115.644 114.298  1.00  0.00     0.000 C 
BRANCH   8   9
ATOM      9  C   UNL     1     116.938 114.844 113.066  1.00  0.00     0.000 C 
BRANCH   9  10
ATOM     10  C   UNL     1     115.571 115.307 112.538  1.00  0.00     0.008 C 
BRANCH  10  11
ATOM     11  C   UNL     1     114.438 115.085 113.549  1.00  0.00     0.072 C 
BRANCH  11  12
ATOM     12  C   UNL     1     113.862 113.708 113.413  1.00  0.00     0.224 C 
ATOM     13  O   UNL     1     114.113 113.027 112.431  1.00  0.00    -0.303 OA
ENDBRANCH  11  12
ENDBRANCH  10  11
ENDBRANCH   9  10
ENDBRANCH   8   9
ENDBRANCH   1   8
TORSDOF 10
ENDMDL
MODEL 3
REMARK VINA RESULT:    -2.227      2.245      5.176
REMARK INTER + INTRA:          -4.967
REMARK INTER:                  -3.651
REMARK INTRA:                  -1.315
REMARK UNBOUND:                -1.437
REMARK SMILES CCCCCCCCCCCC=O
REMARK SMILES IDX 7 1 6 2 5 3 4 4 3 5 2 6 1 7 8 8 9 9 10 10 11 11 12 12 13 13
REMARK H PARENT
REMARK Flexibility Score: inf
ROOT
ATOM      1  C   UNL     1     116.816 119.066 112.090  1.00  0.00     0.000 C 
ENDROOT
BRANCH   1   2
ATOM      2  C   UNL     1     115.397 118.823 112.641  1.00  0.00     0.000 C 
BRANCH   2   3
ATOM      3  C   UNL     1     115.342 118.143 114.020  1.00  0.00    -0.000 C 
BRANCH   3   4
ATOM      4  C   UNL     1     115.082 116.629 113.928  1.00  0.00    -0.000 C 
BRANCH   4   5
ATOM      5  C   UNL     1     114.536 116.200 112.553  1.00  0.00    -0.000 C 
BRANCH   5   6
ATOM      6  C   UNL     1     115.307 115.052 111.879  1.00  0.00    -0.003 C 
ATOM      7  C   UNL     1     115.909 114.066 112.880  1.00  0.00     0.004 C 
ENDBRANCH   5   6
ENDBRANCH   4   5
ENDBRANCH   3   4
ENDBRANCH   2   3
ENDBRANCH   1   2
BRANCH   1   8
ATOM      8  C   UNL     1     117.840 119.477 113.170  1.00  0.00     0.000 C 
BRANCH   8   9
ATOM      9  C   UNL     1     119.078 118.563 113.173  1.00  0.00     0.000 C 
BRANCH   9  10
ATOM     10  C   UNL     1     118.802 117.191 112.540  1.00  0.00     0.008 C 
BRANCH  10  11
ATOM     11  C   UNL     1     119.015 116.030 113.522  1.00  0.00     0.072 C 
BRANCH  11  12
ATOM     12  C   UNL     1     119.725 114.891 112.856  1.00  0.00     0.224 C 
ATOM     13  O   UNL     1     119.698 113.773 113.349  1.00  0.00    -0.303 OA
ENDBRANCH  11  12
ENDBRANCH  10  11
ENDBRANCH   9  10
ENDBRANCH   8   9
ENDBRANCH   1   8
TORSDOF 10
ENDMDL
MODEL 4
REMARK VINA RESULT:    -2.216      2.323      4.918
REMARK INTER + INTRA:          -4.949
REMARK INTER:                  -4.306
REMARK INTRA:                  -0.643
REMARK UNBOUND:                -1.437
REMARK SMILES CCCCCCCCCCCC=O
REMARK SMILES IDX 7 1 6 2 5 3 4 4 3 5 2 6 1 7 8 8 9 9 10 10 11 11 12 12 13 13
REMARK H PARENT
REMARK Flexibility Score: inf
ROOT
ATOM      1  C   UNL     1     119.136 115.168 113.465  1.00  0.00     0.000 C 
ENDROOT
BRANCH   1   2
ATOM      2  C   UNL     1     118.103 114.571 112.488  1.00  0.00     0.000 C 
BRANCH   2   3
ATOM      3  C   UNL     1     116.689 114.389 113.067  1.00  0.00    -0.000 C 
BRANCH   3   4
ATOM      4  C   UNL     1     115.669 115.372 112.468  1.00  0.00    -0.000 C 
BRANCH   4   5
ATOM      5  C   UNL     1     114.346 114.691 112.070  1.00  0.00    -0.000 C 
BRANCH   5   6
ATOM      6  C   UNL     1     114.132 113.291 112.669  1.00  0.00    -0.003 C 
ATOM      7  C   UNL     1     113.304 113.310 113.954  1.00  0.00     0.004 C 
ENDBRANCH   5   6
ENDBRANCH   4   5
ENDBRANCH   3   4
ENDBRANCH   2   3
ENDBRANCH   1   2
BRANCH   1   8
ATOM      8  C   UNL     1     118.925 116.670 113.751  1.00  0.00     0.000 C 
BRANCH   8   9
ATOM      9  C   UNL     1     118.887 117.507 112.460  1.00  0.00     0.000 C 
BRANCH   9  10
ATOM     10  C   UNL     1     119.047 119.011 112.725  1.00  0.00     0.008 C 
BRANCH  10  11
ATOM     11  C   UNL     1     117.944 119.851 112.066  1.00  0.00     0.072 C 
BRANCH  11  12
ATOM     12  C   UNL     1     116.610 119.183 112.203  1.00  0.00     0.224 C 
ATOM     13  O   UNL     1     115.998 119.234 113.259  1.00  0.00    -0.303 OA
ENDBRANCH  11  12
ENDBRANCH  10  11
ENDBRANCH   9  10
ENDBRANCH   8   9
ENDBRANCH   1   8
TORSDOF 10
ENDMDL
MODEL 5
REMARK VINA RESULT:    -2.212      2.335      4.363
REMARK INTER + INTRA:          -4.942
REMARK INTER:                  -3.611
REMARK INTRA:                  -1.331
REMARK UNBOUND:                -1.437
REMARK SMILES CCCCCCCCCCCC=O
REMARK SMILES IDX 7 1 6 2 5 3 4 4 3 5 2 6 1 7 8 8 9 9 10 10 11 11 12 12 13 13
REMARK H PARENT
REMARK Flexibility Score: inf
ROOT
ATOM      1  C   UNL     1     113.947 117.828 113.164  1.00  0.00     0.000 C 
ENDROOT
BRANCH   1   2
ATOM      2  C   UNL     1     114.574 119.216 112.925  1.00  0.00     0.000 C 
BRANCH   2   3
ATOM      3  C   UNL     1     115.750 119.238 111.935  1.00  0.00    -0.000 C 
BRANCH   3   4
ATOM      4  C   UNL     1     117.087 118.850 112.589  1.00  0.00    -0.000 C 
BRANCH   4   5
ATOM      5  C   UNL     1     117.712 117.587 111.967  1.00  0.00    -0.000 C 
BRANCH   5   6
ATOM      6  C   UNL     1     118.817 116.928 112.810  1.00  0.00    -0.003 C 
ATOM      7  C   UNL     1     118.852 117.433 114.252  1.00  0.00     0.004 C 
ENDBRANCH   5   6
ENDBRANCH   4   5
ENDBRANCH   3   4
ENDBRANCH   2   3
ENDBRANCH   1   2
BRANCH   1   8
ATOM      8  C   UNL     1     113.769 116.997 111.875  1.00  0.00     0.000 C 
BRANCH   8   9
ATOM      9  C   UNL     1     114.385 115.592 112.001  1.00  0.00     0.000 C 
BRANCH   9  10
ATOM     10  C   UNL     1     114.834 115.270 113.435  1.00  0.00     0.008 C 
BRANCH  10  11
ATOM     11  C   UNL     1     116.170 114.514 113.482  1.00  0.00     0.072 C 
BRANCH  11  12
ATOM     12  C   UNL     1     116.725 114.496 114.873  1.00  0.00     0.224 C 
ATOM     13  O   UNL     1     117.800 113.964 115.104  1.00  0.00    -0.303 OA
ENDBRANCH  11  12
ENDBRANCH  10  11
ENDBRANCH   9  10
ENDBRANCH   8   9
ENDBRANCH   1   8
TORSDOF 10
ENDMDL
MODEL 6
REMARK VINA RESULT:    -2.205      9.766     11.644
REMARK INTER + INTRA:          -4.932
REMARK INTER:                  -3.470
REMARK INTRA:                  -1.462
REMARK UNBOUND:                -1.437
REMARK SMILES CCCCCCCCCCCC=O
REMARK SMILES IDX 7 1 6 2 5 3 4 4 3 5 2 6 1 7 8 8 9 9 10 10 11 11 12 12 13 13
REMARK H PARENT
REMARK Flexibility Score: inf
ROOT
ATOM      1  C   UNL     1     124.521 120.406 116.142  1.00  0.00     0.000 C 
ENDROOT
BRANCH   1   2
ATOM      2  C   UNL     1     124.418 120.465 117.679  1.00  0.00     0.000 C 
BRANCH   2   3
ATOM      3  C   UNL     1     123.008 120.742 118.226  1.00  0.00    -0.000 C 
BRANCH   3   4
ATOM      4  C   UNL     1     122.793 122.219 118.601  1.00  0.00    -0.000 C 
BRANCH   4   5
ATOM      5  C   UNL     1     121.952 122.983 117.561  1.00  0.00    -0.000 C 
BRANCH   5   6
ATOM      6  C   UNL     1     122.639 124.218 116.952  1.00  0.00    -0.003 C 
ATOM      7  C   UNL     1     123.509 124.975 117.956  1.00  0.00     0.004 C 
ENDBRANCH   5   6
ENDBRANCH   4   5
ENDBRANCH   3   4
ENDBRANCH   2   3
ENDBRANCH   1   2
BRANCH   1   8
ATOM      8  C   UNL     1     125.330 121.569 115.527  1.00  0.00     0.000 C 
BRANCH   8   9
ATOM      9  C   UNL     1     126.046 122.407 116.601  1.00  0.00     0.000 C 
BRANCH   9  10
ATOM     10  C   UNL     1     126.587 123.736 116.050  1.00  0.00     0.008 C 
BRANCH  10  11
ATOM     11  C   UNL     1     125.913 124.150 114.734  1.00  0.00     0.072 C 
BRANCH  11  12
ATOM     12  C   UNL     1     125.479 125.583 114.783  1.00  0.00     0.224 C 
ATOM     13  O   UNL     1     124.366 125.906 114.399  1.00  0.00    -0.303 OA
ENDBRANCH  11  12
ENDBRANCH  10  11
ENDBRANCH   9  10
ENDBRANCH   8   9
ENDBRANCH   1   8
TORSDOF 10
ENDMDL
MODEL 7
REMARK VINA RESULT:    -2.193      2.807      4.839
REMARK INTER + INTRA:          -4.913
REMARK INTER:                  -3.849
REMARK INTRA:                  -1.064
REMARK UNBOUND:                -1.437
REMARK SMILES CCCCCCCCCCCC=O
REMARK SMILES IDX 7 1 6 2 5 3 4 4 3 5 2 6 1 7 8 8 9 9 10 10 11 11 12 12 13 13
REMARK H PARENT
REMARK Flexibility Score: inf
ROOT
ATOM      1  C   UNL     1     114.406 115.879 113.600  1.00  0.00     0.000 C 
ENDROOT
BRANCH   1   2
ATOM      2  C   UNL     1     114.288 114.520 112.882  1.00  0.00     0.000 C 
BRANCH   2   3
ATOM      3  C   UNL     1     115.517 114.116 112.048  1.00  0.00    -0.000 C 
BRANCH   3   4
ATOM      4  C   UNL     1     116.841 114.314 112.804  1.00  0.00    -0.000 C 
BRANCH   4   5
ATOM      5  C   UNL     1     118.069 114.280 111.875  1.00  0.00    -0.000 C 
BRANCH   5   6
ATOM      6  C   UNL     1     119.412 114.578 112.564  1.00  0.00    -0.003 C 
ATOM      7  C   UNL     1     119.326 114.531 114.090  1.00  0.00     0.004 C 
ENDBRANCH   5   6
ENDBRANCH   4   5
ENDBRANCH   3   4
ENDBRANCH   2   3
ENDBRANCH   1   2
BRANCH   1   8
ATOM      8  C   UNL     1     114.000 117.083 112.723  1.00  0.00     0.000 C 
BRANCH   8   9
ATOM      9  C   UNL     1     115.051 118.206 112.758  1.00  0.00     0.000 C 
BRANCH   9  10
ATOM     10  C   UNL     1     116.267 117.852 113.627  1.00  0.00     0.008 C 
BRANCH  10  11
ATOM     11  C   UNL     1     117.601 118.177 112.942  1.00  0.00     0.072 C 
BRANCH  11  12
ATOM     12  C   UNL     1     117.861 119.653 112.950  1.00  0.00     0.224 C 
ATOM     13  O   UNL     1     118.398 120.192 111.994  1.00  0.00    -0.303 OA
ENDBRANCH  11  12
ENDBRANCH  10  11
ENDBRANCH   9  10
ENDBRANCH   8   9
ENDBRANCH   1   8
TORSDOF 10
ENDMDL
MODEL 8
REMARK VINA RESULT:    -2.184      2.620      4.662
REMARK INTER + INTRA:          -4.898
REMARK INTER:                  -3.831
REMARK INTRA:                  -1.068
REMARK UNBOUND:                -1.437
REMARK SMILES CCCCCCCCCCCC=O
REMARK SMILES IDX 7 1 6 2 5 3 4 4 3 5 2 6 1 7 8 8 9 9 10 10 11 11 12 12 13 13
REMARK H PARENT
REMARK Flexibility Score: inf
ROOT
ATOM      1  C   UNL     1     114.420 115.880 111.893  1.00  0.00     0.000 C 
ENDROOT
BRANCH   1   2
ATOM      2  C   UNL     1     113.752 117.269 111.917  1.00  0.00     0.000 C 
BRANCH   2   3
ATOM      3  C   UNL     1     113.853 118.018 113.257  1.00  0.00    -0.000 C 
BRANCH   3   4
ATOM      4  C   UNL     1     114.853 119.186 113.213  1.00  0.00    -0.000 C 
BRANCH   4   5
ATOM      5  C   UNL     1     116.308 118.735 113.439  1.00  0.00    -0.000 C 
BRANCH   5   6
ATOM      6  C   UNL     1     117.238 118.913 112.226  1.00  0.00    -0.003 C 
ATOM      7  C   UNL     1     118.265 120.028 112.417  1.00  0.00     0.004 C 
ENDBRANCH   5   6
ENDBRANCH   4   5
ENDBRANCH   3   4
ENDBRANCH   2   3
ENDBRANCH   1   2
BRANCH   1   8
ATOM      8  C   UNL     1     114.322 115.121 113.234  1.00  0.00     0.000 C 
BRANCH   8   9
ATOM      9  C   UNL     1     115.682 114.554 113.680  1.00  0.00     0.000 C 
BRANCH   9  10
ATOM     10  C   UNL     1     116.764 114.694 112.598  1.00  0.00     0.008 C 
BRANCH  10  11
ATOM     11  C   UNL     1     118.123 115.123 113.170  1.00  0.00     0.072 C 
BRANCH  11  12
ATOM     12  C   UNL     1     119.140 114.036 113.003  1.00  0.00     0.224 C 
ATOM     13  O   UNL     1     119.951 113.807 113.887  1.00  0.00    -0.303 OA
ENDBRANCH  11  12
ENDBRANCH  10  11
ENDBRANCH   9  10
ENDBRANCH   8   9
ENDBRANCH   1   8
TORSDOF 10
ENDMDL
MODEL 9
REMARK VINA RESULT:    -2.177      2.486      3.872
REMARK INTER + INTRA:          -4.887
REMARK INTER:                  -3.802
REMARK INTRA:                  -1.085
REMARK UNBOUND:                -1.437
REMARK SMILES CCCCCCCCCCCC=O
REMARK SMILES IDX 7 1 6 2 5 3 4 4 3 5 2 6 1 7 8 8 9 9 10 10 11 11 12 12 13 13
REMARK H PARENT
REMARK Flexibility Score: inf
ROOT
ATOM      1  C   UNL     1     115.794 114.252 113.064  1.00  0.00     0.000 C 
ENDROOT
BRANCH   1   2
ATOM      2  C   UNL     1     116.864 114.479 111.978  1.00  0.00     0.000 C 
BRANCH   2   3
ATOM      3  C   UNL     1     117.577 115.841 112.041  1.00  0.00    -0.000 C 
BRANCH   3   4
ATOM      4  C   UNL     1     118.888 115.792 112.843  1.00  0.00    -0.000 C 
BRANCH   4   5
ATOM      5  C   UNL     1     119.613 114.438 112.719  1.00  0.00    -0.000 C 
BRANCH   5   6
ATOM      6  C   UNL     1     119.827 113.693 114.047  1.00  0.00    -0.003 C 
ATOM      7  C   UNL     1     118.934 114.210 115.175  1.00  0.00     0.004 C 
ENDBRANCH   5   6
ENDBRANCH   4   5
ENDBRANCH   3   4
ENDBRANCH   2   3
ENDBRANCH   1   2
BRANCH   1   8
ATOM      8  C   UNL     1     114.551 115.154 112.910  1.00  0.00     0.000 C 
BRANCH   8   9
ATOM      9  C   UNL     1     114.293 116.005 114.166  1.00  0.00     0.000 C 
BRANCH   9  10
ATOM     10  C   UNL     1     113.999 117.476 113.834  1.00  0.00     0.008 C 
BRANCH  10  11
ATOM     11  C   UNL     1     114.149 117.787 112.338  1.00  0.00     0.072 C 
BRANCH  11  12
ATOM     12  C   UNL     1     115.194 118.838 112.114  1.00  0.00     0.224 C 
ATOM     13  O   UNL     1     116.075 119.021 112.940  1.00  0.00    -0.303 OA
ENDBRANCH  11  12
ENDBRANCH  10  11
ENDBRANCH   9  10
ENDBRANCH   8   9
ENDBRANCH   1   8
TORSDOF 10
ENDMDL
