MODEL 1
REMARK VINA RESULT:    -4.245      0.000      0.000
REMARK INTER + INTRA:          -5.475
REMARK INTER:                  -5.981
REMARK INTRA:                   0.506
REMARK UNBOUND:                 0.506
REMARK SMILES CC1=CCC(=C(C)C)C(=O)CC(C)=CCC1
REMARK SMILES IDX 12 1 14 2 13 3 15 4 16 5 2 6 1 7 3 8 11 10 9 11 10 12 5 13
REMARK SMILES IDX 6 14 7 15 8 16 4 17
REMARK H PARENT
REMARK Flexibility Score: 60.00
ROOT
ATOM      1  C   UNL     1      42.695  56.892  30.099  1.00  0.00    -0.070 C 
ATOM      2  C   UNL     1      42.462  57.027  28.767  1.00  0.00    -0.027 C 
ATOM      3  C   UNL     1      43.066  55.511  30.586  1.00  0.00     0.039 C 
ENDROOT
BRANCH   2   4
ATOM      4  C   UNL     1      41.966  58.257  28.044  1.00  0.00     0.032 C 
BRANCH   4   5
ATOM      5  C   UNL     1      43.021  58.958  27.171  1.00  0.00     0.034 C 
BRANCH   5   6
ATOM      6  C   UNL     1      44.445  58.915  27.699  1.00  0.00    -0.077 C 
ATOM      7  C   UNL     1      45.423  57.954  27.071  1.00  0.00     0.039 C 
ATOM      8  C   UNL     1      44.914  59.759  28.649  1.00  0.00    -0.023 CG0
ATOM      9  G   UNL     1      44.073  60.680  29.493  1.00  0.00     0.000 G0
ENDBRANCH   5   6
ENDBRANCH   4   5
ENDBRANCH   2   4
BRANCH   1  10
ATOM     10  C   UNL     1      42.735  58.029  31.115  1.00  0.00     0.111 C 
BRANCH  10  11
ATOM     11  C   UNL     1      44.048  58.753  31.234  1.00  0.00     0.163 C 
ATOM     12  O   UNL     1      45.101  58.101  31.469  1.00  0.00    -0.294 OA
BRANCH  11  13
ATOM     13  C   UNL     1      44.132  60.210  30.962  1.00  0.00    -0.002 C 
ATOM     14  C   UNL     1      44.302  61.084  31.992  1.00  0.00    -0.069 C 
ATOM     15  C   UNL     1      44.390  60.585  33.418  1.00  0.00     0.039 C 
ATOM     16  C   UNL     1      44.435  62.570  31.759  1.00  0.00     0.039 C 
BRANCH  13  17
ATOM     17  C   UNL     1      44.081  60.653  29.506  1.00  0.00     0.066 CG0
ATOM     18  G   UNL     1      44.941  59.749  28.662  1.00  0.00     0.000 G0
ENDBRANCH  13  17
ENDBRANCH  11  13
ENDBRANCH  10  11
ENDBRANCH   1  10
TORSDOF 0
ENDMDL
MODEL 2
REMARK VINA RESULT:    -4.137     18.190     19.828
REMARK INTER + INTRA:          -5.324
REMARK INTER:                  -5.483
REMARK INTRA:                   0.159
REMARK UNBOUND:                 0.506
REMARK SMILES CC1=CCC(=C(C)C)C(=O)CC(C)=CCC1
REMARK SMILES IDX 12 1 14 2 13 3 15 4 16 5 2 6 1 7 3 8 11 10 9 11 10 12 5 13
REMARK SMILES IDX 6 14 7 15 8 16 4 17
REMARK H PARENT
REMARK Flexibility Score: 60.00
ROOT
ATOM      1  C   UNL     1      59.897  66.440  33.314  1.00  0.00    -0.070 C 
ATOM      2  C   UNL     1      60.396  66.682  32.072  1.00  0.00    -0.027 C 
ATOM      3  C   UNL     1      59.897  65.002  33.776  1.00  0.00     0.039 C 
ENDROOT
BRANCH   2   4
ATOM      4  C   UNL     1      60.406  67.996  31.329  1.00  0.00     0.032 C 
BRANCH   4   5
ATOM      5  C   UNL     1      61.379  69.046  31.892  1.00  0.00     0.034 C 
BRANCH   5   6
ATOM      6  C   UNL     1      60.758  70.379  32.275  1.00  0.00    -0.077 C 
ATOM      7  C   UNL     1      60.046  71.179  31.213  1.00  0.00     0.039 C 
ATOM      8  C   UNL     1      60.732  70.853  33.543  1.00  0.00    -0.023 CG0
ATOM      9  G   UNL     1      61.503  70.283  34.705  1.00  0.00     0.000 G0
ENDBRANCH   5   6
ENDBRANCH   4   5
ENDBRANCH   2   4
BRANCH   1  10
ATOM     10  C   UNL     1      59.457  67.501  34.317  1.00  0.00     0.111 C 
BRANCH  10  11
ATOM     11  C   UNL     1      60.521  67.988  35.261  1.00  0.00     0.163 C 
ATOM     12  O   UNL     1      61.393  67.185  35.688  1.00  0.00    -0.294 OA
BRANCH  11  13
ATOM     13  C   UNL     1      60.621  69.430  35.602  1.00  0.00    -0.002 C 
ATOM     14  C   UNL     1      59.966  69.917  36.692  1.00  0.00    -0.069 C 
ATOM     15  C   UNL     1      59.118  69.004  37.552  1.00  0.00     0.039 C 
ATOM     16  C   UNL     1      60.073  71.366  37.101  1.00  0.00     0.039 C 
BRANCH  13  17
ATOM     17  C   UNL     1      61.521  70.293  34.729  1.00  0.00     0.066 CG0
ATOM     18  G   UNL     1      60.737  70.844  33.567  1.00  0.00     0.000 G0
ENDBRANCH  13  17
ENDBRANCH  11  13
ENDBRANCH  10  11
ENDBRANCH   1  10
TORSDOF 0
ENDMDL
MODEL 3
REMARK VINA RESULT:    -4.105      1.912      4.939
REMARK INTER + INTRA:          -5.279
REMARK INTER:                  -5.668
REMARK INTRA:                   0.390
REMARK UNBOUND:                 0.506
REMARK SMILES CC1=CCC(=C(C)C)C(=O)CC(C)=CCC1
REMARK SMILES IDX 12 1 14 2 13 3 15 4 16 5 2 6 1 7 3 8 11 10 9 11 10 12 5 13
REMARK SMILES IDX 6 14 7 15 8 16 4 17
REMARK H PARENT
REMARK Flexibility Score: 60.00
ROOT
ATOM      1  C   UNL     1      44.670  61.167  32.015  1.00  0.00    -0.070 C 
ATOM      2  C   UNL     1      44.509  60.558  33.219  1.00  0.00    -0.027 C 
ATOM      3  C   UNL     1      44.504  62.669  31.988  1.00  0.00     0.039 C 
ENDROOT
BRANCH   2   4
ATOM      4  C   UNL     1      44.503  59.074  33.502  1.00  0.00     0.032 C 
BRANCH   4   5
ATOM      5  C   UNL     1      43.331  58.304  32.870  1.00  0.00     0.034 C 
BRANCH   5   6
ATOM      6  C   UNL     1      43.715  57.119  32.000  1.00  0.00    -0.077 C 
ATOM      7  C   UNL     1      44.482  55.980  32.624  1.00  0.00     0.039 C 
ATOM      8  C   UNL     1      43.330  56.986  30.708  1.00  0.00    -0.023 CG0
ATOM      9  G   UNL     1      42.694  58.063  29.870  1.00  0.00     0.000 G0
ENDBRANCH   5   6
ENDBRANCH   4   5
ENDBRANCH   2   4
BRANCH   1  10
ATOM     10  C   UNL     1      45.120  60.487  30.727  1.00  0.00     0.111 C 
BRANCH  10  11
ATOM     11  C   UNL     1      44.047  60.263  29.698  1.00  0.00     0.163 C 
ATOM     12  O   UNL     1      43.427  61.250  29.217  1.00  0.00    -0.294 OA
BRANCH  11  13
ATOM     13  C   UNL     1      43.793  58.904  29.158  1.00  0.00    -0.002 C 
ATOM     14  C   UNL     1      44.548  58.429  28.129  1.00  0.00    -0.069 C 
ATOM     15  C   UNL     1      45.636  59.283  27.515  1.00  0.00     0.039 C 
ATOM     16  C   UNL     1      44.352  57.038  27.577  1.00  0.00     0.039 C 
BRANCH  13  17
ATOM     17  C   UNL     1      42.716  58.071  29.841  1.00  0.00     0.066 CG0
ATOM     18  G   UNL     1      43.351  57.007  30.697  1.00  0.00     0.000 G0
ENDBRANCH  13  17
ENDBRANCH  11  13
ENDBRANCH  10  11
ENDBRANCH   1  10
TORSDOF 0
ENDMDL
MODEL 4
REMARK VINA RESULT:    -4.047      2.250      3.955
REMARK INTER + INTRA:          -5.196
REMARK INTER:                  -5.669
REMARK INTRA:                   0.473
REMARK UNBOUND:                 0.506
REMARK SMILES CC1=CCC(=C(C)C)C(=O)CC(C)=CCC1
REMARK SMILES IDX 12 1 14 2 13 3 15 4 16 5 2 6 1 7 3 8 11 10 9 11 10 12 5 13
REMARK SMILES IDX 6 14 7 15 8 16 4 17
REMARK H PARENT
REMARK Flexibility Score: 60.00
ROOT
ATOM      1  C   UNL     1      43.595  59.686  28.986  1.00  0.00    -0.070 C 
ATOM      2  C   UNL     1      43.792  59.372  27.678  1.00  0.00    -0.027 C 
ATOM      3  C   UNL     1      43.744  61.142  29.363  1.00  0.00     0.039 C 
ENDROOT
BRANCH   2   4
ATOM      4  C   UNL     1      43.820  57.993  27.062  1.00  0.00     0.032 C 
BRANCH   4   5
ATOM      5  C   UNL     1      44.997  57.111  27.513  1.00  0.00     0.034 C 
BRANCH   5   6
ATOM      6  C   UNL     1      44.619  55.806  28.191  1.00  0.00    -0.077 C 
ATOM      7  C   UNL     1      43.871  54.765  27.396  1.00  0.00     0.039 C 
ATOM      8  C   UNL     1      44.995  55.484  29.452  1.00  0.00    -0.023 CG0
ATOM      9  G   UNL     1      45.612  56.430  30.449  1.00  0.00     0.000 G0
ENDBRANCH   5   6
ENDBRANCH   4   5
ENDBRANCH   2   4
BRANCH   1  10
ATOM     10  C   UNL     1      43.121  58.724  30.070  1.00  0.00     0.111 C 
BRANCH  10  11
ATOM     11  C   UNL     1      44.125  58.403  31.142  1.00  0.00     0.163 C 
ATOM     12  O   UNL     1      44.534  59.315  31.909  1.00  0.00    -0.294 OA
BRANCH  11  13
ATOM     13  C   UNL     1      44.549  57.000  31.380  1.00  0.00    -0.002 C 
ATOM     14  C   UNL     1      43.951  56.266  32.358  1.00  0.00    -0.069 C 
ATOM     15  C   UNL     1      42.866  56.873  33.221  1.00  0.00     0.039 C 
ATOM     16  C   UNL     1      44.321  54.824  32.608  1.00  0.00     0.039 C 
BRANCH  13  17
ATOM     17  C   UNL     1      45.614  56.426  30.455  1.00  0.00     0.066 CG0
ATOM     18  G   UNL     1      44.981  55.492  29.457  1.00  0.00     0.000 G0
ENDBRANCH  13  17
ENDBRANCH  11  13
ENDBRANCH  10  11
ENDBRANCH   1  10
TORSDOF 0
ENDMDL
MODEL 5
REMARK VINA RESULT:    -3.936     18.192     20.183
REMARK INTER + INTRA:          -5.041
REMARK INTER:                  -5.570
REMARK INTRA:                   0.529
REMARK UNBOUND:                 0.506
REMARK SMILES CC1=CCC(=C(C)C)C(=O)CC(C)=CCC1
REMARK SMILES IDX 12 1 14 2 13 3 15 4 16 5 2 6 1 7 3 8 11 10 9 11 10 12 5 13
REMARK SMILES IDX 6 14 7 15 8 16 4 17
REMARK H PARENT
REMARK Flexibility Score: 60.00
ROOT
ATOM      1  C   UNL     1      58.349  64.983  39.114  1.00  0.00    -0.070 C 
ATOM      2  C   UNL     1      59.243  64.208  39.783  1.00  0.00    -0.027 C 
ATOM      3  C   UNL     1      58.449  64.986  37.606  1.00  0.00     0.039 C 
ENDROOT
BRANCH   2   4
ATOM      4  C   UNL     1      59.437  64.116  41.278  1.00  0.00     0.032 C 
BRANCH   4   5
ATOM      5  C   UNL     1      60.500  65.069  41.848  1.00  0.00     0.034 C 
BRANCH   5   6
ATOM      6  C   UNL     1      59.970  66.352  42.467  1.00  0.00    -0.077 C 
ATOM      7  C   UNL     1      59.629  66.360  43.936  1.00  0.00     0.039 C 
ATOM      8  C   UNL     1      59.869  67.521  41.790  1.00  0.00    -0.023 CG0
ATOM      9  G   UNL     1      60.020  67.684  40.301  1.00  0.00     0.000 G0
ENDBRANCH   5   6
ENDBRANCH   4   5
ENDBRANCH   2   4
BRANCH   1  10
ATOM     10  C   UNL     1      57.186  65.744  39.742  1.00  0.00     0.111 C 
BRANCH  10  11
ATOM     11  C   UNL     1      57.505  67.127  40.241  1.00  0.00     0.163 C 
ATOM     12  O   UNL     1      56.871  67.597  41.223  1.00  0.00    -0.294 OA
BRANCH  11  13
ATOM     13  C   UNL     1      58.636  67.894  39.662  1.00  0.00    -0.002 C 
ATOM     14  C   UNL     1      58.412  68.766  38.640  1.00  0.00    -0.069 C 
ATOM     15  C   UNL     1      57.021  68.948  38.074  1.00  0.00     0.039 C 
ATOM     16  C   UNL     1      59.525  69.597  38.048  1.00  0.00     0.039 C 
BRANCH  13  17
ATOM     17  C   UNL     1      60.007  67.704  40.297  1.00  0.00     0.066 CG0
ATOM     18  G   UNL     1      59.864  67.512  41.784  1.00  0.00     0.000 G0
ENDBRANCH  13  17
ENDBRANCH  11  13
ENDBRANCH  10  11
ENDBRANCH   1  10
TORSDOF 0
ENDMDL
MODEL 6
REMARK VINA RESULT:    -3.924     17.415     19.529
REMARK INTER + INTRA:          -5.023
REMARK INTER:                  -5.780
REMARK INTRA:                   0.757
REMARK UNBOUND:                 0.506
REMARK SMILES CC1=CCC(=C(C)C)C(=O)CC(C)=CCC1
REMARK SMILES IDX 12 1 14 2 13 3 15 4 16 5 2 6 1 7 3 8 11 10 9 11 10 12 5 13
REMARK SMILES IDX 6 14 7 15 8 16 4 17
REMARK H PARENT
REMARK Flexibility Score: 60.00
ROOT
ATOM      1  C   UNL     1      58.220  68.922  31.258  1.00  0.00    -0.070 C 
ATOM      2  C   UNL     1      59.417  68.551  30.732  1.00  0.00    -0.027 C 
ATOM      3  C   UNL     1      57.083  69.121  30.283  1.00  0.00     0.039 C 
ENDROOT
BRANCH   2   4
ATOM      4  C   UNL     1      60.731  68.402  31.460  1.00  0.00     0.032 C 
BRANCH   4   5
ATOM      5  C   UNL     1      61.693  69.591  31.301  1.00  0.00     0.034 C 
BRANCH   5   6
ATOM      6  C   UNL     1      61.047  70.966  31.307  1.00  0.00    -0.077 C 
ATOM      7  C   UNL     1      60.986  71.744  30.016  1.00  0.00     0.039 C 
ATOM      8  C   UNL     1      60.439  71.500  32.393  1.00  0.00    -0.023 CG0
ATOM      9  G   UNL     1      60.516  70.954  33.795  1.00  0.00     0.000 G0
ENDBRANCH   5   6
ENDBRANCH   4   5
ENDBRANCH   2   4
BRANCH   1  10
ATOM     10  C   UNL     1      57.898  69.032  32.745  1.00  0.00     0.111 C 
BRANCH  10  11
ATOM     11  C   UNL     1      58.057  70.400  33.348  1.00  0.00     0.163 C 
ATOM     12  O   UNL     1      57.218  71.302  33.081  1.00  0.00    -0.294 OA
BRANCH  11  13
ATOM     13  C   UNL     1      59.126  70.663  34.344  1.00  0.00    -0.002 C 
ATOM     14  C   UNL     1      58.853  70.568  35.674  1.00  0.00    -0.069 C 
ATOM     15  C   UNL     1      57.461  70.213  36.151  1.00  0.00     0.039 C 
ATOM     16  C   UNL     1      59.918  70.787  36.721  1.00  0.00     0.039 C 
BRANCH  13  17
ATOM     17  C   UNL     1      60.518  70.974  33.810  1.00  0.00     0.066 CG0
ATOM     18  G   UNL     1      60.425  71.483  32.395  1.00  0.00     0.000 G0
ENDBRANCH  13  17
ENDBRANCH  11  13
ENDBRANCH  10  11
ENDBRANCH   1  10
TORSDOF 0
ENDMDL
MODEL 7
REMARK VINA RESULT:    -3.828      2.571      3.894
REMARK INTER + INTRA:          -4.888
REMARK INTER:                  -5.401
REMARK INTRA:                   0.513
REMARK UNBOUND:                 0.506
REMARK SMILES CC1=CCC(=C(C)C)C(=O)CC(C)=CCC1
REMARK SMILES IDX 12 1 14 2 13 3 15 4 16 5 2 6 1 7 3 8 11 10 9 11 10 12 5 13
REMARK SMILES IDX 6 14 7 15 8 16 4 17
REMARK H PARENT
REMARK Flexibility Score: 60.00
ROOT
ATOM      1  C   UNL     1      44.302  54.875  28.178  1.00  0.00    -0.070 C 
ATOM      2  C   UNL     1      44.067  55.802  27.212  1.00  0.00    -0.027 C 
ATOM      3  C   UNL     1      44.363  53.432  27.733  1.00  0.00     0.039 C 
ENDROOT
BRANCH   2   4
ATOM      4  C   UNL     1      43.843  57.284  27.399  1.00  0.00     0.032 C 
BRANCH   4   5
ATOM      5  C   UNL     1      42.653  57.644  28.305  1.00  0.00     0.034 C 
BRANCH   5   6
ATOM      6  C   UNL     1      42.958  58.605  29.441  1.00  0.00    -0.077 C 
ATOM      7  C   UNL     1      43.617  59.923  29.119  1.00  0.00     0.039 C 
ATOM      8  C   UNL     1      42.590  58.383  30.726  1.00  0.00    -0.023 CG0
ATOM      9  G   UNL     1      42.061  57.083  31.271  1.00  0.00     0.000 G0
ENDBRANCH   5   6
ENDBRANCH   4   5
ENDBRANCH   2   4
BRANCH   1  10
ATOM     10  C   UNL     1      44.628  55.174  29.637  1.00  0.00     0.111 C 
BRANCH  10  11
ATOM     11  C   UNL     1      43.484  55.040  30.603  1.00  0.00     0.163 C 
ATOM     12  O   UNL     1      42.823  53.968  30.643  1.00  0.00    -0.294 OA
BRANCH  11  13
ATOM     13  C   UNL     1      43.201  56.113  31.589  1.00  0.00    -0.002 C 
ATOM     14  C   UNL     1      43.988  56.246  32.693  1.00  0.00    -0.069 C 
ATOM     15  C   UNL     1      45.142  55.297  32.935  1.00  0.00     0.039 C 
ATOM     16  C   UNL     1      43.764  57.348  33.700  1.00  0.00     0.039 C 
BRANCH  13  17
ATOM     17  C   UNL     1      42.056  57.067  31.275  1.00  0.00     0.066 CG0
ATOM     18  G   UNL     1      42.599  58.364  30.736  1.00  0.00     0.000 G0
ENDBRANCH  13  17
ENDBRANCH  11  13
ENDBRANCH  10  11
ENDBRANCH   1  10
TORSDOF 0
ENDMDL
MODEL 8
REMARK VINA RESULT:    -3.823      2.589      5.541
REMARK INTER + INTRA:          -4.881
REMARK INTER:                  -5.161
REMARK INTRA:                   0.280
REMARK UNBOUND:                 0.506
REMARK SMILES CC1=CCC(=C(C)C)C(=O)CC(C)=CCC1
REMARK SMILES IDX 12 1 14 2 13 3 15 4 16 5 2 6 1 7 3 8 11 10 9 11 10 12 5 13
REMARK SMILES IDX 6 14 7 15 8 16 4 17
REMARK H PARENT
REMARK Flexibility Score: 60.00
ROOT
ATOM      1  C   UNL     1      44.083  60.398  30.465  1.00  0.00    -0.070 C 
ATOM      2  C   UNL     1      44.573  61.538  31.021  1.00  0.00    -0.027 C 
ATOM      3  C   UNL     1      44.182  60.281  28.962  1.00  0.00     0.039 C 
ENDROOT
BRANCH   2   4
ATOM      4  C   UNL     1      44.494  61.958  32.470  1.00  0.00     0.032 C 
BRANCH   4   5
ATOM      5  C   UNL     1      45.446  61.201  33.411  1.00  0.00     0.034 C 
BRANCH   5   6
ATOM      6  C   UNL     1      44.812  60.629  34.668  1.00  0.00    -0.077 C 
ATOM      7  C   UNL     1      44.158  61.575  35.644  1.00  0.00     0.039 C 
ATOM      8  C   UNL     1      44.722  59.302  34.921  1.00  0.00    -0.023 CG0
ATOM      9  G   UNL     1      45.430  58.216  34.154  1.00  0.00     0.000 G0
ENDBRANCH   5   6
ENDBRANCH   4   5
ENDBRANCH   2   4
BRANCH   1  10
ATOM     10  C   UNL     1      43.560  59.188  31.232  1.00  0.00     0.111 C 
BRANCH  10  11
ATOM     11  C   UNL     1      44.605  58.230  31.732  1.00  0.00     0.163 C 
ATOM     12  O   UNL     1      45.628  58.000  31.032  1.00  0.00    -0.294 OA
BRANCH  11  13
ATOM     13  C   UNL     1      44.499  57.643  33.091  1.00  0.00    -0.002 C 
ATOM     14  C   UNL     1      43.636  56.615  33.322  1.00  0.00    -0.069 C 
ATOM     15  C   UNL     1      42.768  56.075  32.207  1.00  0.00     0.039 C 
ATOM     16  C   UNL     1      43.526  55.960  34.678  1.00  0.00     0.039 C 
BRANCH  13  17
ATOM     17  C   UNL     1      45.427  58.196  34.165  1.00  0.00     0.066 CG0
ATOM     18  G   UNL     1      44.738  59.302  34.922  1.00  0.00     0.000 G0
ENDBRANCH  13  17
ENDBRANCH  11  13
ENDBRANCH  10  11
ENDBRANCH   1  10
TORSDOF 0
ENDMDL
MODEL 9
REMARK VINA RESULT:    -3.682      2.842      4.875
REMARK INTER + INTRA:          -4.683
REMARK INTER:                  -5.248
REMARK INTRA:                   0.565
REMARK UNBOUND:                 0.506
REMARK SMILES CC1=CCC(=C(C)C)C(=O)CC(C)=CCC1
REMARK SMILES IDX 12 1 14 2 13 3 15 4 16 5 2 6 1 7 3 8 11 10 9 11 10 12 5 13
REMARK SMILES IDX 6 14 7 15 8 16 4 17
REMARK H PARENT
REMARK Flexibility Score: 60.00
ROOT
ATOM      1  C   UNL     1      45.775  55.847  30.278  1.00  0.00    -0.070 C 
ATOM      2  C   UNL     1      45.242  55.455  31.466  1.00  0.00    -0.027 C 
ATOM      3  C   UNL     1      46.872  56.884  30.338  1.00  0.00     0.039 C 
ENDROOT
BRANCH   2   4
ATOM      4  C   UNL     1      44.067  54.531  31.681  1.00  0.00     0.032 C 
BRANCH   4   5
ATOM      5  C   UNL     1      42.697  55.146  31.351  1.00  0.00     0.034 C 
BRANCH   5   6
ATOM      6  C   UNL     1      42.583  56.647  31.558  1.00  0.00    -0.077 C 
ATOM      7  C   UNL     1      42.690  57.197  32.958  1.00  0.00     0.039 C 
ATOM      8  C   UNL     1      42.478  57.535  30.539  1.00  0.00    -0.023 CG0
ATOM      9  G   UNL     1      42.213  57.184  29.099  1.00  0.00     0.000 G0
ENDBRANCH   5   6
ENDBRANCH   4   5
ENDBRANCH   2   4
BRANCH   1  10
ATOM     10  C   UNL     1      45.450  55.245  28.915  1.00  0.00     0.111 C 
BRANCH  10  11
ATOM     11  C   UNL     1      44.071  55.528  28.389  1.00  0.00     0.163 C 
ATOM     12  O   UNL     1      43.322  54.572  28.053  1.00  0.00    -0.294 OA
BRANCH  11  13
ATOM     13  C   UNL     1      43.541  56.915  28.372  1.00  0.00    -0.002 C 
ATOM     14  C   UNL     1      44.208  57.888  27.690  1.00  0.00    -0.069 C 
ATOM     15  C   UNL     1      45.496  57.573  26.962  1.00  0.00     0.039 C 
ATOM     16  C   UNL     1      43.685  59.302  27.610  1.00  0.00     0.039 C 
BRANCH  13  17
ATOM     17  C   UNL     1      42.220  57.168  29.085  1.00  0.00     0.066 CG0
ATOM     18  G   UNL     1      42.471  57.518  30.528  1.00  0.00     0.000 G0
ENDBRANCH  13  17
ENDBRANCH  11  13
ENDBRANCH  10  11
ENDBRANCH   1  10
TORSDOF 0
ENDMDL
