MODEL 1
REMARK VINA RESULT:    -3.776      0.000      0.000
REMARK INTER + INTRA:          -5.240
REMARK INTER:                  -4.879
REMARK INTRA:                  -0.360
REMARK UNBOUND:                -0.360
REMARK SMILES CO[C@@]1(CO)O[C@H](CO)[C@@H](O)[C@@H]1O
REMARK SMILES IDX 3 1 12 2 10 3 7 4 6 5 2 6 1 7 4 8 5 9 13 11 11 13 8 15 9 16
REMARK H PARENT 5 10 13 12 11 14 9 17
REMARK Flexibility Score: inf
ROOT
ATOM      1  C   UNL     1      -3.890  -6.025  -8.801  1.00  0.00     0.221 C 
ATOM      2  C   UNL     1      -3.539  -4.866  -7.845  1.00  0.00     0.207 C 
ATOM      3  C   UNL     1      -2.329  -5.397  -7.121  1.00  0.00     0.180 C 
ATOM      4  C   UNL     1      -1.702  -6.314  -8.166  1.00  0.00     0.179 C 
ATOM      5  O   UNL     1      -2.713  -6.787  -9.033  1.00  0.00    -0.337 OA
ENDROOT
BRANCH   1   6
ATOM      6  O   UNL     1      -4.448  -5.512 -10.008  1.00  0.00    -0.349 OA
ATOM      7  C   UNL     1      -4.309  -4.109 -10.125  1.00  0.00     0.198 C 
ENDBRANCH   1   6
BRANCH   1   8
ATOM      8  C   UNL     1      -4.933  -6.979  -8.184  1.00  0.00     0.224 C 
BRANCH   8   9
ATOM      9  O   UNL     1      -6.200  -6.382  -8.216  1.00  0.00    -0.391 OA
ATOM     10  H   UNL     1      -6.564  -6.554  -9.123  1.00  0.00     0.210 HD
ENDBRANCH   8   9
ENDBRANCH   1   8
BRANCH   2  11
ATOM     11  O   UNL     1      -4.582  -4.562  -6.952  1.00  0.00    -0.385 OA
ATOM     12  H   UNL     1      -5.277  -5.259  -7.080  1.00  0.00     0.211 HD
ENDBRANCH   2  11
BRANCH   3  13
ATOM     13  O   UNL     1      -1.445  -4.364  -6.771  1.00  0.00    -0.387 OA
ATOM     14  H   UNL     1      -1.061  -4.021  -7.619  1.00  0.00     0.211 HD
ENDBRANCH   3  13
BRANCH   4  15
ATOM     15  C   UNL     1      -0.975  -7.500  -7.519  1.00  0.00     0.191 C 
BRANCH  15  16
ATOM     16  O   UNL     1       0.322  -7.127  -7.138  1.00  0.00    -0.394 OA
ATOM     17  H   UNL     1       0.347  -6.134  -7.146  1.00  0.00     0.210 HD
ENDBRANCH  15  16
ENDBRANCH   4  15
TORSDOF 7
ENDMDL
MODEL 2
REMARK VINA RESULT:    -3.703     15.191     17.173
REMARK INTER + INTRA:          -5.146
REMARK INTER:                  -4.575
REMARK INTRA:                  -0.571
REMARK UNBOUND:                -0.360
REMARK SMILES CO[C@@]1(CO)O[C@H](CO)[C@@H](O)[C@@H]1O
REMARK SMILES IDX 3 1 12 2 10 3 7 4 6 5 2 6 1 7 4 8 5 9 13 11 11 13 8 15 9 16
REMARK H PARENT 5 10 13 12 11 14 9 17
REMARK Flexibility Score: inf
ROOT
ATOM      1  C   UNL     1       7.231  -8.373   4.102  1.00  0.00     0.221 C 
ATOM      2  C   UNL     1       6.983  -7.256   5.138  1.00  0.00     0.207 C 
ATOM      3  C   UNL     1       7.732  -7.760   6.344  1.00  0.00     0.180 C 
ATOM      4  C   UNL     1       8.856  -8.576   5.711  1.00  0.00     0.179 C 
ATOM      5  O   UNL     1       8.429  -9.051   4.451  1.00  0.00    -0.337 OA
ENDROOT
BRANCH   1   6
ATOM      6  O   UNL     1       7.285  -7.819   2.789  1.00  0.00    -0.349 OA
ATOM      7  C   UNL     1       8.389  -8.287   2.040  1.00  0.00     0.198 C 
ENDBRANCH   1   6
BRANCH   1   8
ATOM      8  C   UNL     1       6.098  -9.420   4.110  1.00  0.00     0.224 C 
BRANCH   8   9
ATOM      9  O   UNL     1       5.112  -9.061   3.182  1.00  0.00    -0.391 OA
ATOM     10  H   UNL     1       4.420  -8.566   3.693  1.00  0.00     0.210 HD
ENDBRANCH   8   9
ENDBRANCH   1   8
BRANCH   2  11
ATOM     11  O   UNL     1       5.619  -7.066   5.419  1.00  0.00    -0.385 OA
ATOM     12  H   UNL     1       5.287  -7.921   5.799  1.00  0.00     0.211 HD
ENDBRANCH   2  11
BRANCH   3  13
ATOM     13  O   UNL     1       8.253  -6.703   7.106  1.00  0.00    -0.387 OA
ATOM     14  H   UNL     1       8.132  -5.879   6.566  1.00  0.00     0.211 HD
ENDBRANCH   3  13
BRANCH   4  15
ATOM     15  C   UNL     1       9.272  -9.755   6.599  1.00  0.00     0.191 C 
BRANCH  15  16
ATOM     16  O   UNL     1       8.741  -9.607   7.888  1.00  0.00    -0.394 OA
ATOM     17  H   UNL     1       9.385  -9.050   8.399  1.00  0.00     0.210 HD
ENDBRANCH  15  16
ENDBRANCH   4  15
TORSDOF 7
ENDMDL
MODEL 3
REMARK VINA RESULT:    -3.562     16.497     17.833
REMARK INTER + INTRA:          -4.963
REMARK INTER:                  -4.550
REMARK INTRA:                  -0.413
REMARK UNBOUND:                -0.360
REMARK SMILES CO[C@@]1(CO)O[C@H](CO)[C@@H](O)[C@@H]1O
REMARK SMILES IDX 3 1 12 2 10 3 7 4 6 5 2 6 1 7 4 8 5 9 13 11 11 13 8 15 9 16
REMARK H PARENT 5 10 13 12 11 14 9 17
REMARK Flexibility Score: inf
ROOT
ATOM      1  C   UNL     1      -5.433   8.385   2.279  1.00  0.00     0.221 C 
ATOM      2  C   UNL     1      -3.950   8.375   2.707  1.00  0.00     0.207 C 
ATOM      3  C   UNL     1      -3.255   8.909   1.482  1.00  0.00     0.180 C 
ATOM      4  C   UNL     1      -4.318   9.821   0.876  1.00  0.00     0.179 C 
ATOM      5  O   UNL     1      -5.598   9.353   1.253  1.00  0.00    -0.337 OA
ENDROOT
BRANCH   1   6
ATOM      6  O   UNL     1      -6.266   8.645   3.407  1.00  0.00    -0.349 OA
ATOM      7  C   UNL     1      -7.152   9.726   3.198  1.00  0.00     0.198 C 
ENDBRANCH   1   6
BRANCH   1   8
ATOM      8  C   UNL     1      -5.866   7.025   1.694  1.00  0.00     0.224 C 
BRANCH   8   9
ATOM      9  O   UNL     1      -6.854   7.221   0.719  1.00  0.00    -0.391 OA
ATOM     10  H   UNL     1      -7.633   6.674   1.002  1.00  0.00     0.210 HD
ENDBRANCH   8   9
ENDBRANCH   1   8
BRANCH   2  11
ATOM     11  O   UNL     1      -3.488   7.091   3.044  1.00  0.00    -0.385 OA
ATOM     12  H   UNL     1      -3.714   6.499   2.280  1.00  0.00     0.211 HD
ENDBRANCH   2  11
BRANCH   3  13
ATOM     13  O   UNL     1      -2.106   9.641   1.819  1.00  0.00    -0.387 OA
ATOM     14  H   UNL     1      -2.410  10.403   2.379  1.00  0.00     0.211 HD
ENDBRANCH   3  13
BRANCH   4  15
ATOM     15  C   UNL     1      -4.214   9.879  -0.653  1.00  0.00     0.191 C 
BRANCH  15  16
ATOM     16  O   UNL     1      -2.928   9.508  -1.069  1.00  0.00    -0.394 OA
ATOM     17  H   UNL     1      -2.367   9.461  -0.251  1.00  0.00     0.210 HD
ENDBRANCH  15  16
ENDBRANCH   4  15
TORSDOF 7
ENDMDL
MODEL 4
REMARK VINA RESULT:    -3.511     16.049     17.543
REMARK INTER + INTRA:          -4.897
REMARK INTER:                  -4.445
REMARK INTRA:                  -0.452
REMARK UNBOUND:                -0.360
REMARK SMILES CO[C@@]1(CO)O[C@H](CO)[C@@H](O)[C@@H]1O
REMARK SMILES IDX 3 1 12 2 10 3 7 4 6 5 2 6 1 7 4 8 5 9 13 11 11 13 8 15 9 16
REMARK H PARENT 5 10 13 12 11 14 9 17
REMARK Flexibility Score: inf
ROOT
ATOM      1  C   UNL     1       8.294  -8.964   4.946  1.00  0.00     0.221 C 
ATOM      2  C   UNL     1       7.675  -7.556   5.080  1.00  0.00     0.207 C 
ATOM      3  C   UNL     1       6.213  -7.862   5.275  1.00  0.00     0.180 C 
ATOM      4  C   UNL     1       6.254  -9.220   5.969  1.00  0.00     0.179 C 
ATOM      5  O   UNL     1       7.440  -9.893   5.598  1.00  0.00    -0.337 OA
ENDROOT
BRANCH   1   6
ATOM      6  O   UNL     1       9.614  -8.971   5.486  1.00  0.00    -0.349 OA
ATOM      7  C   UNL     1       9.656  -8.559   6.838  1.00  0.00     0.198 C 
ENDBRANCH   1   6
BRANCH   1   8
ATOM      8  C   UNL     1       8.401  -9.402   3.471  1.00  0.00     0.224 C 
BRANCH   8   9
ATOM      9  O   UNL     1       9.587  -8.907   2.913  1.00  0.00    -0.391 OA
ATOM     10  H   UNL     1      10.328  -9.373   3.381  1.00  0.00     0.210 HD
ENDBRANCH   8   9
ENDBRANCH   1   8
BRANCH   2  11
ATOM     11  O   UNL     1       7.888  -6.757   3.943  1.00  0.00    -0.385 OA
ATOM     12  H   UNL     1       8.516  -6.038   4.217  1.00  0.00     0.211 HD
ENDBRANCH   2  11
BRANCH   3  13
ATOM     13  O   UNL     1       5.591  -6.905   6.092  1.00  0.00    -0.387 OA
ATOM     14  H   UNL     1       5.787  -7.163   7.030  1.00  0.00     0.211 HD
ENDBRANCH   3  13
BRANCH   4  15
ATOM     15  C   UNL     1       5.034 -10.079   5.613  1.00  0.00     0.191 C 
BRANCH  15  16
ATOM     16  O   UNL     1       4.627  -9.826   4.296  1.00  0.00    -0.394 OA
ATOM     17  H   UNL     1       4.715  -8.847   4.154  1.00  0.00     0.210 HD
ENDBRANCH  15  16
ENDBRANCH   4  15
TORSDOF 7
ENDMDL
MODEL 5
REMARK VINA RESULT:    -3.503     16.158     17.896
REMARK INTER + INTRA:          -4.887
REMARK INTER:                  -4.253
REMARK INTRA:                  -0.634
REMARK UNBOUND:                -0.360
REMARK SMILES CO[C@@]1(CO)O[C@H](CO)[C@@H](O)[C@@H]1O
REMARK SMILES IDX 3 1 12 2 10 3 7 4 6 5 2 6 1 7 4 8 5 9 13 11 11 13 8 15 9 16
REMARK H PARENT 5 10 13 12 11 14 9 17
REMARK Flexibility Score: inf
ROOT
ATOM      1  C   UNL     1      -5.204   8.422   1.920  1.00  0.00     0.221 C 
ATOM      2  C   UNL     1      -5.987   7.338   1.149  1.00  0.00     0.207 C 
ATOM      3  C   UNL     1      -7.288   7.278   1.907  1.00  0.00     0.180 C 
ATOM      4  C   UNL     1      -7.424   8.703   2.434  1.00  0.00     0.179 C 
ATOM      5  O   UNL     1      -6.137   9.267   2.578  1.00  0.00    -0.337 OA
ENDROOT
BRANCH   1   6
ATOM      6  O   UNL     1      -4.357   9.141   1.027  1.00  0.00    -0.349 OA
ATOM      7  C   UNL     1      -4.964   9.391  -0.225  1.00  0.00     0.198 C 
ENDBRANCH   1   6
BRANCH   1   8
ATOM      8  C   UNL     1      -4.303   7.807   3.011  1.00  0.00     0.224 C 
BRANCH   8   9
ATOM      9  O   UNL     1      -3.095   7.379   2.443  1.00  0.00    -0.391 OA
ATOM     10  H   UNL     1      -2.972   7.918   1.618  1.00  0.00     0.210 HD
ENDBRANCH   8   9
ENDBRANCH   1   8
BRANCH   2  11
ATOM     11  O   UNL     1      -5.334   6.093   1.144  1.00  0.00    -0.385 OA
ATOM     12  H   UNL     1      -5.120   5.883   2.090  1.00  0.00     0.211 HD
ENDBRANCH   2  11
BRANCH   3  13
ATOM     13  O   UNL     1      -8.362   6.955   1.061  1.00  0.00    -0.387 OA
ATOM     14  H   UNL     1      -8.423   5.965   1.048  1.00  0.00     0.211 HD
ENDBRANCH   3  13
BRANCH   4  15
ATOM     15  C   UNL     1      -8.165   8.744   3.777  1.00  0.00     0.191 C 
BRANCH  15  16
ATOM     16  O   UNL     1      -8.987   7.617   3.915  1.00  0.00    -0.394 OA
ATOM     17  H   UNL     1      -8.657   7.120   4.709  1.00  0.00     0.210 HD
ENDBRANCH  15  16
ENDBRANCH   4  15
TORSDOF 7
ENDMDL
MODEL 6
REMARK VINA RESULT:    -3.499     16.439     17.942
REMARK INTER + INTRA:          -4.882
REMARK INTER:                  -4.364
REMARK INTRA:                  -0.518
REMARK UNBOUND:                -0.360
REMARK SMILES CO[C@@]1(CO)O[C@H](CO)[C@@H](O)[C@@H]1O
REMARK SMILES IDX 3 1 12 2 10 3 7 4 6 5 2 6 1 7 4 8 5 9 13 11 11 13 8 15 9 16
REMARK H PARENT 5 10 13 12 11 14 9 17
REMARK Flexibility Score: inf
ROOT
ATOM      1  C   UNL     1      -7.265   8.541   2.525  1.00  0.00     0.221 C 
ATOM      2  C   UNL     1      -7.151   7.217   1.740  1.00  0.00     0.207 C 
ATOM      3  C   UNL     1      -5.679   7.151   1.428  1.00  0.00     0.180 C 
ATOM      4  C   UNL     1      -5.063   7.898   2.606  1.00  0.00     0.179 C 
ATOM      5  O   UNL     1      -6.001   8.828   3.106  1.00  0.00    -0.337 OA
ENDROOT
BRANCH   1   6
ATOM      6  O   UNL     1      -8.300   8.443   3.501  1.00  0.00    -0.349 OA
ATOM      7  C   UNL     1      -7.941   9.016   4.743  1.00  0.00     0.198 C 
ENDBRANCH   1   6
BRANCH   1   8
ATOM      8  C   UNL     1      -7.619   9.724   1.601  1.00  0.00     0.224 C 
BRANCH   8   9
ATOM      9  O   UNL     1      -9.004   9.770   1.396  1.00  0.00    -0.391 OA
ATOM     10  H   UNL     1      -9.260   8.879   1.041  1.00  0.00     0.210 HD
ENDBRANCH   8   9
ENDBRANCH   1   8
BRANCH   2  11
ATOM     11  O   UNL     1      -7.928   7.209   0.569  1.00  0.00    -0.385 OA
ATOM     12  H   UNL     1      -7.392   7.668  -0.130  1.00  0.00     0.211 HD
ENDBRANCH   2  11
BRANCH   3  13
ATOM     13  O   UNL     1      -5.221   5.825   1.384  1.00  0.00    -0.387 OA
ATOM     14  H   UNL     1      -5.251   5.485   2.317  1.00  0.00     0.211 HD
ENDBRANCH   3  13
BRANCH   4  15
ATOM     15  C   UNL     1      -3.771   8.624   2.208  1.00  0.00     0.191 C 
BRANCH  15  16
ATOM     16  O   UNL     1      -2.718   7.709   2.078  1.00  0.00    -0.394 OA
ATOM     17  H   UNL     1      -3.130   6.809   1.996  1.00  0.00     0.210 HD
ENDBRANCH  15  16
ENDBRANCH   4  15
TORSDOF 7
ENDMDL
MODEL 7
REMARK VINA RESULT:    -3.486      1.679      4.151
REMARK INTER + INTRA:          -4.865
REMARK INTER:                  -4.316
REMARK INTRA:                  -0.549
REMARK UNBOUND:                -0.360
REMARK SMILES CO[C@@]1(CO)O[C@H](CO)[C@@H](O)[C@@H]1O
REMARK SMILES IDX 3 1 12 2 10 3 7 4 6 5 2 6 1 7 4 8 5 9 13 11 11 13 8 15 9 16
REMARK H PARENT 5 10 13 12 11 14 9 17
REMARK Flexibility Score: inf
ROOT
ATOM      1  C   UNL     1      -3.175  -6.715  -8.412  1.00  0.00     0.221 C 
ATOM      2  C   UNL     1      -4.049  -5.512  -8.827  1.00  0.00     0.207 C 
ATOM      3  C   UNL     1      -5.442  -6.076  -8.733  1.00  0.00     0.180 C 
ATOM      4  C   UNL     1      -5.296  -7.124  -7.635  1.00  0.00     0.179 C 
ATOM      5  O   UNL     1      -3.960  -7.584  -7.609  1.00  0.00    -0.337 OA
ENDROOT
BRANCH   1   6
ATOM      6  O   UNL     1      -2.006  -6.259  -7.734  1.00  0.00    -0.349 OA
ATOM      7  C   UNL     1      -2.182  -4.996  -7.124  1.00  0.00     0.198 C 
ENDBRANCH   1   6
BRANCH   1   8
ATOM      8  C   UNL     1      -2.706  -7.528  -9.636  1.00  0.00     0.224 C 
BRANCH   8   9
ATOM      9  O   UNL     1      -1.414  -7.130 -10.004  1.00  0.00    -0.391 OA
ATOM     10  H   UNL     1      -1.342  -6.170  -9.764  1.00  0.00     0.210 HD
ENDBRANCH   8   9
ENDBRANCH   1   8
BRANCH   2  11
ATOM     11  O   UNL     1      -3.764  -5.053 -10.125  1.00  0.00    -0.385 OA
ATOM     12  H   UNL     1      -2.848  -4.671 -10.095  1.00  0.00     0.211 HD
ENDBRANCH   2  11
BRANCH   3  13
ATOM     13  O   UNL     1      -6.372  -5.092  -8.362  1.00  0.00    -0.387 OA
ATOM     14  H   UNL     1      -5.968  -4.217  -8.599  1.00  0.00     0.211 HD
ENDBRANCH   3  13
BRANCH   4  15
ATOM     15  C   UNL     1      -6.250  -8.306  -7.844  1.00  0.00     0.191 C 
BRANCH  15  16
ATOM     16  O   UNL     1      -7.582  -7.873  -7.792  1.00  0.00    -0.394 OA
ATOM     17  H   UNL     1      -8.084  -8.414  -8.457  1.00  0.00     0.210 HD
ENDBRANCH  15  16
ENDBRANCH   4  15
TORSDOF 7
ENDMDL
MODEL 8
REMARK VINA RESULT:    -3.462     15.365     16.971
REMARK INTER + INTRA:          -4.834
REMARK INTER:                  -4.403
REMARK INTRA:                  -0.431
REMARK UNBOUND:                -0.360
REMARK SMILES CO[C@@]1(CO)O[C@H](CO)[C@@H](O)[C@@H]1O
REMARK SMILES IDX 3 1 12 2 10 3 7 4 6 5 2 6 1 7 4 8 5 9 13 11 11 13 8 15 9 16
REMARK H PARENT 5 10 13 12 11 14 9 17
REMARK Flexibility Score: inf
ROOT
ATOM      1  C   UNL     1       7.260  -8.448   5.032  1.00  0.00     0.221 C 
ATOM      2  C   UNL     1       6.718  -9.054   3.721  1.00  0.00     0.207 C 
ATOM      3  C   UNL     1       7.808  -8.725   2.735  1.00  0.00     0.180 C 
ATOM      4  C   UNL     1       9.051  -8.709   3.619  1.00  0.00     0.179 C 
ATOM      5  O   UNL     1       8.676  -8.373   4.939  1.00  0.00    -0.337 OA
ENDROOT
BRANCH   1   6
ATOM      6  O   UNL     1       6.832  -9.228   6.146  1.00  0.00    -0.349 OA
ATOM      7  C   UNL     1       7.869  -9.479   7.073  1.00  0.00     0.198 C 
ENDBRANCH   1   6
BRANCH   1   8
ATOM      8  C   UNL     1       6.744  -7.011   5.253  1.00  0.00     0.224 C 
BRANCH   8   9
ATOM      9  O   UNL     1       5.573  -7.041   6.022  1.00  0.00    -0.391 OA
ATOM     10  H   UNL     1       5.177  -7.941   5.888  1.00  0.00     0.210 HD
ENDBRANCH   8   9
ENDBRANCH   1   8
BRANCH   2  11
ATOM     11  O   UNL     1       5.486  -8.499   3.332  1.00  0.00    -0.385 OA
ATOM     12  H   UNL     1       4.804  -9.210   3.452  1.00  0.00     0.211 HD
ENDBRANCH   2  11
BRANCH   3  13
ATOM     13  O   UNL     1       7.918  -9.710   1.741  1.00  0.00    -0.387 OA
ATOM     14  H   UNL     1       8.382  -9.286   0.972  1.00  0.00     0.211 HD
ENDBRANCH   3  13
BRANCH   4  15
ATOM     15  C   UNL     1      10.102  -7.716   3.106  1.00  0.00     0.191 C 
BRANCH  15  16
ATOM     16  O   UNL     1       9.532  -6.446   2.940  1.00  0.00    -0.394 OA
ATOM     17  H   UNL     1       9.129  -6.198   3.813  1.00  0.00     0.210 HD
ENDBRANCH  15  16
ENDBRANCH   4  15
TORSDOF 7
ENDMDL
MODEL 9
REMARK VINA RESULT:    -3.391      1.566      3.767
REMARK INTER + INTRA:          -4.743
REMARK INTER:                  -4.275
REMARK INTRA:                  -0.468
REMARK UNBOUND:                -0.360
REMARK SMILES CO[C@@]1(CO)O[C@H](CO)[C@@H](O)[C@@H]1O
REMARK SMILES IDX 3 1 12 2 10 3 7 4 6 5 2 6 1 7 4 8 5 9 13 11 11 13 8 15 9 16
REMARK H PARENT 5 10 13 12 11 14 9 17
REMARK Flexibility Score: inf
ROOT
ATOM      1  C   UNL     1      -2.505  -7.652  -8.612  1.00  0.00     0.221 C 
ATOM      2  C   UNL     1      -4.006  -7.825  -8.301  1.00  0.00     0.207 C 
ATOM      3  C   UNL     1      -4.335  -6.549  -7.571  1.00  0.00     0.180 C 
ATOM      4  C   UNL     1      -3.348  -5.560  -8.182  1.00  0.00     0.179 C 
ATOM      5  O   UNL     1      -2.207  -6.263  -8.631  1.00  0.00    -0.337 OA
ENDROOT
BRANCH   1   6
ATOM      6  O   UNL     1      -2.184  -8.292  -9.845  1.00  0.00    -0.349 OA
ATOM      7  C   UNL     1      -1.547  -9.542  -9.667  1.00  0.00     0.198 C 
ENDBRANCH   1   6
BRANCH   1   8
ATOM      8  C   UNL     1      -1.619  -8.290  -7.521  1.00  0.00     0.224 C 
BRANCH   8   9
ATOM      9  O   UNL     1      -0.629  -7.383  -7.122  1.00  0.00    -0.391 OA
ATOM     10  H   UNL     1      -0.227  -7.029  -7.958  1.00  0.00     0.210 HD
ENDBRANCH   8   9
ENDBRANCH   1   8
BRANCH   2  11
ATOM     11  O   UNL     1      -4.273  -8.956  -7.510  1.00  0.00    -0.385 OA
ATOM     12  H   UNL     1      -4.228  -8.657  -6.564  1.00  0.00     0.211 HD
ENDBRANCH   2  11
BRANCH   3  13
ATOM     13  O   UNL     1      -5.658  -6.144  -7.811  1.00  0.00    -0.387 OA
ATOM     14  H   UNL     1      -5.700  -5.175  -7.600  1.00  0.00     0.211 HD
ENDBRANCH   3  13
BRANCH   4  15
ATOM     15  C   UNL     1      -2.931  -4.477  -7.179  1.00  0.00     0.191 C 
BRANCH  15  16
ATOM     16  O   UNL     1      -1.633  -4.720  -6.710  1.00  0.00    -0.394 OA
ATOM     17  H   UNL     1      -1.225  -3.833  -6.530  1.00  0.00     0.210 HD
ENDBRANCH  15  16
ENDBRANCH   4  15
TORSDOF 7
ENDMDL
