MODEL 1
REMARK VINA RESULT:    -4.090      0.000      0.000
REMARK INTER + INTRA:          -4.563
REMARK INTER:                  -4.449
REMARK INTRA:                  -0.114
REMARK UNBOUND:                -0.114
REMARK SMILES CC(=O)[C@@H]1CC[C@H]2[C@@H]3CC=C4C[C@@H](O)CC[C@]4(C)[C@H]3CC[C@]12C
REMARK SMILES IDX 4 1 5 2 6 3 7 4 22 5 21 6 20 7 19 8 8 9 9 10 10 11 11 12
REMARK SMILES IDX 17 13 16 14 15 15 13 16 12 17 18 18 23 19 2 20 1 21 3 22
REMARK SMILES IDX 14 23
REMARK H PARENT 14 24
REMARK Flexibility Score: inf
ROOT
ATOM      1  C   UNL     1     197.773 200.409 222.309  1.00  0.00     0.062 C 
ATOM      2  C   UNL     1     197.079 199.079 222.704  1.00  0.00     0.012 C 
ATOM      3  C   UNL     1     198.173 198.131 223.227  1.00  0.00     0.005 C 
ATOM      4  C   UNL     1     199.397 199.019 223.393  1.00  0.00    -0.001 C 
ATOM      5  C   UNL     1     199.286 200.056 222.271  1.00  0.00    -0.020 C 
ATOM      6  C   UNL     1     200.280 201.202 222.587  1.00  0.00     0.008 C 
ATOM      7  C   UNL     1     201.727 200.669 222.707  1.00  0.00     0.005 C 
ATOM      8  C   UNL     1     201.869 199.461 223.691  1.00  0.00     0.003 C 
ATOM      9  C   UNL     1     200.790 198.355 223.461  1.00  0.00     0.000 C 
ATOM     10  C   UNL     1     200.842 197.345 224.618  1.00  0.00     0.031 C 
ATOM     11  C   UNL     1     202.237 196.880 224.924  1.00  0.00    -0.027 C 
ATOM     12  C   UNL     1     203.346 197.605 224.656  1.00  0.00    -0.065 C 
ATOM     13  C   UNL     1     203.320 198.845 223.746  1.00  0.00    -0.008 C 
ATOM     14  C   UNL     1     204.300 199.912 224.327  1.00  0.00     0.014 C 
ATOM     15  C   UNL     1     205.680 199.348 224.702  1.00  0.00     0.033 C 
ATOM     16  C   UNL     1     205.548 198.197 225.707  1.00  0.00     0.118 C 
ATOM     17  C   UNL     1     204.686 197.072 225.128  1.00  0.00     0.063 C 
ATOM     18  C   UNL     1     203.808 198.417 222.333  1.00  0.00     0.016 C 
ATOM     19  C   UNL     1     199.593 199.475 220.852  1.00  0.00     0.012 C 
ENDROOT
BRANCH   1  20
ATOM     20  C   UNL     1     197.416 201.531 223.274  1.00  0.00     0.133 C 
ATOM     21  C   UNL     1     197.013 201.236 224.689  1.00  0.00     0.088 C 
ATOM     22  O   UNL     1     197.455 202.696 222.906  1.00  0.00    -0.300 OA
ENDBRANCH   1  20
BRANCH  16  23
ATOM     23  O   UNL     1     206.819 197.688 226.018  1.00  0.00    -0.393 OA
ATOM     24  H   UNL     1     206.882 196.794 225.589  1.00  0.00     0.210 HD
ENDBRANCH  16  23
TORSDOF 2
ENDMDL
MODEL 2
REMARK VINA RESULT:    -3.880      8.793     10.168
REMARK INTER + INTRA:          -4.334
REMARK INTER:                  -4.206
REMARK INTRA:                  -0.128
REMARK UNBOUND:                -0.114
REMARK SMILES CC(=O)[C@@H]1CC[C@H]2[C@@H]3CC=C4C[C@@H](O)CC[C@]4(C)[C@H]3CC[C@]12C
REMARK SMILES IDX 4 1 5 2 6 3 7 4 22 5 21 6 20 7 19 8 8 9 9 10 10 11 11 12
REMARK SMILES IDX 17 13 16 14 15 15 13 16 12 17 18 18 23 19 2 20 1 21 3 22
REMARK SMILES IDX 14 23
REMARK H PARENT 14 24
REMARK Flexibility Score: inf
ROOT
ATOM      1  C   UNL     1     201.446 211.325 222.479  1.00  0.00     0.062 C 
ATOM      2  C   UNL     1     200.663 210.208 221.742  1.00  0.00     0.012 C 
ATOM      3  C   UNL     1     201.495 208.917 221.854  1.00  0.00     0.005 C 
ATOM      4  C   UNL     1     202.569 209.246 222.881  1.00  0.00    -0.001 C 
ATOM      5  C   UNL     1     202.870 210.734 222.673  1.00  0.00    -0.020 C 
ATOM      6  C   UNL     1     203.674 211.229 223.902  1.00  0.00     0.008 C 
ATOM      7  C   UNL     1     204.979 210.420 224.079  1.00  0.00     0.005 C 
ATOM      8  C   UNL     1     204.757 208.870 224.089  1.00  0.00     0.003 C 
ATOM      9  C   UNL     1     203.844 208.375 222.924  1.00  0.00     0.000 C 
ATOM     10  C   UNL     1     203.475 206.903 223.157  1.00  0.00     0.031 C 
ATOM     11  C   UNL     1     204.664 206.049 223.497  1.00  0.00    -0.027 C 
ATOM     12  C   UNL     1     205.789 206.526 224.072  1.00  0.00    -0.065 C 
ATOM     13  C   UNL     1     206.091 208.032 224.169  1.00  0.00    -0.008 C 
ATOM     14  C   UNL     1     206.785 208.315 225.539  1.00  0.00     0.014 C 
ATOM     15  C   UNL     1     207.936 207.349 225.863  1.00  0.00     0.033 C 
ATOM     16  C   UNL     1     207.451 205.893 225.845  1.00  0.00     0.118 C 
ATOM     17  C   UNL     1     206.867 205.537 224.476  1.00  0.00     0.063 C 
ATOM     18  C   UNL     1     207.065 208.403 223.015  1.00  0.00     0.016 C 
ATOM     19  C   UNL     1     203.678 211.029 221.367  1.00  0.00     0.012 C 
ENDROOT
BRANCH   1  20
ATOM     20  C   UNL     1     200.755 211.727 223.775  1.00  0.00     0.133 C 
ATOM     21  C   UNL     1     199.958 210.734 224.568  1.00  0.00     0.088 C 
ATOM     22  O   UNL     1     200.842 212.874 224.189  1.00  0.00    -0.300 OA
ENDBRANCH   1  20
BRANCH  16  23
ATOM     23  O   UNL     1     208.523 205.031 226.125  1.00  0.00    -0.393 OA
ATOM     24  H   UNL     1     209.279 205.317 225.549  1.00  0.00     0.210 HD
ENDBRANCH  16  23
TORSDOF 2
ENDMDL
MODEL 3
REMARK VINA RESULT:    -3.819      5.844      7.937
REMARK INTER + INTRA:          -4.268
REMARK INTER:                  -4.137
REMARK INTRA:                  -0.132
REMARK UNBOUND:                -0.114
REMARK SMILES CC(=O)[C@@H]1CC[C@H]2[C@@H]3CC=C4C[C@@H](O)CC[C@]4(C)[C@H]3CC[C@]12C
REMARK SMILES IDX 4 1 5 2 6 3 7 4 22 5 21 6 20 7 19 8 8 9 9 10 10 11 11 12
REMARK SMILES IDX 17 13 16 14 15 15 13 16 12 17 18 18 23 19 2 20 1 21 3 22
REMARK SMILES IDX 14 23
REMARK H PARENT 14 24
REMARK Flexibility Score: inf
ROOT
ATOM      1  C   UNL     1     203.515 201.398 222.426  1.00  0.00     0.062 C 
ATOM      2  C   UNL     1     204.646 200.620 221.704  1.00  0.00     0.012 C 
ATOM      3  C   UNL     1     205.929 201.461 221.828  1.00  0.00     0.005 C 
ATOM      4  C   UNL     1     205.582 202.535 222.849  1.00  0.00    -0.001 C 
ATOM      5  C   UNL     1     204.095 202.826 222.623  1.00  0.00    -0.020 C 
ATOM      6  C   UNL     1     203.581 203.630 223.844  1.00  0.00     0.008 C 
ATOM      7  C   UNL     1     204.380 204.941 224.027  1.00  0.00     0.005 C 
ATOM      8  C   UNL     1     205.931 204.729 224.056  1.00  0.00     0.003 C 
ATOM      9  C   UNL     1     206.444 203.815 222.898  1.00  0.00     0.000 C 
ATOM     10  C   UNL     1     207.917 203.457 223.149  1.00  0.00     0.031 C 
ATOM     11  C   UNL     1     208.759 204.652 223.495  1.00  0.00    -0.027 C 
ATOM     12  C   UNL     1     208.268 205.776 224.062  1.00  0.00    -0.065 C 
ATOM     13  C   UNL     1     206.759 206.069 224.141  1.00  0.00    -0.008 C 
ATOM     14  C   UNL     1     206.456 206.764 225.506  1.00  0.00     0.014 C 
ATOM     15  C   UNL     1     207.411 207.921 225.838  1.00  0.00     0.033 C 
ATOM     16  C   UNL     1     208.870 207.446 225.838  1.00  0.00     0.118 C 
ATOM     17  C   UNL     1     209.246 206.861 224.474  1.00  0.00     0.063 C 
ATOM     18  C   UNL     1     206.395 207.037 222.981  1.00  0.00     0.016 C 
ATOM     19  C   UNL     1     203.810 203.629 221.312  1.00  0.00     0.012 C 
ENDROOT
BRANCH   1  20
ATOM     20  C   UNL     1     203.102 200.708 223.719  1.00  0.00     0.133 C 
ATOM     21  C   UNL     1     204.096 199.935 224.536  1.00  0.00     0.088 C 
ATOM     22  O   UNL     1     201.947 200.775 224.112  1.00  0.00    -0.300 OA
ENDBRANCH   1  20
BRANCH  16  23
ATOM     23  O   UNL     1     209.722 208.524 226.125  1.00  0.00    -0.393 OA
ATOM     24  H   UNL     1     209.784 208.584 227.114  1.00  0.00     0.210 HD
ENDBRANCH  16  23
TORSDOF 2
ENDMDL
MODEL 4
REMARK VINA RESULT:    -3.817      7.747      9.449
REMARK INTER + INTRA:          -4.266
REMARK INTER:                  -4.119
REMARK INTRA:                  -0.147
REMARK UNBOUND:                -0.114
REMARK SMILES CC(=O)[C@@H]1CC[C@H]2[C@@H]3CC=C4C[C@@H](O)CC[C@]4(C)[C@H]3CC[C@]12C
REMARK SMILES IDX 4 1 5 2 6 3 7 4 22 5 21 6 20 7 19 8 8 9 9 10 10 11 11 12
REMARK SMILES IDX 17 13 16 14 15 15 13 16 12 17 18 18 23 19 2 20 1 21 3 22
REMARK SMILES IDX 14 23
REMARK H PARENT 14 24
REMARK Flexibility Score: inf
ROOT
ATOM      1  C   UNL     1     206.241 206.808 223.860  1.00  0.00     0.062 C 
ATOM      2  C   UNL     1     205.161 205.920 223.187  1.00  0.00     0.012 C 
ATOM      3  C   UNL     1     205.863 204.641 222.697  1.00  0.00     0.005 C 
ATOM      4  C   UNL     1     207.239 204.690 223.345  1.00  0.00    -0.001 C 
ATOM      5  C   UNL     1     207.590 206.180 223.411  1.00  0.00    -0.020 C 
ATOM      6  C   UNL     1     208.792 206.340 224.375  1.00  0.00     0.008 C 
ATOM      7  C   UNL     1     210.004 205.506 223.899  1.00  0.00     0.005 C 
ATOM      8  C   UNL     1     209.658 204.007 223.612  1.00  0.00     0.003 C 
ATOM      9  C   UNL     1     208.373 203.832 222.743  1.00  0.00     0.000 C 
ATOM     10  C   UNL     1     207.968 202.350 222.727  1.00  0.00     0.031 C 
ATOM     11  C   UNL     1     209.120 201.433 222.428  1.00  0.00    -0.027 C 
ATOM     12  C   UNL     1     210.410 201.742 222.684  1.00  0.00    -0.065 C 
ATOM     13  C   UNL     1     210.863 203.171 223.031  1.00  0.00    -0.008 C 
ATOM     14  C   UNL     1     211.989 203.090 224.109  1.00  0.00     0.014 C 
ATOM     15  C   UNL     1     213.089 202.068 223.782  1.00  0.00     0.033 C 
ATOM     16  C   UNL     1     212.495 200.668 223.581  1.00  0.00     0.118 C 
ATOM     17  C   UNL     1     211.466 200.677 222.448  1.00  0.00     0.063 C 
ATOM     18  C   UNL     1     211.436 203.822 221.740  1.00  0.00     0.016 C 
ATOM     19  C   UNL     1     207.950 206.797 222.020  1.00  0.00     0.012 C 
ENDROOT
BRANCH   1  20
ATOM     20  C   UNL     1     206.051 206.867 225.369  1.00  0.00     0.133 C 
ATOM     21  C   UNL     1     206.250 208.148 226.125  1.00  0.00     0.088 C 
ATOM     22  O   UNL     1     205.730 205.864 225.990  1.00  0.00    -0.300 OA
ENDBRANCH   1  20
BRANCH  16  23
ATOM     23  O   UNL     1     213.516 199.757 223.265  1.00  0.00    -0.393 OA
ATOM     24  H   UNL     1     213.099 198.857 223.242  1.00  0.00     0.210 HD
ENDBRANCH  16  23
TORSDOF 2
ENDMDL
MODEL 5
REMARK VINA RESULT:    -3.799      6.435      9.110
REMARK INTER + INTRA:          -4.247
REMARK INTER:                  -4.097
REMARK INTRA:                  -0.149
REMARK UNBOUND:                -0.114
REMARK SMILES CC(=O)[C@@H]1CC[C@H]2[C@@H]3CC=C4C[C@@H](O)CC[C@]4(C)[C@H]3CC[C@]12C
REMARK SMILES IDX 4 1 5 2 6 3 7 4 22 5 21 6 20 7 19 8 8 9 9 10 10 11 11 12
REMARK SMILES IDX 17 13 16 14 15 15 13 16 12 17 18 18 23 19 2 20 1 21 3 22
REMARK SMILES IDX 14 23
REMARK H PARENT 14 24
REMARK Flexibility Score: inf
ROOT
ATOM      1  C   UNL     1     206.795 208.450 223.863  1.00  0.00     0.062 C 
ATOM      2  C   UNL     1     205.895 209.518 223.187  1.00  0.00     0.012 C 
ATOM      3  C   UNL     1     204.621 208.802 222.703  1.00  0.00     0.005 C 
ATOM      4  C   UNL     1     204.686 207.429 223.358  1.00  0.00    -0.001 C 
ATOM      5  C   UNL     1     206.179 207.093 223.421  1.00  0.00    -0.020 C 
ATOM      6  C   UNL     1     206.353 205.896 224.390  1.00  0.00     0.008 C 
ATOM      7  C   UNL     1     205.529 204.674 223.921  1.00  0.00     0.005 C 
ATOM      8  C   UNL     1     204.026 205.005 223.637  1.00  0.00     0.003 C 
ATOM      9  C   UNL     1     203.837 206.285 222.762  1.00  0.00     0.000 C 
ATOM     10  C   UNL     1     202.351 206.676 222.748  1.00  0.00     0.031 C 
ATOM     11  C   UNL     1     201.444 205.514 222.457  1.00  0.00    -0.027 C 
ATOM     12  C   UNL     1     201.765 204.228 222.717  1.00  0.00    -0.065 C 
ATOM     13  C   UNL     1     203.199 203.790 223.063  1.00  0.00    -0.008 C 
ATOM     14  C   UNL     1     203.132 202.668 224.146  1.00  0.00     0.014 C 
ATOM     15  C   UNL     1     202.119 201.557 223.826  1.00  0.00     0.033 C 
ATOM     16  C   UNL     1     200.713 202.137 223.626  1.00  0.00     0.118 C 
ATOM     17  C   UNL     1     200.710 203.161 222.489  1.00  0.00     0.063 C 
ATOM     18  C   UNL     1     203.852 203.218 221.773  1.00  0.00     0.016 C 
ATOM     19  C   UNL     1     206.795 206.733 222.030  1.00  0.00     0.012 C 
ENDROOT
BRANCH   1  20
ATOM     20  C   UNL     1     206.856 208.647 225.371  1.00  0.00     0.133 C 
ATOM     21  C   UNL     1     208.139 208.456 226.125  1.00  0.00     0.088 C 
ATOM     22  O   UNL     1     205.853 208.966 225.992  1.00  0.00    -0.300 OA
ENDBRANCH   1  20
BRANCH  16  23
ATOM     23  O   UNL     1     199.812 201.106 223.317  1.00  0.00    -0.393 OA
ATOM     24  H   UNL     1     199.830 200.471 224.080  1.00  0.00     0.210 HD
ENDBRANCH  16  23
TORSDOF 2
ENDMDL
MODEL 6
REMARK VINA RESULT:    -3.798     11.551     14.121
REMARK INTER + INTRA:          -4.245
REMARK INTER:                  -4.100
REMARK INTRA:                  -0.145
REMARK UNBOUND:                -0.114
REMARK SMILES CC(=O)[C@@H]1CC[C@H]2[C@@H]3CC=C4C[C@@H](O)CC[C@]4(C)[C@H]3CC[C@]12C
REMARK SMILES IDX 4 1 5 2 6 3 7 4 22 5 21 6 20 7 19 8 8 9 9 10 10 11 11 12
REMARK SMILES IDX 17 13 16 14 15 15 13 16 12 17 18 18 23 19 2 20 1 21 3 22
REMARK SMILES IDX 14 23
REMARK H PARENT 14 24
REMARK Flexibility Score: inf
ROOT
ATOM      1  C   UNL     1     207.868 206.237 223.856  1.00  0.00     0.062 C 
ATOM      2  C   UNL     1     208.753 205.162 223.171  1.00  0.00     0.012 C 
ATOM      3  C   UNL     1     210.030 205.868 222.680  1.00  0.00     0.005 C 
ATOM      4  C   UNL     1     209.983 207.239 223.338  1.00  0.00    -0.001 C 
ATOM      5  C   UNL     1     208.493 207.589 223.413  1.00  0.00    -0.020 C 
ATOM      6  C   UNL     1     208.338 208.785 224.386  1.00  0.00     0.008 C 
ATOM      7  C   UNL     1     209.169 210.000 223.914  1.00  0.00     0.005 C 
ATOM      8  C   UNL     1     210.667 209.657 223.618  1.00  0.00     0.003 C 
ATOM      9  C   UNL     1     210.838 208.377 222.740  1.00  0.00     0.000 C 
ATOM     10  C   UNL     1     212.320 207.972 222.714  1.00  0.00     0.031 C 
ATOM     11  C   UNL     1     213.236 209.126 222.418  1.00  0.00    -0.027 C 
ATOM     12  C   UNL     1     212.928 210.415 222.685  1.00  0.00    -0.065 C 
ATOM     13  C   UNL     1     211.501 210.865 223.041  1.00  0.00    -0.008 C 
ATOM     14  C   UNL     1     211.586 211.984 224.127  1.00  0.00     0.014 C 
ATOM     15  C   UNL     1     212.607 213.086 223.803  1.00  0.00     0.033 C 
ATOM     16  C   UNL     1     214.006 212.494 223.591  1.00  0.00     0.118 C 
ATOM     17  C   UNL     1     213.991 211.472 222.451  1.00  0.00     0.063 C 
ATOM     18  C   UNL     1     210.844 211.446 221.758  1.00  0.00     0.016 C 
ATOM     19  C   UNL     1     207.870 207.959 222.028  1.00  0.00     0.012 C 
ENDROOT
BRANCH   1  20
ATOM     20  C   UNL     1     207.816 206.037 225.364  1.00  0.00     0.133 C 
ATOM     21  C   UNL     1     206.535 206.216 226.125  1.00  0.00     0.088 C 
ATOM     22  O   UNL     1     208.825 205.724 225.980  1.00  0.00    -0.300 OA
ENDBRANCH   1  20
BRANCH  16  23
ATOM     23  O   UNL     1     214.915 213.517 223.278  1.00  0.00    -0.393 OA
ATOM     24  H   UNL     1     214.538 214.006 222.500  1.00  0.00     0.210 HD
ENDBRANCH  16  23
TORSDOF 2
ENDMDL
MODEL 7
REMARK VINA RESULT:    -3.790     12.219     14.616
REMARK INTER + INTRA:          -4.237
REMARK INTER:                  -4.108
REMARK INTRA:                  -0.129
REMARK UNBOUND:                -0.114
REMARK SMILES CC(=O)[C@@H]1CC[C@H]2[C@@H]3CC=C4C[C@@H](O)CC[C@]4(C)[C@H]3CC[C@]12C
REMARK SMILES IDX 4 1 5 2 6 3 7 4 22 5 21 6 20 7 19 8 8 9 9 10 10 11 11 12
REMARK SMILES IDX 17 13 16 14 15 15 13 16 12 17 18 18 23 19 2 20 1 21 3 22
REMARK SMILES IDX 14 23
REMARK H PARENT 14 24
REMARK Flexibility Score: inf
ROOT
ATOM      1  C   UNL     1     211.106 213.422 222.439  1.00  0.00     0.062 C 
ATOM      2  C   UNL     1     209.951 214.144 221.697  1.00  0.00     0.012 C 
ATOM      3  C   UNL     1     208.704 213.249 221.813  1.00  0.00     0.005 C 
ATOM      4  C   UNL     1     209.085 212.199 222.846  1.00  0.00    -0.001 C 
ATOM      5  C   UNL     1     210.586 211.971 222.641  1.00  0.00    -0.020 C 
ATOM      6  C   UNL     1     211.120 211.201 223.875  1.00  0.00     0.008 C 
ATOM      7  C   UNL     1     210.376 209.858 224.059  1.00  0.00     0.005 C 
ATOM      8  C   UNL     1     208.817 210.002 224.068  1.00  0.00     0.003 C 
ATOM      9  C   UNL     1     208.279 210.883 222.897  1.00  0.00     0.000 C 
ATOM     10  C   UNL     1     206.789 211.180 223.127  1.00  0.00     0.031 C 
ATOM     11  C   UNL     1     205.995 209.952 223.474  1.00  0.00    -0.027 C 
ATOM     12  C   UNL     1     206.527 208.855 224.056  1.00  0.00    -0.065 C 
ATOM     13  C   UNL     1     208.046 208.629 224.156  1.00  0.00    -0.008 C 
ATOM     14  C   UNL     1     208.363 207.958 225.530  1.00  0.00     0.014 C 
ATOM     15  C   UNL     1     207.455 206.763 225.860  1.00  0.00     0.033 C 
ATOM     16  C   UNL     1     205.977 207.174 225.839  1.00  0.00     0.118 C 
ATOM     17  C   UNL     1     205.593 207.732 224.466  1.00  0.00     0.063 C 
ATOM     18  C   UNL     1     208.467 207.668 223.008  1.00  0.00     0.016 C 
ATOM     19  C   UNL     1     210.922 211.171 221.340  1.00  0.00     0.012 C 
ENDROOT
BRANCH   1  20
ATOM     20  C   UNL     1     211.472 214.140 223.730  1.00  0.00     0.133 C 
ATOM     21  C   UNL     1     210.436 214.872 224.530  1.00  0.00     0.088 C 
ATOM     22  O   UNL     1     212.626 214.128 224.136  1.00  0.00    -0.300 OA
ENDBRANCH   1  20
BRANCH  16  23
ATOM     23  O   UNL     1     205.168 206.063 226.125  1.00  0.00    -0.393 OA
ATOM     24  H   UNL     1     205.780 205.299 226.290  1.00  0.00     0.210 HD
ENDBRANCH  16  23
TORSDOF 2
ENDMDL
MODEL 8
REMARK VINA RESULT:    -3.766     10.787     13.863
REMARK INTER + INTRA:          -4.211
REMARK INTER:                  -4.068
REMARK INTRA:                  -0.143
REMARK UNBOUND:                -0.114
REMARK SMILES CC(=O)[C@@H]1CC[C@H]2[C@@H]3CC=C4C[C@@H](O)CC[C@]4(C)[C@H]3CC[C@]12C
REMARK SMILES IDX 4 1 5 2 6 3 7 4 22 5 21 6 20 7 19 8 8 9 9 10 10 11 11 12
REMARK SMILES IDX 17 13 16 14 15 15 13 16 12 17 18 18 23 19 2 20 1 21 3 22
REMARK SMILES IDX 14 23
REMARK H PARENT 14 24
REMARK Flexibility Score: inf
ROOT
ATOM      1  C   UNL     1     208.420 207.856 223.859  1.00  0.00     0.062 C 
ATOM      2  C   UNL     1     209.486 208.751 223.175  1.00  0.00     0.012 C 
ATOM      3  C   UNL     1     208.768 210.020 222.681  1.00  0.00     0.005 C 
ATOM      4  C   UNL     1     207.396 209.960 223.337  1.00  0.00    -0.001 C 
ATOM      5  C   UNL     1     207.062 208.467 223.413  1.00  0.00    -0.020 C 
ATOM      6  C   UNL     1     205.865 208.300 224.383  1.00  0.00     0.008 C 
ATOM      7  C   UNL     1     204.643 209.118 223.908  1.00  0.00     0.005 C 
ATOM      8  C   UNL     1     204.971 210.619 223.611  1.00  0.00     0.003 C 
ATOM      9  C   UNL     1     206.251 210.803 222.735  1.00  0.00     0.000 C 
ATOM     10  C   UNL     1     206.640 212.289 222.709  1.00  0.00     0.031 C 
ATOM     11  C   UNL     1     205.477 213.192 222.410  1.00  0.00    -0.027 C 
ATOM     12  C   UNL     1     204.191 212.872 222.674  1.00  0.00    -0.065 C 
ATOM     13  C   UNL     1     203.755 211.440 223.032  1.00  0.00    -0.008 C 
ATOM     14  C   UNL     1     202.633 211.515 224.115  1.00  0.00     0.014 C 
ATOM     15  C   UNL     1     201.521 212.523 223.787  1.00  0.00     0.033 C 
ATOM     16  C   UNL     1     202.099 213.928 223.575  1.00  0.00     0.118 C 
ATOM     17  C   UNL     1     203.123 213.923 222.437  1.00  0.00     0.063 C 
ATOM     18  C   UNL     1     203.183 210.775 221.747  1.00  0.00     0.016 C 
ATOM     19  C   UNL     1     206.701 207.838 222.027  1.00  0.00     0.012 C 
ENDROOT
BRANCH   1  20
ATOM     20  C   UNL     1     208.617 207.807 225.367  1.00  0.00     0.133 C 
ATOM     21  C   UNL     1     208.481 206.519 226.125  1.00  0.00     0.088 C 
ATOM     22  O   UNL     1     208.892 208.825 225.986  1.00  0.00    -0.300 OA
ENDBRANCH   1  20
BRANCH  16  23
ATOM     23  O   UNL     1     201.067 214.826 223.259  1.00  0.00    -0.393 OA
ATOM     24  H   UNL     1     201.043 215.501 223.987  1.00  0.00     0.210 HD
ENDBRANCH  16  23
TORSDOF 2
ENDMDL
