MODEL 1
REMARK VINA RESULT:    -4.669      0.000      0.000
REMARK INTER + INTRA:          -7.647
REMARK INTER:                  -7.125
REMARK INTRA:                  -0.522
REMARK UNBOUND:                -0.522
REMARK SMILES O=C([O-])CCCCCCCCC(=O)[O-]
REMARK SMILES IDX 7 1 6 2 5 3 4 4 2 5 1 6 3 7 8 8 9 9 10 10 11 11 12 12 13 13
REMARK SMILES IDX 14 14
REMARK H PARENT
REMARK Flexibility Score: inf
ROOT
ATOM      1  C   UNL     1      29.499  -4.488  30.071  1.00  0.00     0.000 C 
ENDROOT
BRANCH   1   2
ATOM      2  C   UNL     1      28.060  -4.075  30.405  1.00  0.00     0.000 C 
BRANCH   2   3
ATOM      3  C   UNL     1      27.926  -2.549  30.467  1.00  0.00     0.006 C 
BRANCH   3   4
ATOM      4  C   UNL     1      29.143  -1.865  29.836  1.00  0.00     0.053 C 
BRANCH   4   5
ATOM      5  C   UNL     1      29.696  -0.824  30.757  1.00  0.00     0.041 C 
ATOM      6  O   UNL     1      29.317  -0.774  31.956  1.00  0.00    -0.550 OA
ATOM      7  O   UNL     1      30.667   0.060  30.304  1.00  0.00    -0.550 OA
ENDBRANCH   4   5
ENDBRANCH   3   4
ENDBRANCH   2   3
ENDBRANCH   1   2
BRANCH   1   8
ATOM      8  C   UNL     1      29.837  -5.853  30.689  1.00  0.00     0.000 C 
BRANCH   8   9
ATOM      9  C   UNL     1      28.634  -6.506  31.394  1.00  0.00     0.000 C 
BRANCH   9  10
ATOM     10  C   UNL     1      28.715  -8.039  31.540  1.00  0.00     0.006 C 
BRANCH  10  11
ATOM     11  C   UNL     1      29.618  -8.732  30.507  1.00  0.00     0.053 C 
BRANCH  11  12
ATOM     12  C   UNL     1      28.881  -9.051  29.242  1.00  0.00     0.041 C 
ATOM     13  O   UNL     1      27.976  -9.926  29.241  1.00  0.00    -0.550 OA
ATOM     14  O   UNL     1      29.218  -8.406  28.058  1.00  0.00    -0.550 OA
ENDBRANCH  11  12
ENDBRANCH  10  11
ENDBRANCH   9  10
ENDBRANCH   8   9
ENDBRANCH   1   8
TORSDOF 9
ENDMDL
MODEL 2
REMARK VINA RESULT:    -4.642      1.339      7.210
REMARK INTER + INTRA:          -7.606
REMARK INTER:                  -7.068
REMARK INTRA:                  -0.538
REMARK UNBOUND:                -0.522
REMARK SMILES O=C([O-])CCCCCCCCC(=O)[O-]
REMARK SMILES IDX 7 1 6 2 5 3 4 4 2 5 1 6 3 7 8 8 9 9 10 10 11 11 12 12 13 13
REMARK SMILES IDX 14 14
REMARK H PARENT
REMARK Flexibility Score: inf
ROOT
ATOM      1  C   UNL     1      29.538  -4.582  29.583  1.00  0.00     0.000 C 
ENDROOT
BRANCH   1   2
ATOM      2  C   UNL     1      29.996  -5.516  30.710  1.00  0.00     0.000 C 
BRANCH   2   3
ATOM      3  C   UNL     1      28.933  -6.578  31.011  1.00  0.00     0.006 C 
BRANCH   3   4
ATOM      4  C   UNL     1      28.317  -7.120  29.717  1.00  0.00     0.053 C 
BRANCH   4   5
ATOM      5  C   UNL     1      29.040  -8.350  29.268  1.00  0.00     0.041 C 
ATOM      6  O   UNL     1      29.204  -8.575  28.040  1.00  0.00    -0.550 OA
ATOM      7  O   UNL     1      29.577  -9.223  30.205  1.00  0.00    -0.550 OA
ENDBRANCH   4   5
ENDBRANCH   3   4
ENDBRANCH   2   3
ENDBRANCH   1   2
BRANCH   1   8
ATOM      8  C   UNL     1      29.536  -3.118  30.048  1.00  0.00     0.000 C 
BRANCH   8   9
ATOM      9  C   UNL     1      28.132  -2.611  30.426  1.00  0.00     0.000 C 
BRANCH   9  10
ATOM     10  C   UNL     1      28.102  -1.531  31.527  1.00  0.00     0.006 C 
BRANCH  10  11
ATOM     11  C   UNL     1      29.356  -0.644  31.586  1.00  0.00     0.053 C 
BRANCH  11  12
ATOM     12  C   UNL     1      29.189   0.617  30.795  1.00  0.00     0.041 C 
ATOM     13  O   UNL     1      28.884   1.692  31.375  1.00  0.00    -0.550 OA
ATOM     14  O   UNL     1      29.336   0.598  29.414  1.00  0.00    -0.550 OA
ENDBRANCH  11  12
ENDBRANCH  10  11
ENDBRANCH   9  10
ENDBRANCH   8   9
ENDBRANCH   1   8
TORSDOF 9
ENDMDL
MODEL 3
REMARK VINA RESULT:    -4.617      0.618      6.990
REMARK INTER + INTRA:          -7.569
REMARK INTER:                  -7.050
REMARK INTRA:                  -0.518
REMARK UNBOUND:                -0.522
REMARK SMILES O=C([O-])CCCCCCCCC(=O)[O-]
REMARK SMILES IDX 7 1 6 2 5 3 4 4 2 5 1 6 3 7 8 8 9 9 10 10 11 11 12 12 13 13
REMARK SMILES IDX 14 14
REMARK H PARENT
REMARK Flexibility Score: inf
ROOT
ATOM      1  C   UNL     1      29.776  -5.765  30.658  1.00  0.00     0.000 C 
ENDROOT
BRANCH   1   2
ATOM      2  C   UNL     1      28.468  -6.526  30.908  1.00  0.00     0.000 C 
BRANCH   2   3
ATOM      3  C   UNL     1      28.742  -7.905  31.519  1.00  0.00     0.006 C 
BRANCH   3   4
ATOM      4  C   UNL     1      29.605  -8.759  30.584  1.00  0.00     0.053 C 
BRANCH   4   5
ATOM      5  C   UNL     1      28.821  -9.170  29.377  1.00  0.00     0.041 C 
ATOM      6  O   UNL     1      27.865  -9.980  29.489  1.00  0.00    -0.550 OA
ATOM      7  O   UNL     1      29.116  -8.619  28.137  1.00  0.00    -0.550 OA
ENDBRANCH   4   5
ENDBRANCH   3   4
ENDBRANCH   2   3
ENDBRANCH   1   2
BRANCH   1   8
ATOM      8  C   UNL     1      29.499  -4.376  30.063  1.00  0.00     0.000 C 
BRANCH   8   9
ATOM      9  C   UNL     1      28.104  -3.836  30.427  1.00  0.00     0.000 C 
BRANCH   9  10
ATOM     10  C   UNL     1      27.912  -2.321  30.208  1.00  0.00     0.006 C 
BRANCH  10  11
ATOM     11  C   UNL     1      28.200  -1.456  31.445  1.00  0.00     0.053 C 
BRANCH  11  12
ATOM     12  C   UNL     1      29.519  -0.753  31.343  1.00  0.00     0.041 C 
ATOM     13  O   UNL     1      29.919  -0.020  32.286  1.00  0.00    -0.550 OA
ATOM     14  O   UNL     1      30.289  -0.880  30.195  1.00  0.00    -0.550 OA
ENDBRANCH  11  12
ENDBRANCH  10  11
ENDBRANCH   9  10
ENDBRANCH   8   9
ENDBRANCH   1   8
TORSDOF 9
ENDMDL
MODEL 4
REMARK VINA RESULT:    -4.588      1.302      1.919
REMARK INTER + INTRA:          -7.524
REMARK INTER:                  -6.952
REMARK INTRA:                  -0.572
REMARK UNBOUND:                -0.522
REMARK SMILES O=C([O-])CCCCCCCCC(=O)[O-]
REMARK SMILES IDX 7 1 6 2 5 3 4 4 2 5 1 6 3 7 8 8 9 9 10 10 11 11 12 12 13 13
REMARK SMILES IDX 14 14
REMARK H PARENT
REMARK Flexibility Score: inf
ROOT
ATOM      1  C   UNL     1      28.004  -3.261  30.508  1.00  0.00     0.000 C 
ENDROOT
BRANCH   1   2
ATOM      2  C   UNL     1      27.560  -1.854  30.088  1.00  0.00     0.000 C 
BRANCH   2   3
ATOM      3  C   UNL     1      28.485  -1.285  29.006  1.00  0.00     0.006 C 
BRANCH   3   4
ATOM      4  C   UNL     1      28.772   0.199  29.253  1.00  0.00     0.053 C 
BRANCH   4   5
ATOM      5  C   UNL     1      29.740   0.366  30.381  1.00  0.00     0.041 C 
ATOM      6  O   UNL     1      29.420   1.037  31.396  1.00  0.00    -0.550 OA
ATOM      7  O   UNL     1      30.978  -0.262  30.333  1.00  0.00    -0.550 OA
ENDBRANCH   4   5
ENDBRANCH   3   4
ENDBRANCH   2   3
ENDBRANCH   1   2
BRANCH   1   8
ATOM      8  C   UNL     1      29.416  -3.569  29.988  1.00  0.00     0.000 C 
BRANCH   8   9
ATOM      9  C   UNL     1      29.892  -4.988  30.352  1.00  0.00     0.000 C 
BRANCH   9  10
ATOM     10  C   UNL     1      28.771  -5.974  30.740  1.00  0.00     0.006 C 
BRANCH  10  11
ATOM     11  C   UNL     1      28.208  -6.795  29.569  1.00  0.00     0.053 C 
BRANCH  11  12
ATOM     12  C   UNL     1      28.971  -8.066  29.358  1.00  0.00     0.041 C 
ATOM     13  O   UNL     1      29.420  -8.706  30.345  1.00  0.00    -0.550 OA
ATOM     14  O   UNL     1      29.216  -8.527  28.070  1.00  0.00    -0.550 OA
ENDBRANCH  11  12
ENDBRANCH  10  11
ENDBRANCH   9  10
ENDBRANCH   8   9
ENDBRANCH   1   8
TORSDOF 9
ENDMDL
MODEL 5
REMARK VINA RESULT:    -4.587      5.720      8.424
REMARK INTER + INTRA:          -7.522
REMARK INTER:                  -7.139
REMARK INTRA:                  -0.383
REMARK UNBOUND:                -0.522
REMARK SMILES O=C([O-])CCCCCCCCC(=O)[O-]
REMARK SMILES IDX 7 1 6 2 5 3 4 4 2 5 1 6 3 7 8 8 9 9 10 10 11 11 12 12 13 13
REMARK SMILES IDX 14 14
REMARK H PARENT
REMARK Flexibility Score: inf
ROOT
ATOM      1  C   UNL     1      27.638   3.471  29.291  1.00  0.00     0.000 C 
ENDROOT
BRANCH   1   2
ATOM      2  C   UNL     1      27.986   4.341  30.506  1.00  0.00     0.000 C 
BRANCH   2   3
ATOM      3  C   UNL     1      27.345   5.729  30.390  1.00  0.00     0.006 C 
BRANCH   3   4
ATOM      4  C   UNL     1      28.393   6.790  30.038  1.00  0.00     0.053 C 
BRANCH   4   5
ATOM      5  C   UNL     1      27.890   8.157  30.379  1.00  0.00     0.041 C 
ATOM      6  O   UNL     1      26.652   8.380  30.438  1.00  0.00    -0.550 OA
ATOM      7  O   UNL     1      28.788   9.173  30.681  1.00  0.00    -0.550 OA
ENDBRANCH   4   5
ENDBRANCH   3   4
ENDBRANCH   2   3
ENDBRANCH   1   2
BRANCH   1   8
ATOM      8  C   UNL     1      27.972   1.996  29.558  1.00  0.00     0.000 C 
BRANCH   8   9
ATOM      9  C   UNL     1      28.382   1.729  31.018  1.00  0.00     0.000 C 
BRANCH   9  10
ATOM     10  C   UNL     1      29.541   0.726  31.198  1.00  0.00     0.006 C 
BRANCH  10  11
ATOM     11  C   UNL     1      29.113  -0.658  31.712  1.00  0.00     0.053 C 
BRANCH  11  12
ATOM     12  C   UNL     1      28.966  -1.649  30.599  1.00  0.00     0.041 C 
ATOM     13  O   UNL     1      29.887  -2.473  30.359  1.00  0.00    -0.550 OA
ATOM     14  O   UNL     1      27.826  -1.640  29.805  1.00  0.00    -0.550 OA
ENDBRANCH  11  12
ENDBRANCH  10  11
ENDBRANCH   9  10
ENDBRANCH   8   9
ENDBRANCH   1   8
TORSDOF 9
ENDMDL
MODEL 6
REMARK VINA RESULT:    -4.562      2.327      2.813
REMARK INTER + INTRA:          -7.484
REMARK INTER:                  -6.930
REMARK INTRA:                  -0.554
REMARK UNBOUND:                -0.522
REMARK SMILES O=C([O-])CCCCCCCCC(=O)[O-]
REMARK SMILES IDX 7 1 6 2 5 3 4 4 2 5 1 6 3 7 8 8 9 9 10 10 11 11 12 12 13 13
REMARK SMILES IDX 14 14
REMARK H PARENT
REMARK Flexibility Score: inf
ROOT
ATOM      1  C   UNL     1      28.962  -3.294  30.013  1.00  0.00     0.000 C 
ENDROOT
BRANCH   1   2
ATOM      2  C   UNL     1      29.055  -1.802  30.357  1.00  0.00     0.000 C 
BRANCH   2   3
ATOM      3  C   UNL     1      28.217  -1.471  31.598  1.00  0.00     0.006 C 
BRANCH   3   4
ATOM      4  C   UNL     1      27.568  -0.089  31.471  1.00  0.00     0.053 C 
BRANCH   4   5
ATOM      5  C   UNL     1      26.605  -0.065  30.326  1.00  0.00     0.041 C 
ATOM      6  O   UNL     1      25.561  -0.767  30.363  1.00  0.00    -0.550 OA
ATOM      7  O   UNL     1      26.836   0.771  29.242  1.00  0.00    -0.550 OA
ENDBRANCH   4   5
ENDBRANCH   3   4
ENDBRANCH   2   3
ENDBRANCH   1   2
BRANCH   1   8
ATOM      8  C   UNL     1      27.645  -3.895  30.524  1.00  0.00     0.000 C 
BRANCH   8   9
ATOM      9  C   UNL     1      27.619  -5.433  30.449  1.00  0.00     0.000 C 
BRANCH   9  10
ATOM     10  C   UNL     1      28.820  -6.139  31.112  1.00  0.00     0.006 C 
BRANCH  10  11
ATOM     11  C   UNL     1      29.172  -7.506  30.503  1.00  0.00     0.053 C 
BRANCH  11  12
ATOM     12  C   UNL     1      29.077  -8.610  31.510  1.00  0.00     0.041 C 
ATOM     13  O   UNL     1      28.401  -8.451  32.561  1.00  0.00    -0.550 OA
ATOM     14  O   UNL     1      29.761  -9.802  31.305  1.00  0.00    -0.550 OA
ENDBRANCH  11  12
ENDBRANCH  10  11
ENDBRANCH   9  10
ENDBRANCH   8   9
ENDBRANCH   1   8
TORSDOF 9
ENDMDL
MODEL 7
REMARK VINA RESULT:    -4.542      1.540      7.114
REMARK INTER + INTRA:          -7.454
REMARK INTER:                  -6.901
REMARK INTRA:                  -0.552
REMARK UNBOUND:                -0.522
REMARK SMILES O=C([O-])CCCCCCCCC(=O)[O-]
REMARK SMILES IDX 7 1 6 2 5 3 4 4 2 5 1 6 3 7 8 8 9 9 10 10 11 11 12 12 13 13
REMARK SMILES IDX 14 14
REMARK H PARENT
REMARK Flexibility Score: inf
ROOT
ATOM      1  C   UNL     1      27.341  -4.537  31.022  1.00  0.00     0.000 C 
ENDROOT
BRANCH   1   2
ATOM      2  C   UNL     1      27.144  -5.608  29.941  1.00  0.00     0.000 C 
BRANCH   2   3
ATOM      3  C   UNL     1      28.475  -6.280  29.584  1.00  0.00     0.006 C 
BRANCH   3   4
ATOM      4  C   UNL     1      29.168  -6.824  30.837  1.00  0.00     0.053 C 
BRANCH   4   5
ATOM      5  C   UNL     1      28.706  -8.216  31.130  1.00  0.00     0.041 C 
ATOM      6  O   UNL     1      28.385  -8.988  30.189  1.00  0.00    -0.550 OA
ATOM      7  O   UNL     1      28.679  -8.678  32.440  1.00  0.00    -0.550 OA
ENDBRANCH   4   5
ENDBRANCH   3   4
ENDBRANCH   2   3
ENDBRANCH   1   2
BRANCH   1   8
ATOM      8  C   UNL     1      27.346  -3.130  30.407  1.00  0.00     0.000 C 
BRANCH   8   9
ATOM      9  C   UNL     1      28.766  -2.604  30.127  1.00  0.00     0.000 C 
BRANCH   9  10
ATOM     10  C   UNL     1      28.835  -1.373  29.199  1.00  0.00     0.006 C 
BRANCH  10  11
ATOM     11  C   UNL     1      29.570  -0.163  29.798  1.00  0.00     0.053 C 
BRANCH  11  12
ATOM     12  C   UNL     1      29.093   0.154  31.182  1.00  0.00     0.041 C 
ATOM     13  O   UNL     1      27.922   0.580  31.365  1.00  0.00    -0.550 OA
ATOM     14  O   UNL     1      29.952   0.013  32.264  1.00  0.00    -0.550 OA
ENDBRANCH  11  12
ENDBRANCH  10  11
ENDBRANCH   9  10
ENDBRANCH   8   9
ENDBRANCH   1   8
TORSDOF 9
ENDMDL
MODEL 8
REMARK VINA RESULT:    -4.521      1.874      7.462
REMARK INTER + INTRA:          -7.422
REMARK INTER:                  -7.013
REMARK INTRA:                  -0.408
REMARK UNBOUND:                -0.522
REMARK SMILES O=C([O-])CCCCCCCCC(=O)[O-]
REMARK SMILES IDX 7 1 6 2 5 3 4 4 2 5 1 6 3 7 8 8 9 9 10 10 11 11 12 12 13 13
REMARK SMILES IDX 14 14
REMARK H PARENT
REMARK Flexibility Score: inf
ROOT
ATOM      1  C   UNL     1      27.249  -4.540  30.924  1.00  0.00     0.000 C 
ENDROOT
BRANCH   1   2
ATOM      2  C   UNL     1      28.488  -5.294  30.422  1.00  0.00     0.000 C 
BRANCH   2   3
ATOM      3  C   UNL     1      28.088  -6.531  29.611  1.00  0.00     0.006 C 
BRANCH   3   4
ATOM      4  C   UNL     1      29.008  -7.715  29.924  1.00  0.00     0.053 C 
BRANCH   4   5
ATOM      5  C   UNL     1      28.815  -8.809  28.924  1.00  0.00     0.041 C 
ATOM      6  O   UNL     1      28.004  -9.744  29.156  1.00  0.00    -0.550 OA
ATOM      7  O   UNL     1      29.492  -8.771  27.712  1.00  0.00    -0.550 OA
ENDBRANCH   4   5
ENDBRANCH   3   4
ENDBRANCH   2   3
ENDBRANCH   1   2
BRANCH   1   8
ATOM      8  C   UNL     1      27.222  -3.104  30.379  1.00  0.00     0.000 C 
BRANCH   8   9
ATOM      9  C   UNL     1      28.624  -2.563  30.046  1.00  0.00     0.000 C 
BRANCH   9  10
ATOM     10  C   UNL     1      28.651  -1.390  29.043  1.00  0.00     0.006 C 
BRANCH  10  11
ATOM     11  C   UNL     1      27.299  -0.685  28.850  1.00  0.00     0.053 C 
BRANCH  11  12
ATOM     12  C   UNL     1      27.175   0.534  29.711  1.00  0.00     0.041 C 
ATOM     13  O   UNL     1      27.277   1.682  29.202  1.00  0.00    -0.550 OA
ATOM     14  O   UNL     1      26.980   0.403  31.080  1.00  0.00    -0.550 OA
ENDBRANCH  11  12
ENDBRANCH  10  11
ENDBRANCH   9  10
ENDBRANCH   8   9
ENDBRANCH   1   8
TORSDOF 9
ENDMDL
MODEL 9
REMARK VINA RESULT:    -4.509      1.999      7.262
REMARK INTER + INTRA:          -7.403
REMARK INTER:                  -7.054
REMARK INTRA:                  -0.350
REMARK UNBOUND:                -0.522
REMARK SMILES O=C([O-])CCCCCCCCC(=O)[O-]
REMARK SMILES IDX 7 1 6 2 5 3 4 4 2 5 1 6 3 7 8 8 9 9 10 10 11 11 12 12 13 13
REMARK SMILES IDX 14 14
REMARK H PARENT
REMARK Flexibility Score: inf
ROOT
ATOM      1  C   UNL     1      29.849  -5.573  30.409  1.00  0.00     0.000 C 
ENDROOT
BRANCH   1   2
ATOM      2  C   UNL     1      28.762  -6.175  29.510  1.00  0.00     0.000 C 
BRANCH   2   3
ATOM      3  C   UNL     1      28.413  -7.602  29.948  1.00  0.00     0.006 C 
BRANCH   3   4
ATOM      4  C   UNL     1      28.746  -7.819  31.428  1.00  0.00     0.053 C 
BRANCH   4   5
ATOM      5  C   UNL     1      29.026  -9.263  31.697  1.00  0.00     0.041 C 
ATOM      6  O   UNL     1      28.360  -9.887  32.564  1.00  0.00    -0.550 OA
ATOM      7  O   UNL     1      29.988  -9.935  30.954  1.00  0.00    -0.550 OA
ENDBRANCH   4   5
ENDBRANCH   3   4
ENDBRANCH   2   3
ENDBRANCH   1   2
BRANCH   1   8
ATOM      8  C   UNL     1      30.130  -4.112  30.028  1.00  0.00     0.000 C 
BRANCH   8   9
ATOM      9  C   UNL     1      28.866  -3.232  30.057  1.00  0.00     0.000 C 
BRANCH   9  10
ATOM     10  C   UNL     1      29.107  -1.755  30.432  1.00  0.00     0.006 C 
BRANCH  10  11
ATOM     11  C   UNL     1      28.216  -1.232  31.569  1.00  0.00     0.053 C 
BRANCH  11  12
ATOM     12  C   UNL     1      27.353  -0.090  31.126  1.00  0.00     0.041 C 
ATOM     13  O   UNL     1      27.747   1.096  31.276  1.00  0.00    -0.550 OA
ATOM     14  O   UNL     1      26.100  -0.336  30.580  1.00  0.00    -0.550 OA
ENDBRANCH  11  12
ENDBRANCH  10  11
ENDBRANCH   9  10
ENDBRANCH   8   9
ENDBRANCH   1   8
TORSDOF 9
ENDMDL
