MODEL 1
REMARK VINA RESULT:    -3.650      0.000      0.000
REMARK INTER + INTRA:          -6.483
REMARK INTER:                  -5.250
REMARK INTRA:                  -1.232
REMARK UNBOUND:                -1.232
REMARK SMILES O=C(CO)[C@@H](O)[C@H](O)[C@@H](O)CO
REMARK SMILES IDX 7 1 9 2 11 3 12 4 10 6 5 8 2 9 1 10 3 11 4 12 6 14 8 16
REMARK H PARENT 12 5 10 7 4 13 6 15 8 17
REMARK Flexibility Score: inf
ROOT
ATOM      1  C   UNL     1      70.288  34.252  58.272  1.00  0.00     0.181 C 
ENDROOT
BRANCH   1   2
ATOM      2  C   UNL     1      69.383  35.513  58.232  1.00  0.00     0.171 C 
BRANCH   2   3
ATOM      3  C   UNL     1      70.207  36.771  57.933  1.00  0.00     0.190 C 
BRANCH   3   4
ATOM      4  O   UNL     1      71.129  36.987  58.965  1.00  0.00    -0.394 OA
ATOM      5  H   UNL     1      70.593  37.135  59.787  1.00  0.00     0.210 HD
ENDBRANCH   3   4
ENDBRANCH   2   3
BRANCH   2   6
ATOM      6  O   UNL     1      68.712  35.686  59.456  1.00  0.00    -0.388 OA
ATOM      7  H   UNL     1      68.734  34.816  59.932  1.00  0.00     0.211 HD
ENDBRANCH   2   6
ENDBRANCH   1   2
BRANCH   1   8
ATOM      8  C   UNL     1      70.352  33.601  59.680  1.00  0.00     0.214 C 
BRANCH   8   9
ATOM      9  C   UNL     1      70.976  32.216  59.620  1.00  0.00     0.189 C 
ATOM     10  O   UNL     1      71.270  31.750  58.528  1.00  0.00    -0.294 OA
BRANCH   9  11
ATOM     11  C   UNL     1      71.245  31.411  60.868  1.00  0.00     0.234 C 
BRANCH  11  12
ATOM     12  O   UNL     1      72.292  31.967  61.618  1.00  0.00    -0.388 OA
ATOM     13  H   UNL     1      71.957  32.830  61.976  1.00  0.00     0.211 HD
ENDBRANCH  11  12
ENDBRANCH   9  11
ENDBRANCH   8   9
BRANCH   8  14
ATOM     14  O   UNL     1      70.996  34.426  60.621  1.00  0.00    -0.382 OA
ATOM     15  H   UNL     1      71.782  34.844  60.183  1.00  0.00     0.211 HD
ENDBRANCH   8  14
ENDBRANCH   1   8
BRANCH   1  16
ATOM     16  O   UNL     1      71.576  34.503  57.758  1.00  0.00    -0.387 OA
ATOM     17  H   UNL     1      71.502  35.198  57.055  1.00  0.00     0.211 HD
ENDBRANCH   1  16
TORSDOF 10
ENDMDL
MODEL 2
REMARK VINA RESULT:    -3.498      4.158      5.942
REMARK INTER + INTRA:          -6.264
REMARK INTER:                  -5.026
REMARK INTRA:                  -1.238
REMARK UNBOUND:                -1.232
REMARK SMILES O=C(CO)[C@@H](O)[C@H](O)[C@@H](O)CO
REMARK SMILES IDX 7 1 9 2 11 3 12 4 10 6 5 8 2 9 1 10 3 11 4 12 6 14 8 16
REMARK H PARENT 12 5 10 7 4 13 6 15 8 17
REMARK Flexibility Score: inf
ROOT
ATOM      1  C   UNL     1      70.896  29.479  60.784  1.00  0.00     0.181 C 
ENDROOT
BRANCH   1   2
ATOM      2  C   UNL     1      71.702  30.804  60.854  1.00  0.00     0.171 C 
BRANCH   2   3
ATOM      3  C   UNL     1      72.875  30.681  61.834  1.00  0.00     0.190 C 
BRANCH   3   4
ATOM      4  O   UNL     1      72.387  30.536  63.138  1.00  0.00    -0.394 OA
ATOM      5  H   UNL     1      71.414  30.360  63.050  1.00  0.00     0.210 HD
ENDBRANCH   3   4
ENDBRANCH   2   3
BRANCH   2   6
ATOM      6  O   UNL     1      70.879  31.869  61.259  1.00  0.00    -0.388 OA
ATOM      7  H   UNL     1      71.152  32.123  62.178  1.00  0.00     0.211 HD
ENDBRANCH   2   6
ENDBRANCH   1   2
BRANCH   1   8
ATOM      8  C   UNL     1      69.510  29.578  61.478  1.00  0.00     0.214 C 
BRANCH   8   9
ATOM      9  C   UNL     1      68.637  28.381  61.143  1.00  0.00     0.189 C 
ATOM     10  O   UNL     1      69.029  27.584  60.302  1.00  0.00    -0.294 OA
BRANCH   9  11
ATOM     11  C   UNL     1      67.310  28.149  61.824  1.00  0.00     0.234 C 
BRANCH  11  12
ATOM     12  O   UNL     1      67.485  27.693  63.139  1.00  0.00    -0.388 OA
ATOM     13  H   UNL     1      67.891  28.443  63.647  1.00  0.00     0.211 HD
ENDBRANCH  11  12
ENDBRANCH   9  11
ENDBRANCH   8   9
BRANCH   8  14
ATOM     14  O   UNL     1      69.622  29.775  62.867  1.00  0.00    -0.382 OA
ATOM     15  H   UNL     1      70.583  29.851  63.095  1.00  0.00     0.211 HD
ENDBRANCH   8  14
ENDBRANCH   1   8
BRANCH   1  16
ATOM     16  O   UNL     1      71.635  28.378  61.261  1.00  0.00    -0.387 OA
ATOM     17  H   UNL     1      72.287  28.113  60.563  1.00  0.00     0.211 HD
ENDBRANCH   1  16
TORSDOF 10
ENDMDL
MODEL 3
REMARK VINA RESULT:    -3.495     19.648     21.172
REMARK INTER + INTRA:          -6.259
REMARK INTER:                  -5.025
REMARK INTRA:                  -1.234
REMARK UNBOUND:                -1.232
REMARK SMILES O=C(CO)[C@@H](O)[C@H](O)[C@@H](O)CO
REMARK SMILES IDX 7 1 9 2 11 3 12 4 10 6 5 8 2 9 1 10 3 11 4 12 6 14 8 16
REMARK H PARENT 12 5 10 7 4 13 6 15 8 17
REMARK Flexibility Score: inf
ROOT
ATOM      1  C   UNL     1      59.146  18.876  50.756  1.00  0.00     0.181 C 
ENDROOT
BRANCH   1   2
ATOM      2  C   UNL     1      57.758  18.183  50.729  1.00  0.00     0.171 C 
BRANCH   2   3
ATOM      3  C   UNL     1      57.789  16.925  49.852  1.00  0.00     0.190 C 
BRANCH   3   4
ATOM      4  O   UNL     1      57.993  17.289  48.515  1.00  0.00    -0.394 OA
ATOM      5  H   UNL     1      57.536  16.598  47.968  1.00  0.00     0.210 HD
ENDBRANCH   3   4
ENDBRANCH   2   3
BRANCH   2   6
ATOM      6  O   UNL     1      56.771  19.057  50.240  1.00  0.00    -0.388 OA
ATOM      7  H   UNL     1      56.829  19.046  49.249  1.00  0.00     0.211 HD
ENDBRANCH   2   6
ENDBRANCH   1   2
BRANCH   1   8
ATOM      8  C   UNL     1      59.178  20.193  49.934  1.00  0.00     0.214 C 
BRANCH   8   9
ATOM      9  C   UNL     1      60.391  21.036  50.289  1.00  0.00     0.189 C 
ATOM     10  O   UNL     1      61.143  20.644  51.170  1.00  0.00    -0.294 OA
BRANCH   9  11
ATOM     11  C   UNL     1      60.693  22.335  49.580  1.00  0.00     0.234 C 
BRANCH  11  12
ATOM     12  O   UNL     1      60.962  22.122  48.219  1.00  0.00    -0.388 OA
ATOM     13  H   UNL     1      60.644  21.205  48.008  1.00  0.00     0.211 HD
ENDBRANCH  11  12
ENDBRANCH   9  11
ENDBRANCH   8   9
BRANCH   8  14
ATOM     14  O   UNL     1      59.088  19.961  48.549  1.00  0.00    -0.382 OA
ATOM     15  H   UNL     1      59.598  19.137  48.337  1.00  0.00     0.211 HD
ENDBRANCH   8  14
ENDBRANCH   1   8
BRANCH   1  16
ATOM     16  O   UNL     1      60.186  18.004  50.376  1.00  0.00    -0.387 OA
ATOM     17  H   UNL     1      60.196  17.943  49.387  1.00  0.00     0.211 HD
ENDBRANCH   1  16
TORSDOF 10
ENDMDL
MODEL 4
REMARK VINA RESULT:    -3.440      1.913      5.330
REMARK INTER + INTRA:          -6.180
REMARK INTER:                  -5.221
REMARK INTRA:                  -0.959
REMARK UNBOUND:                -1.232
REMARK SMILES O=C(CO)[C@@H](O)[C@H](O)[C@@H](O)CO
REMARK SMILES IDX 7 1 9 2 11 3 12 4 10 6 5 8 2 9 1 10 3 11 4 12 6 14 8 16
REMARK H PARENT 12 5 10 7 4 13 6 15 8 17
REMARK Flexibility Score: inf
ROOT
ATOM      1  C   UNL     1      71.596  31.105  60.897  1.00  0.00     0.181 C 
ENDROOT
BRANCH   1   2
ATOM      2  C   UNL     1      72.890  30.699  61.654  1.00  0.00     0.171 C 
BRANCH   2   3
ATOM      3  C   UNL     1      73.124  29.186  61.568  1.00  0.00     0.190 C 
BRANCH   3   4
ATOM      4  O   UNL     1      71.927  28.542  61.231  1.00  0.00    -0.394 OA
ATOM      5  H   UNL     1      71.327  29.246  60.871  1.00  0.00     0.210 HD
ENDBRANCH   3   4
ENDBRANCH   2   3
BRANCH   2   6
ATOM      6  O   UNL     1      72.817  31.074  63.007  1.00  0.00    -0.388 OA
ATOM      7  H   UNL     1      72.038  31.681  63.105  1.00  0.00     0.211 HD
ENDBRANCH   2   6
ENDBRANCH   1   2
BRANCH   1   8
ATOM      8  C   UNL     1      71.681  32.527  60.279  1.00  0.00     0.214 C 
BRANCH   8   9
ATOM      9  C   UNL     1      70.403  32.886  59.540  1.00  0.00     0.189 C 
ATOM     10  O   UNL     1      69.688  31.982  59.129  1.00  0.00    -0.294 OA
BRANCH   9  11
ATOM     11  C   UNL     1      69.993  34.320  59.308  1.00  0.00     0.234 C 
BRANCH  11  12
ATOM     12  O   UNL     1      69.655  34.954  60.513  1.00  0.00    -0.388 OA
ATOM     13  H   UNL     1      70.272  35.726  60.609  1.00  0.00     0.211 HD
ENDBRANCH  11  12
ENDBRANCH   9  11
ENDBRANCH   8   9
BRANCH   8  14
ATOM     14  O   UNL     1      72.027  33.504  61.232  1.00  0.00    -0.382 OA
ATOM     15  H   UNL     1      71.635  34.369  60.949  1.00  0.00     0.211 HD
ENDBRANCH   8  14
ENDBRANCH   1   8
BRANCH   1  16
ATOM     16  O   UNL     1      70.443  30.955  61.693  1.00  0.00    -0.387 OA
ATOM     17  H   UNL     1      69.994  31.836  61.762  1.00  0.00     0.211 HD
ENDBRANCH   1  16
TORSDOF 10
ENDMDL
MODEL 5
REMARK VINA RESULT:    -3.381     21.463     22.681
REMARK INTER + INTRA:          -6.096
REMARK INTER:                  -4.921
REMARK INTRA:                  -1.175
REMARK UNBOUND:                -1.232
REMARK SMILES O=C(CO)[C@@H](O)[C@H](O)[C@@H](O)CO
REMARK SMILES IDX 7 1 9 2 11 3 12 4 10 6 5 8 2 9 1 10 3 11 4 12 6 14 8 16
REMARK H PARENT 12 5 10 7 4 13 6 15 8 17
REMARK Flexibility Score: inf
ROOT
ATOM      1  C   UNL     1      55.315  19.698  52.778  1.00  0.00     0.181 C 
ENDROOT
BRANCH   1   2
ATOM      2  C   UNL     1      55.258  19.118  51.339  1.00  0.00     0.171 C 
BRANCH   2   3
ATOM      3  C   UNL     1      56.663  18.772  50.831  1.00  0.00     0.190 C 
BRANCH   3   4
ATOM      4  O   UNL     1      56.624  17.565  50.122  1.00  0.00    -0.394 OA
ATOM      5  H   UNL     1      55.842  17.064  50.473  1.00  0.00     0.210 HD
ENDBRANCH   3   4
ENDBRANCH   2   3
BRANCH   2   6
ATOM      6  O   UNL     1      54.665  20.034  50.453  1.00  0.00    -0.388 OA
ATOM      7  H   UNL     1      54.000  19.534  49.911  1.00  0.00     0.211 HD
ENDBRANCH   2   6
ENDBRANCH   1   2
BRANCH   1   8
ATOM      8  C   UNL     1      53.908  19.878  53.411  1.00  0.00     0.214 C 
BRANCH   8   9
ATOM      9  C   UNL     1      53.721  21.286  53.950  1.00  0.00     0.189 C 
ATOM     10  O   UNL     1      54.225  21.576  55.026  1.00  0.00    -0.294 OA
BRANCH   9  11
ATOM     11  C   UNL     1      52.939  22.331  53.191  1.00  0.00     0.234 C 
BRANCH  11  12
ATOM     12  O   UNL     1      53.324  22.376  51.842  1.00  0.00    -0.388 OA
ATOM     13  H   UNL     1      52.595  22.844  51.356  1.00  0.00     0.211 HD
ENDBRANCH  11  12
ENDBRANCH   9  11
ENDBRANCH   8   9
BRANCH   8  14
ATOM     14  O   UNL     1      52.875  19.513  52.528  1.00  0.00    -0.382 OA
ATOM     15  H   UNL     1      52.036  19.942  52.835  1.00  0.00     0.211 HD
ENDBRANCH   8  14
ENDBRANCH   1   8
BRANCH   1  16
ATOM     16  O   UNL     1      56.068  20.887  52.845  1.00  0.00    -0.387 OA
ATOM     17  H   UNL     1      56.795  20.834  52.172  1.00  0.00     0.211 HD
ENDBRANCH   1  16
TORSDOF 10
ENDMDL
MODEL 6
REMARK VINA RESULT:    -3.329     21.546     22.642
REMARK INTER + INTRA:          -6.022
REMARK INTER:                  -4.775
REMARK INTRA:                  -1.247
REMARK UNBOUND:                -1.232
REMARK SMILES O=C(CO)[C@@H](O)[C@H](O)[C@@H](O)CO
REMARK SMILES IDX 7 1 9 2 11 3 12 4 10 6 5 8 2 9 1 10 3 11 4 12 6 14 8 16
REMARK H PARENT 12 5 10 7 4 13 6 15 8 17
REMARK Flexibility Score: inf
ROOT
ATOM      1  C   UNL     1      57.677  18.002  51.534  1.00  0.00     0.181 C 
ENDROOT
BRANCH   1   2
ATOM      2  C   UNL     1      58.087  17.082  50.354  1.00  0.00     0.171 C 
BRANCH   2   3
ATOM      3  C   UNL     1      59.255  17.687  49.565  1.00  0.00     0.190 C 
BRANCH   3   4
ATOM      4  O   UNL     1      58.818  18.824  48.874  1.00  0.00    -0.394 OA
ATOM      5  H   UNL     1      58.683  19.529  49.560  1.00  0.00     0.210 HD
ENDBRANCH   3   4
ENDBRANCH   2   3
BRANCH   2   6
ATOM      6  O   UNL     1      57.005  16.875  49.480  1.00  0.00    -0.388 OA
ATOM      7  H   UNL     1      57.330  16.309  48.733  1.00  0.00     0.211 HD
ENDBRANCH   2   6
ENDBRANCH   1   2
BRANCH   1   8
ATOM      8  C   UNL     1      56.275  18.641  51.341  1.00  0.00     0.214 C 
BRANCH   8   9
ATOM      9  C   UNL     1      55.700  19.122  52.663  1.00  0.00     0.189 C 
ATOM     10  O   UNL     1      56.322  18.897  53.692  1.00  0.00    -0.294 OA
BRANCH   9  11
ATOM     11  C   UNL     1      54.391  19.871  52.736  1.00  0.00     0.234 C 
BRANCH  11  12
ATOM     12  O   UNL     1      53.580  19.589  51.626  1.00  0.00    -0.388 OA
ATOM     13  H   UNL     1      53.128  20.439  51.384  1.00  0.00     0.211 HD
ENDBRANCH  11  12
ENDBRANCH   9  11
ENDBRANCH   8   9
BRANCH   8  14
ATOM     14  O   UNL     1      56.281  19.660  50.371  1.00  0.00    -0.382 OA
ATOM     15  H   UNL     1      56.458  19.248  49.486  1.00  0.00     0.211 HD
ENDBRANCH   8  14
ENDBRANCH   1   8
BRANCH   1  16
ATOM     16  O   UNL     1      58.655  18.977  51.816  1.00  0.00    -0.387 OA
ATOM     17  H   UNL     1      59.493  18.722  51.353  1.00  0.00     0.211 HD
ENDBRANCH   1  16
TORSDOF 10
ENDMDL
MODEL 7
REMARK VINA RESULT:    -3.327      1.124      4.563
REMARK INTER + INTRA:          -6.019
REMARK INTER:                  -5.194
REMARK INTRA:                  -0.824
REMARK UNBOUND:                -1.232
REMARK SMILES O=C(CO)[C@@H](O)[C@H](O)[C@@H](O)CO
REMARK SMILES IDX 7 1 9 2 11 3 12 4 10 6 5 8 2 9 1 10 3 11 4 12 6 14 8 16
REMARK H PARENT 12 5 10 7 4 13 6 15 8 17
REMARK Flexibility Score: inf
ROOT
ATOM      1  C   UNL     1      70.020  33.766  59.511  1.00  0.00     0.181 C 
ENDROOT
BRANCH   1   2
ATOM      2  C   UNL     1      71.141  32.779  59.933  1.00  0.00     0.171 C 
BRANCH   2   3
ATOM      3  C   UNL     1      70.548  31.482  60.496  1.00  0.00     0.190 C 
BRANCH   3   4
ATOM      4  O   UNL     1      71.236  31.115  61.659  1.00  0.00    -0.394 OA
ATOM      5  H   UNL     1      72.068  31.656  61.669  1.00  0.00     0.210 HD
ENDBRANCH   3   4
ENDBRANCH   2   3
BRANCH   2   6
ATOM      6  O   UNL     1      71.979  33.357  60.903  1.00  0.00    -0.388 OA
ATOM      7  H   UNL     1      71.643  33.071  61.793  1.00  0.00     0.211 HD
ENDBRANCH   2   6
ENDBRANCH   1   2
BRANCH   1   8
ATOM      8  C   UNL     1      70.251  34.374  58.101  1.00  0.00     0.214 C 
BRANCH   8   9
ATOM      9  C   UNL     1      69.608  35.745  57.978  1.00  0.00     0.189 C 
ATOM     10  O   UNL     1      68.387  35.822  57.959  1.00  0.00    -0.294 OA
BRANCH   9  11
ATOM     11  C   UNL     1      70.432  37.006  57.885  1.00  0.00     0.234 C 
BRANCH  11  12
ATOM     12  O   UNL     1      71.306  37.124  58.976  1.00  0.00    -0.388 OA
ATOM     13  H   UNL     1      71.265  36.263  59.467  1.00  0.00     0.211 HD
ENDBRANCH  11  12
ENDBRANCH   9  11
ENDBRANCH   8   9
BRANCH   8  14
ATOM     14  O   UNL     1      71.613  34.401  57.748  1.00  0.00    -0.382 OA
ATOM     15  H   UNL     1      71.682  34.630  56.786  1.00  0.00     0.211 HD
ENDBRANCH   8  14
ENDBRANCH   1   8
BRANCH   1  16
ATOM     16  O   UNL     1      69.800  34.768  60.477  1.00  0.00    -0.387 OA
ATOM     17  H   UNL     1      69.601  35.618  60.006  1.00  0.00     0.211 HD
ENDBRANCH   1  16
TORSDOF 10
ENDMDL
MODEL 8
REMARK VINA RESULT:    -3.321     21.381     22.487
REMARK INTER + INTRA:          -6.009
REMARK INTER:                  -4.914
REMARK INTRA:                  -1.095
REMARK UNBOUND:                -1.232
REMARK SMILES O=C(CO)[C@@H](O)[C@H](O)[C@@H](O)CO
REMARK SMILES IDX 7 1 9 2 11 3 12 4 10 6 5 8 2 9 1 10 3 11 4 12 6 14 8 16
REMARK H PARENT 12 5 10 7 4 13 6 15 8 17
REMARK Flexibility Score: inf
ROOT
ATOM      1  C   UNL     1      57.651  18.972  51.451  1.00  0.00     0.181 C 
ENDROOT
BRANCH   1   2
ATOM      2  C   UNL     1      56.263  19.010  50.757  1.00  0.00     0.171 C 
BRANCH   2   3
ATOM      3  C   UNL     1      55.200  19.604  51.688  1.00  0.00     0.190 C 
BRANCH   3   4
ATOM      4  O   UNL     1      54.985  18.741  52.769  1.00  0.00    -0.394 OA
ATOM      5  H   UNL     1      54.038  18.450  52.706  1.00  0.00     0.210 HD
ENDBRANCH   3   4
ENDBRANCH   2   3
BRANCH   2   6
ATOM      6  O   UNL     1      55.862  17.720  50.369  1.00  0.00    -0.388 OA
ATOM      7  H   UNL     1      56.367  17.072  50.926  1.00  0.00     0.211 HD
ENDBRANCH   2   6
ENDBRANCH   1   2
BRANCH   1   8
ATOM      8  C   UNL     1      58.831  19.018  50.442  1.00  0.00     0.214 C 
BRANCH   8   9
ATOM      9  C   UNL     1      59.386  17.629  50.177  1.00  0.00     0.189 C 
ATOM     10  O   UNL     1      60.029  17.074  51.057  1.00  0.00    -0.294 OA
BRANCH   9  11
ATOM     11  C   UNL     1      59.159  16.919  48.864  1.00  0.00     0.234 C 
BRANCH  11  12
ATOM     12  O   UNL     1      57.865  17.154  48.375  1.00  0.00    -0.388 OA
ATOM     13  H   UNL     1      57.856  18.086  48.033  1.00  0.00     0.211 HD
ENDBRANCH  11  12
ENDBRANCH   9  11
ENDBRANCH   8   9
BRANCH   8  14
ATOM     14  O   UNL     1      58.489  19.683  49.250  1.00  0.00    -0.382 OA
ATOM     15  H   UNL     1      58.365  20.645  49.454  1.00  0.00     0.211 HD
ENDBRANCH   8  14
ENDBRANCH   1   8
BRANCH   1  16
ATOM     16  O   UNL     1      57.773  17.885  52.340  1.00  0.00    -0.387 OA
ATOM     17  H   UNL     1      57.293  18.111  53.178  1.00  0.00     0.211 HD
ENDBRANCH   1  16
TORSDOF 10
ENDMDL
MODEL 9
REMARK VINA RESULT:    -0.940      1.879      2.955
REMARK INTER + INTRA:          -2.584
REMARK INTER:                  -1.555
REMARK INTRA:                  -1.030
REMARK UNBOUND:                -1.232
REMARK SMILES O=C(CO)[C@@H](O)[C@H](O)[C@@H](O)CO
REMARK SMILES IDX 7 1 9 2 11 3 12 4 10 6 5 8 2 9 1 10 3 11 4 12 6 14 8 16
REMARK H PARENT 12 5 10 7 4 13 6 15 8 17
REMARK Flexibility Score: inf
ROOT
ATOM      1  C   UNL     1      71.667  32.416  59.992  1.00  0.00     0.181 C 
ENDROOT
BRANCH   1   2
ATOM      2  C   UNL     1      70.633  32.969  58.974  1.00  0.00     0.171 C 
BRANCH   2   3
ATOM      3  C   UNL     1      70.453  34.483  59.141  1.00  0.00     0.190 C 
BRANCH   3   4
ATOM      4  O   UNL     1      69.716  34.744  60.303  1.00  0.00    -0.394 OA
ATOM      5  H   UNL     1      69.014  34.044  60.347  1.00  0.00     0.210 HD
ENDBRANCH   3   4
ENDBRANCH   2   3
BRANCH   2   6
ATOM      6  O   UNL     1      69.386  32.340  59.137  1.00  0.00    -0.388 OA
ATOM      7  H   UNL     1      69.357  31.572  58.509  1.00  0.00     0.211 HD
ENDBRANCH   2   6
ENDBRANCH   1   2
BRANCH   1   8
ATOM      8  C   UNL     1      71.269  31.028  60.562  1.00  0.00     0.214 C 
BRANCH   8   9
ATOM      9  C   UNL     1      72.494  30.218  60.950  1.00  0.00     0.189 C 
ATOM     10  O   UNL     1      73.125  29.647  60.071  1.00  0.00    -0.294 OA
BRANCH   9  11
ATOM     11  C   UNL     1      72.953  30.106  62.384  1.00  0.00     0.234 C 
BRANCH  11  12
ATOM     12  O   UNL     1      72.907  31.349  63.032  1.00  0.00    -0.388 OA
ATOM     13  H   UNL     1      73.573  31.310  63.767  1.00  0.00     0.211 HD
ENDBRANCH  11  12
ENDBRANCH   9  11
ENDBRANCH   8   9
BRANCH   8  14
ATOM     14  O   UNL     1      70.350  31.130  61.623  1.00  0.00    -0.382 OA
ATOM     15  H   UNL     1      69.730  30.358  61.574  1.00  0.00     0.211 HD
ENDBRANCH   8  14
ENDBRANCH   1   8
BRANCH   1  16
ATOM     16  O   UNL     1      71.947  33.337  61.021  1.00  0.00    -0.387 OA
ATOM     17  H   UNL     1      71.439  33.067  61.829  1.00  0.00     0.211 HD
ENDBRANCH   1  16
TORSDOF 10
ENDMDL
