MODEL 1
REMARK VINA RESULT:    -3.437      0.000      0.000
REMARK INTER + INTRA:          -4.174
REMARK INTER:                  -4.040
REMARK INTRA:                  -0.133
REMARK UNBOUND:                -0.133
REMARK SMILES O=C([O-])CCC(=O)[O-]
REMARK SMILES IDX 4 1 2 2 1 3 3 4 5 5 6 6 7 7 8 8
REMARK H PARENT
REMARK Flexibility Score: inf
ROOT
ATOM      1  C   UNL     1      15.276  11.002   0.029  1.00  0.00     0.059 C 
ENDROOT
BRANCH   1   2
ATOM      2  C   UNL     1      15.386  11.846  -1.204  1.00  0.00     0.042 C 
ATOM      3  O   UNL     1      16.187  11.524  -2.122  1.00  0.00    -0.550 OA
ATOM      4  O   UNL     1      14.635  13.009  -1.321  1.00  0.00    -0.550 OA
ENDBRANCH   1   2
BRANCH   1   5
ATOM      5  C   UNL     1      16.047  11.614   1.204  1.00  0.00     0.059 C 
BRANCH   5   6
ATOM      6  C   UNL     1      17.511  11.307   1.122  1.00  0.00     0.042 C 
ATOM      7  O   UNL     1      17.929  10.143   1.359  1.00  0.00    -0.550 OA
ATOM      8  O   UNL     1      18.409  12.298   0.745  1.00  0.00    -0.550 OA
ENDBRANCH   5   6
ENDBRANCH   1   5
TORSDOF 3
ENDMDL
MODEL 2
REMARK VINA RESULT:    -3.313      1.187      3.286
REMARK INTER + INTRA:          -4.028
REMARK INTER:                  -3.891
REMARK INTRA:                  -0.137
REMARK UNBOUND:                -0.133
REMARK SMILES O=C([O-])CCC(=O)[O-]
REMARK SMILES IDX 4 1 2 2 1 3 3 4 5 5 6 6 7 7 8 8
REMARK H PARENT
REMARK Flexibility Score: inf
ROOT
ATOM      1  C   UNL     1      15.631  11.224   0.502  1.00  0.00     0.059 C 
ENDROOT
BRANCH   1   2
ATOM      2  C   UNL     1      16.913  11.452   1.243  1.00  0.00     0.042 C 
ATOM      3  O   UNL     1      17.623  10.473   1.595  1.00  0.00    -0.550 OA
ATOM      4  O   UNL     1      17.303  12.743   1.580  1.00  0.00    -0.550 OA
ENDBRANCH   1   2
BRANCH   1   5
ATOM      5  C   UNL     1      15.386  12.309  -0.553  1.00  0.00     0.059 C 
BRANCH   5   6
ATOM      6  C   UNL     1      16.232  12.094  -1.771  1.00  0.00     0.042 C 
ATOM      7  O   UNL     1      15.850  11.307  -2.677  1.00  0.00    -0.550 OA
ATOM      8  O   UNL     1      17.422  12.794  -1.922  1.00  0.00    -0.550 OA
ENDBRANCH   5   6
ENDBRANCH   1   5
TORSDOF 3
ENDMDL
MODEL 3
REMARK VINA RESULT:    -3.091     10.011     10.894
REMARK INTER + INTRA:          -3.766
REMARK INTER:                  -3.660
REMARK INTRA:                  -0.107
REMARK UNBOUND:                -0.133
REMARK SMILES O=C([O-])CCC(=O)[O-]
REMARK SMILES IDX 4 1 2 2 1 3 3 4 5 5 6 6 7 7 8 8
REMARK H PARENT
REMARK Flexibility Score: inf
ROOT
ATOM      1  C   UNL     1       6.010   8.082   1.176  1.00  0.00     0.059 C 
ENDROOT
BRANCH   1   2
ATOM      2  C   UNL     1       7.381   8.100   0.571  1.00  0.00     0.042 C 
ATOM      3  O   UNL     1       7.735   7.186  -0.220  1.00  0.00    -0.550 OA
ATOM      4  O   UNL     1       8.280   9.103   0.912  1.00  0.00    -0.550 OA
ENDBRANCH   1   2
BRANCH   1   5
ATOM      5  C   UNL     1       5.789   6.833   2.036  1.00  0.00     0.059 C 
BRANCH   5   6
ATOM      6  C   UNL     1       6.089   7.097   3.480  1.00  0.00     0.042 C 
ATOM      7  O   UNL     1       6.449   6.156   4.235  1.00  0.00    -0.550 OA
ATOM      8  O   UNL     1       6.011   8.390   3.981  1.00  0.00    -0.550 OA
ENDBRANCH   5   6
ENDBRANCH   1   5
TORSDOF 3
ENDMDL
MODEL 4
REMARK VINA RESULT:    -3.083     10.030     10.965
REMARK INTER + INTRA:          -3.757
REMARK INTER:                  -3.653
REMARK INTRA:                  -0.104
REMARK UNBOUND:                -0.133
REMARK SMILES O=C([O-])CCC(=O)[O-]
REMARK SMILES IDX 4 1 2 2 1 3 3 4 5 5 6 6 7 7 8 8
REMARK H PARENT
REMARK Flexibility Score: inf
ROOT
ATOM      1  C   UNL     1       6.019   8.099   1.112  1.00  0.00     0.059 C 
ENDROOT
BRANCH   1   2
ATOM      2  C   UNL     1       7.393   8.060   0.514  1.00  0.00     0.042 C 
ATOM      3  O   UNL     1       7.729   7.108  -0.239  1.00  0.00    -0.550 OA
ATOM      4  O   UNL     1       8.314   9.053   0.822  1.00  0.00    -0.550 OA
ENDBRANCH   1   2
BRANCH   1   5
ATOM      5  C   UNL     1       5.739   6.857   1.965  1.00  0.00     0.059 C 
BRANCH   5   6
ATOM      6  C   UNL     1       6.074   7.091   3.407  1.00  0.00     0.042 C 
ATOM      7  O   UNL     1       5.991   8.249   3.897  1.00  0.00    -0.550 OA
ATOM      8  O   UNL     1       6.439   6.025   4.218  1.00  0.00    -0.550 OA
ENDBRANCH   5   6
ENDBRANCH   1   5
TORSDOF 3
ENDMDL
MODEL 5
REMARK VINA RESULT:    -3.083      9.986     11.107
REMARK INTER + INTRA:          -3.757
REMARK INTER:                  -3.665
REMARK INTRA:                  -0.092
REMARK UNBOUND:                -0.133
REMARK SMILES O=C([O-])CCC(=O)[O-]
REMARK SMILES IDX 4 1 2 2 1 3 3 4 5 5 6 6 7 7 8 8
REMARK H PARENT
REMARK Flexibility Score: inf
ROOT
ATOM      1  C   UNL     1       5.775   6.943   1.994  1.00  0.00     0.059 C 
ENDROOT
BRANCH   1   2
ATOM      2  C   UNL     1       6.072   7.127   3.451  1.00  0.00     0.042 C 
ATOM      3  O   UNL     1       6.023   8.275   3.967  1.00  0.00    -0.550 OA
ATOM      4  O   UNL     1       6.442   6.037   4.229  1.00  0.00    -0.550 OA
ENDBRANCH   1   2
BRANCH   1   5
ATOM      5  C   UNL     1       6.093   8.208   1.189  1.00  0.00     0.059 C 
BRANCH   5   6
ATOM      6  C   UNL     1       7.449   8.132   0.556  1.00  0.00     0.042 C 
ATOM      7  O   UNL     1       7.718   7.209  -0.258  1.00  0.00    -0.550 OA
ATOM      8  O   UNL     1       8.401   9.104   0.833  1.00  0.00    -0.550 OA
ENDBRANCH   5   6
ENDBRANCH   1   5
TORSDOF 3
ENDMDL
MODEL 6
REMARK VINA RESULT:    -3.077     10.602     11.816
REMARK INTER + INTRA:          -3.751
REMARK INTER:                  -3.709
REMARK INTRA:                  -0.041
REMARK UNBOUND:                -0.133
REMARK SMILES O=C([O-])CCC(=O)[O-]
REMARK SMILES IDX 4 1 2 2 1 3 3 4 5 5 6 6 7 7 8 8
REMARK H PARENT
REMARK Flexibility Score: inf
ROOT
ATOM      1  C   UNL     1       6.428   7.878   2.157  1.00  0.00     0.059 C 
ENDROOT
BRANCH   1   2
ATOM      2  C   UNL     1       5.829   7.385   3.439  1.00  0.00     0.042 C 
ATOM      3  O   UNL     1       4.881   8.016   3.978  1.00  0.00    -0.550 OA
ATOM      4  O   UNL     1       6.345   6.254   4.060  1.00  0.00    -0.550 OA
ENDBRANCH   1   2
BRANCH   1   5
ATOM      5  C   UNL     1       5.692   7.314   0.936  1.00  0.00     0.059 C 
BRANCH   5   6
ATOM      6  C   UNL     1       6.649   6.812  -0.101  1.00  0.00     0.042 C 
ATOM      7  O   UNL     1       7.823   7.266  -0.154  1.00  0.00    -0.550 OA
ATOM      8  O   UNL     1       6.256   5.814  -0.983  1.00  0.00    -0.550 OA
ENDBRANCH   5   6
ENDBRANCH   1   5
TORSDOF 3
ENDMDL
MODEL 7
REMARK VINA RESULT:    -3.064     10.026     11.143
REMARK INTER + INTRA:          -3.735
REMARK INTER:                  -3.607
REMARK INTRA:                  -0.127
REMARK UNBOUND:                -0.133
REMARK SMILES O=C([O-])CCC(=O)[O-]
REMARK SMILES IDX 4 1 2 2 1 3 3 4 5 5 6 6 7 7 8 8
REMARK H PARENT
REMARK Flexibility Score: inf
ROOT
ATOM      1  C   UNL     1       5.579   7.067   1.982  1.00  0.00     0.059 C 
ENDROOT
BRANCH   1   2
ATOM      2  C   UNL     1       6.039   7.184   3.404  1.00  0.00     0.042 C 
ATOM      3  O   UNL     1       6.361   6.152   4.052  1.00  0.00    -0.550 OA
ATOM      4  O   UNL     1       6.071   8.426   4.026  1.00  0.00    -0.550 OA
ENDBRANCH   1   2
BRANCH   1   5
ATOM      5  C   UNL     1       5.986   8.291   1.155  1.00  0.00     0.059 C 
BRANCH   5   6
ATOM      6  C   UNL     1       7.374   8.151   0.609  1.00  0.00     0.042 C 
ATOM      7  O   UNL     1       8.271   8.971   0.941  1.00  0.00    -0.550 OA
ATOM      8  O   UNL     1       7.686   7.092  -0.234  1.00  0.00    -0.550 OA
ENDBRANCH   5   6
ENDBRANCH   1   5
TORSDOF 3
ENDMDL
MODEL 8
REMARK VINA RESULT:    -2.994     17.344     17.768
REMARK INTER + INTRA:          -3.652
REMARK INTER:                  -3.591
REMARK INTRA:                  -0.061
REMARK UNBOUND:                -0.133
REMARK SMILES O=C([O-])CCC(=O)[O-]
REMARK SMILES IDX 4 1 2 2 1 3 3 4 5 5 6 6 7 7 8 8
REMARK H PARENT
REMARK Flexibility Score: inf
ROOT
ATOM      1  C   UNL     1      12.570  -6.261   1.496  1.00  0.00     0.059 C 
ENDROOT
BRANCH   1   2
ATOM      2  C   UNL     1      12.839  -6.008   0.043  1.00  0.00     0.042 C 
ATOM      3  O   UNL     1      13.672  -6.719  -0.579  1.00  0.00    -0.550 OA
ATOM      4  O   UNL     1      12.202  -4.961  -0.611  1.00  0.00    -0.550 OA
ENDBRANCH   1   2
BRANCH   1   5
ATOM      5  C   UNL     1      13.840  -6.685   2.241  1.00  0.00     0.059 C 
BRANCH   5   6
ATOM      6  C   UNL     1      14.324  -5.608   3.163  1.00  0.00     0.042 C 
ATOM      7  O   UNL     1      15.546  -5.304   3.198  1.00  0.00    -0.550 OA
ATOM      8  O   UNL     1      13.419  -4.913   3.955  1.00  0.00    -0.550 OA
ENDBRANCH   5   6
ENDBRANCH   1   5
TORSDOF 3
ENDMDL
MODEL 9
REMARK VINA RESULT:    -2.993     17.370     18.121
REMARK INTER + INTRA:          -3.651
REMARK INTER:                  -3.582
REMARK INTRA:                  -0.070
REMARK UNBOUND:                -0.133
REMARK SMILES O=C([O-])CCC(=O)[O-]
REMARK SMILES IDX 4 1 2 2 1 3 3 4 5 5 6 6 7 7 8 8
REMARK H PARENT
REMARK Flexibility Score: inf
ROOT
ATOM      1  C   UNL     1      13.778  -6.760   2.300  1.00  0.00     0.059 C 
ENDROOT
BRANCH   1   2
ATOM      2  C   UNL     1      14.277  -5.653   3.178  1.00  0.00     0.042 C 
ATOM      3  O   UNL     1      13.476  -5.023   3.919  1.00  0.00    -0.550 OA
ATOM      4  O   UNL     1      15.618  -5.291   3.148  1.00  0.00    -0.550 OA
ENDBRANCH   1   2
BRANCH   1   5
ATOM      5  C   UNL     1      12.546  -6.331   1.496  1.00  0.00     0.059 C 
BRANCH   5   6
ATOM      6  C   UNL     1      12.892  -6.044   0.067  1.00  0.00     0.042 C 
ATOM      7  O   UNL     1      13.729  -6.764  -0.540  1.00  0.00    -0.550 OA
ATOM      8  O   UNL     1      12.261  -5.007  -0.606  1.00  0.00    -0.550 OA
ENDBRANCH   5   6
ENDBRANCH   1   5
TORSDOF 3
ENDMDL
