MODEL 1
REMARK VINA RESULT:    -4.295      0.000      0.000
REMARK INTER + INTRA:          -7.231
REMARK INTER:                  -6.554
REMARK INTRA:                  -0.677
REMARK UNBOUND:                -0.677
REMARK SMILES O=C([O-])CCCCCCCCC(=O)[O-]
REMARK SMILES IDX 7 1 6 2 5 3 4 4 2 5 1 6 3 7 8 8 9 9 10 10 11 11 12 12 13 13
REMARK SMILES IDX 14 14
REMARK H PARENT
REMARK Flexibility Score: inf
ROOT
ATOM      1  C   UNL     1      31.351   6.245  47.257  1.00  0.00     0.000 C 
ENDROOT
BRANCH   1   2
ATOM      2  C   UNL     1      32.296   5.207  47.883  1.00  0.00     0.000 C 
BRANCH   2   3
ATOM      3  C   UNL     1      33.748   5.706  47.985  1.00  0.00     0.006 C 
BRANCH   3   4
ATOM      4  C   UNL     1      34.782   4.784  47.321  1.00  0.00     0.053 C 
BRANCH   4   5
ATOM      5  C   UNL     1      34.805   4.945  45.831  1.00  0.00     0.041 C 
ATOM      6  O   UNL     1      35.218   4.007  45.099  1.00  0.00    -0.550 OA
ATOM      7  O   UNL     1      34.339   6.117  45.251  1.00  0.00    -0.550 OA
ENDBRANCH   4   5
ENDBRANCH   3   4
ENDBRANCH   2   3
ENDBRANCH   1   2
BRANCH   1   8
ATOM      8  C   UNL     1      30.161   6.531  48.183  1.00  0.00     0.000 C 
BRANCH   8   9
ATOM      9  C   UNL     1      30.155   7.972  48.725  1.00  0.00     0.000 C 
BRANCH   9  10
ATOM     10  C   UNL     1      31.547   8.557  49.038  1.00  0.00     0.006 C 
BRANCH  10  11
ATOM     11  C   UNL     1      31.844   9.900  48.354  1.00  0.00     0.053 C 
BRANCH  11  12
ATOM     12  C   UNL     1      33.233   9.952  47.798  1.00  0.00     0.041 C 
ATOM     13  O   UNL     1      34.037  10.841  48.183  1.00  0.00    -0.550 OA
ATOM     14  O   UNL     1      33.652   8.997  46.880  1.00  0.00    -0.550 OA
ENDBRANCH  11  12
ENDBRANCH  10  11
ENDBRANCH   9  10
ENDBRANCH   8   9
ENDBRANCH   1   8
TORSDOF 9
ENDMDL
MODEL 2
REMARK VINA RESULT:    -4.075      1.883      4.450
REMARK INTER + INTRA:          -6.896
REMARK INTER:                  -6.219
REMARK INTRA:                  -0.677
REMARK UNBOUND:                -0.677
REMARK SMILES O=C([O-])CCCCCCCCC(=O)[O-]
REMARK SMILES IDX 7 1 6 2 5 3 4 4 2 5 1 6 3 7 8 8 9 9 10 10 11 11 12 12 13 13
REMARK SMILES IDX 14 14
REMARK H PARENT
REMARK Flexibility Score: inf
ROOT
ATOM      1  C   UNL     1      32.303   8.908  48.769  1.00  0.00     0.000 C 
ENDROOT
BRANCH   1   2
ATOM      2  C   UNL     1      32.793   9.824  47.636  1.00  0.00     0.000 C 
BRANCH   2   3
ATOM      3  C   UNL     1      34.003   9.244  46.881  1.00  0.00     0.006 C 
BRANCH   3   4
ATOM      4  C   UNL     1      34.707  10.243  45.951  1.00  0.00     0.053 C 
BRANCH   4   5
ATOM      5  C   UNL     1      34.429   9.958  44.506  1.00  0.00     0.041 C 
ATOM      6  O   UNL     1      33.664  10.711  43.848  1.00  0.00    -0.550 OA
ATOM      7  O   UNL     1      35.043   8.881  43.879  1.00  0.00    -0.550 OA
ENDBRANCH   4   5
ENDBRANCH   3   4
ENDBRANCH   2   3
ENDBRANCH   1   2
BRANCH   1   8
ATOM      8  C   UNL     1      30.994   8.206  48.379  1.00  0.00     0.000 C 
BRANCH   8   9
ATOM      9  C   UNL     1      31.142   6.678  48.271  1.00  0.00     0.000 C 
BRANCH   9  10
ATOM     10  C   UNL     1      32.043   6.188  47.120  1.00  0.00     0.006 C 
BRANCH  10  11
ATOM     11  C   UNL     1      33.344   5.509  47.572  1.00  0.00     0.053 C 
BRANCH  11  12
ATOM     12  C   UNL     1      34.354   5.440  46.470  1.00  0.00     0.041 C 
ATOM     13  O   UNL     1      35.418   4.783  46.625  1.00  0.00    -0.550 OA
ATOM     14  O   UNL     1      34.106   6.070  45.256  1.00  0.00    -0.550 OA
ENDBRANCH  11  12
ENDBRANCH  10  11
ENDBRANCH   9  10
ENDBRANCH   8   9
ENDBRANCH   1   8
TORSDOF 9
ENDMDL
MODEL 3
REMARK VINA RESULT:    -4.060      1.573      2.433
REMARK INTER + INTRA:          -6.874
REMARK INTER:                  -6.186
REMARK INTRA:                  -0.688
REMARK UNBOUND:                -0.677
REMARK SMILES O=C([O-])CCCCCCCCC(=O)[O-]
REMARK SMILES IDX 7 1 6 2 5 3 4 4 2 5 1 6 3 7 8 8 9 9 10 10 11 11 12 12 13 13
REMARK SMILES IDX 14 14
REMARK H PARENT
REMARK Flexibility Score: inf
ROOT
ATOM      1  C   UNL     1      30.596   7.811  48.390  1.00  0.00     0.000 C 
ENDROOT
BRANCH   1   2
ATOM      2  C   UNL     1      30.950   6.359  48.031  1.00  0.00     0.000 C 
BRANCH   2   3
ATOM      3  C   UNL     1      32.113   6.259  47.028  1.00  0.00     0.006 C 
BRANCH   3   4
ATOM      4  C   UNL     1      33.331   5.480  47.547  1.00  0.00     0.053 C 
BRANCH   4   5
ATOM      5  C   UNL     1      34.391   5.328  46.499  1.00  0.00     0.041 C 
ATOM      6  O   UNL     1      34.263   5.896  45.382  1.00  0.00    -0.550 OA
ATOM      7  O   UNL     1      35.535   4.587  46.768  1.00  0.00    -0.550 OA
ENDBRANCH   4   5
ENDBRANCH   3   4
ENDBRANCH   2   3
ENDBRANCH   1   2
BRANCH   1   8
ATOM      8  C   UNL     1      31.835   8.569  48.889  1.00  0.00     0.000 C 
BRANCH   8   9
ATOM      9  C   UNL     1      32.122   9.848  48.082  1.00  0.00     0.000 C 
BRANCH   9  10
ATOM     10  C   UNL     1      33.588  10.026  47.641  1.00  0.00     0.006 C 
BRANCH  10  11
ATOM     11  C   UNL     1      33.992   9.190  46.417  1.00  0.00     0.053 C 
BRANCH  11  12
ATOM     12  C   UNL     1      34.752   9.998  45.411  1.00  0.00     0.041 C 
ATOM     13  O   UNL     1      35.140  11.162  45.696  1.00  0.00    -0.550 OA
ATOM     14  O   UNL     1      35.065   9.454  44.172  1.00  0.00    -0.550 OA
ENDBRANCH  11  12
ENDBRANCH  10  11
ENDBRANCH   9  10
ENDBRANCH   8   9
ENDBRANCH   1   8
TORSDOF 9
ENDMDL
MODEL 4
REMARK VINA RESULT:    -4.006      0.739      4.566
REMARK INTER + INTRA:          -6.790
REMARK INTER:                  -6.122
REMARK INTRA:                  -0.668
REMARK UNBOUND:                -0.677
REMARK SMILES O=C([O-])CCCCCCCCC(=O)[O-]
REMARK SMILES IDX 7 1 6 2 5 3 4 4 2 5 1 6 3 7 8 8 9 9 10 10 11 11 12 12 13 13
REMARK SMILES IDX 14 14
REMARK H PARENT
REMARK Flexibility Score: inf
ROOT
ATOM      1  C   UNL     1      30.137   8.016  48.891  1.00  0.00     0.000 C 
ENDROOT
BRANCH   1   2
ATOM      2  C   UNL     1      31.561   8.554  49.106  1.00  0.00     0.000 C 
BRANCH   2   3
ATOM      3  C   UNL     1      31.829   9.858  48.334  1.00  0.00     0.006 C 
BRANCH   3   4
ATOM      4  C   UNL     1      33.212  10.476  48.596  1.00  0.00     0.053 C 
BRANCH   4   5
ATOM      5  C   UNL     1      34.152  10.257  47.449  1.00  0.00     0.041 C 
ATOM      6  O   UNL     1      35.142  11.017  47.289  1.00  0.00    -0.550 OA
ATOM      7  O   UNL     1      33.952   9.192  46.579  1.00  0.00    -0.550 OA
ENDBRANCH   4   5
ENDBRANCH   3   4
ENDBRANCH   2   3
ENDBRANCH   1   2
BRANCH   1   8
ATOM      8  C   UNL     1      30.167   6.546  48.451  1.00  0.00     0.000 C 
BRANCH   8   9
ATOM      9  C   UNL     1      31.200   6.272  47.343  1.00  0.00     0.000 C 
BRANCH   9  10
ATOM     10  C   UNL     1      32.299   5.255  47.711  1.00  0.00     0.006 C 
BRANCH  10  11
ATOM     11  C   UNL     1      33.729   5.814  47.658  1.00  0.00     0.053 C 
BRANCH  11  12
ATOM     12  C   UNL     1      34.411   5.491  46.365  1.00  0.00     0.041 C 
ATOM     13  O   UNL     1      34.101   6.113  45.314  1.00  0.00    -0.550 OA
ATOM     14  O   UNL     1      35.412   4.530  46.325  1.00  0.00    -0.550 OA
ENDBRANCH  11  12
ENDBRANCH  10  11
ENDBRANCH   9  10
ENDBRANCH   8   9
ENDBRANCH   1   8
TORSDOF 9
ENDMDL
MODEL 5
REMARK VINA RESULT:    -3.970     17.516     18.341
REMARK INTER + INTRA:          -6.735
REMARK INTER:                  -6.132
REMARK INTRA:                  -0.603
REMARK UNBOUND:                -0.677
REMARK SMILES O=C([O-])CCCCCCCCC(=O)[O-]
REMARK SMILES IDX 7 1 6 2 5 3 4 4 2 5 1 6 3 7 8 8 9 9 10 10 11 11 12 12 13 13
REMARK SMILES IDX 14 14
REMARK H PARENT
REMARK Flexibility Score: inf
ROOT
ATOM      1  C   UNL     1      20.702   9.799  35.154  1.00  0.00     0.000 C 
ENDROOT
BRANCH   1   2
ATOM      2  C   UNL     1      19.981   9.018  36.264  1.00  0.00     0.000 C 
BRANCH   2   3
ATOM      3  C   UNL     1      19.583   7.595  35.831  1.00  0.00     0.006 C 
BRANCH   3   4
ATOM      4  C   UNL     1      20.662   6.852  35.029  1.00  0.00     0.053 C 
BRANCH   4   5
ATOM      5  C   UNL     1      20.222   6.567  33.625  1.00  0.00     0.041 C 
ATOM      6  O   UNL     1      19.186   7.111  33.163  1.00  0.00    -0.550 OA
ATOM      7  O   UNL     1      20.978   5.726  32.818  1.00  0.00    -0.550 OA
ENDBRANCH   4   5
ENDBRANCH   3   4
ENDBRANCH   2   3
ENDBRANCH   1   2
BRANCH   1   8
ATOM      8  C   UNL     1      22.084  10.274  35.628  1.00  0.00     0.000 C 
BRANCH   8   9
ATOM      9  C   UNL     1      22.253  11.802  35.546  1.00  0.00     0.000 C 
BRANCH   9  10
ATOM     10  C   UNL     1      20.936  12.602  35.483  1.00  0.00     0.006 C 
BRANCH  10  11
ATOM     11  C   UNL     1      20.947  13.771  34.486  1.00  0.00     0.053 C 
BRANCH  11  12
ATOM     12  C   UNL     1      20.946  13.297  33.066  1.00  0.00     0.041 C 
ATOM     13  O   UNL     1      20.211  12.334  32.719  1.00  0.00    -0.550 OA
ATOM     14  O   UNL     1      21.731  13.939  32.116  1.00  0.00    -0.550 OA
ENDBRANCH  11  12
ENDBRANCH  10  11
ENDBRANCH   9  10
ENDBRANCH   8   9
ENDBRANCH   1   8
TORSDOF 9
ENDMDL
MODEL 6
REMARK VINA RESULT:    -3.922     17.232     18.113
REMARK INTER + INTRA:          -6.663
REMARK INTER:                  -5.850
REMARK INTRA:                  -0.813
REMARK UNBOUND:                -0.677
REMARK SMILES O=C([O-])CCCCCCCCC(=O)[O-]
REMARK SMILES IDX 7 1 6 2 5 3 4 4 2 5 1 6 3 7 8 8 9 9 10 10 11 11 12 12 13 13
REMARK SMILES IDX 14 14
REMARK H PARENT
REMARK Flexibility Score: inf
ROOT
ATOM      1  C   UNL     1      19.276   9.650  34.530  1.00  0.00     0.000 C 
ENDROOT
BRANCH   1   2
ATOM      2  C   UNL     1      20.212   8.606  33.901  1.00  0.00     0.000 C 
BRANCH   2   3
ATOM      3  C   UNL     1      19.809   7.160  34.243  1.00  0.00     0.006 C 
BRANCH   3   4
ATOM      4  C   UNL     1      20.388   6.637  35.566  1.00  0.00     0.053 C 
BRANCH   4   5
ATOM      5  C   UNL     1      19.357   6.588  36.651  1.00  0.00     0.041 C 
ATOM      6  O   UNL     1      19.271   7.525  37.487  1.00  0.00    -0.550 OA
ATOM      7  O   UNL     1      18.468   5.522  36.718  1.00  0.00    -0.550 OA
ENDBRANCH   4   5
ENDBRANCH   3   4
ENDBRANCH   2   3
ENDBRANCH   1   2
BRANCH   1   8
ATOM      8  C   UNL     1      19.961  10.364  35.704  1.00  0.00     0.000 C 
BRANCH   8   9
ATOM      9  C   UNL     1      21.492  10.203  35.692  1.00  0.00     0.000 C 
BRANCH   9  10
ATOM     10  C   UNL     1      22.278  11.462  35.272  1.00  0.00     0.006 C 
BRANCH  10  11
ATOM     11  C   UNL     1      22.020  11.922  33.829  1.00  0.00     0.053 C 
BRANCH  11  12
ATOM     12  C   UNL     1      21.343  13.256  33.778  1.00  0.00     0.041 C 
ATOM     13  O   UNL     1      20.773  13.717  34.802  1.00  0.00    -0.550 OA
ATOM     14  O   UNL     1      21.372  14.008  32.610  1.00  0.00    -0.550 OA
ENDBRANCH  11  12
ENDBRANCH  10  11
ENDBRANCH   9  10
ENDBRANCH   8   9
ENDBRANCH   1   8
TORSDOF 9
ENDMDL
MODEL 7
REMARK VINA RESULT:    -3.914     17.339     18.742
REMARK INTER + INTRA:          -6.650
REMARK INTER:                  -5.860
REMARK INTRA:                  -0.790
REMARK UNBOUND:                -0.677
REMARK SMILES O=C([O-])CCCCCCCCC(=O)[O-]
REMARK SMILES IDX 7 1 6 2 5 3 4 4 2 5 1 6 3 7 8 8 9 9 10 10 11 11 12 12 13 13
REMARK SMILES IDX 14 14
REMARK H PARENT
REMARK Flexibility Score: inf
ROOT
ATOM      1  C   UNL     1      22.066  10.178  35.440  1.00  0.00     0.000 C 
ENDROOT
BRANCH   1   2
ATOM      2  C   UNL     1      22.081  11.490  34.640  1.00  0.00     0.000 C 
BRANCH   2   3
ATOM      3  C   UNL     1      21.627  12.702  35.474  1.00  0.00     0.006 C 
BRANCH   3   4
ATOM      4  C   UNL     1      20.566  13.578  34.791  1.00  0.00     0.053 C 
BRANCH   4   5
ATOM      5  C   UNL     1      19.173  13.137  35.125  1.00  0.00     0.041 C 
ATOM      6  O   UNL     1      18.756  13.201  36.311  1.00  0.00    -0.550 OA
ATOM      7  O   UNL     1      18.326  12.689  34.120  1.00  0.00    -0.550 OA
ENDBRANCH   4   5
ENDBRANCH   3   4
ENDBRANCH   2   3
ENDBRANCH   1   2
BRANCH   1   8
ATOM      8  C   UNL     1      20.660   9.883  35.983  1.00  0.00     0.000 C 
BRANCH   8   9
ATOM      9  C   UNL     1      19.717   9.294  34.919  1.00  0.00     0.000 C 
BRANCH   9  10
ATOM     10  C   UNL     1      20.232   8.019  34.223  1.00  0.00     0.006 C 
BRANCH  10  11
ATOM     11  C   UNL     1      20.527   6.848  35.174  1.00  0.00     0.053 C 
BRANCH  11  12
ATOM     12  C   UNL     1      19.339   6.493  36.013  1.00  0.00     0.041 C 
ATOM     13  O   UNL     1      19.381   6.637  37.263  1.00  0.00    -0.550 OA
ATOM     14  O   UNL     1      18.173   6.036  35.411  1.00  0.00    -0.550 OA
ENDBRANCH  11  12
ENDBRANCH  10  11
ENDBRANCH   9  10
ENDBRANCH   8   9
ENDBRANCH   1   8
TORSDOF 9
ENDMDL
MODEL 8
REMARK VINA RESULT:    -3.912     17.380     18.254
REMARK INTER + INTRA:          -6.647
REMARK INTER:                  -5.992
REMARK INTRA:                  -0.655
REMARK UNBOUND:                -0.677
REMARK SMILES O=C([O-])CCCCCCCCC(=O)[O-]
REMARK SMILES IDX 7 1 6 2 5 3 4 4 2 5 1 6 3 7 8 8 9 9 10 10 11 11 12 12 13 13
REMARK SMILES IDX 14 14
REMARK H PARENT
REMARK Flexibility Score: inf
ROOT
ATOM      1  C   UNL     1      20.480   9.823  35.869  1.00  0.00     0.000 C 
ENDROOT
BRANCH   1   2
ATOM      2  C   UNL     1      19.662   9.319  34.670  1.00  0.00     0.000 C 
BRANCH   2   3
ATOM      3  C   UNL     1      20.212   8.007  34.081  1.00  0.00     0.006 C 
BRANCH   3   4
ATOM      4  C   UNL     1      20.544   6.934  35.128  1.00  0.00     0.053 C 
BRANCH   4   5
ATOM      5  C   UNL     1      19.317   6.421  35.818  1.00  0.00     0.041 C 
ATOM      6  O   UNL     1      18.310   6.076  35.146  1.00  0.00    -0.550 OA
ATOM      7  O   UNL     1      19.299   6.292  37.201  1.00  0.00    -0.550 OA
ENDBRANCH   4   5
ENDBRANCH   3   4
ENDBRANCH   2   3
ENDBRANCH   1   2
BRANCH   1   8
ATOM      8  C   UNL     1      21.908  10.191  35.442  1.00  0.00     0.000 C 
BRANCH   8   9
ATOM      9  C   UNL     1      22.201  11.698  35.563  1.00  0.00     0.000 C 
BRANCH   9  10
ATOM     10  C   UNL     1      21.407  12.597  34.593  1.00  0.00     0.006 C 
BRANCH  10  11
ATOM     11  C   UNL     1      20.498  13.628  35.279  1.00  0.00     0.053 C 
BRANCH  11  12
ATOM     12  C   UNL     1      19.078  13.161  35.358  1.00  0.00     0.041 C 
ATOM     13  O   UNL     1      18.448  13.229  36.447  1.00  0.00    -0.550 OA
ATOM     14  O   UNL     1      18.437  12.683  34.222  1.00  0.00    -0.550 OA
ENDBRANCH  11  12
ENDBRANCH  10  11
ENDBRANCH   9  10
ENDBRANCH   8   9
ENDBRANCH   1   8
TORSDOF 9
ENDMDL
MODEL 9
REMARK VINA RESULT:    -3.848     17.512     18.380
REMARK INTER + INTRA:          -6.549
REMARK INTER:                  -5.891
REMARK INTRA:                  -0.658
REMARK UNBOUND:                -0.677
REMARK SMILES O=C([O-])CCCCCCCCC(=O)[O-]
REMARK SMILES IDX 7 1 6 2 5 3 4 4 2 5 1 6 3 7 8 8 9 9 10 10 11 11 12 12 13 13
REMARK SMILES IDX 14 14
REMARK H PARENT
REMARK Flexibility Score: inf
ROOT
ATOM      1  C   UNL     1      22.228  10.287  35.619  1.00  0.00     0.000 C 
ENDROOT
BRANCH   1   2
ATOM      2  C   UNL     1      20.754   9.853  35.640  1.00  0.00     0.000 C 
BRANCH   2   3
ATOM      3  C   UNL     1      20.430   8.788  34.577  1.00  0.00     0.006 C 
BRANCH   3   4
ATOM      4  C   UNL     1      20.591   7.339  35.062  1.00  0.00     0.053 C 
BRANCH   4   5
ATOM      5  C   UNL     1      19.394   6.867  35.829  1.00  0.00     0.041 C 
ATOM      6  O   UNL     1      18.428   6.328  35.228  1.00  0.00    -0.550 OA
ATOM      7  O   UNL     1      19.361   6.990  37.213  1.00  0.00    -0.550 OA
ENDBRANCH   4   5
ENDBRANCH   3   4
ENDBRANCH   2   3
ENDBRANCH   1   2
BRANCH   1   8
ATOM      8  C   UNL     1      22.348  11.818  35.603  1.00  0.00     0.000 C 
BRANCH   8   9
ATOM      9  C   UNL     1      20.982  12.527  35.633  1.00  0.00     0.000 C 
BRANCH   9  10
ATOM     10  C   UNL     1      20.778  13.597  34.541  1.00  0.00     0.006 C 
BRANCH  10  11
ATOM     11  C   UNL     1      20.298  13.046  33.190  1.00  0.00     0.053 C 
BRANCH  11  12
ATOM     12  C   UNL     1      21.420  12.910  32.208  1.00  0.00     0.041 C 
ATOM     13  O   UNL     1      21.956  11.787  32.010  1.00  0.00    -0.550 OA
ATOM     14  O   UNL     1      21.853  14.015  31.486  1.00  0.00    -0.550 OA
ENDBRANCH  11  12
ENDBRANCH  10  11
ENDBRANCH   9  10
ENDBRANCH   8   9
ENDBRANCH   1   8
TORSDOF 9
ENDMDL
