MODEL 1
REMARK VINA RESULT:    -4.418      0.000      0.000
REMARK INTER + INTRA:          -6.615
REMARK INTER:                  -6.355
REMARK INTRA:                  -0.260
REMARK UNBOUND:                -0.260
REMARK SMILES CCCCCCCCCO
REMARK SMILES IDX 6 1 5 2 4 3 3 4 2 5 1 6 7 7 8 8 9 9 10 10
REMARK H PARENT 10 11
REMARK Flexibility Score: inf
ROOT
ATOM      1  C   UNL     1       6.118  22.624  21.229  1.00  0.00     0.000 C 
ENDROOT
BRANCH   1   2
ATOM      2  C   UNL     1       5.252  21.351  21.211  1.00  0.00     0.000 C 
BRANCH   2   3
ATOM      3  C   UNL     1       3.871  21.489  21.883  1.00  0.00    -0.000 C 
BRANCH   3   4
ATOM      4  C   UNL     1       2.891  20.336  21.604  1.00  0.00    -0.000 C 
BRANCH   4   5
ATOM      5  C   UNL     1       3.427  19.334  20.572  1.00  0.00    -0.003 C 
ATOM      6  C   UNL     1       2.291  18.723  19.758  1.00  0.00     0.004 C 
ENDBRANCH   4   5
ENDBRANCH   3   4
ENDBRANCH   2   3
ENDBRANCH   1   2
BRANCH   1   7
ATOM      7  C   UNL     1       5.701  23.643  20.157  1.00  0.00     0.002 C 
BRANCH   7   8
ATOM      8  C   UNL     1       6.868  24.573  19.802  1.00  0.00     0.028 C 
BRANCH   8   9
ATOM      9  C   UNL     1       7.855  24.687  20.963  1.00  0.00     0.156 C 
BRANCH   9  10
ATOM     10  O   UNL     1       9.117  24.245  20.548  1.00  0.00    -0.396 OA
ATOM     11  H   UNL     1       9.723  24.377  21.322  1.00  0.00     0.210 HD
ENDBRANCH   9  10
ENDBRANCH   8   9
ENDBRANCH   7   8
ENDBRANCH   1   7
TORSDOF 8
ENDMDL
MODEL 2
REMARK VINA RESULT:    -4.392      3.374      6.187
REMARK INTER + INTRA:          -6.578
REMARK INTER:                  -6.328
REMARK INTRA:                  -0.250
REMARK UNBOUND:                -0.260
REMARK SMILES CCCCCCCCCO
REMARK SMILES IDX 6 1 5 2 4 3 3 4 2 5 1 6 7 7 8 8 9 9 10 10
REMARK H PARENT 10 11
REMARK Flexibility Score: inf
ROOT
ATOM      1  C   UNL     1       3.098  20.242  21.896  1.00  0.00     0.000 C 
ENDROOT
BRANCH   1   2
ATOM      2  C   UNL     1       4.229  21.251  22.165  1.00  0.00     0.000 C 
BRANCH   2   3
ATOM      3  C   UNL     1       5.272  21.380  21.036  1.00  0.00    -0.000 C 
BRANCH   3   4
ATOM      4  C   UNL     1       6.103  22.675  21.061  1.00  0.00    -0.000 C 
BRANCH   4   5
ATOM      5  C   UNL     1       5.691  23.670  19.967  1.00  0.00    -0.003 C 
ATOM      6  C   UNL     1       6.742  24.761  19.792  1.00  0.00     0.004 C 
ENDBRANCH   4   5
ENDBRANCH   3   4
ENDBRANCH   2   3
ENDBRANCH   1   2
BRANCH   1   7
ATOM      7  C   UNL     1       3.341  19.395  20.638  1.00  0.00     0.002 C 
BRANCH   7   8
ATOM      8  C   UNL     1       2.037  18.751  20.151  1.00  0.00     0.028 C 
BRANCH   8   9
ATOM      9  C   UNL     1       0.824  19.594  20.543  1.00  0.00     0.156 C 
BRANCH   9  10
ATOM     10  O   UNL     1      -0.155  19.494  19.547  1.00  0.00    -0.396 OA
ATOM     11  H   UNL     1      -1.028  19.572  20.012  1.00  0.00     0.210 HD
ENDBRANCH   9  10
ENDBRANCH   8   9
ENDBRANCH   7   8
ENDBRANCH   1   7
TORSDOF 8
ENDMDL
MODEL 3
REMARK VINA RESULT:    -4.389      0.664      1.457
REMARK INTER + INTRA:          -6.573
REMARK INTER:                  -6.286
REMARK INTRA:                  -0.287
REMARK UNBOUND:                -0.260
REMARK SMILES CCCCCCCCCO
REMARK SMILES IDX 6 1 5 2 4 3 3 4 2 5 1 6 7 7 8 8 9 9 10 10
REMARK H PARENT 10 11
REMARK Flexibility Score: inf
ROOT
ATOM      1  C   UNL     1       5.417  21.392  21.250  1.00  0.00     0.000 C 
ENDROOT
BRANCH   1   2
ATOM      2  C   UNL     1       3.958  21.625  21.685  1.00  0.00     0.000 C 
BRANCH   2   3
ATOM      3  C   UNL     1       3.087  20.355  21.761  1.00  0.00    -0.000 C 
BRANCH   3   4
ATOM      4  C   UNL     1       3.424  19.269  20.725  1.00  0.00    -0.000 C 
BRANCH   4   5
ATOM      5  C   UNL     1       2.224  18.889  19.847  1.00  0.00    -0.003 C 
ATOM      6  C   UNL     1       0.936  19.510  20.379  1.00  0.00     0.004 C 
ENDBRANCH   4   5
ENDBRANCH   3   4
ENDBRANCH   2   3
ENDBRANCH   1   2
BRANCH   1   7
ATOM      7  C   UNL     1       6.247  22.684  21.232  1.00  0.00     0.002 C 
BRANCH   7   8
ATOM      8  C   UNL     1       5.799  23.607  20.092  1.00  0.00     0.028 C 
BRANCH   8   9
ATOM      9  C   UNL     1       6.810  24.730  19.861  1.00  0.00     0.156 C 
BRANCH   9  10
ATOM     10  O   UNL     1       8.107  24.234  20.040  1.00  0.00    -0.396 OA
ATOM     11  H   UNL     1       8.594  24.922  20.562  1.00  0.00     0.210 HD
ENDBRANCH   9  10
ENDBRANCH   8   9
ENDBRANCH   7   8
ENDBRANCH   1   7
TORSDOF 8
ENDMDL
MODEL 4
REMARK VINA RESULT:    -4.272      3.149      6.211
REMARK INTER + INTRA:          -6.405
REMARK INTER:                  -6.280
REMARK INTRA:                  -0.125
REMARK UNBOUND:                -0.260
REMARK SMILES CCCCCCCCCO
REMARK SMILES IDX 6 1 5 2 4 3 3 4 2 5 1 6 7 7 8 8 9 9 10 10
REMARK H PARENT 10 11
REMARK Flexibility Score: inf
ROOT
ATOM      1  C   UNL     1       4.033  20.056  20.889  1.00  0.00     0.000 C 
ENDROOT
BRANCH   1   2
ATOM      2  C   UNL     1       4.328  21.429  21.521  1.00  0.00     0.000 C 
BRANCH   2   3
ATOM      3  C   UNL     1       5.728  22.001  21.220  1.00  0.00    -0.000 C 
BRANCH   3   4
ATOM      4  C   UNL     1       5.744  23.238  20.305  1.00  0.00    -0.000 C 
BRANCH   4   5
ATOM      5  C   UNL     1       6.952  24.151  20.558  1.00  0.00    -0.003 C 
ATOM      6  C   UNL     1       7.075  25.214  19.470  1.00  0.00     0.004 C 
ENDBRANCH   4   5
ENDBRANCH   3   4
ENDBRANCH   2   3
ENDBRANCH   1   2
BRANCH   1   7
ATOM      7  C   UNL     1       2.567  19.628  21.053  1.00  0.00     0.002 C 
BRANCH   7   8
ATOM      8  C   UNL     1       2.092  18.823  19.838  1.00  0.00     0.028 C 
BRANCH   8   9
ATOM      9  C   UNL     1       3.027  17.647  19.555  1.00  0.00     0.156 C 
BRANCH   9  10
ATOM     10  O   UNL     1       2.890  17.253  18.218  1.00  0.00    -0.396 OA
ATOM     11  H   UNL     1       3.618  17.708  17.721  1.00  0.00     0.210 HD
ENDBRANCH   9  10
ENDBRANCH   8   9
ENDBRANCH   7   8
ENDBRANCH   1   7
TORSDOF 8
ENDMDL
MODEL 5
REMARK VINA RESULT:    -4.157      0.714      1.395
REMARK INTER + INTRA:          -6.240
REMARK INTER:                  -6.009
REMARK INTRA:                  -0.231
REMARK UNBOUND:                -0.260
REMARK SMILES CCCCCCCCCO
REMARK SMILES IDX 6 1 5 2 4 3 3 4 2 5 1 6 7 7 8 8 9 9 10 10
REMARK H PARENT 10 11
REMARK Flexibility Score: inf
ROOT
ATOM      1  C   UNL     1       5.208  21.339  20.997  1.00  0.00     0.000 C 
ENDROOT
BRANCH   1   2
ATOM      2  C   UNL     1       4.172  21.214  22.129  1.00  0.00     0.000 C 
BRANCH   2   3
ATOM      3  C   UNL     1       2.838  20.553  21.725  1.00  0.00    -0.000 C 
BRANCH   3   4
ATOM      4  C   UNL     1       2.941  19.074  21.312  1.00  0.00    -0.000 C 
BRANCH   4   5
ATOM      5  C   UNL     1       2.586  18.841  19.837  1.00  0.00    -0.003 C 
ATOM      6  C   UNL     1       3.090  17.483  19.359  1.00  0.00     0.004 C 
ENDBRANCH   4   5
ENDBRANCH   3   4
ENDBRANCH   2   3
ENDBRANCH   1   2
BRANCH   1   7
ATOM      7  C   UNL     1       6.123  22.562  21.159  1.00  0.00     0.002 C 
BRANCH   7   8
ATOM      8  C   UNL     1       5.823  23.616  20.087  1.00  0.00     0.028 C 
BRANCH   8   9
ATOM      9  C   UNL     1       6.824  24.769  20.150  1.00  0.00     0.156 C 
BRANCH   9  10
ATOM     10  O   UNL     1       8.124  24.266  20.015  1.00  0.00    -0.396 OA
ATOM     11  H   UNL     1       8.049  23.461  19.440  1.00  0.00     0.210 HD
ENDBRANCH   9  10
ENDBRANCH   8   9
ENDBRANCH   7   8
ENDBRANCH   1   7
TORSDOF 8
ENDMDL
MODEL 6
REMARK VINA RESULT:    -4.059      4.217      6.362
REMARK INTER + INTRA:          -6.099
REMARK INTER:                  -5.892
REMARK INTRA:                  -0.207
REMARK UNBOUND:                -0.260
REMARK SMILES CCCCCCCCCO
REMARK SMILES IDX 6 1 5 2 4 3 3 4 2 5 1 6 7 7 8 8 9 9 10 10
REMARK H PARENT 10 11
REMARK Flexibility Score: inf
ROOT
ATOM      1  C   UNL     1       7.258  28.722  19.593  1.00  0.00     0.000 C 
ENDROOT
BRANCH   1   2
ATOM      2  C   UNL     1       7.584  27.237  19.349  1.00  0.00     0.000 C 
BRANCH   2   3
ATOM      3  C   UNL     1       7.620  26.358  20.615  1.00  0.00    -0.000 C 
BRANCH   3   4
ATOM      4  C   UNL     1       7.597  24.841  20.358  1.00  0.00    -0.000 C 
BRANCH   4   5
ATOM      5  C   UNL     1       6.294  24.369  19.697  1.00  0.00    -0.003 C 
ATOM      6  C   UNL     1       5.756  23.115  20.378  1.00  0.00     0.004 C 
ENDBRANCH   4   5
ENDBRANCH   3   4
ENDBRANCH   2   3
ENDBRANCH   1   2
BRANCH   1   7
ATOM      7  C   UNL     1       7.975  29.659  18.610  1.00  0.00     0.002 C 
BRANCH   7   8
ATOM      8  C   UNL     1       7.256  29.687  17.256  1.00  0.00     0.028 C 
BRANCH   8   9
ATOM      9  C   UNL     1       8.242  29.922  16.112  1.00  0.00     0.156 C 
BRANCH   9  10
ATOM     10  O   UNL     1       9.476  29.342  16.433  1.00  0.00    -0.396 OA
ATOM     11  H   UNL     1       9.545  28.521  15.881  1.00  0.00     0.210 HD
ENDBRANCH   9  10
ENDBRANCH   8   9
ENDBRANCH   7   8
ENDBRANCH   1   7
TORSDOF 8
ENDMDL
MODEL 7
REMARK VINA RESULT:    -3.905      2.876      6.020
REMARK INTER + INTRA:          -5.877
REMARK INTER:                  -5.662
REMARK INTRA:                  -0.215
REMARK UNBOUND:                -0.260
REMARK SMILES CCCCCCCCCO
REMARK SMILES IDX 6 1 5 2 4 3 3 4 2 5 1 6 7 7 8 8 9 9 10 10
REMARK H PARENT 10 11
REMARK Flexibility Score: inf
ROOT
ATOM      1  C   UNL     1       5.373  21.376  22.332  1.00  0.00     0.000 C 
ENDROOT
BRANCH   1   2
ATOM      2  C   UNL     1       5.705  22.032  20.980  1.00  0.00     0.000 C 
BRANCH   2   3
ATOM      3  C   UNL     1       6.605  23.282  21.062  1.00  0.00    -0.000 C 
BRANCH   3   4
ATOM      4  C   UNL     1       6.418  24.297  19.921  1.00  0.00    -0.000 C 
BRANCH   4   5
ATOM      5  C   UNL     1       7.539  25.344  19.865  1.00  0.00    -0.003 C 
ATOM      6  C   UNL     1       8.635  25.031  20.879  1.00  0.00     0.004 C 
ENDBRANCH   4   5
ENDBRANCH   3   4
ENDBRANCH   2   3
ENDBRANCH   1   2
BRANCH   1   7
ATOM      7  C   UNL     1       4.042  20.610  22.312  1.00  0.00     0.002 C 
BRANCH   7   8
ATOM      8  C   UNL     1       3.836  19.906  20.966  1.00  0.00     0.028 C 
BRANCH   8   9
ATOM      9  C   UNL     1       2.395  19.419  20.812  1.00  0.00     0.156 C 
BRANCH   9  10
ATOM     10  O   UNL     1       1.549  20.208  21.601  1.00  0.00    -0.396 OA
ATOM     11  H   UNL     1       0.686  19.722  21.649  1.00  0.00     0.210 HD
ENDBRANCH   9  10
ENDBRANCH   8   9
ENDBRANCH   7   8
ENDBRANCH   1   7
TORSDOF 8
ENDMDL
MODEL 8
REMARK VINA RESULT:    -3.809      2.899      6.691
REMARK INTER + INTRA:          -5.739
REMARK INTER:                  -5.471
REMARK INTRA:                  -0.268
REMARK UNBOUND:                -0.260
REMARK SMILES CCCCCCCCCO
REMARK SMILES IDX 6 1 5 2 4 3 3 4 2 5 1 6 7 7 8 8 9 9 10 10
REMARK H PARENT 10 11
REMARK Flexibility Score: inf
ROOT
ATOM      1  C   UNL     1       6.511  24.721  19.222  1.00  0.00     0.000 C 
ENDROOT
BRANCH   1   2
ATOM      2  C   UNL     1       7.598  25.219  20.193  1.00  0.00     0.000 C 
BRANCH   2   3
ATOM      3  C   UNL     1       7.595  26.738  20.455  1.00  0.00    -0.000 C 
BRANCH   3   4
ATOM      4  C   UNL     1       7.546  27.618  19.194  1.00  0.00    -0.000 C 
BRANCH   4   5
ATOM      5  C   UNL     1       7.295  29.099  19.510  1.00  0.00    -0.003 C 
ATOM      6  C   UNL     1       7.096  29.316  21.007  1.00  0.00     0.004 C 
ENDBRANCH   4   5
ENDBRANCH   3   4
ENDBRANCH   2   3
ENDBRANCH   1   2
BRANCH   1   7
ATOM      7  C   UNL     1       5.486  23.798  19.898  1.00  0.00     0.002 C 
BRANCH   7   8
ATOM      8  C   UNL     1       6.175  22.834  20.871  1.00  0.00     0.028 C 
BRANCH   8   9
ATOM      9  C   UNL     1       5.222  21.725  21.318  1.00  0.00     0.156 C 
BRANCH   9  10
ATOM     10  O   UNL     1       5.811  20.996  22.358  1.00  0.00    -0.396 OA
ATOM     11  H   UNL     1       6.413  20.337  21.925  1.00  0.00     0.210 HD
ENDBRANCH   9  10
ENDBRANCH   8   9
ENDBRANCH   7   8
ENDBRANCH   1   7
TORSDOF 8
ENDMDL
MODEL 9
REMARK VINA RESULT:    -3.801      5.424      6.874
REMARK INTER + INTRA:          -5.728
REMARK INTER:                  -5.289
REMARK INTRA:                  -0.439
REMARK UNBOUND:                -0.260
REMARK SMILES CCCCCCCCCO
REMARK SMILES IDX 6 1 5 2 4 3 3 4 2 5 1 6 7 7 8 8 9 9 10 10
REMARK H PARENT 10 11
REMARK Flexibility Score: inf
ROOT
ATOM      1  C   UNL     1       3.357  17.818  19.996  1.00  0.00     0.000 C 
ENDROOT
BRANCH   1   2
ATOM      2  C   UNL     1       2.442  16.678  20.478  1.00  0.00     0.000 C 
BRANCH   2   3
ATOM      3  C   UNL     1       3.108  15.658  21.423  1.00  0.00    -0.000 C 
BRANCH   3   4
ATOM      4  C   UNL     1       4.639  15.772  21.532  1.00  0.00    -0.000 C 
BRANCH   4   5
ATOM      5  C   UNL     1       5.328  14.410  21.696  1.00  0.00    -0.003 C 
ATOM      6  C   UNL     1       4.918  13.449  20.584  1.00  0.00     0.004 C 
ENDBRANCH   4   5
ENDBRANCH   3   4
ENDBRANCH   2   3
ENDBRANCH   1   2
BRANCH   1   7
ATOM      7  C   UNL     1       2.868  19.204  20.444  1.00  0.00     0.002 C 
BRANCH   7   8
ATOM      8  C   UNL     1       1.472  19.116  21.072  1.00  0.00     0.028 C 
BRANCH   8   9
ATOM      9  C   UNL     1       0.442  19.879  20.239  1.00  0.00     0.156 C 
BRANCH   9  10
ATOM     10  O   UNL     1      -0.436  18.971  19.635  1.00  0.00    -0.396 OA
ATOM     11  H   UNL     1      -0.470  19.218  18.675  1.00  0.00     0.210 HD
ENDBRANCH   9  10
ENDBRANCH   8   9
ENDBRANCH   7   8
ENDBRANCH   1   7
TORSDOF 8
ENDMDL
