MODEL 1
REMARK VINA RESULT:    -3.240      0.000      0.000
REMARK INTER + INTRA:          -3.906
REMARK INTER:                  -3.903
REMARK INTRA:                  -0.002
REMARK UNBOUND:                -0.002
REMARK SMILES OCC(O)CO
REMARK SMILES IDX 3 1 5 2 6 3 2 5 1 6 4 8
REMARK H PARENT 6 4 1 7 4 9
REMARK Flexibility Score: inf
ROOT
ATOM      1  C   UNL     1      81.157  15.266  56.881  1.00  0.00     0.165 C 
ENDROOT
BRANCH   1   2
ATOM      2  C   UNL     1      82.054  16.397  56.358  1.00  0.00     0.190 C 
BRANCH   2   3
ATOM      3  O   UNL     1      83.368  16.232  56.823  1.00  0.00    -0.394 OA
ATOM      4  H   UNL     1      83.804  15.575  56.220  1.00  0.00     0.210 HD
ENDBRANCH   2   3
ENDBRANCH   1   2
BRANCH   1   5
ATOM      5  C   UNL     1      79.735  15.380  56.313  1.00  0.00     0.190 C 
BRANCH   5   6
ATOM      6  O   UNL     1      78.872  15.918  57.278  1.00  0.00    -0.394 OA
ATOM      7  H   UNL     1      78.621  15.164  57.873  1.00  0.00     0.210 HD
ENDBRANCH   5   6
ENDBRANCH   1   5
BRANCH   1   8
ATOM      8  O   UNL     1      81.712  14.031  56.511  1.00  0.00    -0.388 OA
ATOM      9  H   UNL     1      81.554  13.406  57.267  1.00  0.00     0.211 HD
ENDBRANCH   1   8
TORSDOF 5
ENDMDL
MODEL 2
REMARK VINA RESULT:    -3.222     13.869     14.465
REMARK INTER + INTRA:          -3.883
REMARK INTER:                  -3.677
REMARK INTRA:                  -0.207
REMARK UNBOUND:                -0.002
REMARK SMILES OCC(O)CO
REMARK SMILES IDX 3 1 5 2 6 3 2 5 1 6 4 8
REMARK H PARENT 6 4 1 7 4 9
REMARK Flexibility Score: inf
ROOT
ATOM      1  C   UNL     1      81.915   2.728  48.621  1.00  0.00     0.165 C 
ENDROOT
BRANCH   1   2
ATOM      2  C   UNL     1      82.235   2.680  50.122  1.00  0.00     0.190 C 
BRANCH   2   3
ATOM      3  O   UNL     1      81.936   3.911  50.724  1.00  0.00    -0.394 OA
ATOM      4  H   UNL     1      80.960   3.912  50.904  1.00  0.00     0.210 HD
ENDBRANCH   2   3
ENDBRANCH   1   2
BRANCH   1   5
ATOM      5  C   UNL     1      80.831   3.772  48.320  1.00  0.00     0.190 C 
BRANCH   5   6
ATOM      6  O   UNL     1      81.419   4.964  47.875  1.00  0.00    -0.394 OA
ATOM      7  H   UNL     1      80.674   5.605  47.739  1.00  0.00     0.210 HD
ENDBRANCH   5   6
ENDBRANCH   1   5
BRANCH   1   8
ATOM      8  O   UNL     1      83.083   3.047  47.911  1.00  0.00    -0.388 OA
ATOM      9  H   UNL     1      82.951   2.726  46.980  1.00  0.00     0.211 HD
ENDBRANCH   1   8
TORSDOF 5
ENDMDL
MODEL 3
REMARK VINA RESULT:    -3.217      1.258      3.231
REMARK INTER + INTRA:          -3.878
REMARK INTER:                  -3.875
REMARK INTRA:                  -0.002
REMARK UNBOUND:                -0.002
REMARK SMILES OCC(O)CO
REMARK SMILES IDX 3 1 5 2 6 3 2 5 1 6 4 8
REMARK H PARENT 6 4 1 7 4 9
REMARK Flexibility Score: inf
ROOT
ATOM      1  C   UNL     1      80.141  15.263  56.235  1.00  0.00     0.165 C 
ENDROOT
BRANCH   1   2
ATOM      2  C   UNL     1      79.049  16.196  56.779  1.00  0.00     0.190 C 
BRANCH   2   3
ATOM      3  O   UNL     1      77.778  15.713  56.432  1.00  0.00    -0.394 OA
ATOM      4  H   UNL     1      77.361  16.399  55.849  1.00  0.00     0.210 HD
ENDBRANCH   2   3
ENDBRANCH   1   2
BRANCH   1   5
ATOM      5  C   UNL     1      81.514  15.616  56.826  1.00  0.00     0.190 C 
BRANCH   5   6
ATOM      6  O   UNL     1      82.210  16.467  55.956  1.00  0.00    -0.394 OA
ATOM      7  H   UNL     1      81.574  17.188  55.711  1.00  0.00     0.210 HD
ENDBRANCH   5   6
ENDBRANCH   1   5
BRANCH   1   8
ATOM      8  O   UNL     1      79.818  13.937  56.561  1.00  0.00    -0.388 OA
ATOM      9  H   UNL     1      80.660  13.413  56.510  1.00  0.00     0.211 HD
ENDBRANCH   1   8
TORSDOF 5
ENDMDL
MODEL 4
REMARK VINA RESULT:    -3.205     13.887     14.539
REMARK INTER + INTRA:          -3.863
REMARK INTER:                  -3.660
REMARK INTRA:                  -0.203
REMARK UNBOUND:                -0.002
REMARK SMILES OCC(O)CO
REMARK SMILES IDX 3 1 5 2 6 3 2 5 1 6 4 8
REMARK H PARENT 6 4 1 7 4 9
REMARK Flexibility Score: inf
ROOT
ATOM      1  C   UNL     1      82.160   3.022  65.203  1.00  0.00     0.165 C 
ENDROOT
BRANCH   1   2
ATOM      2  C   UNL     1      81.902   2.851  63.699  1.00  0.00     0.190 C 
BRANCH   2   3
ATOM      3  O   UNL     1      81.866   4.102  63.065  1.00  0.00    -0.394 OA
ATOM      4  H   UNL     1      82.640   4.130  62.445  1.00  0.00     0.210 HD
ENDBRANCH   2   3
ENDBRANCH   1   2
BRANCH   1   5
ATOM      5  C   UNL     1      82.990   4.283  65.482  1.00  0.00     0.190 C 
BRANCH   5   6
ATOM      6  O   UNL     1      82.154   5.331  65.891  1.00  0.00    -0.394 OA
ATOM      7  H   UNL     1      81.253   5.119  65.534  1.00  0.00     0.210 HD
ENDBRANCH   5   6
ENDBRANCH   1   5
BRANCH   1   8
ATOM      8  O   UNL     1      80.930   3.113  65.874  1.00  0.00    -0.388 OA
ATOM      9  H   UNL     1      80.933   2.414  66.579  1.00  0.00     0.211 HD
ENDBRANCH   1   8
TORSDOF 5
ENDMDL
MODEL 5
REMARK VINA RESULT:    -3.163     13.602     14.390
REMARK INTER + INTRA:          -3.813
REMARK INTER:                  -3.589
REMARK INTRA:                  -0.224
REMARK UNBOUND:                -0.002
REMARK SMILES OCC(O)CO
REMARK SMILES IDX 3 1 5 2 6 3 2 5 1 6 4 8
REMARK H PARENT 6 4 1 7 4 9
REMARK Flexibility Score: inf
ROOT
ATOM      1  C   UNL     1      82.987   4.444  65.249  1.00  0.00     0.165 C 
ENDROOT
BRANCH   1   2
ATOM      2  C   UNL     1      82.280   3.595  66.315  1.00  0.00     0.190 C 
BRANCH   2   3
ATOM      3  O   UNL     1      81.015   3.193  65.860  1.00  0.00    -0.394 OA
ATOM      4  H   UNL     1      80.442   4.004  65.858  1.00  0.00     0.210 HD
ENDBRANCH   2   3
ENDBRANCH   1   2
BRANCH   1   5
ATOM      5  C   UNL     1      82.982   3.738  63.886  1.00  0.00     0.190 C 
BRANCH   5   6
ATOM      6  O   UNL     1      81.824   4.075  63.172  1.00  0.00    -0.394 OA
ATOM      7  H   UNL     1      81.166   3.357  63.361  1.00  0.00     0.210 HD
ENDBRANCH   5   6
ENDBRANCH   1   5
BRANCH   1   8
ATOM      8  O   UNL     1      82.332   5.681  65.139  1.00  0.00    -0.388 OA
ATOM      9  H   UNL     1      81.555   5.653  65.757  1.00  0.00     0.211 HD
ENDBRANCH   1   8
TORSDOF 5
ENDMDL
MODEL 6
REMARK VINA RESULT:    -3.143     13.616     14.247
REMARK INTER + INTRA:          -3.788
REMARK INTER:                  -3.567
REMARK INTRA:                  -0.222
REMARK UNBOUND:                -0.002
REMARK SMILES OCC(O)CO
REMARK SMILES IDX 3 1 5 2 6 3 2 5 1 6 4 8
REMARK H PARENT 6 4 1 7 4 9
REMARK Flexibility Score: inf
ROOT
ATOM      1  C   UNL     1      82.551   3.496  64.177  1.00  0.00     0.165 C 
ENDROOT
BRANCH   1   2
ATOM      2  C   UNL     1      83.095   4.545  65.157  1.00  0.00     0.190 C 
BRANCH   2   3
ATOM      3  O   UNL     1      82.313   5.709  65.109  1.00  0.00    -0.394 OA
ATOM      4  H   UNL     1      82.015   5.890  66.039  1.00  0.00     0.210 HD
ENDBRANCH   2   3
ENDBRANCH   1   2
BRANCH   1   5
ATOM      5  C   UNL     1      81.572   2.541  64.875  1.00  0.00     0.190 C 
BRANCH   5   6
ATOM      6  O   UNL     1      80.956   3.187  65.956  1.00  0.00    -0.394 OA
ATOM      7  H   UNL     1      79.999   3.280  65.711  1.00  0.00     0.210 HD
ENDBRANCH   5   6
ENDBRANCH   1   5
BRANCH   1   8
ATOM      8  O   UNL     1      81.894   4.149  63.121  1.00  0.00    -0.388 OA
ATOM      9  H   UNL     1      82.335   3.853  62.281  1.00  0.00     0.211 HD
ENDBRANCH   1   8
TORSDOF 5
ENDMDL
MODEL 7
REMARK VINA RESULT:    -3.132      0.967      2.753
REMARK INTER + INTRA:          -3.775
REMARK INTER:                  -3.556
REMARK INTRA:                  -0.219
REMARK UNBOUND:                -0.002
REMARK SMILES OCC(O)CO
REMARK SMILES IDX 3 1 5 2 6 3 2 5 1 6 4 8
REMARK H PARENT 6 4 1 7 4 9
REMARK Flexibility Score: inf
ROOT
ATOM      1  C   UNL     1      81.387  15.855  56.794  1.00  0.00     0.165 C 
ENDROOT
BRANCH   1   2
ATOM      2  C   UNL     1      79.952  16.066  56.290  1.00  0.00     0.190 C 
BRANCH   2   3
ATOM      3  O   UNL     1      79.034  15.858  57.330  1.00  0.00    -0.394 OA
ATOM      4  H   UNL     1      79.022  14.881  57.510  1.00  0.00     0.210 HD
ENDBRANCH   2   3
ENDBRANCH   1   2
BRANCH   1   5
ATOM      5  C   UNL     1      81.768  14.368  56.776  1.00  0.00     0.190 C 
BRANCH   5   6
ATOM      6  O   UNL     1      80.617  13.577  56.657  1.00  0.00    -0.394 OA
ATOM      7  H   UNL     1      80.130  13.668  57.517  1.00  0.00     0.210 HD
ENDBRANCH   5   6
ENDBRANCH   1   5
BRANCH   1   8
ATOM      8  O   UNL     1      82.272  16.575  55.976  1.00  0.00    -0.388 OA
ATOM      9  H   UNL     1      81.921  16.515  55.049  1.00  0.00     0.211 HD
ENDBRANCH   1   8
TORSDOF 5
ENDMDL
MODEL 8
REMARK VINA RESULT:    -3.107      0.973      2.290
REMARK INTER + INTRA:          -3.745
REMARK INTER:                  -3.527
REMARK INTRA:                  -0.218
REMARK UNBOUND:                -0.002
REMARK SMILES OCC(O)CO
REMARK SMILES IDX 3 1 5 2 6 3 2 5 1 6 4 8
REMARK H PARENT 6 4 1 7 4 9
REMARK Flexibility Score: inf
ROOT
ATOM      1  C   UNL     1      80.011  15.545  56.412  1.00  0.00     0.165 C 
ENDROOT
BRANCH   1   2
ATOM      2  C   UNL     1      81.281  16.296  56.837  1.00  0.00     0.190 C 
BRANCH   2   3
ATOM      3  O   UNL     1      82.201  16.337  55.779  1.00  0.00    -0.394 OA
ATOM      4  H   UNL     1      82.818  15.570  55.907  1.00  0.00     0.210 HD
ENDBRANCH   2   3
ENDBRANCH   1   2
BRANCH   1   5
ATOM      5  C   UNL     1      80.183  14.028  56.577  1.00  0.00     0.190 C 
BRANCH   5   6
ATOM      6  O   UNL     1      81.545  13.702  56.642  1.00  0.00    -0.394 OA
ATOM      7  H   UNL     1      81.599  12.848  57.144  1.00  0.00     0.210 HD
ENDBRANCH   5   6
ENDBRANCH   1   5
BRANCH   1   8
ATOM      8  O   UNL     1      78.933  15.982  57.198  1.00  0.00    -0.388 OA
ATOM      9  H   UNL     1      78.240  16.324  56.574  1.00  0.00     0.211 HD
ENDBRANCH   1   8
TORSDOF 5
ENDMDL
MODEL 9
REMARK VINA RESULT:    -3.094     13.722     14.457
REMARK INTER + INTRA:          -3.729
REMARK INTER:                  -3.515
REMARK INTRA:                  -0.214
REMARK UNBOUND:                -0.002
REMARK SMILES OCC(O)CO
REMARK SMILES IDX 3 1 5 2 6 3 2 5 1 6 4 8
REMARK H PARENT 6 4 1 7 4 9
REMARK Flexibility Score: inf
ROOT
ATOM      1  C   UNL     1      81.492   2.974  49.800  1.00  0.00     0.165 C 
ENDROOT
BRANCH   1   2
ATOM      2  C   UNL     1      80.597   3.757  48.828  1.00  0.00     0.190 C 
BRANCH   2   3
ATOM      3  O   UNL     1      80.976   5.107  48.795  1.00  0.00    -0.394 OA
ATOM      4  H   UNL     1      80.231   5.624  49.199  1.00  0.00     0.210 HD
ENDBRANCH   2   3
ENDBRANCH   1   2
BRANCH   1   5
ATOM      5  C   UNL     1      82.631   2.266  49.053  1.00  0.00     0.190 C 
BRANCH   5   6
ATOM      6  O   UNL     1      83.039   3.034  47.954  1.00  0.00    -0.394 OA
ATOM      7  H   UNL     1      82.454   2.766  47.199  1.00  0.00     0.210 HD
ENDBRANCH   5   6
ENDBRANCH   1   5
BRANCH   1   8
ATOM      8  O   UNL     1      82.031   3.862  50.745  1.00  0.00    -0.388 OA
ATOM      9  H   UNL     1      81.528   3.724  51.590  1.00  0.00     0.211 HD
ENDBRANCH   1   8
TORSDOF 5
ENDMDL
