MODEL 1
REMARK VINA RESULT:    -4.371      0.000      0.000
REMARK INTER + INTRA:          -5.920
REMARK INTER:                  -5.521
REMARK INTRA:                  -0.399
REMARK UNBOUND:                -0.399
REMARK SMILES O=C(C=Cc1ccc(O)cc1)c1ccc(O)cc1O
REMARK SMILES IDX 4 1 3 2 5 3 6 4 7 5 8 6 11 7 10 8 9 9 2 11 1 12 12 13 18 14
REMARK SMILES IDX 13 15 17 16 14 17 15 18 19 19 16 21
REMARK H PARENT 9 10 19 20 16 22
REMARK Flexibility Score: inf
ROOT
ATOM      1  C   UNL     1      63.831  48.550  13.870  1.00  0.00     0.012 C 
ATOM      2  C   UNL     1      64.592  49.151  14.797  1.00  0.00     0.053 C 
ENDROOT
BRANCH   1   3
ATOM      3  C   UNL     1      63.356  49.214  12.630  1.00  0.00    -0.025 A 
ATOM      4  C   UNL     1      63.396  48.586  11.368  1.00  0.00     0.012 A 
ATOM      5  C   UNL     1      62.926  49.253  10.232  1.00  0.00     0.047 A 
ATOM      6  C   UNL     1      62.403  50.547  10.339  1.00  0.00     0.115 A 
ATOM      7  C   UNL     1      62.814  50.507  12.727  1.00  0.00     0.012 A 
ATOM      8  C   UNL     1      62.347  51.170  11.589  1.00  0.00     0.047 A 
BRANCH   6   9
ATOM      9  O   UNL     1      61.933  51.220   9.214  1.00  0.00    -0.508 OA
ATOM     10  H   UNL     1      61.006  51.047   8.842  1.00  0.00     0.293 HD
ENDBRANCH   6   9
ENDBRANCH   1   3
BRANCH   2  11
ATOM     11  C   UNL     1      65.053  48.465  16.023  1.00  0.00     0.189 C 
ATOM     12  O   UNL     1      65.962  47.598  15.910  1.00  0.00    -0.289 OA
BRANCH  11  13
ATOM     13  C   UNL     1      64.516  48.772  17.371  1.00  0.00     0.064 A 
ATOM     14  C   UNL     1      65.095  48.202  18.524  1.00  0.00     0.130 A 
ATOM     15  C   UNL     1      63.447  49.675  17.514  1.00  0.00     0.020 A 
ATOM     16  C   UNL     1      64.590  48.527  19.792  1.00  0.00     0.093 A 
ATOM     17  C   UNL     1      62.950  49.989  18.781  1.00  0.00     0.047 A 
ATOM     18  C   UNL     1      63.518  49.417  19.921  1.00  0.00     0.119 A 
BRANCH  14  19
ATOM     19  O   UNL     1      66.158  47.306  18.408  1.00  0.00    -0.507 OA
ATOM     20  H   UNL     1      66.899  47.445  17.732  1.00  0.00     0.293 HD
ENDBRANCH  14  19
BRANCH  18  21
ATOM     21  O   UNL     1      63.011  49.741  21.178  1.00  0.00    -0.508 OA
ATOM     22  H   UNL     1      62.018  49.688  21.379  1.00  0.00     0.293 HD
ENDBRANCH  18  21
ENDBRANCH  11  13
ENDBRANCH   2  11
TORSDOF 6
ENDMDL
MODEL 2
REMARK VINA RESULT:    -4.316      2.626      4.533
REMARK INTER + INTRA:          -5.851
REMARK INTER:                  -5.239
REMARK INTRA:                  -0.612
REMARK UNBOUND:                -0.399
REMARK SMILES O=C(C=Cc1ccc(O)cc1)c1ccc(O)cc1O
REMARK SMILES IDX 4 1 3 2 5 3 6 4 7 5 8 6 11 7 10 8 9 9 2 11 1 12 12 13 18 14
REMARK SMILES IDX 13 15 17 16 14 17 15 18 19 19 16 21
REMARK H PARENT 9 10 19 20 16 22
REMARK Flexibility Score: inf
ROOT
ATOM      1  C   UNL     1      64.371  49.552  17.014  1.00  0.00     0.012 C 
ATOM      2  C   UNL     1      63.234  49.269  17.668  1.00  0.00     0.053 C 
ENDROOT
BRANCH   1   3
ATOM      3  C   UNL     1      64.669  49.093  15.634  1.00  0.00    -0.025 A 
ATOM      4  C   UNL     1      63.772  49.276  14.561  1.00  0.00     0.012 A 
ATOM      5  C   UNL     1      64.106  48.833  13.277  1.00  0.00     0.047 A 
ATOM      6  C   UNL     1      65.339  48.213  13.044  1.00  0.00     0.115 A 
ATOM      7  C   UNL     1      65.910  48.484  15.383  1.00  0.00     0.012 A 
ATOM      8  C   UNL     1      66.239  48.043  14.099  1.00  0.00     0.047 A 
BRANCH   6   9
ATOM      9  O   UNL     1      65.681  47.769  11.769  1.00  0.00    -0.508 OA
ATOM     10  H   UNL     1      65.996  48.411  11.051  1.00  0.00     0.293 HD
ENDBRANCH   6   9
ENDBRANCH   1   3
BRANCH   2  11
ATOM     11  C   UNL     1      62.961  49.741  19.042  1.00  0.00     0.189 C 
ATOM     12  O   UNL     1      63.841  49.539  19.923  1.00  0.00    -0.289 OA
BRANCH  11  13
ATOM     13  C   UNL     1      61.721  50.462  19.417  1.00  0.00     0.064 A 
ATOM     14  C   UNL     1      61.781  51.748  19.994  1.00  0.00     0.130 A 
ATOM     15  C   UNL     1      60.465  49.885  19.157  1.00  0.00     0.020 A 
ATOM     16  C   UNL     1      60.595  52.425  20.316  1.00  0.00     0.093 A 
ATOM     17  C   UNL     1      59.290  50.566  19.484  1.00  0.00     0.047 A 
ATOM     18  C   UNL     1      59.351  51.835  20.064  1.00  0.00     0.119 A 
BRANCH  14  19
ATOM     19  O   UNL     1      63.015  52.343  20.259  1.00  0.00    -0.507 OA
ATOM     20  H   UNL     1      63.085  53.223  20.755  1.00  0.00     0.293 HD
ENDBRANCH  14  19
BRANCH  18  21
ATOM     21  O   UNL     1      58.170  52.502  20.385  1.00  0.00    -0.508 OA
ATOM     22  H   UNL     1      57.262  52.102  20.176  1.00  0.00     0.293 HD
ENDBRANCH  18  21
ENDBRANCH  11  13
ENDBRANCH   2  11
TORSDOF 6
ENDMDL
MODEL 3
REMARK VINA RESULT:    -4.263      3.199      6.959
REMARK INTER + INTRA:          -5.784
REMARK INTER:                  -5.187
REMARK INTRA:                  -0.597
REMARK UNBOUND:                -0.399
REMARK SMILES O=C(C=Cc1ccc(O)cc1)c1ccc(O)cc1O
REMARK SMILES IDX 4 1 3 2 5 3 6 4 7 5 8 6 11 7 10 8 9 9 2 11 1 12 12 13 18 14
REMARK SMILES IDX 13 15 17 16 14 17 15 18 19 19 16 21
REMARK H PARENT 9 10 19 20 16 22
REMARK Flexibility Score: inf
ROOT
ATOM      1  C   UNL     1      62.893  50.684  19.654  1.00  0.00     0.012 C 
ATOM      2  C   UNL     1      63.048  49.864  18.604  1.00  0.00     0.053 C 
ENDROOT
BRANCH   1   3
ATOM      3  C   UNL     1      61.714  51.566  19.849  1.00  0.00    -0.025 A 
ATOM      4  C   UNL     1      61.826  52.964  19.995  1.00  0.00     0.012 A 
ATOM      5  C   UNL     1      60.682  53.750  20.166  1.00  0.00     0.047 A 
ATOM      6  C   UNL     1      59.414  53.157  20.185  1.00  0.00     0.115 A 
ATOM      7  C   UNL     1      60.435  50.984  19.853  1.00  0.00     0.012 A 
ATOM      8  C   UNL     1      59.295  51.774  20.025  1.00  0.00     0.047 A 
BRANCH   6   9
ATOM      9  O   UNL     1      58.269  53.931  20.355  1.00  0.00    -0.508 OA
ATOM     10  H   UNL     1      57.349  53.575  20.120  1.00  0.00     0.293 HD
ENDBRANCH   6   9
ENDBRANCH   1   3
BRANCH   2  11
ATOM     11  C   UNL     1      64.231  48.994  18.435  1.00  0.00     0.189 C 
ATOM     12  O   UNL     1      64.779  48.531  19.472  1.00  0.00    -0.289 OA
BRANCH  11  13
ATOM     13  C   UNL     1      64.780  48.625  17.107  1.00  0.00     0.064 A 
ATOM     14  C   UNL     1      65.197  47.304  16.843  1.00  0.00     0.130 A 
ATOM     15  C   UNL     1      64.846  49.584  16.081  1.00  0.00     0.020 A 
ATOM     16  C   UNL     1      65.686  46.967  15.572  1.00  0.00     0.093 A 
ATOM     17  C   UNL     1      65.337  49.240  14.819  1.00  0.00     0.047 A 
ATOM     18  C   UNL     1      65.759  47.934  14.562  1.00  0.00     0.119 A 
BRANCH  14  19
ATOM     19  O   UNL     1      65.138  46.333  17.843  1.00  0.00    -0.507 OA
ATOM     20  H   UNL     1      64.517  46.425  18.638  1.00  0.00     0.293 HD
ENDBRANCH  14  19
BRANCH  18  21
ATOM     21  O   UNL     1      66.247  47.606  13.298  1.00  0.00    -0.508 OA
ATOM     22  H   UNL     1      65.624  47.435  12.517  1.00  0.00     0.293 HD
ENDBRANCH  18  21
ENDBRANCH  11  13
ENDBRANCH   2  11
TORSDOF 6
ENDMDL
MODEL 4
REMARK VINA RESULT:    -4.210      2.858      7.562
REMARK INTER + INTRA:          -5.717
REMARK INTER:                  -5.042
REMARK INTRA:                  -0.675
REMARK UNBOUND:                -0.399
REMARK SMILES O=C(C=Cc1ccc(O)cc1)c1ccc(O)cc1O
REMARK SMILES IDX 4 1 3 2 5 3 6 4 7 5 8 6 11 7 10 8 9 9 2 11 1 12 12 13 18 14
REMARK SMILES IDX 13 15 17 16 14 17 15 18 19 19 16 21
REMARK H PARENT 9 10 19 20 16 22
REMARK Flexibility Score: inf
ROOT
ATOM      1  C   UNL     1      62.684  50.782  18.969  1.00  0.00     0.012 C 
ATOM      2  C   UNL     1      63.433  49.690  19.188  1.00  0.00     0.053 C 
ENDROOT
BRANCH   1   3
ATOM      3  C   UNL     1      62.032  51.569  20.045  1.00  0.00    -0.025 A 
ATOM      4  C   UNL     1      61.971  52.978  20.028  1.00  0.00     0.012 A 
ATOM      5  C   UNL     1      61.335  53.671  21.062  1.00  0.00     0.047 A 
ATOM      6  C   UNL     1      60.745  52.971  22.121  1.00  0.00     0.115 A 
ATOM      7  C   UNL     1      61.422  50.878  21.106  1.00  0.00     0.012 A 
ATOM      8  C   UNL     1      60.788  51.575  22.138  1.00  0.00     0.047 A 
BRANCH   6   9
ATOM      9  O   UNL     1      60.110  53.652  23.157  1.00  0.00    -0.508 OA
ATOM     10  H   UNL     1      59.997  53.235  24.074  1.00  0.00     0.293 HD
ENDBRANCH   6   9
ENDBRANCH   1   3
BRANCH   2  11
ATOM     11  C   UNL     1      64.073  48.926  18.097  1.00  0.00     0.189 C 
ATOM     12  O   UNL     1      65.049  48.182  18.388  1.00  0.00    -0.289 OA
BRANCH  11  13
ATOM     13  C   UNL     1      63.601  48.975  16.692  1.00  0.00     0.064 A 
ATOM     14  C   UNL     1      64.444  49.448  15.665  1.00  0.00     0.130 A 
ATOM     15  C   UNL     1      62.316  48.504  16.363  1.00  0.00     0.020 A 
ATOM     16  C   UNL     1      63.989  49.460  14.337  1.00  0.00     0.093 A 
ATOM     17  C   UNL     1      61.872  48.523  15.039  1.00  0.00     0.047 A 
ATOM     18  C   UNL     1      62.704  49.001  14.025  1.00  0.00     0.119 A 
BRANCH  14  19
ATOM     19  O   UNL     1      65.723  49.916  15.964  1.00  0.00    -0.507 OA
ATOM     20  H   UNL     1      66.164  49.727  16.856  1.00  0.00     0.293 HD
ENDBRANCH  14  19
BRANCH  18  21
ATOM     21  O   UNL     1      62.246  49.013  12.709  1.00  0.00    -0.508 OA
ATOM     22  H   UNL     1      61.256  49.039  12.493  1.00  0.00     0.293 HD
ENDBRANCH  18  21
ENDBRANCH  11  13
ENDBRANCH   2  11
TORSDOF 6
ENDMDL
MODEL 5
REMARK VINA RESULT:    -3.994      3.540      4.291
REMARK INTER + INTRA:          -5.444
REMARK INTER:                  -4.820
REMARK INTRA:                  -0.624
REMARK UNBOUND:                -0.399
REMARK SMILES O=C(C=Cc1ccc(O)cc1)c1ccc(O)cc1O
REMARK SMILES IDX 4 1 3 2 5 3 6 4 7 5 8 6 11 7 10 8 9 9 2 11 1 12 12 13 18 14
REMARK SMILES IDX 13 15 17 16 14 17 15 18 19 19 16 21
REMARK H PARENT 9 10 19 20 16 22
REMARK Flexibility Score: inf
ROOT
ATOM      1  C   UNL     1      64.129  49.240  13.206  1.00  0.00     0.012 C 
ATOM      2  C   UNL     1      64.611  48.142  12.603  1.00  0.00     0.053 C 
ENDROOT
BRANCH   1   3
ATOM      3  C   UNL     1      62.775  49.793  12.957  1.00  0.00    -0.025 A 
ATOM      4  C   UNL     1      62.559  50.974  12.217  1.00  0.00     0.012 A 
ATOM      5  C   UNL     1      61.260  51.448  12.003  1.00  0.00     0.047 A 
ATOM      6  C   UNL     1      60.162  50.748  12.514  1.00  0.00     0.115 A 
ATOM      7  C   UNL     1      61.662  49.091  13.451  1.00  0.00     0.012 A 
ATOM      8  C   UNL     1      60.366  49.569  13.236  1.00  0.00     0.047 A 
BRANCH   6   9
ATOM      9  O   UNL     1      58.864  51.211  12.307  1.00  0.00    -0.508 OA
ATOM     10  H   UNL     1      58.666  52.199  12.197  1.00  0.00     0.293 HD
ENDBRANCH   6   9
ENDBRANCH   1   3
BRANCH   2  11
ATOM     11  C   UNL     1      65.965  47.611  12.871  1.00  0.00     0.189 C 
ATOM     12  O   UNL     1      66.881  47.880  12.048  1.00  0.00    -0.289 OA
BRANCH  11  13
ATOM     13  C   UNL     1      66.292  46.805  14.072  1.00  0.00     0.064 A 
ATOM     14  C   UNL     1      66.843  47.414  15.220  1.00  0.00     0.130 A 
ATOM     15  C   UNL     1      66.014  45.426  14.094  1.00  0.00     0.020 A 
ATOM     16  C   UNL     1      67.119  46.639  16.357  1.00  0.00     0.093 A 
ATOM     17  C   UNL     1      66.296  44.664  15.229  1.00  0.00     0.047 A 
ATOM     18  C   UNL     1      66.849  45.265  16.361  1.00  0.00     0.119 A 
BRANCH  14  19
ATOM     19  O   UNL     1      67.125  48.780  15.225  1.00  0.00    -0.507 OA
ATOM     20  H   UNL     1      68.021  49.136  15.533  1.00  0.00     0.293 HD
ENDBRANCH  14  19
BRANCH  18  21
ATOM     21  O   UNL     1      67.125  44.491  17.486  1.00  0.00    -0.508 OA
ATOM     22  H   UNL     1      68.072  44.368  17.826  1.00  0.00     0.293 HD
ENDBRANCH  18  21
ENDBRANCH  11  13
ENDBRANCH   2  11
TORSDOF 6
ENDMDL
MODEL 6
REMARK VINA RESULT:    -3.986      1.940      8.488
REMARK INTER + INTRA:          -5.434
REMARK INTER:                  -4.819
REMARK INTRA:                  -0.614
REMARK UNBOUND:                -0.399
REMARK SMILES O=C(C=Cc1ccc(O)cc1)c1ccc(O)cc1O
REMARK SMILES IDX 4 1 3 2 5 3 6 4 7 5 8 6 11 7 10 8 9 9 2 11 1 12 12 13 18 14
REMARK SMILES IDX 13 15 17 16 14 17 15 18 19 19 16 21
REMARK H PARENT 9 10 19 20 16 22
REMARK Flexibility Score: inf
ROOT
ATOM      1  C   UNL     1      62.694  49.010  13.257  1.00  0.00     0.012 C 
ATOM      2  C   UNL     1      62.793  50.053  12.418  1.00  0.00     0.053 C 
ENDROOT
BRANCH   1   3
ATOM      3  C   UNL     1      63.320  48.967  14.602  1.00  0.00    -0.025 A 
ATOM      4  C   UNL     1      62.651  48.463  15.737  1.00  0.00     0.012 A 
ATOM      5  C   UNL     1      63.291  48.436  16.980  1.00  0.00     0.047 A 
ATOM      6  C   UNL     1      64.605  48.900  17.107  1.00  0.00     0.115 A 
ATOM      7  C   UNL     1      64.645  49.416  14.740  1.00  0.00     0.012 A 
ATOM      8  C   UNL     1      65.280  49.387  15.985  1.00  0.00     0.047 A 
BRANCH   6   9
ATOM      9  O   UNL     1      65.251  48.878  18.341  1.00  0.00    -0.508 OA
ATOM     10  H   UNL     1      65.961  48.185  18.555  1.00  0.00     0.293 HD
ENDBRANCH   6   9
ENDBRANCH   1   3
BRANCH   2  11
ATOM     11  C   UNL     1      62.157  50.070  11.084  1.00  0.00     0.189 C 
ATOM     12  O   UNL     1      60.965  50.471  11.001  1.00  0.00    -0.289 OA
BRANCH  11  13
ATOM     13  C   UNL     1      62.867  49.667   9.845  1.00  0.00     0.064 A 
ATOM     14  C   UNL     1      62.657  50.362   8.636  1.00  0.00     0.130 A 
ATOM     15  C   UNL     1      63.794  48.609   9.877  1.00  0.00     0.020 A 
ATOM     16  C   UNL     1      63.360  49.982   7.482  1.00  0.00     0.093 A 
ATOM     17  C   UNL     1      64.486  48.238   8.722  1.00  0.00     0.047 A 
ATOM     18  C   UNL     1      64.270  48.920   7.524  1.00  0.00     0.119 A 
BRANCH  14  19
ATOM     19  O   UNL     1      61.746  51.416   8.579  1.00  0.00    -0.507 OA
ATOM     20  H   UNL     1      60.751  51.254   8.479  1.00  0.00     0.293 HD
ENDBRANCH  14  19
BRANCH  18  21
ATOM     21  O   UNL     1      64.968  48.537   6.380  1.00  0.00    -0.508 OA
ATOM     22  H   UNL     1      65.927  48.826   6.222  1.00  0.00     0.293 HD
ENDBRANCH  18  21
ENDBRANCH  11  13
ENDBRANCH   2  11
TORSDOF 6
ENDMDL
MODEL 7
REMARK VINA RESULT:    -3.961      1.724      7.458
REMARK INTER + INTRA:          -5.403
REMARK INTER:                  -4.968
REMARK INTRA:                  -0.435
REMARK UNBOUND:                -0.399
REMARK SMILES O=C(C=Cc1ccc(O)cc1)c1ccc(O)cc1O
REMARK SMILES IDX 4 1 3 2 5 3 6 4 7 5 8 6 11 7 10 8 9 9 2 11 1 12 12 13 18 14
REMARK SMILES IDX 13 15 17 16 14 17 15 18 19 19 16 21
REMARK H PARENT 9 10 19 20 16 22
REMARK Flexibility Score: inf
ROOT
ATOM      1  C   UNL     1      62.558  48.550  15.844  1.00  0.00     0.012 C 
ATOM      2  C   UNL     1      63.616  48.942  15.117  1.00  0.00     0.053 C 
ENDROOT
BRANCH   1   3
ATOM      3  C   UNL     1      62.294  49.004  17.232  1.00  0.00    -0.025 A 
ATOM      4  C   UNL     1      63.280  49.617  18.033  1.00  0.00     0.012 A 
ATOM      5  C   UNL     1      62.975  50.035  19.333  1.00  0.00     0.047 A 
ATOM      6  C   UNL     1      61.685  49.857  19.847  1.00  0.00     0.115 A 
ATOM      7  C   UNL     1      60.999  48.846  17.754  1.00  0.00     0.012 A 
ATOM      8  C   UNL     1      60.699  49.265  19.054  1.00  0.00     0.047 A 
BRANCH   6   9
ATOM      9  O   UNL     1      61.372  50.270  21.140  1.00  0.00    -0.508 OA
ATOM     10  H   UNL     1      62.091  50.407  21.840  1.00  0.00     0.293 HD
ENDBRANCH   6   9
ENDBRANCH   1   3
BRANCH   2  11
ATOM     11  C   UNL     1      63.854  48.476  13.735  1.00  0.00     0.189 C 
ATOM     12  O   UNL     1      64.493  47.401  13.573  1.00  0.00    -0.289 OA
BRANCH  11  13
ATOM     13  C   UNL     1      63.353  49.199  12.541  1.00  0.00     0.064 A 
ATOM     14  C   UNL     1      63.326  48.573  11.278  1.00  0.00     0.130 A 
ATOM     15  C   UNL     1      62.855  50.509  12.668  1.00  0.00     0.020 A 
ATOM     16  C   UNL     1      62.821  49.264  10.165  1.00  0.00     0.093 A 
ATOM     17  C   UNL     1      62.357  51.189  11.555  1.00  0.00     0.047 A 
ATOM     18  C   UNL     1      62.340  50.572  10.303  1.00  0.00     0.119 A 
BRANCH  14  19
ATOM     19  O   UNL     1      63.811  47.274  11.126  1.00  0.00    -0.507 OA
ATOM     20  H   UNL     1      63.274  46.558  10.651  1.00  0.00     0.293 HD
ENDBRANCH  14  19
BRANCH  18  21
ATOM     21  O   UNL     1      61.840  51.264   9.202  1.00  0.00    -0.508 OA
ATOM     22  H   UNL     1      62.448  51.797   8.590  1.00  0.00     0.293 HD
ENDBRANCH  18  21
ENDBRANCH  11  13
ENDBRANCH   2  11
TORSDOF 6
ENDMDL
MODEL 8
REMARK VINA RESULT:    -3.958      2.392      7.734
REMARK INTER + INTRA:          -5.398
REMARK INTER:                  -4.848
REMARK INTRA:                  -0.550
REMARK UNBOUND:                -0.399
REMARK SMILES O=C(C=Cc1ccc(O)cc1)c1ccc(O)cc1O
REMARK SMILES IDX 4 1 3 2 5 3 6 4 7 5 8 6 11 7 10 8 9 9 2 11 1 12 12 13 18 14
REMARK SMILES IDX 13 15 17 16 14 17 15 18 19 19 16 21
REMARK H PARENT 9 10 19 20 16 22
REMARK Flexibility Score: inf
ROOT
ATOM      1  C   UNL     1      62.860  49.021  17.383  1.00  0.00     0.012 C 
ATOM      2  C   UNL     1      61.699  48.540  16.914  1.00  0.00     0.053 C 
ENDROOT
BRANCH   1   3
ATOM      3  C   UNL     1      63.063  49.478  18.781  1.00  0.00    -0.025 A 
ATOM      4  C   UNL     1      63.797  48.732  19.727  1.00  0.00     0.012 A 
ATOM      5  C   UNL     1      63.967  49.213  21.029  1.00  0.00     0.047 A 
ATOM      6  C   UNL     1      63.417  50.445  21.403  1.00  0.00     0.115 A 
ATOM      7  C   UNL     1      62.529  50.720  19.165  1.00  0.00     0.012 A 
ATOM      8  C   UNL     1      62.700  51.196  20.468  1.00  0.00     0.047 A 
BRANCH   6   9
ATOM      9  O   UNL     1      63.580  50.933  22.698  1.00  0.00    -0.508 OA
ATOM     10  H   UNL     1      64.019  50.375  23.422  1.00  0.00     0.293 HD
ENDBRANCH   6   9
ENDBRANCH   1   3
BRANCH   2  11
ATOM     11  C   UNL     1      61.525  48.090  15.517  1.00  0.00     0.189 C 
ATOM     12  O   UNL     1      61.180  46.893  15.319  1.00  0.00    -0.289 OA
BRANCH  11  13
ATOM     13  C   UNL     1      61.711  48.986  14.350  1.00  0.00     0.064 A 
ATOM     14  C   UNL     1      60.603  49.607  13.735  1.00  0.00     0.130 A 
ATOM     15  C   UNL     1      63.005  49.263  13.872  1.00  0.00     0.020 A 
ATOM     16  C   UNL     1      60.802  50.475  12.651  1.00  0.00     0.093 A 
ATOM     17  C   UNL     1      63.192  50.126  12.790  1.00  0.00     0.047 A 
ATOM     18  C   UNL     1      62.094  50.732  12.176  1.00  0.00     0.119 A 
BRANCH  14  19
ATOM     19  O   UNL     1      59.310  49.352  14.193  1.00  0.00    -0.507 OA
ATOM     20  H   UNL     1      58.974  48.408  14.338  1.00  0.00     0.293 HD
ENDBRANCH  14  19
BRANCH  18  21
ATOM     21  O   UNL     1      62.297  51.590  11.097  1.00  0.00    -0.508 OA
ATOM     22  H   UNL     1      61.869  51.417  10.195  1.00  0.00     0.293 HD
ENDBRANCH  18  21
ENDBRANCH  11  13
ENDBRANCH   2  11
TORSDOF 6
ENDMDL
MODEL 9
REMARK VINA RESULT:    -3.921      3.590      5.481
REMARK INTER + INTRA:          -5.352
REMARK INTER:                  -4.646
REMARK INTRA:                  -0.707
REMARK UNBOUND:                -0.399
REMARK SMILES O=C(C=Cc1ccc(O)cc1)c1ccc(O)cc1O
REMARK SMILES IDX 4 1 3 2 5 3 6 4 7 5 8 6 11 7 10 8 9 9 2 11 1 12 12 13 18 14
REMARK SMILES IDX 13 15 17 16 14 17 15 18 19 19 16 21
REMARK H PARENT 9 10 19 20 16 22
REMARK Flexibility Score: inf
ROOT
ATOM      1  C   UNL     1      63.763  49.800  18.045  1.00  0.00     0.012 C 
ATOM      2  C   UNL     1      62.481  49.591  18.381  1.00  0.00     0.053 C 
ENDROOT
BRANCH   1   3
ATOM      3  C   UNL     1      64.483  49.025  17.004  1.00  0.00    -0.025 A 
ATOM      4  C   UNL     1      64.853  49.580  15.762  1.00  0.00     0.012 A 
ATOM      5  C   UNL     1      65.541  48.809  14.819  1.00  0.00     0.047 A 
ATOM      6  C   UNL     1      65.876  47.480  15.105  1.00  0.00     0.115 A 
ATOM      7  C   UNL     1      64.840  47.695  17.285  1.00  0.00     0.012 A 
ATOM      8  C   UNL     1      65.526  46.927  16.339  1.00  0.00     0.047 A 
BRANCH   6   9
ATOM      9  O   UNL     1      66.560  46.703  14.172  1.00  0.00    -0.508 OA
ATOM     10  H   UNL     1      67.525  46.896  13.929  1.00  0.00     0.293 HD
ENDBRANCH   6   9
ENDBRANCH   1   3
BRANCH   2  11
ATOM     11  C   UNL     1      61.786  50.379  19.421  1.00  0.00     0.189 C 
ATOM     12  O   UNL     1      60.529  50.459  19.363  1.00  0.00    -0.289 OA
BRANCH  11  13
ATOM     13  C   UNL     1      62.499  51.050  20.535  1.00  0.00     0.064 A 
ATOM     14  C   UNL     1      62.665  52.451  20.545  1.00  0.00     0.130 A 
ATOM     15  C   UNL     1      62.978  50.295  21.621  1.00  0.00     0.020 A 
ATOM     16  C   UNL     1      63.316  53.070  21.622  1.00  0.00     0.093 A 
ATOM     17  C   UNL     1      63.627  50.920  22.688  1.00  0.00     0.047 A 
ATOM     18  C   UNL     1      63.800  52.306  22.691  1.00  0.00     0.119 A 
BRANCH  14  19
ATOM     19  O   UNL     1      62.196  53.222  19.481  1.00  0.00    -0.507 OA
ATOM     20  H   UNL     1      62.414  54.208  19.402  1.00  0.00     0.293 HD
ENDBRANCH  14  19
BRANCH  18  21
ATOM     21  O   UNL     1      64.451  52.915  23.762  1.00  0.00    -0.508 OA
ATOM     22  H   UNL     1      65.347  52.581  24.097  1.00  0.00     0.293 HD
ENDBRANCH  18  21
ENDBRANCH  11  13
ENDBRANCH   2  11
TORSDOF 6
ENDMDL
