MODEL 1
REMARK VINA RESULT:    -3.987      0.000      0.000
REMARK INTER + INTRA:          -6.669
REMARK INTER:                  -6.084
REMARK INTRA:                  -0.585
REMARK UNBOUND:                -0.585
REMARK SMILES CC1=CCC[C@@H](C)C(=O)C[C@H](C(C)C)C(=O)C1
REMARK SMILES IDX 8 1 9 2 6 3 7 4 5 5 4 6 3 7 2 8 1 9 10 11 11 12 15 13 16 14
REMARK SMILES IDX 17 15 12 17 13 18 14 19
REMARK H PARENT
REMARK Flexibility Score: 70.00
ROOT
ATOM      1  C   UNL     1       4.143   3.432  11.909  1.00  0.00     0.136 C 
ATOM      2  O   UNL     1       5.156   4.075  12.147  1.00  0.00    -0.299 OA
ENDROOT
BRANCH   1   3
ATOM      3  C   UNL     1       3.050   4.047  11.051  1.00  0.00     0.053 C 
ATOM      4  C   UNL     1       1.997   4.794  11.885  1.00  0.00     0.016 C 
BRANCH   3   5
ATOM      5  C   UNL     1       2.369   3.002  10.123  1.00  0.00     0.015 C 
BRANCH   5   6
ATOM      6  C   UNL     1       0.948   2.653  10.615  1.00  0.00     0.028 C 
BRANCH   6   7
ATOM      7  C   UNL     1       0.599   1.186  10.562  1.00  0.00    -0.028 C 
ATOM      8  C   UNL     1       0.709   0.277  11.568  1.00  0.00    -0.070 CG0
ATOM      9  C   UNL     1       0.500  -1.172  11.193  1.00  0.00     0.039 C 
ATOM     10  G   UNL     1       0.830   0.607  13.055  1.00  0.00     0.000 G0
ENDBRANCH   6   7
ENDBRANCH   5   6
ENDBRANCH   3   5
ENDBRANCH   1   3
BRANCH   1  11
ATOM     11  C   UNL     1       4.012   2.061  12.545  1.00  0.00     0.087 C 
BRANCH  11  12
ATOM     12  C   UNL     1       3.010   1.888  13.728  1.00  0.00     0.066 C 
BRANCH  12  13
ATOM     13  C   UNL     1       2.200   0.592  13.687  1.00  0.00     0.140 C 
ATOM     14  O   UNL     1       2.568  -0.390  14.313  1.00  0.00    -0.299 OA
BRANCH  13  15
ATOM     15  C   UNL     1       0.822   0.598  13.062  1.00  0.00     0.106 CG0
ATOM     16  G   UNL     1       0.722   0.262  11.575  1.00  0.00     0.000 G0
ENDBRANCH  13  15
ENDBRANCH  12  13
BRANCH  12  17
ATOM     17  C   UNL     1       3.550   2.275  15.149  1.00  0.00    -0.006 C 
ATOM     18  C   UNL     1       4.948   1.736  15.491  1.00  0.00     0.008 C 
ATOM     19  C   UNL     1       3.515   3.795  15.382  1.00  0.00     0.008 C 
ENDBRANCH  12  17
ENDBRANCH  11  12
ENDBRANCH   1  11
TORSDOF 1
ENDMDL
MODEL 2
REMARK VINA RESULT:    -3.682     10.821     13.965
REMARK INTER + INTRA:          -6.204
REMARK INTER:                  -6.189
REMARK INTRA:                  -0.015
REMARK UNBOUND:                -0.585
REMARK SMILES CC1=CCC[C@@H](C)C(=O)C[C@H](C(C)C)C(=O)C1
REMARK SMILES IDX 8 1 9 2 6 3 7 4 5 5 4 6 3 7 2 8 1 9 10 11 11 12 15 13 16 14
REMARK SMILES IDX 17 15 12 17 13 18 14 19
REMARK H PARENT
REMARK Flexibility Score: 70.00
ROOT
ATOM      1  C   UNL     1      -9.356  -6.533  13.770  1.00  0.00     0.136 C 
ATOM      2  O   UNL     1     -10.120  -5.881  14.469  1.00  0.00    -0.299 OA
ENDROOT
BRANCH   1   3
ATOM      3  C   UNL     1      -9.189  -8.021  14.031  1.00  0.00     0.053 C 
ATOM      4  C   UNL     1      -7.954  -8.332  14.892  1.00  0.00     0.016 C 
BRANCH   3   5
ATOM      5  C   UNL     1      -9.161  -8.852  12.717  1.00  0.00     0.015 C 
BRANCH   5   6
ATOM      6  C   UNL     1      -7.975  -9.841  12.701  1.00  0.00     0.028 C 
BRANCH   6   7
ATOM      7  C   UNL     1      -7.376 -10.092  11.339  1.00  0.00    -0.028 C 
ATOM      8  C   UNL     1      -6.619  -9.235  10.602  1.00  0.00    -0.070 CG0
ATOM      9  C   UNL     1      -6.325  -9.650   9.179  1.00  0.00     0.039 C 
ATOM     10  G   UNL     1      -5.892  -8.004  11.139  1.00  0.00     0.000 G0
ENDBRANCH   6   7
ENDBRANCH   5   6
ENDBRANCH   3   5
ENDBRANCH   1   3
BRANCH   1  11
ATOM     11  C   UNL     1      -8.564  -5.793  12.708  1.00  0.00     0.087 C 
BRANCH  11  12
ATOM     12  C   UNL     1      -7.048  -6.127  12.551  1.00  0.00     0.066 C 
BRANCH  12  13
ATOM     13  C   UNL     1      -6.667  -6.710  11.189  1.00  0.00     0.140 C 
ATOM     14  O   UNL     1      -6.825  -6.059  10.169  1.00  0.00    -0.299 OA
BRANCH  13  15
ATOM     15  C   UNL     1      -5.879  -8.000  11.130  1.00  0.00     0.106 CG0
ATOM     16  G   UNL     1      -6.599  -9.242  10.606  1.00  0.00     0.000 G0
ENDBRANCH  13  15
ENDBRANCH  12  13
BRANCH  12  17
ATOM     17  C   UNL     1      -6.047  -5.054  13.104  1.00  0.00    -0.006 C 
ATOM     18  C   UNL     1      -4.917  -4.650  12.144  1.00  0.00     0.008 C 
ATOM     19  C   UNL     1      -6.775  -3.793  13.601  1.00  0.00     0.008 C 
ENDBRANCH  12  17
ENDBRANCH  11  12
ENDBRANCH   1  11
TORSDOF 1
ENDMDL
MODEL 3
REMARK VINA RESULT:    -3.533     10.577     13.574
REMARK INTER + INTRA:          -5.976
REMARK INTER:                  -6.382
REMARK INTRA:                   0.405
REMARK UNBOUND:                -0.585
REMARK SMILES CC1=CCC[C@@H](C)C(=O)C[C@H](C(C)C)C(=O)C1
REMARK SMILES IDX 8 1 9 2 6 3 7 4 5 5 4 6 3 7 2 8 1 9 10 11 11 12 15 13 16 14
REMARK SMILES IDX 17 15 12 17 13 18 14 19
REMARK H PARENT
REMARK Flexibility Score: 70.00
ROOT
ATOM      1  C   UNL     1      -5.218  -7.532  11.508  1.00  0.00     0.136 C 
ATOM      2  O   UNL     1      -4.484  -7.118  10.621  1.00  0.00    -0.299 OA
ENDROOT
BRANCH   1   3
ATOM      3  C   UNL     1      -5.798  -8.933  11.408  1.00  0.00     0.053 C 
ATOM      4  C   UNL     1      -6.516  -9.178  10.070  1.00  0.00     0.016 C 
BRANCH   3   5
ATOM      5  C   UNL     1      -6.737  -9.271  12.599  1.00  0.00     0.015 C 
BRANCH   5   6
ATOM      6  C   UNL     1      -8.176  -9.556  12.120  1.00  0.00     0.028 C 
BRANCH   6   7
ATOM      7  C   UNL     1      -9.264  -9.032  13.025  1.00  0.00    -0.028 C 
ATOM      8  C   UNL     1      -9.133  -8.121  14.026  1.00  0.00    -0.070 CG0
ATOM      9  C   UNL     1     -10.334  -7.929  14.924  1.00  0.00     0.039 C 
ATOM     10  G   UNL     1      -7.966  -7.151  14.200  1.00  0.00     0.000 G0
ENDBRANCH   6   7
ENDBRANCH   5   6
ENDBRANCH   3   5
ENDBRANCH   1   3
BRANCH   1  11
ATOM     11  C   UNL     1      -5.557  -6.584  12.643  1.00  0.00     0.087 C 
BRANCH  11  12
ATOM     12  C   UNL     1      -6.751  -5.599  12.451  1.00  0.00     0.066 C 
BRANCH  12  13
ATOM     13  C   UNL     1      -7.957  -5.884  13.348  1.00  0.00     0.140 C 
ATOM     14  O   UNL     1      -8.980  -5.226  13.239  1.00  0.00    -0.299 OA
BRANCH  13  15
ATOM     15  C   UNL     1      -7.964  -7.131  14.205  1.00  0.00     0.106 CG0
ATOM     16  G   UNL     1      -9.125  -8.106  14.019  1.00  0.00     0.000 G0
ENDBRANCH  13  15
ENDBRANCH  12  13
BRANCH  12  17
ATOM     17  C   UNL     1      -6.376  -4.081  12.325  1.00  0.00    -0.006 C 
ATOM     18  C   UNL     1      -6.227  -3.326  13.655  1.00  0.00     0.008 C 
ATOM     19  C   UNL     1      -5.114  -3.871  11.470  1.00  0.00     0.008 C 
ENDBRANCH  12  17
ENDBRANCH  11  12
ENDBRANCH   1  11
TORSDOF 1
ENDMDL
MODEL 4
REMARK VINA RESULT:    -3.522      2.026      4.492
REMARK INTER + INTRA:          -5.960
REMARK INTER:                  -5.722
REMARK INTRA:                  -0.238
REMARK UNBOUND:                -0.585
REMARK SMILES CC1=CCC[C@@H](C)C(=O)C[C@H](C(C)C)C(=O)C1
REMARK SMILES IDX 8 1 9 2 6 3 7 4 5 5 4 6 3 7 2 8 1 9 10 11 11 12 15 13 16 14
REMARK SMILES IDX 17 15 12 17 13 18 14 19
REMARK H PARENT
REMARK Flexibility Score: 70.00
ROOT
ATOM      1  C   UNL     1       1.020   2.412  10.577  1.00  0.00     0.136 C 
ATOM      2  O   UNL     1       0.119   3.238  10.632  1.00  0.00    -0.299 OA
ENDROOT
BRANCH   1   3
ATOM      3  C   UNL     1       0.722   0.956  10.895  1.00  0.00     0.053 C 
ATOM      4  C   UNL     1      -0.766   0.713  11.197  1.00  0.00     0.016 C 
BRANCH   3   5
ATOM      5  C   UNL     1       1.608   0.410  12.049  1.00  0.00     0.015 C 
BRANCH   5   6
ATOM      6  C   UNL     1       1.253   1.075  13.396  1.00  0.00     0.028 C 
BRANCH   6   7
ATOM      7  C   UNL     1       2.356   1.053  14.426  1.00  0.00    -0.028 C 
ATOM      8  C   UNL     1       3.449   1.860  14.479  1.00  0.00    -0.070 CG0
ATOM      9  C   UNL     1       4.513   1.490  15.487  1.00  0.00     0.039 C 
ATOM     10  G   UNL     1       3.603   3.196  13.755  1.00  0.00     0.000 G0
ENDBRANCH   6   7
ENDBRANCH   5   6
ENDBRANCH   3   5
ENDBRANCH   1   3
BRANCH   1  11
ATOM     11  C   UNL     1       2.414   2.910  10.248  1.00  0.00     0.087 C 
BRANCH  11  12
ATOM     12  C   UNL     1       3.117   3.864  11.263  1.00  0.00     0.066 C 
BRANCH  12  13
ATOM     13  C   UNL     1       4.001   3.154  12.290  1.00  0.00     0.140 C 
ATOM     14  O   UNL     1       5.095   2.715  11.970  1.00  0.00    -0.299 OA
BRANCH  13  15
ATOM     15  C   UNL     1       3.622   3.204  13.754  1.00  0.00     0.106 CG0
ATOM     16  G   UNL     1       3.480   1.872  14.490  1.00  0.00     0.000 G0
ENDBRANCH  13  15
ENDBRANCH  12  13
BRANCH  12  17
ATOM     17  C   UNL     1       3.738   5.172  10.661  1.00  0.00    -0.006 C 
ATOM     18  C   UNL     1       2.757   6.077   9.899  1.00  0.00     0.008 C 
ATOM     19  C   UNL     1       4.479   5.999  11.726  1.00  0.00     0.008 C 
ENDBRANCH  12  17
ENDBRANCH  11  12
ENDBRANCH   1  11
TORSDOF 1
ENDMDL
MODEL 5
REMARK VINA RESULT:    -3.404      7.282      9.858
REMARK INTER + INTRA:          -5.780
REMARK INTER:                  -5.496
REMARK INTRA:                  -0.284
REMARK UNBOUND:                -0.585
REMARK SMILES CC1=CCC[C@@H](C)C(=O)C[C@H](C(C)C)C(=O)C1
REMARK SMILES IDX 8 1 9 2 6 3 7 4 5 5 4 6 3 7 2 8 1 9 10 11 11 12 15 13 16 14
REMARK SMILES IDX 17 15 12 17 13 18 14 19
REMARK H PARENT
REMARK Flexibility Score: 70.00
ROOT
ATOM      1  C   UNL     1       1.378  -8.652  10.219  1.00  0.00     0.136 C 
ATOM      2  O   UNL     1       1.039  -9.648  10.844  1.00  0.00    -0.299 OA
ENDROOT
BRANCH   1   3
ATOM      3  C   UNL     1       1.618  -8.754   8.722  1.00  0.00     0.053 C 
ATOM      4  C   UNL     1       2.809  -9.662   8.377  1.00  0.00     0.016 C 
BRANCH   3   5
ATOM      5  C   UNL     1       1.786  -7.360   8.054  1.00  0.00     0.015 C 
BRANCH   5   6
ATOM      6  C   UNL     1       0.425  -6.779   7.613  1.00  0.00     0.028 C 
BRANCH   6   7
ATOM      7  C   UNL     1       0.383  -5.275   7.497  1.00  0.00    -0.028 C 
ATOM      8  C   UNL     1       0.587  -4.367   8.488  1.00  0.00    -0.070 CG0
ATOM      9  C   UNL     1       0.274  -2.925   8.157  1.00  0.00     0.039 C 
ATOM     10  G   UNL     1       1.277  -4.646   9.823  1.00  0.00     0.000 G0
ENDBRANCH   6   7
ENDBRANCH   5   6
ENDBRANCH   3   5
ENDBRANCH   1   3
BRANCH   1  11
ATOM     11  C   UNL     1       1.600  -7.370  10.999  1.00  0.00     0.087 C 
BRANCH  11  12
ATOM     12  C   UNL     1       0.351  -6.523  11.398  1.00  0.00     0.066 C 
BRANCH  12  13
ATOM     13  C   UNL     1       0.439  -5.047  11.010  1.00  0.00     0.140 C 
ATOM     14  O   UNL     1      -0.022  -4.184  11.742  1.00  0.00    -0.299 OA
BRANCH  13  15
ATOM     15  C   UNL     1       1.301  -4.639   9.836  1.00  0.00     0.106 CG0
ATOM     16  G   UNL     1       0.598  -4.362   8.508  1.00  0.00     0.000 G0
ENDBRANCH  13  15
ENDBRANCH  12  13
BRANCH  12  17
ATOM     17  C   UNL     1      -1.044  -7.187  11.130  1.00  0.00    -0.006 C 
ATOM     18  C   UNL     1      -1.662  -7.928  12.326  1.00  0.00     0.008 C 
ATOM     19  C   UNL     1      -2.061  -6.178  10.569  1.00  0.00     0.008 C 
ENDBRANCH  12  17
ENDBRANCH  11  12
ENDBRANCH   1  11
TORSDOF 1
ENDMDL
MODEL 6
REMARK VINA RESULT:    -3.349      3.214      4.521
REMARK INTER + INTRA:          -5.696
REMARK INTER:                  -5.237
REMARK INTRA:                  -0.459
REMARK UNBOUND:                -0.585
REMARK SMILES CC1=CCC[C@@H](C)C(=O)C[C@H](C(C)C)C(=O)C1
REMARK SMILES IDX 8 1 9 2 6 3 7 4 5 5 4 6 3 7 2 8 1 9 10 11 11 12 15 13 16 14
REMARK SMILES IDX 17 15 12 17 13 18 14 19
REMARK H PARENT
REMARK Flexibility Score: 70.00
ROOT
ATOM      1  C   UNL     1       2.827   3.497  16.470  1.00  0.00     0.136 C 
ATOM      2  O   UNL     1       2.473   4.637  16.738  1.00  0.00    -0.299 OA
ENDROOT
BRANCH   1   3
ATOM      3  C   UNL     1       3.850   3.271  15.369  1.00  0.00     0.053 C 
ATOM      4  C   UNL     1       3.266   3.508  13.966  1.00  0.00     0.016 C 
BRANCH   3   5
ATOM      5  C   UNL     1       4.509   1.865  15.453  1.00  0.00     0.015 C 
BRANCH   5   6
ATOM      6  C   UNL     1       4.046   0.955  14.295  1.00  0.00     0.028 C 
BRANCH   6   7
ATOM      7  C   UNL     1       3.314  -0.294  14.721  1.00  0.00    -0.028 C 
ATOM      8  C   UNL     1       2.038  -0.382  15.186  1.00  0.00    -0.070 CG0
ATOM      9  C   UNL     1       1.617  -1.719  15.750  1.00  0.00     0.039 C 
ATOM     10  G   UNL     1       0.954   0.680  15.013  1.00  0.00     0.000 G0
ENDBRANCH   6   7
ENDBRANCH   5   6
ENDBRANCH   3   5
ENDBRANCH   1   3
BRANCH   1  11
ATOM     11  C   UNL     1       2.170   2.357  17.224  1.00  0.00     0.087 C 
BRANCH  11  12
ATOM     12  C   UNL     1       0.618   2.214  17.141  1.00  0.00     0.066 C 
BRANCH  12  13
ATOM     13  C   UNL     1       0.135   1.065  16.255  1.00  0.00     0.140 C 
ATOM     14  O   UNL     1      -0.973   0.579  16.417  1.00  0.00    -0.299 OA
BRANCH  13  15
ATOM     15  C   UNL     1       0.937   0.688  15.028  1.00  0.00     0.106 CG0
ATOM     16  G   UNL     1       2.017  -0.379  15.195  1.00  0.00     0.000 G0
ENDBRANCH  13  15
ENDBRANCH  12  13
BRANCH  12  17
ATOM     17  C   UNL     1      -0.160   2.366  18.495  1.00  0.00    -0.006 C 
ATOM     18  C   UNL     1       0.393   1.542  19.668  1.00  0.00     0.008 C 
ATOM     19  C   UNL     1      -0.293   3.839  18.918  1.00  0.00     0.008 C 
ENDBRANCH  12  17
ENDBRANCH  11  12
ENDBRANCH   1  11
TORSDOF 1
ENDMDL
MODEL 7
REMARK VINA RESULT:    -3.264      6.875      8.696
REMARK INTER + INTRA:          -5.566
REMARK INTER:                  -4.885
REMARK INTRA:                  -0.681
REMARK UNBOUND:                -0.585
REMARK SMILES CC1=CCC[C@@H](C)C(=O)C[C@H](C(C)C)C(=O)C1
REMARK SMILES IDX 8 1 9 2 6 3 7 4 5 5 4 6 3 7 2 8 1 9 10 11 11 12 15 13 16 14
REMARK SMILES IDX 17 15 12 17 13 18 14 19
REMARK H PARENT
REMARK Flexibility Score: 70.00
ROOT
ATOM      1  C   UNL     1       0.090  -6.105   7.144  1.00  0.00     0.136 C 
ATOM      2  O   UNL     1       0.397  -7.062   6.447  1.00  0.00    -0.299 OA
ENDROOT
BRANCH   1   3
ATOM      3  C   UNL     1      -0.085  -4.738   6.504  1.00  0.00     0.053 C 
ATOM      4  C   UNL     1       1.201  -3.896   6.553  1.00  0.00     0.016 C 
BRANCH   3   5
ATOM      5  C   UNL     1      -1.276  -3.948   7.114  1.00  0.00     0.015 C 
BRANCH   5   6
ATOM      6  C   UNL     1      -0.786  -2.775   7.990  1.00  0.00     0.028 C 
BRANCH   6   7
ATOM      7  C   UNL     1      -1.397  -2.712   9.368  1.00  0.00    -0.028 C 
ATOM      8  C   UNL     1      -0.911  -3.268  10.510  1.00  0.00    -0.070 CG0
ATOM      9  C   UNL     1      -1.825  -3.243  11.714  1.00  0.00     0.039 C 
ATOM     10  G   UNL     1       0.528  -3.733  10.730  1.00  0.00     0.000 G0
ENDBRANCH   6   7
ENDBRANCH   5   6
ENDBRANCH   3   5
ENDBRANCH   1   3
BRANCH   1  11
ATOM     11  C   UNL     1      -0.040  -6.333   8.638  1.00  0.00     0.087 C 
BRANCH  11  12
ATOM     12  C   UNL     1       1.174  -5.971   9.549  1.00  0.00     0.066 C 
BRANCH  12  13
ATOM     13  C   UNL     1       0.804  -5.211  10.823  1.00  0.00     0.140 C 
ATOM     14  O   UNL     1       0.911  -5.743  11.917  1.00  0.00    -0.299 OA
BRANCH  13  15
ATOM     15  C   UNL     1       0.531  -3.724  10.746  1.00  0.00     0.106 CG0
ATOM     16  G   UNL     1      -0.913  -3.286  10.507  1.00  0.00     0.000 G0
ENDBRANCH  13  15
ENDBRANCH  12  13
BRANCH  12  17
ATOM     17  C   UNL     1       2.243  -7.102   9.751  1.00  0.00    -0.006 C 
ATOM     18  C   UNL     1       1.701  -8.539   9.687  1.00  0.00     0.008 C 
ATOM     19  C   UNL     1       3.425  -6.954   8.778  1.00  0.00     0.008 C 
ENDBRANCH  12  17
ENDBRANCH  11  12
ENDBRANCH   1  11
TORSDOF 1
ENDMDL
MODEL 8
REMARK VINA RESULT:    -3.210      1.908      4.219
REMARK INTER + INTRA:          -5.484
REMARK INTER:                  -5.284
REMARK INTRA:                  -0.200
REMARK UNBOUND:                -0.585
REMARK SMILES CC1=CCC[C@@H](C)C(=O)C[C@H](C(C)C)C(=O)C1
REMARK SMILES IDX 8 1 9 2 6 3 7 4 5 5 4 6 3 7 2 8 1 9 10 11 11 12 15 13 16 14
REMARK SMILES IDX 17 15 12 17 13 18 14 19
REMARK H PARENT
REMARK Flexibility Score: 70.00
ROOT
ATOM      1  C   UNL     1       0.707   0.988  11.106  1.00  0.00     0.136 C 
ATOM      2  O   UNL     1      -0.316   1.639  10.943  1.00  0.00    -0.299 OA
ENDROOT
BRANCH   1   3
ATOM      3  C   UNL     1       0.615  -0.518  11.293  1.00  0.00     0.053 C 
ATOM      4  C   UNL     1       0.246  -1.250   9.993  1.00  0.00     0.016 C 
BRANCH   3   5
ATOM      5  C   UNL     1      -0.361  -0.913  12.436  1.00  0.00     0.015 C 
BRANCH   5   6
ATOM      6  C   UNL     1       0.037  -0.250  13.772  1.00  0.00     0.028 C 
BRANCH   6   7
ATOM      7  C   UNL     1       1.269  -0.826  14.426  1.00  0.00    -0.028 C 
ATOM      8  C   UNL     1       2.445  -0.189  14.670  1.00  0.00    -0.070 CG0
ATOM      9  C   UNL     1       3.595  -1.052  15.138  1.00  0.00     0.039 C 
ATOM     10  G   UNL     1       2.648   1.325  14.699  1.00  0.00     0.000 G0
ENDBRANCH   6   7
ENDBRANCH   5   6
ENDBRANCH   3   5
ENDBRANCH   1   3
BRANCH   1  11
ATOM     11  C   UNL     1       2.021   1.743  11.173  1.00  0.00     0.087 C 
BRANCH  11  12
ATOM     12  C   UNL     1       2.306   2.621  12.431  1.00  0.00     0.066 C 
BRANCH  12  13
ATOM     13  C   UNL     1       3.244   1.977  13.453  1.00  0.00     0.140 C 
ATOM     14  O   UNL     1       4.451   2.143  13.378  1.00  0.00    -0.299 OA
BRANCH  13  15
ATOM     15  C   UNL     1       2.660   1.330  14.690  1.00  0.00     0.106 CG0
ATOM     16  G   UNL     1       2.439  -0.181  14.656  1.00  0.00     0.000 G0
ENDBRANCH  13  15
ENDBRANCH  12  13
BRANCH  12  17
ATOM     17  C   UNL     1       2.580   4.141  12.160  1.00  0.00    -0.006 C 
ATOM     18  C   UNL     1       3.919   4.457  11.476  1.00  0.00     0.008 C 
ATOM     19  C   UNL     1       1.433   4.801  11.375  1.00  0.00     0.008 C 
ENDBRANCH  12  17
ENDBRANCH  11  12
ENDBRANCH   1  11
TORSDOF 1
ENDMDL
MODEL 9
REMARK VINA RESULT:    -3.192      3.498      5.090
REMARK INTER + INTRA:          -5.457
REMARK INTER:                  -5.276
REMARK INTRA:                  -0.181
REMARK UNBOUND:                -0.585
REMARK SMILES CC1=CCC[C@@H](C)C(=O)C[C@H](C(C)C)C(=O)C1
REMARK SMILES IDX 8 1 9 2 6 3 7 4 5 5 4 6 3 7 2 8 1 9 10 11 11 12 15 13 16 14
REMARK SMILES IDX 17 15 12 17 13 18 14 19
REMARK H PARENT
REMARK Flexibility Score: 70.00
ROOT
ATOM      1  C   UNL     1       2.900   2.822  15.283  1.00  0.00     0.136 C 
ATOM      2  O   UNL     1       2.533   3.325  14.230  1.00  0.00    -0.299 OA
ENDROOT
BRANCH   1   3
ATOM      3  C   UNL     1       3.279   1.350  15.318  1.00  0.00     0.053 C 
ATOM      4  C   UNL     1       4.782   1.125  15.093  1.00  0.00     0.016 C 
BRANCH   3   5
ATOM      5  C   UNL     1       2.445   0.502  14.317  1.00  0.00     0.015 C 
BRANCH   5   6
ATOM      6  C   UNL     1       0.973   0.382  14.770  1.00  0.00     0.028 C 
BRANCH   6   7
ATOM      7  C   UNL     1       0.752  -0.466  15.998  1.00  0.00    -0.028 C 
ATOM      8  C   UNL     1       0.633  -0.038  17.283  1.00  0.00    -0.070 CG0
ATOM      9  C   UNL     1       0.636  -1.106  18.353  1.00  0.00     0.039 C 
ATOM     10  G   UNL     1       0.307   1.390  17.718  1.00  0.00     0.000 G0
ENDBRANCH   6   7
ENDBRANCH   5   6
ENDBRANCH   3   5
ENDBRANCH   1   3
BRANCH   1  11
ATOM     11  C   UNL     1       2.897   3.696  16.522  1.00  0.00     0.087 C 
BRANCH  11  12
ATOM     12  C   UNL     1       1.657   3.632  17.469  1.00  0.00     0.066 C 
BRANCH  12  13
ATOM     13  C   UNL     1       1.454   2.280  18.153  1.00  0.00     0.140 C 
ATOM     14  O   UNL     1       2.082   1.993  19.160  1.00  0.00    -0.299 OA
BRANCH  13  15
ATOM     15  C   UNL     1       0.306   1.395  17.718  1.00  0.00     0.106 CG0
ATOM     16  G   UNL     1       0.643  -0.029  17.279  1.00  0.00     0.000 G0
ENDBRANCH  13  15
ENDBRANCH  12  13
BRANCH  12  17
ATOM     17  C   UNL     1       1.440   4.875  18.401  1.00  0.00    -0.006 C 
ATOM     18  C   UNL     1       2.355   6.077  18.121  1.00  0.00     0.008 C 
ATOM     19  C   UNL     1      -0.028   5.336  18.408  1.00  0.00     0.008 C 
ENDBRANCH  12  17
ENDBRANCH  11  12
ENDBRANCH   1  11
TORSDOF 1
ENDMDL
