MODEL 1
REMARK VINA RESULT:    13.970      0.000      0.000
REMARK INTER + INTRA:          31.171
REMARK INTER:                  31.937
REMARK INTRA:                  -0.766
REMARK UNBOUND:                -0.766
REMARK SMILES CCCCCCCCCCCCCCCCCCCCCCCC(=O)[O-]
REMARK SMILES IDX 13 1 14 2 15 3 16 4 17 5 18 6 19 7 20 8 21 9 22 10 23 11
REMARK SMILES IDX 24 12 25 13 26 14 12 15 11 16 10 17 9 18 8 19 7 20 6 21 5 22
REMARK SMILES IDX 4 23 3 24 2 25 1 26
REMARK H PARENT
REMARK Flexibility Score: inf
ROOT
ATOM      1  C   UNL     1      12.863 -58.188  -3.548  1.00  0.00     0.000 C 
ENDROOT
BRANCH   1   2
ATOM      2  C   UNL     1      14.342 -57.896  -3.848  1.00  0.00     0.000 C 
BRANCH   2   3
ATOM      3  C   UNL     1      15.203 -59.171  -3.915  1.00  0.00     0.000 C 
BRANCH   3   4
ATOM      4  C   UNL     1      16.228 -59.333  -2.774  1.00  0.00     0.000 C 
BRANCH   4   5
ATOM      5  C   UNL     1      17.266 -60.454  -2.977  1.00  0.00     0.000 C 
BRANCH   5   6
ATOM      6  C   UNL     1      18.726 -59.978  -3.083  1.00  0.00     0.000 C 
BRANCH   6   7
ATOM      7  C   UNL     1      18.871 -58.455  -2.927  1.00  0.00     0.000 C 
BRANCH   7   8
ATOM      8  C   UNL     1      18.952 -58.026  -1.452  1.00  0.00     0.000 C 
BRANCH   8   9
ATOM      9  C   UNL     1      17.821 -57.059  -1.060  1.00  0.00     0.000 C 
BRANCH   9  10
ATOM     10  C   UNL     1      17.854 -55.757  -1.877  1.00  0.00     0.006 C 
BRANCH  10  11
ATOM     11  C   UNL     1      17.080 -55.873  -3.195  1.00  0.00     0.053 C 
BRANCH  11  12
ATOM     12  C   UNL     1      17.577 -54.866  -4.185  1.00  0.00     0.041 C 
ATOM     13  O   UNL     1      17.939 -53.723  -3.799  1.00  0.00    -0.550 OA
ATOM     14  O   UNL     1      17.685 -55.205  -5.528  1.00  0.00    -0.550 OA
ENDBRANCH  11  12
ENDBRANCH  10  11
ENDBRANCH   9  10
ENDBRANCH   8   9
ENDBRANCH   7   8
ENDBRANCH   6   7
ENDBRANCH   5   6
ENDBRANCH   4   5
ENDBRANCH   3   4
ENDBRANCH   2   3
ENDBRANCH   1   2
BRANCH   1  15
ATOM     15  C   UNL     1      12.080 -56.939  -3.103  1.00  0.00     0.000 C 
BRANCH  15  16
ATOM     16  C   UNL     1      11.302 -56.212  -4.215  1.00  0.00     0.000 C 
BRANCH  16  17
ATOM     17  C   UNL     1      11.275 -54.684  -4.033  1.00  0.00     0.000 C 
BRANCH  17  18
ATOM     18  C   UNL     1       9.968 -54.046  -4.536  1.00  0.00    -0.000 C 
BRANCH  18  19
ATOM     19  C   UNL     1       8.974 -53.619  -3.435  1.00  0.00    -0.000 C 
BRANCH  19  20
ATOM     20  C   UNL     1       8.514 -52.152  -3.496  1.00  0.00    -0.000 C 
BRANCH  20  21
ATOM     21  C   UNL     1       9.338 -51.231  -2.581  1.00  0.00    -0.000 C 
BRANCH  21  22
ATOM     22  C   UNL     1       8.874 -49.764  -2.633  1.00  0.00    -0.000 C 
BRANCH  22  23
ATOM     23  C   UNL     1       9.814 -48.752  -1.946  1.00  0.00    -0.000 C 
BRANCH  23  24
ATOM     24  C   UNL     1      11.103 -48.418  -2.723  1.00  0.00    -0.000 C 
BRANCH  24  25
ATOM     25  C   UNL     1      12.407 -48.641  -1.939  1.00  0.00    -0.003 C 
ATOM     26  C   UNL     1      12.246 -48.404  -0.437  1.00  0.00     0.004 C 
ENDBRANCH  24  25
ENDBRANCH  23  24
ENDBRANCH  22  23
ENDBRANCH  21  22
ENDBRANCH  20  21
ENDBRANCH  19  20
ENDBRANCH  18  19
ENDBRANCH  17  18
ENDBRANCH  16  17
ENDBRANCH  15  16
ENDBRANCH   1  15
TORSDOF 22
ENDMDL
MODEL 2
REMARK VINA RESULT:    13.975      2.407      9.353
REMARK INTER + INTRA:          31.181
REMARK INTER:                  32.444
REMARK INTRA:                  -1.263
REMARK UNBOUND:                -0.766
REMARK SMILES CCCCCCCCCCCCCCCCCCCCCCCC(=O)[O-]
REMARK SMILES IDX 13 1 14 2 15 3 16 4 17 5 18 6 19 7 20 8 21 9 22 10 23 11
REMARK SMILES IDX 24 12 25 13 26 14 12 15 11 16 10 17 9 18 8 19 7 20 6 21 5 22
REMARK SMILES IDX 4 23 3 24 2 25 1 26
REMARK H PARENT
REMARK Flexibility Score: inf
ROOT
ATOM      1  C   UNL     1      12.782 -58.409  -3.262  1.00  0.00     0.000 C 
ENDROOT
BRANCH   1   2
ATOM      2  C   UNL     1      11.646 -57.406  -3.004  1.00  0.00     0.000 C 
BRANCH   2   3
ATOM      3  C   UNL     1      12.045 -55.954  -3.326  1.00  0.00     0.000 C 
BRANCH   3   4
ATOM      4  C   UNL     1      11.158 -55.245  -4.371  1.00  0.00     0.000 C 
BRANCH   4   5
ATOM      5  C   UNL     1      10.474 -53.953  -3.884  1.00  0.00     0.000 C 
BRANCH   5   6
ATOM      6  C   UNL     1       8.939 -53.945  -3.999  1.00  0.00     0.000 C 
BRANCH   6   7
ATOM      7  C   UNL     1       8.301 -52.685  -3.392  1.00  0.00     0.000 C 
BRANCH   7   8
ATOM      8  C   UNL     1       9.350 -51.628  -3.006  1.00  0.00     0.000 C 
BRANCH   8   9
ATOM      9  C   UNL     1       8.726 -50.240  -2.772  1.00  0.00     0.000 C 
BRANCH   9  10
ATOM     10  C   UNL     1       9.330 -49.525  -1.553  1.00  0.00     0.006 C 
BRANCH  10  11
ATOM     11  C   UNL     1      10.109 -48.263  -1.941  1.00  0.00     0.053 C 
BRANCH  11  12
ATOM     12  C   UNL     1      11.533 -48.601  -2.252  1.00  0.00     0.041 C 
ATOM     13  O   UNL     1      11.856 -48.988  -3.406  1.00  0.00    -0.550 OA
ATOM     14  O   UNL     1      12.513 -48.445  -1.279  1.00  0.00    -0.550 OA
ENDBRANCH  11  12
ENDBRANCH  10  11
ENDBRANCH   9  10
ENDBRANCH   8   9
ENDBRANCH   7   8
ENDBRANCH   6   7
ENDBRANCH   5   6
ENDBRANCH   4   5
ENDBRANCH   3   4
ENDBRANCH   2   3
ENDBRANCH   1   2
BRANCH   1  15
ATOM     15  C   UNL     1      13.747 -57.956  -4.373  1.00  0.00     0.000 C 
BRANCH  15  16
ATOM     16  C   UNL     1      15.078 -58.725  -4.453  1.00  0.00     0.000 C 
BRANCH  16  17
ATOM     17  C   UNL     1      15.252 -59.751  -3.319  1.00  0.00     0.000 C 
BRANCH  17  18
ATOM     18  C   UNL     1      16.566 -59.565  -2.540  1.00  0.00    -0.000 C 
BRANCH  18  19
ATOM     19  C   UNL     1      17.762 -60.393  -3.053  1.00  0.00    -0.000 C 
BRANCH  19  20
ATOM     20  C   UNL     1      19.124 -59.679  -3.010  1.00  0.00    -0.000 C 
BRANCH  20  21
ATOM     21  C   UNL     1      18.993 -58.146  -3.002  1.00  0.00    -0.000 C 
BRANCH  21  22
ATOM     22  C   UNL     1      18.774 -57.571  -1.591  1.00  0.00    -0.000 C 
BRANCH  22  23
ATOM     23  C   UNL     1      17.601 -56.578  -1.461  1.00  0.00    -0.000 C 
BRANCH  23  24
ATOM     24  C   UNL     1      16.975 -56.122  -2.794  1.00  0.00    -0.000 C 
BRANCH  24  25
ATOM     25  C   UNL     1      17.685 -54.936  -3.470  1.00  0.00    -0.003 C 
ATOM     26  C   UNL     1      17.475 -54.902  -4.983  1.00  0.00     0.004 C 
ENDBRANCH  24  25
ENDBRANCH  23  24
ENDBRANCH  22  23
ENDBRANCH  21  22
ENDBRANCH  20  21
ENDBRANCH  19  20
ENDBRANCH  18  19
ENDBRANCH  17  18
ENDBRANCH  16  17
ENDBRANCH  15  16
ENDBRANCH   1  15
TORSDOF 22
ENDMDL
MODEL 3
REMARK VINA RESULT:    14.048      2.549      9.256
REMARK INTER + INTRA:          31.349
REMARK INTER:                  32.123
REMARK INTRA:                  -0.774
REMARK UNBOUND:                -0.766
REMARK SMILES CCCCCCCCCCCCCCCCCCCCCCCC(=O)[O-]
REMARK SMILES IDX 13 1 14 2 15 3 16 4 17 5 18 6 19 7 20 8 21 9 22 10 23 11
REMARK SMILES IDX 24 12 25 13 26 14 12 15 11 16 10 17 9 18 8 19 7 20 6 21 5 22
REMARK SMILES IDX 4 23 3 24 2 25 1 26
REMARK H PARENT
REMARK Flexibility Score: inf
ROOT
ATOM      1  C   UNL     1      13.345 -58.154  -4.092  1.00  0.00     0.000 C 
ENDROOT
BRANCH   1   2
ATOM      2  C   UNL     1      12.405 -57.590  -3.014  1.00  0.00     0.000 C 
BRANCH   2   3
ATOM      3  C   UNL     1      11.273 -56.725  -3.599  1.00  0.00     0.000 C 
BRANCH   3   4
ATOM      4  C   UNL     1      11.609 -55.229  -3.766  1.00  0.00     0.000 C 
BRANCH   4   5
ATOM      5  C   UNL     1      10.535 -54.391  -4.487  1.00  0.00     0.000 C 
BRANCH   5   6
ATOM      6  C   UNL     1      10.328 -52.974  -3.924  1.00  0.00     0.000 C 
BRANCH   6   7
ATOM      7  C   UNL     1       8.980 -52.808  -3.203  1.00  0.00     0.000 C 
BRANCH   7   8
ATOM      8  C   UNL     1       8.451 -51.365  -3.281  1.00  0.00     0.000 C 
BRANCH   8   9
ATOM      9  C   UNL     1       9.222 -50.407  -2.357  1.00  0.00     0.000 C 
BRANCH   9  10
ATOM     10  C   UNL     1       9.773 -49.185  -3.109  1.00  0.00     0.006 C 
BRANCH  10  11
ATOM     11  C   UNL     1      11.273 -48.977  -2.871  1.00  0.00     0.053 C 
BRANCH  11  12
ATOM     12  C   UNL     1      11.528 -48.586  -1.449  1.00  0.00     0.041 C 
ATOM     13  O   UNL     1      10.565 -48.408  -0.657  1.00  0.00    -0.550 OA
ATOM     14  O   UNL     1      12.832 -48.464  -0.985  1.00  0.00    -0.550 OA
ENDBRANCH  11  12
ENDBRANCH  10  11
ENDBRANCH   9  10
ENDBRANCH   8   9
ENDBRANCH   7   8
ENDBRANCH   6   7
ENDBRANCH   5   6
ENDBRANCH   4   5
ENDBRANCH   3   4
ENDBRANCH   2   3
ENDBRANCH   1   2
BRANCH   1  15
ATOM     15  C   UNL     1      14.831 -58.081  -3.695  1.00  0.00     0.000 C 
BRANCH  15  16
ATOM     16  C   UNL     1      15.622 -59.393  -3.839  1.00  0.00     0.000 C 
BRANCH  16  17
ATOM     17  C   UNL     1      16.540 -59.680  -2.637  1.00  0.00     0.000 C 
BRANCH  17  18
ATOM     18  C   UNL     1      17.796 -60.481  -3.023  1.00  0.00    -0.000 C 
BRANCH  18  19
ATOM     19  C   UNL     1      19.116 -59.682  -3.024  1.00  0.00    -0.000 C 
BRANCH  19  20
ATOM     20  C   UNL     1      18.960 -58.152  -3.072  1.00  0.00    -0.000 C 
BRANCH  20  21
ATOM     21  C   UNL     1      18.991 -57.505  -1.676  1.00  0.00    -0.000 C 
BRANCH  21  22
ATOM     22  C   UNL     1      17.636 -56.898  -1.267  1.00  0.00    -0.000 C 
BRANCH  22  23
ATOM     23  C   UNL     1      16.843 -56.234  -2.411  1.00  0.00    -0.000 C 
BRANCH  23  24
ATOM     24  C   UNL     1      17.211 -54.765  -2.701  1.00  0.00    -0.000 C 
BRANCH  24  25
ATOM     25  C   UNL     1      17.943 -54.534  -4.034  1.00  0.00    -0.003 C 
ATOM     26  C   UNL     1      17.230 -55.178  -5.223  1.00  0.00     0.004 C 
ENDBRANCH  24  25
ENDBRANCH  23  24
ENDBRANCH  22  23
ENDBRANCH  21  22
ENDBRANCH  20  21
ENDBRANCH  19  20
ENDBRANCH  18  19
ENDBRANCH  17  18
ENDBRANCH  16  17
ENDBRANCH  15  16
ENDBRANCH   1  15
TORSDOF 22
ENDMDL
MODEL 4
REMARK VINA RESULT:    14.205      0.669      1.452
REMARK INTER + INTRA:          31.707
REMARK INTER:                  32.803
REMARK INTRA:                  -1.096
REMARK UNBOUND:                -0.766
REMARK SMILES CCCCCCCCCCCCCCCCCCCCCCCC(=O)[O-]
REMARK SMILES IDX 13 1 14 2 15 3 16 4 17 5 18 6 19 7 20 8 21 9 22 10 23 11
REMARK SMILES IDX 24 12 25 13 26 14 12 15 11 16 10 17 9 18 8 19 7 20 6 21 5 22
REMARK SMILES IDX 4 23 3 24 2 25 1 26
REMARK H PARENT
REMARK Flexibility Score: inf
ROOT
ATOM      1  C   UNL     1      11.312 -56.935  -3.067  1.00  0.00     0.000 C 
ENDROOT
BRANCH   1   2
ATOM      2  C   UNL     1      12.252 -58.149  -3.141  1.00  0.00     0.000 C 
BRANCH   2   3
ATOM      3  C   UNL     1      13.373 -57.976  -4.183  1.00  0.00     0.000 C 
BRANCH   3   4
ATOM      4  C   UNL     1      14.808 -58.031  -3.620  1.00  0.00     0.000 C 
BRANCH   4   5
ATOM      5  C   UNL     1      15.507 -59.400  -3.736  1.00  0.00     0.000 C 
BRANCH   5   6
ATOM      6  C   UNL     1      16.507 -59.719  -2.610  1.00  0.00     0.000 C 
BRANCH   6   7
ATOM      7  C   UNL     1      17.970 -59.680  -3.080  1.00  0.00     0.000 C 
BRANCH   7   8
ATOM      8  C   UNL     1      18.795 -58.620  -2.331  1.00  0.00     0.000 C 
BRANCH   8   9
ATOM      9  C   UNL     1      17.911 -57.643  -1.535  1.00  0.00     0.000 C 
BRANCH   9  10
ATOM     10  C   UNL     1      18.043 -56.195  -2.033  1.00  0.00     0.006 C 
BRANCH  10  11
ATOM     11  C   UNL     1      16.984 -55.837  -3.081  1.00  0.00     0.053 C 
BRANCH  11  12
ATOM     12  C   UNL     1      17.547 -54.889  -4.093  1.00  0.00     0.041 C 
ATOM     13  O   UNL     1      18.006 -53.774  -3.730  1.00  0.00    -0.550 OA
ATOM     14  O   UNL     1      17.609 -55.256  -5.432  1.00  0.00    -0.550 OA
ENDBRANCH  11  12
ENDBRANCH  10  11
ENDBRANCH   9  10
ENDBRANCH   8   9
ENDBRANCH   7   8
ENDBRANCH   6   7
ENDBRANCH   5   6
ENDBRANCH   4   5
ENDBRANCH   3   4
ENDBRANCH   2   3
ENDBRANCH   1   2
BRANCH   1  15
ATOM     15  C   UNL     1      11.890 -55.682  -3.751  1.00  0.00     0.000 C 
BRANCH  15  16
ATOM     16  C   UNL     1      10.880 -54.831  -4.541  1.00  0.00     0.000 C 
BRANCH  16  17
ATOM     17  C   UNL     1      10.395 -53.593  -3.766  1.00  0.00     0.000 C 
BRANCH  17  18
ATOM     18  C   UNL     1       8.862 -53.518  -3.659  1.00  0.00    -0.000 C 
BRANCH  18  19
ATOM     19  C   UNL     1       8.308 -52.263  -2.952  1.00  0.00    -0.000 C 
BRANCH  19  20
ATOM     20  C   UNL     1       9.046 -50.950  -3.268  1.00  0.00    -0.000 C 
BRANCH  20  21
ATOM     21  C   UNL     1       9.211 -50.048  -2.032  1.00  0.00    -0.000 C 
BRANCH  21  22
ATOM     22  C   UNL     1       9.391 -48.563  -2.396  1.00  0.00    -0.000 C 
BRANCH  22  23
ATOM     23  C   UNL     1      10.676 -48.231  -3.182  1.00  0.00    -0.000 C 
BRANCH  23  24
ATOM     24  C   UNL     1      11.995 -48.617  -2.482  1.00  0.00    -0.000 C 
BRANCH  24  25
ATOM     25  C   UNL     1      11.926 -48.647  -0.945  1.00  0.00    -0.003 C 
ATOM     26  C   UNL     1      13.247 -48.257  -0.283  1.00  0.00     0.004 C 
ENDBRANCH  24  25
ENDBRANCH  23  24
ENDBRANCH  22  23
ENDBRANCH  21  22
ENDBRANCH  20  21
ENDBRANCH  19  20
ENDBRANCH  18  19
ENDBRANCH  17  18
ENDBRANCH  16  17
ENDBRANCH  15  16
ENDBRANCH   1  15
TORSDOF 22
ENDMDL
MODEL 5
REMARK VINA RESULT:    15.243      2.305      9.261
REMARK INTER + INTRA:          34.081
REMARK INTER:                  35.762
REMARK INTRA:                  -1.681
REMARK UNBOUND:                -0.766
REMARK SMILES CCCCCCCCCCCCCCCCCCCCCCCC(=O)[O-]
REMARK SMILES IDX 13 1 14 2 15 3 16 4 17 5 18 6 19 7 20 8 21 9 22 10 23 11
REMARK SMILES IDX 24 12 25 13 26 14 12 15 11 16 10 17 9 18 8 19 7 20 6 21 5 22
REMARK SMILES IDX 4 23 3 24 2 25 1 26
REMARK H PARENT
REMARK Flexibility Score: inf
ROOT
ATOM      1  C   UNL     1      11.065 -56.557  -3.393  1.00  0.00     0.000 C 
ENDROOT
BRANCH   1   2
ATOM      2  C   UNL     1      11.669 -55.387  -4.186  1.00  0.00     0.000 C 
BRANCH   2   3
ATOM      3  C   UNL     1      10.976 -54.043  -3.895  1.00  0.00     0.000 C 
BRANCH   3   4
ATOM      4  C   UNL     1       9.460 -54.010  -4.182  1.00  0.00     0.000 C 
BRANCH   4   5
ATOM      5  C   UNL     1       8.661 -52.969  -3.375  1.00  0.00     0.000 C 
BRANCH   5   6
ATOM      6  C   UNL     1       9.358 -51.608  -3.196  1.00  0.00     0.000 C 
BRANCH   6   7
ATOM      7  C   UNL     1       8.593 -50.665  -2.253  1.00  0.00     0.000 C 
BRANCH   7   8
ATOM      8  C   UNL     1       9.256 -49.281  -2.149  1.00  0.00     0.000 C 
BRANCH   8   9
ATOM      9  C   UNL     1      10.371 -49.085  -3.193  1.00  0.00     0.000 C 
BRANCH   9  10
ATOM     10  C   UNL     1      11.747 -48.864  -2.544  1.00  0.00     0.006 C 
BRANCH  10  11
ATOM     11  C   UNL     1      11.640 -48.425  -1.079  1.00  0.00     0.053 C 
BRANCH  11  12
ATOM     12  C   UNL     1      12.996 -48.376  -0.446  1.00  0.00     0.041 C 
ATOM     13  O   UNL     1      13.372 -47.342   0.166  1.00  0.00    -0.550 OA
ATOM     14  O   UNL     1      13.826 -49.489  -0.493  1.00  0.00    -0.550 OA
ENDBRANCH  11  12
ENDBRANCH  10  11
ENDBRANCH   9  10
ENDBRANCH   8   9
ENDBRANCH   7   8
ENDBRANCH   6   7
ENDBRANCH   5   6
ENDBRANCH   4   5
ENDBRANCH   3   4
ENDBRANCH   2   3
ENDBRANCH   1   2
BRANCH   1  15
ATOM     15  C   UNL     1      12.061 -57.707  -3.161  1.00  0.00     0.000 C 
BRANCH  15  16
ATOM     16  C   UNL     1      13.533 -57.386  -3.479  1.00  0.00     0.000 C 
BRANCH  16  17
ATOM     17  C   UNL     1      14.074 -58.165  -4.691  1.00  0.00     0.000 C 
BRANCH  17  18
ATOM     18  C   UNL     1      15.088 -59.253  -4.297  1.00  0.00    -0.000 C 
BRANCH  18  19
ATOM     19  C   UNL     1      15.665 -59.136  -2.871  1.00  0.00    -0.000 C 
BRANCH  19  20
ATOM     20  C   UNL     1      17.094 -59.678  -2.692  1.00  0.00    -0.000 C 
BRANCH  20  21
ATOM     21  C   UNL     1      18.159 -58.567  -2.711  1.00  0.00    -0.000 C 
BRANCH  21  22
ATOM     22  C   UNL     1      18.120 -57.679  -1.453  1.00  0.00    -0.000 C 
BRANCH  22  23
ATOM     23  C   UNL     1      17.554 -56.261  -1.669  1.00  0.00    -0.000 C 
BRANCH  23  24
ATOM     24  C   UNL     1      17.021 -55.973  -3.087  1.00  0.00    -0.000 C 
BRANCH  24  25
ATOM     25  C   UNL     1      17.724 -54.817  -3.819  1.00  0.00    -0.003 C 
ATOM     26  C   UNL     1      17.416 -54.787  -5.316  1.00  0.00     0.004 C 
ENDBRANCH  24  25
ENDBRANCH  23  24
ENDBRANCH  22  23
ENDBRANCH  21  22
ENDBRANCH  20  21
ENDBRANCH  19  20
ENDBRANCH  18  19
ENDBRANCH  17  18
ENDBRANCH  16  17
ENDBRANCH  15  16
ENDBRANCH   1  15
TORSDOF 22
ENDMDL
MODEL 6
REMARK VINA RESULT:    15.494      4.419     10.816
REMARK INTER + INTRA:          34.655
REMARK INTER:                  36.131
REMARK INTRA:                  -1.476
REMARK UNBOUND:                -0.766
REMARK SMILES CCCCCCCCCCCCCCCCCCCCCCCC(=O)[O-]
REMARK SMILES IDX 13 1 14 2 15 3 16 4 17 5 18 6 19 7 20 8 21 9 22 10 23 11
REMARK SMILES IDX 24 12 25 13 26 14 12 15 11 16 10 17 9 18 8 19 7 20 6 21 5 22
REMARK SMILES IDX 4 23 3 24 2 25 1 26
REMARK H PARENT
REMARK Flexibility Score: inf
ROOT
ATOM      1  C   UNL     1      11.220 -55.903  -4.627  1.00  0.00     0.000 C 
ENDROOT
BRANCH   1   2
ATOM      2  C   UNL     1      11.281 -54.394  -4.341  1.00  0.00     0.000 C 
BRANCH   2   3
ATOM      3  C   UNL     1       9.956 -53.834  -3.791  1.00  0.00     0.000 C 
BRANCH   3   4
ATOM      4  C   UNL     1       9.872 -52.295  -3.721  1.00  0.00     0.000 C 
BRANCH   4   5
ATOM      5  C   UNL     1       8.686 -51.739  -2.909  1.00  0.00     0.000 C 
BRANCH   5   6
ATOM      6  C   UNL     1       8.926 -50.361  -2.266  1.00  0.00     0.000 C 
BRANCH   6   7
ATOM      7  C   UNL     1      10.298 -49.765  -2.624  1.00  0.00     0.000 C 
BRANCH   7   8
ATOM      8  C   UNL     1      10.356 -48.247  -2.379  1.00  0.00     0.000 C 
BRANCH   8   9
ATOM      9  C   UNL     1       9.259 -47.768  -1.411  1.00  0.00     0.000 C 
BRANCH   9  10
ATOM     10  C   UNL     1       8.250 -46.828  -2.089  1.00  0.00     0.006 C 
BRANCH  10  11
ATOM     11  C   UNL     1       7.580 -45.872  -1.095  1.00  0.00     0.053 C 
BRANCH  11  12
ATOM     12  C   UNL     1       6.767 -44.846  -1.822  1.00  0.00     0.041 C 
ATOM     13  O   UNL     1       6.954 -44.643  -3.051  1.00  0.00    -0.550 OA
ATOM     14  O   UNL     1       5.771 -44.147  -1.152  1.00  0.00    -0.550 OA
ENDBRANCH  11  12
ENDBRANCH  10  11
ENDBRANCH   9  10
ENDBRANCH   8   9
ENDBRANCH   7   8
ENDBRANCH   6   7
ENDBRANCH   5   6
ENDBRANCH   4   5
ENDBRANCH   3   4
ENDBRANCH   2   3
ENDBRANCH   1   2
BRANCH   1  15
ATOM     15  C   UNL     1      11.043 -56.751  -3.354  1.00  0.00     0.000 C 
BRANCH  15  16
ATOM     16  C   UNL     1      12.311 -57.462  -2.847  1.00  0.00     0.000 C 
BRANCH  16  17
ATOM     17  C   UNL     1      13.225 -57.950  -3.984  1.00  0.00     0.000 C 
BRANCH  17  18
ATOM     18  C   UNL     1      14.717 -57.917  -3.608  1.00  0.00    -0.000 C 
BRANCH  18  19
ATOM     19  C   UNL     1      15.466 -59.257  -3.752  1.00  0.00    -0.000 C 
BRANCH  19  20
ATOM     20  C   UNL     1      16.416 -59.610  -2.594  1.00  0.00    -0.000 C 
BRANCH  20  21
ATOM     21  C   UNL     1      17.892 -59.646  -3.024  1.00  0.00    -0.000 C 
BRANCH  21  22
ATOM     22  C   UNL     1      18.676 -58.399  -2.577  1.00  0.00    -0.000 C 
BRANCH  22  23
ATOM     23  C   UNL     1      17.952 -57.499  -1.555  1.00  0.00    -0.000 C 
BRANCH  23  24
ATOM     24  C   UNL     1      17.622 -56.076  -2.048  1.00  0.00    -0.000 C 
BRANCH  24  25
ATOM     25  C   UNL     1      17.483 -55.936  -3.574  1.00  0.00    -0.003 C 
ATOM     26  C   UNL     1      17.415 -54.481  -4.035  1.00  0.00     0.004 C 
ENDBRANCH  24  25
ENDBRANCH  23  24
ENDBRANCH  22  23
ENDBRANCH  21  22
ENDBRANCH  20  21
ENDBRANCH  19  20
ENDBRANCH  18  19
ENDBRANCH  17  18
ENDBRANCH  16  17
ENDBRANCH  15  16
ENDBRANCH   1  15
TORSDOF 22
ENDMDL
