MODEL 1
REMARK VINA RESULT:     2.792      0.000      0.000
REMARK INTER + INTRA:           4.045
REMARK INTER:                   4.424
REMARK INTRA:                  -0.379
REMARK UNBOUND:                -0.379
REMARK SMILES CCCCCCCCCCCC(=O)[O-]
REMARK SMILES IDX 7 1 8 2 9 3 10 4 11 5 12 6 13 7 14 8 6 9 5 10 4 11 3 12 2 13
REMARK SMILES IDX 1 14
REMARK H PARENT
REMARK Flexibility Score: inf
ROOT
ATOM      1  C   UNL     1      -5.222 -16.158   6.327  1.00  0.00     0.000 C 
ENDROOT
BRANCH   1   2
ATOM      2  C   UNL     1      -4.106 -16.832   7.140  1.00  0.00     0.000 C 
BRANCH   2   3
ATOM      3  C   UNL     1      -2.710 -16.285   6.794  1.00  0.00     0.000 C 
BRANCH   3   4
ATOM      4  C   UNL     1      -2.754 -14.853   6.231  1.00  0.00     0.006 C 
BRANCH   4   5
ATOM      5  C   UNL     1      -1.464 -14.046   6.443  1.00  0.00     0.053 C 
BRANCH   5   6
ATOM      6  C   UNL     1      -1.029 -14.045   7.875  1.00  0.00     0.041 C 
ATOM      7  O   UNL     1      -1.878 -14.180   8.796  1.00  0.00    -0.550 OA
ATOM      8  O   UNL     1       0.319 -13.931   8.194  1.00  0.00    -0.550 OA
ENDBRANCH   5   6
ENDBRANCH   4   5
ENDBRANCH   3   4
ENDBRANCH   2   3
ENDBRANCH   1   2
BRANCH   1   9
ATOM      9  C   UNL     1      -6.520 -15.983   7.129  1.00  0.00     0.000 C 
BRANCH   9  10
ATOM     10  C   UNL     1      -6.803 -14.500   7.400  1.00  0.00    -0.000 C 
BRANCH  10  11
ATOM     11  C   UNL     1      -6.592 -13.659   6.131  1.00  0.00    -0.000 C 
BRANCH  11  12
ATOM     12  C   UNL     1      -5.619 -12.490   6.351  1.00  0.00    -0.000 C 
BRANCH  12  13
ATOM     13  C   UNL     1      -4.567 -12.790   7.429  1.00  0.00    -0.003 C 
ATOM     14  C   UNL     1      -3.797 -11.528   7.810  1.00  0.00     0.004 C 
ENDBRANCH  12  13
ENDBRANCH  11  12
ENDBRANCH  10  11
ENDBRANCH   9  10
ENDBRANCH   1   9
TORSDOF 10
ENDMDL
MODEL 2
REMARK VINA RESULT:     2.904      2.360      5.307
REMARK INTER + INTRA:           4.222
REMARK INTER:                   4.706
REMARK INTRA:                  -0.484
REMARK UNBOUND:                -0.379
REMARK SMILES CCCCCCCCCCCC(=O)[O-]
REMARK SMILES IDX 7 1 8 2 9 3 10 4 11 5 12 6 13 7 14 8 6 9 5 10 4 11 3 12 2 13
REMARK SMILES IDX 1 14
REMARK H PARENT
REMARK Flexibility Score: inf
ROOT
ATOM      1  C   UNL     1      -3.497 -12.956   7.329  1.00  0.00     0.000 C 
ENDROOT
BRANCH   1   2
ATOM      2  C   UNL     1      -5.008 -12.688   7.242  1.00  0.00     0.000 C 
BRANCH   2   3
ATOM      3  C   UNL     1      -5.599 -13.080   5.876  1.00  0.00     0.000 C 
BRANCH   3   4
ATOM      4  C   UNL     1      -6.840 -13.981   6.000  1.00  0.00     0.006 C 
BRANCH   4   5
ATOM      5  C   UNL     1      -6.919 -14.778   7.313  1.00  0.00     0.053 C 
BRANCH   5   6
ATOM      6  C   UNL     1      -6.379 -16.166   7.162  1.00  0.00     0.041 C 
ATOM      7  O   UNL     1      -5.317 -16.366   6.515  1.00  0.00    -0.550 OA
ATOM      8  O   UNL     1      -7.030 -17.236   7.763  1.00  0.00    -0.550 OA
ENDBRANCH   5   6
ENDBRANCH   4   5
ENDBRANCH   3   4
ENDBRANCH   2   3
ENDBRANCH   1   2
BRANCH   1   9
ATOM      9  C   UNL     1      -2.978 -13.822   6.172  1.00  0.00     0.000 C 
BRANCH   9  10
ATOM     10  C   UNL     1      -2.250 -15.064   6.698  1.00  0.00    -0.000 C 
BRANCH  10  11
ATOM     11  C   UNL     1      -1.479 -14.746   7.988  1.00  0.00    -0.000 C 
BRANCH  11  12
ATOM     12  C   UNL     1      -0.393 -13.679   7.781  1.00  0.00    -0.000 C 
BRANCH  12  13
ATOM     13  C   UNL     1       0.714 -13.746   8.844  1.00  0.00    -0.003 C 
ATOM     14  C   UNL     1       1.523 -15.034   8.713  1.00  0.00     0.004 C 
ENDBRANCH  12  13
ENDBRANCH  11  12
ENDBRANCH  10  11
ENDBRANCH   9  10
ENDBRANCH   1   9
TORSDOF 10
ENDMDL
MODEL 3
REMARK VINA RESULT:     2.922      1.626      3.191
REMARK INTER + INTRA:           4.251
REMARK INTER:                   4.941
REMARK INTRA:                  -0.690
REMARK UNBOUND:                -0.379
REMARK SMILES CCCCCCCCCCCC(=O)[O-]
REMARK SMILES IDX 7 1 8 2 9 3 10 4 11 5 12 6 13 7 14 8 6 9 5 10 4 11 3 12 2 13
REMARK SMILES IDX 1 14
REMARK H PARENT
REMARK Flexibility Score: inf
ROOT
ATOM      1  C   UNL     1      -2.664 -14.735   6.152  1.00  0.00     0.000 C 
ENDROOT
BRANCH   1   2
ATOM      2  C   UNL     1      -2.682 -15.118   7.641  1.00  0.00     0.000 C 
BRANCH   2   3
ATOM      3  C   UNL     1      -1.696 -14.283   8.477  1.00  0.00     0.000 C 
BRANCH   3   4
ATOM      4  C   UNL     1      -0.379 -13.995   7.733  1.00  0.00     0.006 C 
BRANCH   4   5
ATOM      5  C   UNL     1       0.794 -13.603   8.645  1.00  0.00     0.053 C 
BRANCH   5   6
ATOM      6  C   UNL     1       1.484 -14.800   9.222  1.00  0.00     0.041 C 
ATOM      7  O   UNL     1       2.028 -15.645   8.463  1.00  0.00    -0.550 OA
ATOM      8  O   UNL     1       1.555 -14.966  10.600  1.00  0.00    -0.550 OA
ENDBRANCH   5   6
ENDBRANCH   4   5
ENDBRANCH   3   4
ENDBRANCH   2   3
ENDBRANCH   1   2
BRANCH   1   9
ATOM      9  C   UNL     1      -3.355 -13.392   5.875  1.00  0.00     0.000 C 
BRANCH   9  10
ATOM     10  C   UNL     1      -4.490 -13.142   6.875  1.00  0.00    -0.000 C 
BRANCH  10  11
ATOM     11  C   UNL     1      -5.784 -12.742   6.150  1.00  0.00    -0.000 C 
BRANCH  11  12
ATOM     12  C   UNL     1      -6.792 -13.898   6.055  1.00  0.00    -0.000 C 
BRANCH  12  13
ATOM     13  C   UNL     1      -6.759 -14.815   7.287  1.00  0.00    -0.003 C 
ATOM     14  C   UNL     1      -6.156 -16.174   6.944  1.00  0.00     0.004 C 
ENDBRANCH  12  13
ENDBRANCH  11  12
ENDBRANCH  10  11
ENDBRANCH   9  10
ENDBRANCH   1   9
TORSDOF 10
ENDMDL
MODEL 4
REMARK VINA RESULT:     2.952      1.376      3.158
REMARK INTER + INTRA:           4.299
REMARK INTER:                   5.079
REMARK INTRA:                  -0.780
REMARK UNBOUND:                -0.379
REMARK SMILES CCCCCCCCCCCC(=O)[O-]
REMARK SMILES IDX 7 1 8 2 9 3 10 4 11 5 12 6 13 7 14 8 6 9 5 10 4 11 3 12 2 13
REMARK SMILES IDX 1 14
REMARK H PARENT
REMARK Flexibility Score: inf
ROOT
ATOM      1  C   UNL     1      -3.369 -12.818   7.294  1.00  0.00     0.000 C 
ENDROOT
BRANCH   1   2
ATOM      2  C   UNL     1      -2.811 -13.770   6.225  1.00  0.00     0.000 C 
BRANCH   2   3
ATOM      3  C   UNL     1      -1.794 -14.772   6.800  1.00  0.00     0.000 C 
BRANCH   3   4
ATOM      4  C   UNL     1      -1.265 -14.355   8.184  1.00  0.00     0.006 C 
BRANCH   4   5
ATOM      5  C   UNL     1       0.170 -13.804   8.178  1.00  0.00     0.053 C 
BRANCH   5   6
ATOM      6  C   UNL     1       1.112 -14.681   8.942  1.00  0.00     0.041 C 
ATOM      7  O   UNL     1       1.906 -15.444   8.331  1.00  0.00    -0.550 OA
ATOM      8  O   UNL     1       1.139 -14.631  10.331  1.00  0.00    -0.550 OA
ENDBRANCH   5   6
ENDBRANCH   4   5
ENDBRANCH   3   4
ENDBRANCH   2   3
ENDBRANCH   1   2
BRANCH   1   9
ATOM      9  C   UNL     1      -4.897 -12.678   7.226  1.00  0.00     0.000 C 
BRANCH   9  10
ATOM     10  C   UNL     1      -5.434 -13.165   5.875  1.00  0.00    -0.000 C 
BRANCH  10  11
ATOM     11  C   UNL     1      -6.786 -13.875   6.044  1.00  0.00    -0.000 C 
BRANCH  11  12
ATOM     12  C   UNL     1      -6.860 -14.709   7.333  1.00  0.00    -0.000 C 
BRANCH  12  13
ATOM     13  C   UNL     1      -6.548 -16.194   7.096  1.00  0.00    -0.003 C 
ATOM     14  C   UNL     1      -5.069 -16.400   6.778  1.00  0.00     0.004 C 
ENDBRANCH  12  13
ENDBRANCH  11  12
ENDBRANCH  10  11
ENDBRANCH   9  10
ENDBRANCH   1   9
TORSDOF 10
ENDMDL
MODEL 5
REMARK VINA RESULT:     2.989      1.115      3.300
REMARK INTER + INTRA:           4.357
REMARK INTER:                   4.683
REMARK INTRA:                  -0.326
REMARK UNBOUND:                -0.379
REMARK SMILES CCCCCCCCCCCC(=O)[O-]
REMARK SMILES IDX 7 1 8 2 9 3 10 4 11 5 12 6 13 7 14 8 6 9 5 10 4 11 3 12 2 13
REMARK SMILES IDX 1 14
REMARK H PARENT
REMARK Flexibility Score: inf
ROOT
ATOM      1  C   UNL     1      -5.936 -12.857   5.882  1.00  0.00     0.000 C 
ENDROOT
BRANCH   1   2
ATOM      2  C   UNL     1      -4.526 -13.244   6.355  1.00  0.00     0.000 C 
BRANCH   2   3
ATOM      3  C   UNL     1      -3.840 -12.120   7.151  1.00  0.00     0.000 C 
BRANCH   3   4
ATOM      4  C   UNL     1      -3.188 -12.623   8.452  1.00  0.00     0.006 C 
BRANCH   4   5
ATOM      5  C   UNL     1      -2.594 -14.038   8.359  1.00  0.00     0.053 C 
BRANCH   5   6
ATOM      6  C   UNL     1      -1.359 -14.076   7.514  1.00  0.00     0.041 C 
ATOM      7  O   UNL     1      -0.228 -13.881   8.035  1.00  0.00    -0.550 OA
ATOM      8  O   UNL     1      -1.451 -14.358   6.157  1.00  0.00    -0.550 OA
ENDBRANCH   5   6
ENDBRANCH   4   5
ENDBRANCH   3   4
ENDBRANCH   2   3
ENDBRANCH   1   2
BRANCH   1   9
ATOM      9  C   UNL     1      -6.946 -14.005   6.019  1.00  0.00     0.000 C 
BRANCH   9  10
ATOM     10  C   UNL     1      -6.816 -14.691   7.384  1.00  0.00    -0.000 C 
BRANCH  10  11
ATOM     11  C   UNL     1      -6.581 -16.201   7.222  1.00  0.00    -0.000 C 
BRANCH  11  12
ATOM     12  C   UNL     1      -5.367 -16.519   6.336  1.00  0.00    -0.000 C 
BRANCH  12  13
ATOM     13  C   UNL     1      -4.041 -16.477   7.110  1.00  0.00    -0.003 C 
ATOM     14  C   UNL     1      -3.141 -17.647   6.722  1.00  0.00     0.004 C 
ENDBRANCH  12  13
ENDBRANCH  11  12
ENDBRANCH  10  11
ENDBRANCH   9  10
ENDBRANCH   1   9
TORSDOF 10
ENDMDL
MODEL 6
REMARK VINA RESULT:     3.645      1.666      4.038
REMARK INTER + INTRA:           5.396
REMARK INTER:                   6.207
REMARK INTRA:                  -0.810
REMARK UNBOUND:                -0.379
REMARK SMILES CCCCCCCCCCCC(=O)[O-]
REMARK SMILES IDX 7 1 8 2 9 3 10 4 11 5 12 6 13 7 14 8 6 9 5 10 4 11 3 12 2 13
REMARK SMILES IDX 1 14
REMARK H PARENT
REMARK Flexibility Score: inf
ROOT
ATOM      1  C   UNL     1      -5.674 -13.064   5.876  1.00  0.00     0.000 C 
ENDROOT
BRANCH   1   2
ATOM      2  C   UNL     1      -6.777 -14.130   5.979  1.00  0.00     0.000 C 
BRANCH   2   3
ATOM      3  C   UNL     1      -6.755 -14.874   7.326  1.00  0.00     0.000 C 
BRANCH   3   4
ATOM      4  C   UNL     1      -6.165 -16.292   7.212  1.00  0.00     0.006 C 
BRANCH   4   5
ATOM      5  C   UNL     1      -4.959 -16.406   6.267  1.00  0.00     0.053 C 
BRANCH   5   6
ATOM      6  C   UNL     1      -3.789 -17.070   6.924  1.00  0.00     0.041 C 
ATOM      7  O   UNL     1      -3.408 -16.698   8.065  1.00  0.00    -0.550 OA
ATOM      8  O   UNL     1      -3.140 -18.123   6.291  1.00  0.00    -0.550 OA
ENDBRANCH   5   6
ENDBRANCH   4   5
ENDBRANCH   3   4
ENDBRANCH   2   3
ENDBRANCH   1   2
BRANCH   1   9
ATOM      9  C   UNL     1      -5.151 -12.616   7.248  1.00  0.00     0.000 C 
BRANCH   9  10
ATOM     10  C   UNL     1      -3.625 -12.748   7.324  1.00  0.00    -0.000 C 
BRANCH  10  11
ATOM     11  C   UNL     1      -3.091 -13.632   6.187  1.00  0.00    -0.000 C 
BRANCH  11  12
ATOM     12  C   UNL     1      -1.715 -14.238   6.504  1.00  0.00    -0.000 C 
BRANCH  12  13
ATOM     13  C   UNL     1      -1.322 -14.075   7.980  1.00  0.00    -0.003 C 
ATOM     14  C   UNL     1       0.191 -13.951   8.135  1.00  0.00     0.004 C 
ENDBRANCH  12  13
ENDBRANCH  11  12
ENDBRANCH  10  11
ENDBRANCH   9  10
ENDBRANCH   1   9
TORSDOF 10
ENDMDL
MODEL 7
REMARK VINA RESULT:     3.770      2.497      5.251
REMARK INTER + INTRA:           5.595
REMARK INTER:                   5.568
REMARK INTRA:                   0.027
REMARK UNBOUND:                -0.379
REMARK SMILES CCCCCCCCCCCC(=O)[O-]
REMARK SMILES IDX 7 1 8 2 9 3 10 4 11 5 12 6 13 7 14 8 6 9 5 10 4 11 3 12 2 13
REMARK SMILES IDX 1 14
REMARK H PARENT
REMARK Flexibility Score: inf
ROOT
ATOM      1  C   UNL     1      -2.209 -15.825   6.780  1.00  0.00     0.000 C 
ENDROOT
BRANCH   1   2
ATOM      2  C   UNL     1      -3.545 -16.573   6.913  1.00  0.00     0.000 C 
BRANCH   2   3
ATOM      3  C   UNL     1      -4.689 -15.658   7.384  1.00  0.00     0.000 C 
BRANCH   3   4
ATOM      4  C   UNL     1      -5.948 -15.779   6.505  1.00  0.00     0.006 C 
BRANCH   4   5
ATOM      5  C   UNL     1      -6.922 -14.596   6.624  1.00  0.00     0.053 C 
BRANCH   5   6
ATOM      6  C   UNL     1      -6.318 -13.317   6.132  1.00  0.00     0.041 C 
ATOM      7  O   UNL     1      -5.086 -13.254   5.881  1.00  0.00    -0.550 OA
ATOM      8  O   UNL     1      -7.122 -12.205   5.917  1.00  0.00    -0.550 OA
ENDBRANCH   5   6
ENDBRANCH   4   5
ENDBRANCH   3   4
ENDBRANCH   2   3
ENDBRANCH   1   2
BRANCH   1   9
ATOM      9  C   UNL     1      -2.369 -14.427   6.164  1.00  0.00     0.000 C 
BRANCH   9  10
ATOM     10  C   UNL     1      -1.606 -13.377   6.980  1.00  0.00    -0.000 C 
BRANCH  10  11
ATOM     11  C   UNL     1      -0.932 -14.014   8.205  1.00  0.00    -0.000 C 
BRANCH  11  12
ATOM     12  C   UNL     1       0.551 -13.631   8.330  1.00  0.00    -0.000 C 
BRANCH  12  13
ATOM     13  C   UNL     1       1.434 -14.813   8.759  1.00  0.00    -0.003 C 
ATOM     14  C   UNL     1       1.356 -15.037  10.266  1.00  0.00     0.004 C 
ENDBRANCH  12  13
ENDBRANCH  11  12
ENDBRANCH  10  11
ENDBRANCH   9  10
ENDBRANCH   1   9
TORSDOF 10
ENDMDL
MODEL 8
REMARK VINA RESULT:     4.000      1.021      1.383
REMARK INTER + INTRA:           5.959
REMARK INTER:                   6.622
REMARK INTRA:                  -0.663
REMARK UNBOUND:                -0.379
REMARK SMILES CCCCCCCCCCCC(=O)[O-]
REMARK SMILES IDX 7 1 8 2 9 3 10 4 11 5 12 6 13 7 14 8 6 9 5 10 4 11 3 12 2 13
REMARK SMILES IDX 1 14
REMARK H PARENT
REMARK Flexibility Score: inf
ROOT
ATOM      1  C   UNL     1      -4.361 -16.612   6.636  1.00  0.00     0.000 C 
ENDROOT
BRANCH   1   2
ATOM      2  C   UNL     1      -3.434 -15.513   7.181  1.00  0.00     0.000 C 
BRANCH   2   3
ATOM      3  C   UNL     1      -2.646 -14.800   6.068  1.00  0.00     0.000 C 
BRANCH   3   4
ATOM      4  C   UNL     1      -1.432 -14.019   6.605  1.00  0.00     0.006 C 
BRANCH   4   5
ATOM      5  C   UNL     1      -1.130 -14.258   8.093  1.00  0.00     0.053 C 
BRANCH   5   6
ATOM      6  C   UNL     1       0.310 -14.016   8.421  1.00  0.00     0.041 C 
ATOM      7  O   UNL     1       0.771 -12.844   8.428  1.00  0.00    -0.550 OA
ATOM      8  O   UNL     1       1.138 -15.082   8.751  1.00  0.00    -0.550 OA
ENDBRANCH   5   6
ENDBRANCH   4   5
ENDBRANCH   3   4
ENDBRANCH   2   3
ENDBRANCH   1   2
BRANCH   1   9
ATOM      9  C   UNL     1      -5.827 -16.164   6.551  1.00  0.00     0.000 C 
BRANCH   9  10
ATOM     10  C   UNL     1      -6.027 -14.804   7.230  1.00  0.00    -0.000 C 
BRANCH  10  11
ATOM     11  C   UNL     1      -6.247 -13.695   6.189  1.00  0.00    -0.000 C 
BRANCH  11  12
ATOM     12  C   UNL     1      -5.543 -12.382   6.566  1.00  0.00    -0.000 C 
BRANCH  12  13
ATOM     13  C   UNL     1      -4.535 -12.558   7.711  1.00  0.00    -0.003 C 
ATOM     14  C   UNL     1      -3.520 -11.418   7.728  1.00  0.00     0.004 C 
ENDBRANCH  12  13
ENDBRANCH  11  12
ENDBRANCH  10  11
ENDBRANCH   9  10
ENDBRANCH   1   9
TORSDOF 10
ENDMDL
MODEL 9
REMARK VINA RESULT:     5.128     15.028     16.853
REMARK INTER + INTRA:           7.747
REMARK INTER:                   8.226
REMARK INTRA:                  -0.479
REMARK UNBOUND:                -0.379
REMARK SMILES CCCCCCCCCCCC(=O)[O-]
REMARK SMILES IDX 7 1 8 2 9 3 10 4 11 5 12 6 13 7 14 8 6 9 5 10 4 11 3 12 2 13
REMARK SMILES IDX 1 14
REMARK H PARENT
REMARK Flexibility Score: inf
ROOT
ATOM      1  C   UNL     1      -0.949  -7.974  21.656  1.00  0.00     0.000 C 
ENDROOT
BRANCH   1   2
ATOM      2  C   UNL     1      -1.130  -8.369  20.182  1.00  0.00     0.000 C 
BRANCH   2   3
ATOM      3  C   UNL     1      -2.610  -8.449  19.770  1.00  0.00     0.000 C 
BRANCH   3   4
ATOM      4  C   UNL     1      -3.368  -9.580  20.488  1.00  0.00     0.006 C 
BRANCH   4   5
ATOM      5  C   UNL     1      -3.459 -10.891  19.691  1.00  0.00     0.053 C 
BRANCH   5   6
ATOM      6  C   UNL     1      -4.429 -11.855  20.300  1.00  0.00     0.041 C 
ATOM      7  O   UNL     1      -4.901 -12.799  19.614  1.00  0.00    -0.550 OA
ATOM      8  O   UNL     1      -4.787 -11.731  21.637  1.00  0.00    -0.550 OA
ENDBRANCH   5   6
ENDBRANCH   4   5
ENDBRANCH   3   4
ENDBRANCH   2   3
ENDBRANCH   1   2
BRANCH   1   9
ATOM      9  C   UNL     1      -1.499  -6.575  21.969  1.00  0.00     0.000 C 
BRANCH   9  10
ATOM     10  C   UNL     1      -1.814  -6.429  23.462  1.00  0.00    -0.000 C 
BRANCH  10  11
ATOM     11  C   UNL     1      -1.789  -4.953  23.889  1.00  0.00    -0.000 C 
BRANCH  11  12
ATOM     12  C   UNL     1      -2.789  -4.645  25.015  1.00  0.00    -0.000 C 
BRANCH  12  13
ATOM     13  C   UNL     1      -4.178  -5.245  24.753  1.00  0.00    -0.003 C 
ATOM     14  C   UNL     1      -5.052  -5.171  26.002  1.00  0.00     0.004 C 
ENDBRANCH  12  13
ENDBRANCH  11  12
ENDBRANCH  10  11
ENDBRANCH   9  10
ENDBRANCH   1   9
TORSDOF 10
ENDMDL
