MODEL 1
REMARK VINA RESULT:    -4.187      0.000      0.000
REMARK INTER + INTRA:          -4.451
REMARK INTER:                  -4.432
REMARK INTRA:                  -0.019
REMARK UNBOUND:                -0.019
REMARK SMILES O=C([O-])c1cccnc1
REMARK SMILES IDX 4 1 5 2 9 3 6 4 8 5 7 6 2 7 1 8 3 9
REMARK H PARENT
REMARK Flexibility Score: inf
ROOT
ATOM      1  C   UNL     1      21.177  -6.287  17.911  1.00  0.00     0.016 A 
ATOM      2  C   UNL     1      19.830  -6.349  17.522  1.00  0.00     0.013 A 
ATOM      3  C   UNL     1      22.068  -7.245  17.393  1.00  0.00     0.120 A 
ATOM      4  C   UNL     1      19.399  -7.344  16.642  1.00  0.00     0.021 A 
ATOM      5  N   UNL     1      21.622  -8.203  16.538  1.00  0.00    -0.264 NA
ATOM      6  C   UNL     1      20.319  -8.272  16.155  1.00  0.00     0.111 A 
ENDROOT
BRANCH   1   7
ATOM      7  C   UNL     1      21.646  -5.238  18.842  1.00  0.00     0.073 C 
ATOM      8  O   UNL     1      22.368  -5.535  19.831  1.00  0.00    -0.545 OA
ATOM      9  O   UNL     1      21.294  -3.909  18.639  1.00  0.00    -0.545 OA
ENDBRANCH   1   7
TORSDOF 1
ENDMDL
MODEL 2
REMARK VINA RESULT:    -4.156      2.846      4.073
REMARK INTER + INTRA:          -4.418
REMARK INTER:                  -4.394
REMARK INTRA:                  -0.024
REMARK UNBOUND:                -0.019
REMARK SMILES O=C([O-])c1cccnc1
REMARK SMILES IDX 4 1 5 2 9 3 6 4 8 5 7 6 2 7 1 8 3 9
REMARK H PARENT
REMARK Flexibility Score: inf
ROOT
ATOM      1  C   UNL     1      21.884  -5.907  18.690  1.00  0.00     0.016 A 
ATOM      2  C   UNL     1      22.416  -5.735  19.978  1.00  0.00     0.013 A 
ATOM      3  C   UNL     1      21.351  -4.786  18.031  1.00  0.00     0.120 A 
ATOM      4  C   UNL     1      22.407  -4.474  20.577  1.00  0.00     0.021 A 
ATOM      5  N   UNL     1      21.355  -3.568  18.637  1.00  0.00    -0.264 NA
ATOM      6  C   UNL     1      21.867  -3.391  19.883  1.00  0.00     0.111 A 
ENDROOT
BRANCH   1   7
ATOM      7  C   UNL     1      21.887  -7.239  18.044  1.00  0.00     0.073 C 
ATOM      8  O   UNL     1      22.437  -8.222  18.608  1.00  0.00    -0.545 OA
ATOM      9  O   UNL     1      21.285  -7.422  16.806  1.00  0.00    -0.545 OA
ENDBRANCH   1   7
TORSDOF 1
ENDMDL
MODEL 3
REMARK VINA RESULT:    -4.123      1.923      2.565
REMARK INTER + INTRA:          -4.383
REMARK INTER:                  -4.362
REMARK INTRA:                  -0.020
REMARK UNBOUND:                -0.019
REMARK SMILES O=C([O-])c1cccnc1
REMARK SMILES IDX 4 1 5 2 9 3 6 4 8 5 7 6 2 7 1 8 3 9
REMARK H PARENT
REMARK Flexibility Score: inf
ROOT
ATOM      1  C   UNL     1      22.099  -5.258  19.632  1.00  0.00     0.016 A 
ATOM      2  C   UNL     1      21.406  -4.865  18.476  1.00  0.00     0.013 A 
ATOM      3  C   UNL     1      22.660  -6.547  19.670  1.00  0.00     0.120 A 
ATOM      4  C   UNL     1      21.285  -5.745  17.398  1.00  0.00     0.021 A 
ATOM      5  N   UNL     1      22.528  -7.384  18.607  1.00  0.00    -0.264 NA
ATOM      6  C   UNL     1      21.858  -7.014  17.483  1.00  0.00     0.111 A 
ENDROOT
BRANCH   1   7
ATOM      7  C   UNL     1      22.235  -4.335  20.779  1.00  0.00     0.073 C 
ATOM      8  O   UNL     1      22.508  -3.119  20.594  1.00  0.00    -0.545 OA
ATOM      9  O   UNL     1      22.065  -4.797  22.079  1.00  0.00    -0.545 OA
ENDBRANCH   1   7
TORSDOF 1
ENDMDL
MODEL 4
REMARK VINA RESULT:    -4.023      0.900      1.602
REMARK INTER + INTRA:          -4.277
REMARK INTER:                  -4.258
REMARK INTRA:                  -0.020
REMARK UNBOUND:                -0.019
REMARK SMILES O=C([O-])c1cccnc1
REMARK SMILES IDX 4 1 5 2 9 3 6 4 8 5 7 6 2 7 1 8 3 9
REMARK H PARENT
REMARK Flexibility Score: inf
ROOT
ATOM      1  C   UNL     1      21.238  -6.274  17.931  1.00  0.00     0.016 A 
ATOM      2  C   UNL     1      22.157  -7.191  17.399  1.00  0.00     0.013 A 
ATOM      3  C   UNL     1      19.892  -6.368  17.534  1.00  0.00     0.120 A 
ATOM      4  C   UNL     1      21.731  -8.167  16.496  1.00  0.00     0.021 A 
ATOM      5  N   UNL     1      19.503  -7.329  16.654  1.00  0.00    -0.264 NA
ATOM      6  C   UNL     1      20.386  -8.222  16.131  1.00  0.00     0.111 A 
ENDROOT
BRANCH   1   7
ATOM      7  C   UNL     1      21.677  -5.235  18.888  1.00  0.00     0.073 C 
ATOM      8  O   UNL     1      22.414  -5.535  19.865  1.00  0.00    -0.545 OA
ATOM      9  O   UNL     1      21.282  -3.913  18.723  1.00  0.00    -0.545 OA
ENDBRANCH   1   7
TORSDOF 1
ENDMDL
MODEL 5
REMARK VINA RESULT:    -3.842     18.603     19.323
REMARK INTER + INTRA:          -4.085
REMARK INTER:                  -4.069
REMARK INTRA:                  -0.017
REMARK UNBOUND:                -0.019
REMARK SMILES O=C([O-])c1cccnc1
REMARK SMILES IDX 4 1 5 2 9 3 6 4 8 5 7 6 2 7 1 8 3 9
REMARK H PARENT
REMARK Flexibility Score: inf
ROOT
ATOM      1  C   UNL     1      19.954   8.784  28.856  1.00  0.00     0.016 A 
ATOM      2  C   UNL     1      19.060   7.883  29.457  1.00  0.00     0.013 A 
ATOM      3  C   UNL     1      20.948   9.374  29.657  1.00  0.00     0.120 A 
ATOM      4  C   UNL     1      19.167   7.592  30.818  1.00  0.00     0.021 A 
ATOM      5  N   UNL     1      21.030   9.073  30.981  1.00  0.00    -0.264 NA
ATOM      6  C   UNL     1      20.169   8.203  31.572  1.00  0.00     0.111 A 
ENDROOT
BRANCH   1   7
ATOM      7  C   UNL     1      19.852   9.100  27.415  1.00  0.00     0.073 C 
ATOM      8  O   UNL     1      20.704   8.656  26.600  1.00  0.00    -0.545 OA
ATOM      9  O   UNL     1      18.813   9.892  26.940  1.00  0.00    -0.545 OA
ENDBRANCH   1   7
TORSDOF 1
ENDMDL
MODEL 6
REMARK VINA RESULT:    -3.796     18.180     18.713
REMARK INTER + INTRA:          -4.037
REMARK INTER:                  -4.019
REMARK INTRA:                  -0.018
REMARK UNBOUND:                -0.019
REMARK SMILES O=C([O-])c1cccnc1
REMARK SMILES IDX 4 1 5 2 9 3 6 4 8 5 7 6 2 7 1 8 3 9
REMARK H PARENT
REMARK Flexibility Score: inf
ROOT
ATOM      1  C   UNL     1      19.992   8.143  29.281  1.00  0.00     0.016 A 
ATOM      2  C   UNL     1      19.255   8.844  28.314  1.00  0.00     0.013 A 
ATOM      3  C   UNL     1      21.330   7.817  28.997  1.00  0.00     0.120 A 
ATOM      4  C   UNL     1      19.850   9.202  27.103  1.00  0.00     0.021 A 
ATOM      5  N   UNL     1      21.885   8.177  27.809  1.00  0.00    -0.264 NA
ATOM      6  C   UNL     1      21.181   8.856  26.865  1.00  0.00     0.111 A 
ENDROOT
BRANCH   1   7
ATOM      7  C   UNL     1      19.373   7.759  30.569  1.00  0.00     0.073 C 
ATOM      8  O   UNL     1      19.845   8.182  31.658  1.00  0.00    -0.545 OA
ATOM      9  O   UNL     1      18.262   6.925  30.595  1.00  0.00    -0.545 OA
ENDBRANCH   1   7
TORSDOF 1
ENDMDL
MODEL 7
REMARK VINA RESULT:    -3.764     18.459     19.370
REMARK INTER + INTRA:          -4.003
REMARK INTER:                  -3.986
REMARK INTRA:                  -0.017
REMARK UNBOUND:                -0.019
REMARK SMILES O=C([O-])c1cccnc1
REMARK SMILES IDX 4 1 5 2 9 3 6 4 8 5 7 6 2 7 1 8 3 9
REMARK H PARENT
REMARK Flexibility Score: inf
ROOT
ATOM      1  C   UNL     1      19.997   8.818  28.835  1.00  0.00     0.016 A 
ATOM      2  C   UNL     1      20.986   9.456  29.601  1.00  0.00     0.013 A 
ATOM      3  C   UNL     1      19.152   7.891  29.470  1.00  0.00     0.120 A 
ATOM      4  C   UNL     1      21.116   9.164  30.961  1.00  0.00     0.021 A 
ATOM      5  N   UNL     1      19.300   7.626  30.796  1.00  0.00    -0.264 NA
ATOM      6  C   UNL     1      20.254   8.236  31.547  1.00  0.00     0.111 A 
ENDROOT
BRANCH   1   7
ATOM      7  C   UNL     1      19.850   9.119  27.394  1.00  0.00     0.073 C 
ATOM      8  O   UNL     1      20.671   8.661  26.557  1.00  0.00    -0.545 OA
ATOM      9  O   UNL     1      18.802   9.914  26.945  1.00  0.00    -0.545 OA
ENDBRANCH   1   7
TORSDOF 1
ENDMDL
MODEL 8
REMARK VINA RESULT:    -3.747      2.848      3.578
REMARK INTER + INTRA:          -3.985
REMARK INTER:                  -3.962
REMARK INTRA:                  -0.023
REMARK UNBOUND:                -0.019
REMARK SMILES O=C([O-])c1cccnc1
REMARK SMILES IDX 4 1 5 2 9 3 6 4 8 5 7 6 2 7 1 8 3 9
REMARK H PARENT
REMARK Flexibility Score: inf
ROOT
ATOM      1  C   UNL     1      20.588  -7.331  17.084  1.00  0.00     0.016 A 
ATOM      2  C   UNL     1      20.513  -6.045  17.643  1.00  0.00     0.013 A 
ATOM      3  C   UNL     1      21.611  -8.192  17.520  1.00  0.00     0.120 A 
ATOM      4  C   UNL     1      21.441  -5.645  18.607  1.00  0.00     0.021 A 
ATOM      5  N   UNL     1      22.501  -7.777  18.461  1.00  0.00    -0.264 NA
ATOM      6  C   UNL     1      22.439  -6.534  19.008  1.00  0.00     0.111 A 
ENDROOT
BRANCH   1   7
ATOM      7  C   UNL     1      19.611  -7.767  16.063  1.00  0.00     0.073 C 
ATOM      8  O   UNL     1      19.557  -8.973  15.701  1.00  0.00    -0.545 OA
ATOM      9  O   UNL     1      18.739  -6.851  15.487  1.00  0.00    -0.545 OA
ENDBRANCH   1   7
TORSDOF 1
ENDMDL
