MODEL 1
REMARK VINA RESULT:    -4.933      0.000      0.000
REMARK INTER + INTRA:          -5.222
REMARK INTER:                  -5.222
REMARK INTRA:                   0.000
REMARK UNBOUND:                 0.000
REMARK SMILES Cc1cc(O)c(C)c(C)c1O
REMARK SMILES IDX 1 1 2 2 3 3 4 4 6 5 8 6 10 7 9 8 7 9 11 10 5 12
REMARK H PARENT 11 11 5 13
REMARK Flexibility Score: inf
ROOT
ATOM      1  C   UNL     1      -1.856  -3.012   1.655  1.00  0.00     0.048 C 
ATOM      2  C   UNL     1      -1.200  -2.214   0.559  1.00  0.00    -0.005 A 
ATOM      3  C   UNL     1      -0.540  -1.024   0.881  1.00  0.00     0.053 A 
ATOM      4  C   UNL     1       0.072  -0.250  -0.102  1.00  0.00     0.119 A 
ATOM      5  C   UNL     1       0.015  -0.648  -1.459  1.00  0.00    -0.003 A 
ATOM      6  C   UNL     1      -0.597  -1.887  -1.792  1.00  0.00    -0.002 A 
ATOM      7  C   UNL     1      -1.226  -2.653  -0.782  1.00  0.00     0.121 A 
ATOM      8  C   UNL     1      -0.608  -2.388  -3.219  1.00  0.00     0.049 C 
ATOM      9  C   UNL     1       0.634   0.241  -2.517  1.00  0.00     0.049 C 
ENDROOT
BRANCH   7  10
ATOM     10  O   UNL     1      -1.871  -3.845  -1.132  1.00  0.00    -0.507 OA
ATOM     11  H   UNL     1      -1.709  -4.332  -2.005  1.00  0.00     0.293 HD
ENDBRANCH   7  10
BRANCH   4  12
ATOM     12  O   UNL     1       0.737   0.910   0.307  1.00  0.00    -0.508 OA
ATOM     13  H   UNL     1       0.532   1.400   1.168  1.00  0.00     0.293 HD
ENDBRANCH   4  12
TORSDOF 2
ENDMDL
MODEL 2
REMARK VINA RESULT:    -4.923      1.300      3.277
REMARK INTER + INTRA:          -5.211
REMARK INTER:                  -5.211
REMARK INTRA:                   0.000
REMARK UNBOUND:                 0.000
REMARK SMILES Cc1cc(O)c(C)c(C)c1O
REMARK SMILES IDX 1 1 2 2 3 3 4 4 6 5 8 6 10 7 9 8 7 9 11 10 5 12
REMARK H PARENT 11 11 5 13
REMARK Flexibility Score: inf
ROOT
ATOM      1  C   UNL     1       0.359  -1.627  -2.268  1.00  0.00     0.048 C 
ATOM      2  C   UNL     1      -0.164  -1.107  -0.956  1.00  0.00    -0.005 A 
ATOM      3  C   UNL     1       0.342   0.093  -0.445  1.00  0.00     0.053 A 
ATOM      4  C   UNL     1      -0.107   0.606   0.770  1.00  0.00     0.119 A 
ATOM      5  C   UNL     1      -1.075  -0.098   1.525  1.00  0.00    -0.003 A 
ATOM      6  C   UNL     1      -1.644  -1.285   0.987  1.00  0.00    -0.002 A 
ATOM      7  C   UNL     1      -1.165  -1.798  -0.241  1.00  0.00     0.121 A 
ATOM      8  C   UNL     1      -2.739  -2.023   1.725  1.00  0.00     0.049 C 
ATOM      9  C   UNL     1      -1.501   0.448   2.871  1.00  0.00     0.049 C 
ENDROOT
BRANCH   7  10
ATOM     10  O   UNL     1      -1.697  -2.996  -0.733  1.00  0.00    -0.507 OA
ATOM     11  H   UNL     1      -1.483  -3.368  -1.650  1.00  0.00     0.293 HD
ENDBRANCH   7  10
BRANCH   4  12
ATOM     12  O   UNL     1       0.428   1.826   1.195  1.00  0.00    -0.508 OA
ATOM     13  H   UNL     1      -0.122   2.562   1.618  1.00  0.00     0.293 HD
ENDBRANCH   4  12
TORSDOF 2
ENDMDL
MODEL 3
REMARK VINA RESULT:    -4.863      0.673      3.210
REMARK INTER + INTRA:          -5.147
REMARK INTER:                  -5.147
REMARK INTRA:                   0.000
REMARK UNBOUND:                 0.000
REMARK SMILES Cc1cc(O)c(C)c(C)c1O
REMARK SMILES IDX 1 1 2 2 3 3 4 4 6 5 8 6 10 7 9 8 7 9 11 10 5 12
REMARK H PARENT 11 11 5 13
REMARK Flexibility Score: inf
ROOT
ATOM      1  C   UNL     1      -1.272  -0.407   2.394  1.00  0.00     0.048 C 
ATOM      2  C   UNL     1      -1.095  -0.900   0.983  1.00  0.00    -0.005 A 
ATOM      3  C   UNL     1      -1.594  -2.158   0.629  1.00  0.00     0.053 A 
ATOM      4  C   UNL     1      -1.443  -2.657  -0.663  1.00  0.00     0.119 A 
ATOM      5  C   UNL     1      -0.757  -1.901  -1.641  1.00  0.00    -0.003 A 
ATOM      6  C   UNL     1      -0.301  -0.595  -1.314  1.00  0.00    -0.002 A 
ATOM      7  C   UNL     1      -0.449  -0.111   0.007  1.00  0.00     0.121 A 
ATOM      8  C   UNL     1       0.367   0.277  -2.355  1.00  0.00     0.049 C 
ATOM      9  C   UNL     1      -0.552  -2.491  -3.021  1.00  0.00     0.049 C 
ENDROOT
BRANCH   7  10
ATOM     10  O   UNL     1       0.051   1.157   0.329  1.00  0.00    -0.507 OA
ATOM     11  H   UNL     1       0.937   1.510  -0.010  1.00  0.00     0.293 HD
ENDBRANCH   7  10
BRANCH   4  12
ATOM     12  O   UNL     1      -1.998  -3.910  -0.941  1.00  0.00    -0.508 OA
ATOM     13  H   UNL     1      -1.609  -4.782  -0.608  1.00  0.00     0.293 HD
ENDBRANCH   4  12
TORSDOF 2
ENDMDL
MODEL 4
REMARK VINA RESULT:    -4.819      0.981      4.316
REMARK INTER + INTRA:          -5.101
REMARK INTER:                  -5.101
REMARK INTRA:                   0.000
REMARK UNBOUND:                 0.000
REMARK SMILES Cc1cc(O)c(C)c(C)c1O
REMARK SMILES IDX 1 1 2 2 3 3 4 4 6 5 8 6 10 7 9 8 7 9 11 10 5 12
REMARK H PARENT 11 11 5 13
REMARK Flexibility Score: inf
ROOT
ATOM      1  C   UNL     1       0.832  -1.251  -3.506  1.00  0.00     0.048 C 
ATOM      2  C   UNL     1       0.089  -1.561  -2.234  1.00  0.00    -0.005 A 
ATOM      3  C   UNL     1      -0.612  -2.767  -2.128  1.00  0.00     0.053 A 
ATOM      4  C   UNL     1      -1.322  -3.090  -0.974  1.00  0.00     0.119 A 
ATOM      5  C   UNL     1      -1.365  -2.183   0.112  1.00  0.00    -0.003 A 
ATOM      6  C   UNL     1      -0.606  -0.983   0.042  1.00  0.00    -0.002 A 
ATOM      7  C   UNL     1       0.097  -0.665  -1.144  1.00  0.00     0.121 A 
ATOM      8  C   UNL     1      -0.560  -0.025   1.212  1.00  0.00     0.049 C 
ATOM      9  C   UNL     1      -2.193  -2.528   1.331  1.00  0.00     0.049 C 
ENDROOT
BRANCH   7  10
ATOM     10  O   UNL     1       0.797   0.545  -1.218  1.00  0.00    -0.507 OA
ATOM     11  H   UNL     1       0.409   1.434  -0.927  1.00  0.00     0.293 HD
ENDBRANCH   7  10
BRANCH   4  12
ATOM     12  O   UNL     1      -1.969  -4.328  -0.937  1.00  0.00    -0.508 OA
ATOM     13  H   UNL     1      -1.618  -5.129  -0.428  1.00  0.00     0.293 HD
ENDBRANCH   4  12
TORSDOF 2
ENDMDL
MODEL 5
REMARK VINA RESULT:    -4.744      8.478      9.464
REMARK INTER + INTRA:          -5.022
REMARK INTER:                  -5.022
REMARK INTRA:                   0.000
REMARK UNBOUND:                 0.000
REMARK SMILES Cc1cc(O)c(C)c(C)c1O
REMARK SMILES IDX 1 1 2 2 3 3 4 4 6 5 8 6 10 7 9 8 7 9 11 10 5 12
REMARK H PARENT 11 11 5 13
REMARK Flexibility Score: inf
ROOT
ATOM      1  C   UNL     1      -5.903   0.818  -8.230  1.00  0.00     0.048 C 
ATOM      2  C   UNL     1      -6.185   1.674  -7.025  1.00  0.00    -0.005 A 
ATOM      3  C   UNL     1      -7.419   1.556  -6.376  1.00  0.00     0.053 A 
ATOM      4  C   UNL     1      -7.727   2.336  -5.263  1.00  0.00     0.119 A 
ATOM      5  C   UNL     1      -6.795   3.285  -4.781  1.00  0.00    -0.003 A 
ATOM      6  C   UNL     1      -5.514   3.371  -5.391  1.00  0.00    -0.002 A 
ATOM      7  C   UNL     1      -5.225   2.581  -6.529  1.00  0.00     0.121 A 
ATOM      8  C   UNL     1      -4.461   4.316  -4.855  1.00  0.00     0.049 C 
ATOM      9  C   UNL     1      -7.176   4.164  -3.608  1.00  0.00     0.049 C 
ENDROOT
BRANCH   7  10
ATOM     10  O   UNL     1      -3.978   2.714  -7.152  1.00  0.00    -0.507 OA
ATOM     11  H   UNL     1      -3.104   2.769  -6.645  1.00  0.00     0.293 HD
ENDBRANCH   7  10
BRANCH   4  12
ATOM     12  O   UNL     1      -8.969   2.134  -4.654  1.00  0.00    -0.508 OA
ATOM     13  H   UNL     1      -9.534   2.881  -4.273  1.00  0.00     0.293 HD
ENDBRANCH   4  12
TORSDOF 2
ENDMDL
MODEL 6
REMARK VINA RESULT:    -4.743      1.443      2.972
REMARK INTER + INTRA:          -5.020
REMARK INTER:                  -5.020
REMARK INTRA:                   0.000
REMARK UNBOUND:                 0.000
REMARK SMILES Cc1cc(O)c(C)c(C)c1O
REMARK SMILES IDX 1 1 2 2 3 3 4 4 6 5 8 6 10 7 9 8 7 9 11 10 5 12
REMARK H PARENT 11 11 5 13
REMARK Flexibility Score: inf
ROOT
ATOM      1  C   UNL     1      -1.835  -3.940   1.353  1.00  0.00     0.048 C 
ATOM      2  C   UNL     1      -1.294  -2.985   0.323  1.00  0.00    -0.005 A 
ATOM      3  C   UNL     1      -1.461  -3.277  -1.035  1.00  0.00     0.053 A 
ATOM      4  C   UNL     1      -0.966  -2.426  -2.022  1.00  0.00     0.119 A 
ATOM      5  C   UNL     1      -0.262  -1.253  -1.661  1.00  0.00    -0.003 A 
ATOM      6  C   UNL     1      -0.142  -0.912  -0.286  1.00  0.00    -0.002 A 
ATOM      7  C   UNL     1      -0.636  -1.796   0.702  1.00  0.00     0.121 A 
ATOM      8  C   UNL     1       0.534   0.374   0.137  1.00  0.00     0.049 C 
ATOM      9  C   UNL     1       0.319  -0.376  -2.750  1.00  0.00     0.049 C 
ENDROOT
BRANCH   7  10
ATOM     10  O   UNL     1      -0.464  -1.472   2.053  1.00  0.00    -0.507 OA
ATOM     11  H   UNL     1       0.417  -1.569   2.542  1.00  0.00     0.293 HD
ENDBRANCH   7  10
BRANCH   4  12
ATOM     12  O   UNL     1      -1.202  -2.775  -3.355  1.00  0.00    -0.508 OA
ATOM     13  H   UNL     1      -1.851  -2.285  -3.956  1.00  0.00     0.293 HD
ENDBRANCH   4  12
TORSDOF 2
ENDMDL
MODEL 7
REMARK VINA RESULT:    -4.700      1.806      2.439
REMARK INTER + INTRA:          -4.975
REMARK INTER:                  -4.975
REMARK INTRA:                   0.000
REMARK UNBOUND:                 0.000
REMARK SMILES Cc1cc(O)c(C)c(C)c1O
REMARK SMILES IDX 1 1 2 2 3 3 4 4 6 5 8 6 10 7 9 8 7 9 11 10 5 12
REMARK H PARENT 11 11 5 13
REMARK Flexibility Score: inf
ROOT
ATOM      1  C   UNL     1      -2.011   0.219   3.459  1.00  0.00     0.048 C 
ATOM      2  C   UNL     1      -1.445  -0.245   2.143  1.00  0.00    -0.005 A 
ATOM      3  C   UNL     1      -0.410   0.484   1.549  1.00  0.00     0.053 A 
ATOM      4  C   UNL     1       0.137   0.097   0.327  1.00  0.00     0.119 A 
ATOM      5  C   UNL     1      -0.368  -1.038  -0.349  1.00  0.00    -0.003 A 
ATOM      6  C   UNL     1      -1.375  -1.825   0.273  1.00  0.00    -0.002 A 
ATOM      7  C   UNL     1      -1.929  -1.408   1.507  1.00  0.00     0.121 A 
ATOM      8  C   UNL     1      -1.885  -3.091  -0.379  1.00  0.00     0.049 C 
ATOM      9  C   UNL     1       0.199  -1.404  -1.705  1.00  0.00     0.049 C 
ENDROOT
BRANCH   7  10
ATOM     10  O   UNL     1      -2.957  -2.163   2.083  1.00  0.00    -0.507 OA
ATOM     11  H   UNL     1      -3.729  -1.756   2.596  1.00  0.00     0.293 HD
ENDBRANCH   7  10
BRANCH   4  12
ATOM     12  O   UNL     1       1.189   0.863  -0.184  1.00  0.00    -0.508 OA
ATOM     13  H   UNL     1       1.560   0.753  -1.118  1.00  0.00     0.293 HD
ENDBRANCH   4  12
TORSDOF 2
ENDMDL
MODEL 8
REMARK VINA RESULT:    -4.662      1.954      4.108
REMARK INTER + INTRA:          -4.934
REMARK INTER:                  -4.934
REMARK INTRA:                   0.000
REMARK UNBOUND:                 0.000
REMARK SMILES Cc1cc(O)c(C)c(C)c1O
REMARK SMILES IDX 1 1 2 2 3 3 4 4 6 5 8 6 10 7 9 8 7 9 11 10 5 12
REMARK H PARENT 11 11 5 13
REMARK Flexibility Score: inf
ROOT
ATOM      1  C   UNL     1       1.333   1.570   1.559  1.00  0.00     0.048 C 
ATOM      2  C   UNL     1       0.567   0.340   1.149  1.00  0.00    -0.005 A 
ATOM      3  C   UNL     1       0.429   0.043  -0.211  1.00  0.00     0.053 A 
ATOM      4  C   UNL     1      -0.280  -1.079  -0.636  1.00  0.00     0.119 A 
ATOM      5  C   UNL     1      -0.895  -1.931   0.310  1.00  0.00    -0.003 A 
ATOM      6  C   UNL     1      -0.708  -1.677   1.697  1.00  0.00    -0.002 A 
ATOM      7  C   UNL     1       0.002  -0.525   2.109  1.00  0.00     0.121 A 
ATOM      8  C   UNL     1      -1.282  -2.610   2.741  1.00  0.00     0.049 C 
ATOM      9  C   UNL     1      -1.711  -3.109  -0.177  1.00  0.00     0.049 C 
ENDROOT
BRANCH   7  10
ATOM     10  O   UNL     1       0.133  -0.258   3.477  1.00  0.00    -0.507 OA
ATOM     11  H   UNL     1       1.006  -0.347   3.982  1.00  0.00     0.293 HD
ENDBRANCH   7  10
BRANCH   4  12
ATOM     12  O   UNL     1      -0.346  -1.320  -2.011  1.00  0.00    -0.508 OA
ATOM     13  H   UNL     1      -0.805  -2.124  -2.418  1.00  0.00     0.293 HD
ENDBRANCH   4  12
TORSDOF 2
ENDMDL
MODEL 9
REMARK VINA RESULT:    -4.628      1.835      4.182
REMARK INTER + INTRA:          -4.899
REMARK INTER:                  -4.899
REMARK INTRA:                   0.000
REMARK UNBOUND:                 0.000
REMARK SMILES Cc1cc(O)c(C)c(C)c1O
REMARK SMILES IDX 1 1 2 2 3 3 4 4 6 5 8 6 10 7 9 8 7 9 11 10 5 12
REMARK H PARENT 11 11 5 13
REMARK Flexibility Score: inf
ROOT
ATOM      1  C   UNL     1      -0.507  -1.822  -2.205  1.00  0.00     0.048 C 
ATOM      2  C   UNL     1      -0.749  -1.298  -0.815  1.00  0.00    -0.005 A 
ATOM      3  C   UNL     1      -1.678  -1.944   0.007  1.00  0.00     0.053 A 
ATOM      4  C   UNL     1      -1.941  -1.487   1.297  1.00  0.00     0.119 A 
ATOM      5  C   UNL     1      -1.282  -0.338   1.792  1.00  0.00    -0.003 A 
ATOM      6  C   UNL     1      -0.288   0.290   0.992  1.00  0.00    -0.002 A 
ATOM      7  C   UNL     1      -0.046  -0.179  -0.321  1.00  0.00     0.121 A 
ATOM      8  C   UNL     1       0.497   1.472   1.516  1.00  0.00     0.049 C 
ATOM      9  C   UNL     1      -1.629   0.175   3.173  1.00  0.00     0.049 C 
ENDROOT
BRANCH   7  10
ATOM     10  O   UNL     1       0.897   0.481  -1.117  1.00  0.00    -0.507 OA
ATOM     11  H   UNL     1       1.759   0.054  -1.432  1.00  0.00     0.293 HD
ENDBRANCH   7  10
BRANCH   4  12
ATOM     12  O   UNL     1      -2.862  -2.208   2.064  1.00  0.00    -0.508 OA
ATOM     13  H   UNL     1      -3.807  -2.407   1.764  1.00  0.00     0.293 HD
ENDBRANCH   4  12
TORSDOF 2
ENDMDL
