MODEL 1
REMARK VINA RESULT:    -4.731      0.000      0.000
REMARK INTER + INTRA:          -7.792
REMARK INTER:                  -5.837
REMARK INTRA:                  -1.955
REMARK UNBOUND:                -1.955
REMARK SMILES C=C(CCC=C(C)C)[C@H]1CC=C(C)CC1
REMARK SMILES IDX 3 1 2 2 1 3 9 4 13 5 12 6 11 7 14 8 10 9 15 10 4 11 5 12
REMARK SMILES IDX 6 13 7 14 8 15
REMARK H PARENT
REMARK Flexibility Score: inf
ROOT
ATOM      1  C   UNL     1      33.027  10.100  32.623  1.00  0.00     0.035 C 
ENDROOT
BRANCH   1   2
ATOM      2  C   UNL     1      31.900   9.521  31.796  1.00  0.00    -0.074 C 
ATOM      3  C   UNL     1      31.243  10.314  30.930  1.00  0.00     0.008 C 
BRANCH   2   4
ATOM      4  C   UNL     1      31.508   8.058  31.968  1.00  0.00     0.018 C 
ATOM      5  C   UNL     1      29.574   7.018  35.754  1.00  0.00     0.039 C 
ATOM      6  C   UNL     1      30.310   7.035  34.443  1.00  0.00    -0.077 C 
ATOM      7  C   UNL     1      31.618   7.338  34.408  1.00  0.00    -0.027 C 
ATOM      8  C   UNL     1      29.589   6.799  33.137  1.00  0.00     0.031 C 
ATOM      9  C   UNL     1      32.345   7.377  33.089  1.00  0.00     0.035 C 
ATOM     10  C   UNL     1      29.965   7.908  32.145  1.00  0.00     0.013 C 
ENDBRANCH   2   4
ENDBRANCH   1   2
BRANCH   1  11
ATOM     11  C   UNL     1      32.536  11.296  33.446  1.00  0.00     0.032 C 
BRANCH  11  12
ATOM     12  C   UNL     1      32.333  10.919  34.893  1.00  0.00    -0.028 C 
ATOM     13  C   UNL     1      31.115  10.713  35.436  1.00  0.00    -0.080 C 
ATOM     14  C   UNL     1      31.026  10.341  36.893  1.00  0.00     0.039 C 
ATOM     15  C   UNL     1      29.852  10.846  34.618  1.00  0.00     0.039 C 
ENDBRANCH  11  12
ENDBRANCH   1  11
TORSDOF 4
ENDMDL
MODEL 2
REMARK VINA RESULT:    -4.527      1.125      3.690
REMARK INTER + INTRA:          -7.541
REMARK INTER:                  -5.755
REMARK INTRA:                  -1.786
REMARK UNBOUND:                -1.955
REMARK SMILES C=C(CCC=C(C)C)[C@H]1CC=C(C)CC1
REMARK SMILES IDX 3 1 2 2 1 3 9 4 13 5 12 6 11 7 14 8 10 9 15 10 4 11 5 12
REMARK SMILES IDX 6 13 7 14 8 15
REMARK H PARENT
REMARK Flexibility Score: inf
ROOT
ATOM      1  C   UNL     1      31.369   7.936  31.589  1.00  0.00     0.035 C 
ENDROOT
BRANCH   1   2
ATOM      2  C   UNL     1      30.879   9.291  31.129  1.00  0.00    -0.074 C 
ATOM      3  C   UNL     1      29.967   9.361  30.142  1.00  0.00     0.008 C 
BRANCH   2   4
ATOM      4  C   UNL     1      31.436  10.557  31.769  1.00  0.00     0.018 C 
ATOM      5  C   UNL     1      31.739  10.535  36.134  1.00  0.00     0.039 C 
ATOM      6  C   UNL     1      31.641  10.888  34.676  1.00  0.00    -0.077 C 
ATOM      7  C   UNL     1      30.441  10.958  34.077  1.00  0.00    -0.027 C 
ATOM      8  C   UNL     1      32.880  11.087  33.835  1.00  0.00     0.031 C 
ATOM      9  C   UNL     1      30.352  11.289  32.611  1.00  0.00     0.035 C 
ATOM     10  C   UNL     1      32.755  10.260  32.548  1.00  0.00     0.013 C 
ENDBRANCH   2   4
ENDBRANCH   1   2
BRANCH   1  11
ATOM     11  C   UNL     1      30.462   7.377  32.690  1.00  0.00     0.032 C 
BRANCH  11  12
ATOM     12  C   UNL     1      31.246   7.073  33.944  1.00  0.00    -0.028 C 
ATOM     13  C   UNL     1      30.726   7.192  35.184  1.00  0.00    -0.080 C 
ATOM     14  C   UNL     1      31.597   6.864  36.368  1.00  0.00     0.039 C 
ATOM     15  C   UNL     1      29.302   7.644  35.404  1.00  0.00     0.039 C 
ENDBRANCH  11  12
ENDBRANCH   1  11
TORSDOF 4
ENDMDL
MODEL 3
REMARK VINA RESULT:    -4.526      2.107      3.868
REMARK INTER + INTRA:          -7.538
REMARK INTER:                  -5.647
REMARK INTRA:                  -1.892
REMARK UNBOUND:                -1.955
REMARK SMILES C=C(CCC=C(C)C)[C@H]1CC=C(C)CC1
REMARK SMILES IDX 3 1 2 2 1 3 9 4 13 5 12 6 11 7 14 8 10 9 15 10 4 11 5 12
REMARK SMILES IDX 6 13 7 14 8 15
REMARK H PARENT
REMARK Flexibility Score: inf
ROOT
ATOM      1  C   UNL     1      32.740  11.616  31.100  1.00  0.00     0.035 C 
ENDROOT
BRANCH   1   2
ATOM      2  C   UNL     1      31.292  11.836  30.726  1.00  0.00    -0.074 C 
ATOM      3  C   UNL     1      30.529  12.640  31.489  1.00  0.00     0.008 C 
BRANCH   2   4
ATOM      4  C   UNL     1      30.707  11.131  29.508  1.00  0.00     0.018 C 
ATOM      5  C   UNL     1      29.451   6.982  30.105  1.00  0.00     0.039 C 
ATOM      6  C   UNL     1      29.894   8.313  29.565  1.00  0.00    -0.077 C 
ATOM      7  C   UNL     1      31.198   8.633  29.545  1.00  0.00    -0.027 C 
ATOM      8  C   UNL     1      28.890   9.348  29.116  1.00  0.00     0.031 C 
ATOM      9  C   UNL     1      31.633   9.978  29.024  1.00  0.00     0.035 C 
ATOM     10  C   UNL     1      29.231  10.697  29.764  1.00  0.00     0.013 C 
ENDBRANCH   2   4
ENDBRANCH   1   2
BRANCH   1  11
ATOM     11  C   UNL     1      32.858  11.137  32.551  1.00  0.00     0.032 C 
BRANCH  11  12
ATOM     12  C   UNL     1      32.934   9.631  32.626  1.00  0.00    -0.028 C 
ATOM     13  C   UNL     1      31.896   8.861  33.016  1.00  0.00    -0.080 C 
ATOM     14  C   UNL     1      32.079   7.366  33.057  1.00  0.00     0.039 C 
ATOM     15  C   UNL     1      30.568   9.463  33.408  1.00  0.00     0.039 C 
ENDBRANCH  11  12
ENDBRANCH   1  11
TORSDOF 4
ENDMDL
MODEL 4
REMARK VINA RESULT:    -4.474      2.493      5.233
REMARK INTER + INTRA:          -7.475
REMARK INTER:                  -5.551
REMARK INTRA:                  -1.924
REMARK UNBOUND:                -1.955
REMARK SMILES C=C(CCC=C(C)C)[C@H]1CC=C(C)CC1
REMARK SMILES IDX 3 1 2 2 1 3 9 4 13 5 12 6 11 7 14 8 10 9 15 10 4 11 5 12
REMARK SMILES IDX 6 13 7 14 8 15
REMARK H PARENT
REMARK Flexibility Score: inf
ROOT
ATOM      1  C   UNL     1      32.362  11.113  28.373  1.00  0.00     0.035 C 
ENDROOT
BRANCH   1   2
ATOM      2  C   UNL     1      31.364  11.844  29.243  1.00  0.00    -0.074 C 
ATOM      3  C   UNL     1      30.284  12.410  28.675  1.00  0.00     0.008 C 
BRANCH   2   4
ATOM      4  C   UNL     1      31.603  11.950  30.745  1.00  0.00     0.018 C 
ATOM      5  C   UNL     1      32.200   8.172  32.871  1.00  0.00     0.039 C 
ATOM      6  C   UNL     1      31.911   9.589  32.457  1.00  0.00    -0.077 C 
ATOM      7  C   UNL     1      30.697   9.919  31.984  1.00  0.00    -0.027 C 
ATOM      8  C   UNL     1      32.989  10.646  32.480  1.00  0.00     0.031 C 
ATOM      9  C   UNL     1      30.421  11.334  31.549  1.00  0.00     0.035 C 
ATOM     10  C   UNL     1      33.003  11.382  31.134  1.00  0.00     0.013 C 
ENDBRANCH   2   4
ENDBRANCH   1   2
BRANCH   1  11
ATOM     11  C   UNL     1      31.675   9.992  27.586  1.00  0.00     0.032 C 
BRANCH  11  12
ATOM     12  C   UNL     1      31.663   8.701  28.368  1.00  0.00    -0.028 C 
ATOM     13  C   UNL     1      30.538   8.168  28.891  1.00  0.00    -0.080 C 
ATOM     14  C   UNL     1      30.638   6.875  29.657  1.00  0.00     0.039 C 
ATOM     15  C   UNL     1      29.195   8.837  28.723  1.00  0.00     0.039 C 
ENDBRANCH  11  12
ENDBRANCH   1  11
TORSDOF 4
ENDMDL
MODEL 5
REMARK VINA RESULT:    -4.430      1.329      3.902
REMARK INTER + INTRA:          -7.420
REMARK INTER:                  -5.528
REMARK INTRA:                  -1.892
REMARK UNBOUND:                -1.955
REMARK SMILES C=C(CCC=C(C)C)[C@H]1CC=C(C)CC1
REMARK SMILES IDX 3 1 2 2 1 3 9 4 13 5 12 6 11 7 14 8 10 9 15 10 4 11 5 12
REMARK SMILES IDX 6 13 7 14 8 15
REMARK H PARENT
REMARK Flexibility Score: inf
ROOT
ATOM      1  C   UNL     1      30.594   6.319  35.444  1.00  0.00     0.035 C 
ENDROOT
BRANCH   1   2
ATOM      2  C   UNL     1      29.701   7.095  34.502  1.00  0.00    -0.074 C 
ATOM      3  C   UNL     1      28.386   7.193  34.772  1.00  0.00     0.008 C 
BRANCH   2   4
ATOM      4  C   UNL     1      30.291   7.736  33.252  1.00  0.00     0.018 C 
ATOM      5  C   UNL     1      32.880  11.203  33.905  1.00  0.00     0.039 C 
ATOM      6  C   UNL     1      31.960  10.146  33.361  1.00  0.00    -0.077 C 
ATOM      7  C   UNL     1      30.634  10.240  33.554  1.00  0.00    -0.027 C 
ATOM      8  C   UNL     1      32.502   8.920  32.666  1.00  0.00     0.031 C 
ATOM      9  C   UNL     1      29.720   9.166  33.027  1.00  0.00     0.035 C 
ATOM     10  C   UNL     1      31.850   7.668  33.267  1.00  0.00     0.013 C 
ENDBRANCH   2   4
ENDBRANCH   1   2
BRANCH   1  11
ATOM     11  C   UNL     1      30.584   6.949  36.842  1.00  0.00     0.032 C 
BRANCH  11  12
ATOM     12  C   UNL     1      31.314   8.270  36.853  1.00  0.00    -0.028 C 
ATOM     13  C   UNL     1      30.724   9.434  37.197  1.00  0.00    -0.080 C 
ATOM     14  C   UNL     1      31.545  10.697  37.173  1.00  0.00     0.039 C 
ATOM     15  C   UNL     1      29.271   9.493  37.603  1.00  0.00     0.039 C 
ENDBRANCH  11  12
ENDBRANCH   1  11
TORSDOF 4
ENDMDL
MODEL 6
REMARK VINA RESULT:    -4.418      2.253      4.926
REMARK INTER + INTRA:          -7.406
REMARK INTER:                  -6.327
REMARK INTRA:                  -1.079
REMARK UNBOUND:                -1.955
REMARK SMILES C=C(CCC=C(C)C)[C@H]1CC=C(C)CC1
REMARK SMILES IDX 3 1 2 2 1 3 9 4 13 5 12 6 11 7 14 8 10 9 15 10 4 11 5 12
REMARK SMILES IDX 6 13 7 14 8 15
REMARK H PARENT
REMARK Flexibility Score: inf
ROOT
ATOM      1  C   UNL     1      30.803  11.744  30.926  1.00  0.00     0.035 C 
ENDROOT
BRANCH   1   2
ATOM      2  C   UNL     1      32.277  11.724  31.262  1.00  0.00    -0.074 C 
ATOM      3  C   UNL     1      33.075  12.699  30.788  1.00  0.00     0.008 C 
BRANCH   2   4
ATOM      4  C   UNL     1      32.846  10.594  32.112  1.00  0.00     0.018 C 
ATOM      5  C   UNL     1      30.282   9.140  35.346  1.00  0.00     0.039 C 
ATOM      6  C   UNL     1      31.416   9.498  34.426  1.00  0.00    -0.077 C 
ATOM      7  C   UNL     1      31.998  10.706  34.510  1.00  0.00    -0.027 C 
ATOM      8  C   UNL     1      31.870   8.552  33.340  1.00  0.00     0.031 C 
ATOM      9  C   UNL     1      33.118  11.066  33.570  1.00  0.00     0.035 C 
ATOM     10  C   UNL     1      31.960   9.314  32.011  1.00  0.00     0.013 C 
ENDBRANCH   2   4
ENDBRANCH   1   2
BRANCH   1  11
ATOM     11  C   UNL     1      30.594  11.754  29.407  1.00  0.00     0.032 C 
BRANCH  11  12
ATOM     12  C   UNL     1      30.894  10.403  28.804  1.00  0.00    -0.028 C 
ATOM     13  C   UNL     1      31.751  10.229  27.776  1.00  0.00    -0.080 C 
ATOM     14  C   UNL     1      31.976   8.836  27.249  1.00  0.00     0.039 C 
ATOM     15  C   UNL     1      32.482  11.394  27.152  1.00  0.00     0.039 C 
ENDBRANCH  11  12
ENDBRANCH   1  11
TORSDOF 4
ENDMDL
MODEL 7
REMARK VINA RESULT:    -4.359      1.794      5.095
REMARK INTER + INTRA:          -7.333
REMARK INTER:                  -5.595
REMARK INTRA:                  -1.738
REMARK UNBOUND:                -1.955
REMARK SMILES C=C(CCC=C(C)C)[C@H]1CC=C(C)CC1
REMARK SMILES IDX 3 1 2 2 1 3 9 4 13 5 12 6 11 7 14 8 10 9 15 10 4 11 5 12
REMARK SMILES IDX 6 13 7 14 8 15
REMARK H PARENT
REMARK Flexibility Score: inf
ROOT
ATOM      1  C   UNL     1      33.125  10.447  32.947  1.00  0.00     0.035 C 
ENDROOT
BRANCH   1   2
ATOM      2  C   UNL     1      31.990  11.443  33.044  1.00  0.00    -0.074 C 
ATOM      3  C   UNL     1      31.260  11.501  34.172  1.00  0.00     0.008 C 
BRANCH   2   4
ATOM      4  C   UNL     1      31.673  12.348  31.860  1.00  0.00     0.018 C 
ATOM      5  C   UNL     1      31.420  10.392  27.954  1.00  0.00     0.039 C 
ATOM      6  C   UNL     1      31.562  11.349  29.105  1.00  0.00    -0.077 C 
ATOM      7  C   UNL     1      32.749  11.499  29.715  1.00  0.00    -0.027 C 
ATOM      8  C   UNL     1      30.369  12.095  29.654  1.00  0.00     0.031 C 
ATOM      9  C   UNL     1      32.879  12.442  30.882  1.00  0.00     0.035 C 
ATOM     10  C   UNL     1      30.332  11.935  31.179  1.00  0.00     0.013 C 
ENDBRANCH   2   4
ENDBRANCH   1   2
BRANCH   1  11
ATOM     11  C   UNL     1      32.589   9.011  32.972  1.00  0.00     0.032 C 
BRANCH  11  12
ATOM     12  C   UNL     1      31.784   8.706  31.732  1.00  0.00    -0.028 C 
ATOM     13  C   UNL     1      30.525   8.221  31.773  1.00  0.00    -0.080 C 
ATOM     14  C   UNL     1      29.811   7.950  30.474  1.00  0.00     0.039 C 
ATOM     15  C   UNL     1      29.825   7.949  33.083  1.00  0.00     0.039 C 
ENDBRANCH  11  12
ENDBRANCH   1  11
TORSDOF 4
ENDMDL
MODEL 8
REMARK VINA RESULT:    -4.307      1.824      3.466
REMARK INTER + INTRA:          -7.269
REMARK INTER:                  -5.427
REMARK INTRA:                  -1.842
REMARK UNBOUND:                -1.955
REMARK SMILES C=C(CCC=C(C)C)[C@H]1CC=C(C)CC1
REMARK SMILES IDX 3 1 2 2 1 3 9 4 13 5 12 6 11 7 14 8 10 9 15 10 4 11 5 12
REMARK SMILES IDX 6 13 7 14 8 15
REMARK H PARENT
REMARK Flexibility Score: inf
ROOT
ATOM      1  C   UNL     1      31.618   9.988  30.137  1.00  0.00     0.035 C 
ENDROOT
BRANCH   1   2
ATOM      2  C   UNL     1      32.358  10.766  31.203  1.00  0.00    -0.074 C 
ATOM      3  C   UNL     1      32.678  12.053  30.976  1.00  0.00     0.008 C 
BRANCH   2   4
ATOM      4  C   UNL     1      32.751  10.081  32.507  1.00  0.00     0.018 C 
ATOM      5  C   UNL     1      29.500   9.315  35.334  1.00  0.00     0.039 C 
ATOM      6  C   UNL     1      30.817   9.550  34.646  1.00  0.00    -0.077 C 
ATOM      7  C   UNL     1      31.253  10.803  34.434  1.00  0.00    -0.027 C 
ATOM      8  C   UNL     1      31.634   8.401  34.106  1.00  0.00     0.031 C 
ATOM      9  C   UNL     1      32.560  11.032  33.724  1.00  0.00     0.035 C 
ATOM     10  C   UNL     1      32.035   8.703  32.657  1.00  0.00     0.013 C 
ENDBRANCH   2   4
ENDBRANCH   1   2
BRANCH   1  11
ATOM     11  C   UNL     1      30.254  10.625  29.851  1.00  0.00     0.032 C 
BRANCH  11  12
ATOM     12  C   UNL     1      29.326  10.487  31.034  1.00  0.00    -0.028 C 
ATOM     13  C   UNL     1      28.752  11.544  31.646  1.00  0.00    -0.080 C 
ATOM     14  C   UNL     1      27.842  11.295  32.820  1.00  0.00     0.039 C 
ATOM     15  C   UNL     1      29.003  12.959  31.181  1.00  0.00     0.039 C 
ENDBRANCH  11  12
ENDBRANCH   1  11
TORSDOF 4
ENDMDL
MODEL 9
REMARK VINA RESULT:    -4.307      2.876      4.763
REMARK INTER + INTRA:          -7.269
REMARK INTER:                  -5.909
REMARK INTRA:                  -1.359
REMARK UNBOUND:                -1.955
REMARK SMILES C=C(CCC=C(C)C)[C@H]1CC=C(C)CC1
REMARK SMILES IDX 3 1 2 2 1 3 9 4 13 5 12 6 11 7 14 8 10 9 15 10 4 11 5 12
REMARK SMILES IDX 6 13 7 14 8 15
REMARK H PARENT
REMARK Flexibility Score: inf
ROOT
ATOM      1  C   UNL     1      31.297  11.906  29.339  1.00  0.00     0.035 C 
ENDROOT
BRANCH   1   2
ATOM      2  C   UNL     1      31.449  11.380  27.929  1.00  0.00    -0.074 C 
ATOM      3  C   UNL     1      32.340  11.957  27.103  1.00  0.00     0.008 C 
BRANCH   2   4
ATOM      4  C   UNL     1      30.581  10.221  27.454  1.00  0.00     0.018 C 
ATOM      5  C   UNL     1      30.677   6.607  29.919  1.00  0.00     0.039 C 
ATOM      6  C   UNL     1      30.533   7.629  28.826  1.00  0.00    -0.077 C 
ATOM      7  C   UNL     1      31.595   7.971  28.078  1.00  0.00    -0.027 C 
ATOM      8  C   UNL     1      29.227   8.353  28.599  1.00  0.00     0.031 C 
ATOM      9  C   UNL     1      31.450   9.013  27.001  1.00  0.00     0.035 C 
ATOM     10  C   UNL     1      29.494   9.861  28.514  1.00  0.00     0.013 C 
ENDBRANCH   2   4
ENDBRANCH   1   2
BRANCH   1  11
ATOM     11  C   UNL     1      32.440  11.408  30.230  1.00  0.00     0.032 C 
BRANCH  11  12
ATOM     12  C   UNL     1      32.051  10.150  30.968  1.00  0.00    -0.028 C 
ATOM     13  C   UNL     1      32.359   9.932  32.264  1.00  0.00    -0.080 C 
ATOM     14  C   UNL     1      31.923   8.640  32.904  1.00  0.00     0.039 C 
ATOM     15  C   UNL     1      33.124  10.950  33.076  1.00  0.00     0.039 C 
ENDBRANCH  11  12
ENDBRANCH   1  11
TORSDOF 4
ENDMDL
