MODEL 1
REMARK VINA RESULT:    -4.910      0.000      0.000
REMARK INTER + INTRA:          -9.998
REMARK INTER:                  -8.355
REMARK INTRA:                  -1.644
REMARK UNBOUND:                -1.644
REMARK SMILES CCCCCCCCCCCCCC(=O)[O-]
REMARK SMILES IDX 8 1 9 2 10 3 11 4 12 5 13 6 14 7 15 8 16 9 7 10 6 11 5 12
REMARK SMILES IDX 4 13 3 14 2 15 1 16
REMARK H PARENT
REMARK Flexibility Score: inf
ROOT
ATOM      1  C   UNL     1     -19.800  55.893  -2.880  1.00  0.00     0.000 C 
ENDROOT
BRANCH   1   2
ATOM      2  C   UNL     1     -18.619  56.604  -3.551  1.00  0.00     0.000 C 
BRANCH   2   3
ATOM      3  C   UNL     1     -17.314  55.829  -3.337  1.00  0.00     0.000 C 
BRANCH   3   4
ATOM      4  C   UNL     1     -17.551  54.577  -2.485  1.00  0.00     0.000 C 
BRANCH   4   5
ATOM      5  C   UNL     1     -16.593  54.537  -1.285  1.00  0.00     0.006 C 
BRANCH   5   6
ATOM      6  C   UNL     1     -17.341  54.505   0.054  1.00  0.00     0.053 C 
BRANCH   6   7
ATOM      7  C   UNL     1     -17.705  55.882   0.520  1.00  0.00     0.041 C 
ATOM      8  O   UNL     1     -16.823  56.645   0.992  1.00  0.00    -0.550 OA
ATOM      9  O   UNL     1     -19.014  56.332   0.403  1.00  0.00    -0.550 OA
ENDBRANCH   6   7
ENDBRANCH   5   6
ENDBRANCH   4   5
ENDBRANCH   3   4
ENDBRANCH   2   3
ENDBRANCH   1   2
BRANCH   1  10
ATOM     10  C   UNL     1     -21.130  56.553  -3.258  1.00  0.00     0.000 C 
BRANCH  10  11
ATOM     11  C   UNL     1     -22.259  55.513  -3.332  1.00  0.00    -0.000 C 
BRANCH  11  12
ATOM     12  C   UNL     1     -22.935  55.273  -1.971  1.00  0.00    -0.000 C 
BRANCH  12  13
ATOM     13  C   UNL     1     -22.636  53.874  -1.403  1.00  0.00    -0.000 C 
BRANCH  13  14
ATOM     14  C   UNL     1     -21.622  53.904  -0.245  1.00  0.00    -0.000 C 
BRANCH  14  15
ATOM     15  C   UNL     1     -20.512  52.840  -0.326  1.00  0.00    -0.003 C 
ATOM     16  C   UNL     1     -20.275  52.328  -1.746  1.00  0.00     0.004 C 
ENDBRANCH  14  15
ENDBRANCH  13  14
ENDBRANCH  12  13
ENDBRANCH  11  12
ENDBRANCH  10  11
ENDBRANCH   1  10
TORSDOF 12
ENDMDL
MODEL 2
REMARK VINA RESULT:    -4.903      1.833      4.799
REMARK INTER + INTRA:          -9.986
REMARK INTER:                  -8.340
REMARK INTRA:                  -1.647
REMARK UNBOUND:                -1.644
REMARK SMILES CCCCCCCCCCCCCC(=O)[O-]
REMARK SMILES IDX 8 1 9 2 10 3 11 4 12 5 13 6 14 7 15 8 16 9 7 10 6 11 5 12
REMARK SMILES IDX 4 13 3 14 2 15 1 16
REMARK H PARENT
REMARK Flexibility Score: inf
ROOT
ATOM      1  C   UNL     1     -18.375  56.609  -3.576  1.00  0.00     0.000 C 
ENDROOT
BRANCH   1   2
ATOM      2  C   UNL     1     -19.607  55.743  -3.287  1.00  0.00     0.000 C 
BRANCH   2   3
ATOM      3  C   UNL     1     -20.889  56.582  -3.309  1.00  0.00     0.000 C 
BRANCH   3   4
ATOM      4  C   UNL     1     -22.078  55.786  -2.758  1.00  0.00     0.000 C 
BRANCH   4   5
ATOM      5  C   UNL     1     -21.748  55.182  -1.385  1.00  0.00     0.006 C 
BRANCH   5   6
ATOM      6  C   UNL     1     -22.070  53.683  -1.317  1.00  0.00     0.053 C 
BRANCH   6   7
ATOM      7  C   UNL     1     -20.832  52.855  -1.155  1.00  0.00     0.041 C 
ATOM      8  O   UNL     1     -20.188  52.473  -2.166  1.00  0.00    -0.550 OA
ATOM      9  O   UNL     1     -20.371  52.534   0.116  1.00  0.00    -0.550 OA
ENDBRANCH   6   7
ENDBRANCH   5   6
ENDBRANCH   4   5
ENDBRANCH   3   4
ENDBRANCH   2   3
ENDBRANCH   1   2
BRANCH   1  10
ATOM     10  C   UNL     1     -17.094  55.931  -3.078  1.00  0.00     0.000 C 
BRANCH  10  11
ATOM     11  C   UNL     1     -17.421  54.676  -2.253  1.00  0.00    -0.000 C 
BRANCH  11  12
ATOM     12  C   UNL     1     -16.446  54.465  -1.083  1.00  0.00    -0.000 C 
BRANCH  12  13
ATOM     13  C   UNL     1     -17.099  54.733   0.285  1.00  0.00    -0.000 C 
BRANCH  13  14
ATOM     14  C   UNL     1     -18.436  55.486   0.170  1.00  0.00    -0.000 C 
BRANCH  14  15
ATOM     15  C   UNL     1     -18.366  56.988   0.499  1.00  0.00    -0.003 C 
ATOM     16  C   UNL     1     -17.011  57.418   1.058  1.00  0.00     0.004 C 
ENDBRANCH  14  15
ENDBRANCH  13  14
ENDBRANCH  12  13
ENDBRANCH  11  12
ENDBRANCH  10  11
ENDBRANCH   1  10
TORSDOF 12
ENDMDL
MODEL 3
REMARK VINA RESULT:    -4.863      2.206      5.457
REMARK INTER + INTRA:          -9.918
REMARK INTER:                  -8.613
REMARK INTRA:                  -1.305
REMARK UNBOUND:                -1.644
REMARK SMILES CCCCCCCCCCCCCC(=O)[O-]
REMARK SMILES IDX 8 1 9 2 10 3 11 4 12 5 13 6 14 7 15 8 16 9 7 10 6 11 5 12
REMARK SMILES IDX 4 13 3 14 2 15 1 16
REMARK H PARENT
REMARK Flexibility Score: inf
ROOT
ATOM      1  C   UNL     1     -18.265  54.235  -2.228  1.00  0.00     0.000 C 
ENDROOT
BRANCH   1   2
ATOM      2  C   UNL     1     -18.536  54.937  -3.564  1.00  0.00     0.000 C 
BRANCH   2   3
ATOM      3  C   UNL     1     -19.149  56.324  -3.344  1.00  0.00     0.000 C 
BRANCH   3   4
ATOM      4  C   UNL     1     -20.401  56.240  -2.464  1.00  0.00     0.000 C 
BRANCH   4   5
ATOM      5  C   UNL     1     -21.532  55.490  -3.184  1.00  0.00     0.006 C 
BRANCH   5   6
ATOM      6  C   UNL     1     -22.621  55.011  -2.216  1.00  0.00     0.053 C 
BRANCH   6   7
ATOM      7  C   UNL     1     -22.090  54.015  -1.230  1.00  0.00     0.041 C 
ATOM      8  O   UNL     1     -21.456  53.004  -1.629  1.00  0.00    -0.550 OA
ATOM      9  O   UNL     1     -22.269  54.222   0.132  1.00  0.00    -0.550 OA
ENDBRANCH   6   7
ENDBRANCH   5   6
ENDBRANCH   4   5
ENDBRANCH   3   4
ENDBRANCH   2   3
ENDBRANCH   1   2
BRANCH   1  10
ATOM     10  C   UNL     1     -16.849  54.534  -1.724  1.00  0.00     0.000 C 
BRANCH  10  11
ATOM     11  C   UNL     1     -16.827  54.673  -0.194  1.00  0.00    -0.000 C 
BRANCH  11  12
ATOM     12  C   UNL     1     -18.036  55.454   0.349  1.00  0.00    -0.000 C 
BRANCH  12  13
ATOM     13  C   UNL     1     -17.813  56.976   0.329  1.00  0.00    -0.000 C 
BRANCH  13  14
ATOM     14  C   UNL     1     -16.515  57.398   1.042  1.00  0.00    -0.000 C 
BRANCH  14  15
ATOM     15  C   UNL     1     -15.510  58.164   0.163  1.00  0.00    -0.003 C 
ATOM     16  C   UNL     1     -14.576  59.067   0.967  1.00  0.00     0.004 C 
ENDBRANCH  14  15
ENDBRANCH  13  14
ENDBRANCH  12  13
ENDBRANCH  11  12
ENDBRANCH  10  11
ENDBRANCH   1  10
TORSDOF 12
ENDMDL
MODEL 4
REMARK VINA RESULT:    -4.846      2.035      4.776
REMARK INTER + INTRA:          -9.890
REMARK INTER:                  -8.392
REMARK INTRA:                  -1.498
REMARK UNBOUND:                -1.644
REMARK SMILES CCCCCCCCCCCCCC(=O)[O-]
REMARK SMILES IDX 8 1 9 2 10 3 11 4 12 5 13 6 14 7 15 8 16 9 7 10 6 11 5 12
REMARK SMILES IDX 4 13 3 14 2 15 1 16
REMARK H PARENT
REMARK Flexibility Score: inf
ROOT
ATOM      1  C   UNL     1     -20.744  56.621  -3.567  1.00  0.00     0.000 C 
ENDROOT
BRANCH   1   2
ATOM      2  C   UNL     1     -21.879  55.656  -3.204  1.00  0.00     0.000 C 
BRANCH   2   3
ATOM      3  C   UNL     1     -22.168  55.687  -1.699  1.00  0.00     0.000 C 
BRANCH   3   4
ATOM      4  C   UNL     1     -22.991  54.466  -1.271  1.00  0.00     0.000 C 
BRANCH   4   5
ATOM      5  C   UNL     1     -22.248  53.645  -0.207  1.00  0.00     0.006 C 
BRANCH   5   6
ATOM      6  C   UNL     1     -20.724  53.717  -0.375  1.00  0.00     0.053 C 
BRANCH   6   7
ATOM      7  C   UNL     1     -20.199  52.566  -1.178  1.00  0.00     0.041 C 
ATOM      8  O   UNL     1     -20.169  52.632  -2.435  1.00  0.00    -0.550 OA
ATOM      9  O   UNL     1     -19.713  51.435  -0.536  1.00  0.00    -0.550 OA
ENDBRANCH   6   7
ENDBRANCH   5   6
ENDBRANCH   4   5
ENDBRANCH   3   4
ENDBRANCH   2   3
ENDBRANCH   1   2
BRANCH   1  10
ATOM     10  C   UNL     1     -19.448  56.249  -2.838  1.00  0.00     0.000 C 
BRANCH  10  11
ATOM     11  C   UNL     1     -18.217  56.628  -3.677  1.00  0.00    -0.000 C 
BRANCH  11  12
ATOM     12  C   UNL     1     -16.962  55.831  -3.285  1.00  0.00    -0.000 C 
BRANCH  12  13
ATOM     13  C   UNL     1     -17.294  54.585  -2.444  1.00  0.00    -0.000 C 
BRANCH  13  14
ATOM     14  C   UNL     1     -16.582  54.579  -1.079  1.00  0.00    -0.000 C 
BRANCH  14  15
ATOM     15  C   UNL     1     -17.406  55.156   0.086  1.00  0.00    -0.003 C 
ATOM     16  C   UNL     1     -17.104  56.627   0.363  1.00  0.00     0.004 C 
ENDBRANCH  14  15
ENDBRANCH  13  14
ENDBRANCH  12  13
ENDBRANCH  11  12
ENDBRANCH  10  11
ENDBRANCH   1  10
TORSDOF 12
ENDMDL
MODEL 5
REMARK VINA RESULT:    -4.832      2.225      5.553
REMARK INTER + INTRA:          -9.865
REMARK INTER:                  -8.670
REMARK INTRA:                  -1.195
REMARK UNBOUND:                -1.644
REMARK SMILES CCCCCCCCCCCCCC(=O)[O-]
REMARK SMILES IDX 8 1 9 2 10 3 11 4 12 5 13 6 14 7 15 8 16 9 7 10 6 11 5 12
REMARK SMILES IDX 4 13 3 14 2 15 1 16
REMARK H PARENT
REMARK Flexibility Score: inf
ROOT
ATOM      1  C   UNL     1     -19.633  52.789  -0.214  1.00  0.00     0.000 C 
ENDROOT
BRANCH   1   2
ATOM      2  C   UNL     1     -20.529  52.694  -1.455  1.00  0.00     0.000 C 
BRANCH   2   3
ATOM      3  C   UNL     1     -21.760  53.597  -1.317  1.00  0.00     0.000 C 
BRANCH   3   4
ATOM      4  C   UNL     1     -21.387  55.070  -1.519  1.00  0.00     0.000 C 
BRANCH   4   5
ATOM      5  C   UNL     1     -21.332  55.424  -3.013  1.00  0.00     0.006 C 
BRANCH   5   6
ATOM      6  C   UNL     1     -20.417  56.623  -3.293  1.00  0.00     0.053 C 
BRANCH   6   7
ATOM      7  C   UNL     1     -19.004  56.196  -3.550  1.00  0.00     0.041 C 
ATOM      8  O   UNL     1     -18.089  57.056  -3.642  1.00  0.00    -0.550 OA
ATOM      9  O   UNL     1     -18.693  54.846  -3.655  1.00  0.00    -0.550 OA
ENDBRANCH   6   7
ENDBRANCH   5   6
ENDBRANCH   4   5
ENDBRANCH   3   4
ENDBRANCH   2   3
ENDBRANCH   1   2
BRANCH   1  10
ATOM     10  C   UNL     1     -18.261  53.375  -0.568  1.00  0.00     0.000 C 
BRANCH  10  11
ATOM     11  C   UNL     1     -17.857  54.470   0.431  1.00  0.00    -0.000 C 
BRANCH  11  12
ATOM     12  C   UNL     1     -17.555  55.815  -0.252  1.00  0.00    -0.000 C 
BRANCH  12  13
ATOM     13  C   UNL     1     -18.095  57.016   0.544  1.00  0.00    -0.000 C 
BRANCH  13  14
ATOM     14  C   UNL     1     -16.983  57.814   1.248  1.00  0.00    -0.000 C 
BRANCH  14  15
ATOM     15  C   UNL     1     -15.616  57.786   0.543  1.00  0.00    -0.003 C 
ATOM     16  C   UNL     1     -14.730  58.977   0.903  1.00  0.00     0.004 C 
ENDBRANCH  14  15
ENDBRANCH  13  14
ENDBRANCH  12  13
ENDBRANCH  11  12
ENDBRANCH  10  11
ENDBRANCH   1  10
TORSDOF 12
ENDMDL
MODEL 6
REMARK VINA RESULT:    -4.831      1.129      3.471
REMARK INTER + INTRA:          -9.864
REMARK INTER:                  -8.338
REMARK INTRA:                  -1.527
REMARK UNBOUND:                -1.644
REMARK SMILES CCCCCCCCCCCCCC(=O)[O-]
REMARK SMILES IDX 8 1 9 2 10 3 11 4 12 5 13 6 14 7 15 8 16 9 7 10 6 11 5 12
REMARK SMILES IDX 4 13 3 14 2 15 1 16
REMARK H PARENT
REMARK Flexibility Score: inf
ROOT
ATOM      1  C   UNL     1     -21.167  52.771  -1.712  1.00  0.00     0.000 C 
ENDROOT
BRANCH   1   2
ATOM      2  C   UNL     1     -19.902  52.255  -1.016  1.00  0.00     0.000 C 
BRANCH   2   3
ATOM      3  C   UNL     1     -19.412  53.249   0.044  1.00  0.00     0.000 C 
BRANCH   3   4
ATOM      4  C   UNL     1     -18.142  53.969  -0.422  1.00  0.00     0.000 C 
BRANCH   4   5
ATOM      5  C   UNL     1     -17.689  55.013   0.610  1.00  0.00     0.006 C 
BRANCH   5   6
ATOM      6  C   UNL     1     -16.456  55.797   0.143  1.00  0.00     0.053 C 
BRANCH   6   7
ATOM      7  C   UNL     1     -16.673  57.277   0.230  1.00  0.00     0.041 C 
ATOM      8  O   UNL     1     -15.771  58.072  -0.143  1.00  0.00    -0.550 OA
ATOM      9  O   UNL     1     -17.883  57.777   0.693  1.00  0.00    -0.550 OA
ENDBRANCH   6   7
ENDBRANCH   5   6
ENDBRANCH   4   5
ENDBRANCH   3   4
ENDBRANCH   2   3
ENDBRANCH   1   2
BRANCH   1  10
ATOM     10  C   UNL     1     -21.895  53.801  -0.842  1.00  0.00     0.000 C 
BRANCH  10  11
ATOM     11  C   UNL     1     -22.644  54.823  -1.712  1.00  0.00    -0.000 C 
BRANCH  11  12
ATOM     12  C   UNL     1     -21.877  55.187  -2.995  1.00  0.00    -0.000 C 
BRANCH  12  13
ATOM     13  C   UNL     1     -20.731  56.180  -2.735  1.00  0.00    -0.000 C 
BRANCH  13  14
ATOM     14  C   UNL     1     -19.369  55.662  -3.233  1.00  0.00    -0.000 C 
BRANCH  14  15
ATOM     15  C   UNL     1     -18.303  56.749  -3.457  1.00  0.00    -0.003 C 
ATOM     16  C   UNL     1     -16.885  56.187  -3.558  1.00  0.00     0.004 C 
ENDBRANCH  14  15
ENDBRANCH  13  14
ENDBRANCH  12  13
ENDBRANCH  11  12
ENDBRANCH  10  11
ENDBRANCH   1  10
TORSDOF 12
ENDMDL
MODEL 7
REMARK VINA RESULT:    -4.808      1.697      2.430
REMARK INTER + INTRA:          -9.824
REMARK INTER:                  -7.874
REMARK INTRA:                  -1.950
REMARK UNBOUND:                -1.644
REMARK SMILES CCCCCCCCCCCCCC(=O)[O-]
REMARK SMILES IDX 8 1 9 2 10 3 11 4 12 5 13 6 14 7 15 8 16 9 7 10 6 11 5 12
REMARK SMILES IDX 4 13 3 14 2 15 1 16
REMARK H PARENT
REMARK Flexibility Score: inf
ROOT
ATOM      1  C   UNL     1     -18.122  55.661  -3.793  1.00  0.00     0.000 C 
ENDROOT
BRANCH   1   2
ATOM      2  C   UNL     1     -17.043  55.792  -2.711  1.00  0.00     0.000 C 
BRANCH   2   3
ATOM      3  C   UNL     1     -17.134  54.644  -1.700  1.00  0.00     0.000 C 
BRANCH   3   4
ATOM      4  C   UNL     1     -17.167  55.176  -0.263  1.00  0.00     0.000 C 
BRANCH   4   5
ATOM      5  C   UNL     1     -17.487  56.678  -0.239  1.00  0.00     0.006 C 
BRANCH   5   6
ATOM      6  C   UNL     1     -16.773  57.407   0.907  1.00  0.00     0.053 C 
BRANCH   6   7
ATOM      7  C   UNL     1     -15.542  58.117   0.433  1.00  0.00     0.041 C 
ATOM      8  O   UNL     1     -14.630  58.417   1.247  1.00  0.00    -0.550 OA
ATOM      9  O   UNL     1     -15.387  58.417  -0.915  1.00  0.00    -0.550 OA
ENDBRANCH   6   7
ENDBRANCH   5   6
ENDBRANCH   4   5
ENDBRANCH   3   4
ENDBRANCH   2   3
ENDBRANCH   1   2
BRANCH   1  10
ATOM     10  C   UNL     1     -19.278  56.635  -3.541  1.00  0.00     0.000 C 
BRANCH  10  11
ATOM     11  C   UNL     1     -20.564  55.879  -3.170  1.00  0.00    -0.000 C 
BRANCH  11  12
ATOM     12  C   UNL     1     -20.846  55.893  -1.659  1.00  0.00    -0.000 C 
BRANCH  12  13
ATOM     13  C   UNL     1     -21.045  54.480  -1.082  1.00  0.00    -0.000 C 
BRANCH  13  14
ATOM     14  C   UNL     1     -20.616  53.371  -2.059  1.00  0.00    -0.000 C 
BRANCH  14  15
ATOM     15  C   UNL     1     -19.995  52.127  -1.399  1.00  0.00    -0.003 C 
ATOM     16  C   UNL     1     -20.080  52.152   0.126  1.00  0.00     0.004 C 
ENDBRANCH  14  15
ENDBRANCH  13  14
ENDBRANCH  12  13
ENDBRANCH  11  12
ENDBRANCH  10  11
ENDBRANCH   1  10
TORSDOF 12
ENDMDL
MODEL 8
REMARK VINA RESULT:    -4.779      2.349      5.190
REMARK INTER + INTRA:          -9.775
REMARK INTER:                  -8.456
REMARK INTRA:                  -1.319
REMARK UNBOUND:                -1.644
REMARK SMILES CCCCCCCCCCCCCC(=O)[O-]
REMARK SMILES IDX 8 1 9 2 10 3 11 4 12 5 13 6 14 7 15 8 16 9 7 10 6 11 5 12
REMARK SMILES IDX 4 13 3 14 2 15 1 16
REMARK H PARENT
REMARK Flexibility Score: inf
ROOT
ATOM      1  C   UNL     1     -19.320  56.307  -3.591  1.00  0.00     0.000 C 
ENDROOT
BRANCH   1   2
ATOM      2  C   UNL     1     -20.213  55.268  -2.903  1.00  0.00     0.000 C 
BRANCH   2   3
ATOM      3  C   UNL     1     -19.561  53.881  -2.922  1.00  0.00     0.000 C 
BRANCH   3   4
ATOM      4  C   UNL     1     -19.864  53.112  -1.631  1.00  0.00     0.000 C 
BRANCH   4   5
ATOM      5  C   UNL     1     -20.557  54.016  -0.600  1.00  0.00     0.006 C 
BRANCH   5   6
ATOM      6  C   UNL     1     -21.957  53.511  -0.231  1.00  0.00     0.053 C 
BRANCH   6   7
ATOM      7  C   UNL     1     -22.928  54.639  -0.057  1.00  0.00     0.041 C 
ATOM      8  O   UNL     1     -23.050  55.203   1.062  1.00  0.00    -0.550 OA
ATOM      9  O   UNL     1     -23.674  55.088  -1.139  1.00  0.00    -0.550 OA
ENDBRANCH   6   7
ENDBRANCH   5   6
ENDBRANCH   4   5
ENDBRANCH   3   4
ENDBRANCH   2   3
ENDBRANCH   1   2
BRANCH   1  10
ATOM     10  C   UNL     1     -17.851  55.871  -3.574  1.00  0.00     0.000 C 
BRANCH  10  11
ATOM     11  C   UNL     1     -17.043  56.700  -2.563  1.00  0.00    -0.000 C 
BRANCH  11  12
ATOM     12  C   UNL     1     -17.002  56.057  -1.166  1.00  0.00    -0.000 C 
BRANCH  12  13
ATOM     13  C   UNL     1     -17.922  56.772  -0.160  1.00  0.00    -0.000 C 
BRANCH  13  14
ATOM     14  C   UNL     1     -17.148  57.665   0.826  1.00  0.00    -0.000 C 
BRANCH  14  15
ATOM     15  C   UNL     1     -15.635  57.763   0.565  1.00  0.00    -0.003 C 
ATOM     16  C   UNL     1     -15.076  59.166   0.795  1.00  0.00     0.004 C 
ENDBRANCH  14  15
ENDBRANCH  13  14
ENDBRANCH  12  13
ENDBRANCH  11  12
ENDBRANCH  10  11
ENDBRANCH   1  10
TORSDOF 12
ENDMDL
MODEL 9
REMARK VINA RESULT:    -4.714      3.018      5.338
REMARK INTER + INTRA:          -9.665
REMARK INTER:                  -7.729
REMARK INTRA:                  -1.937
REMARK UNBOUND:                -1.644
REMARK SMILES CCCCCCCCCCCCCC(=O)[O-]
REMARK SMILES IDX 8 1 9 2 10 3 11 4 12 5 13 6 14 7 15 8 16 9 7 10 6 11 5 12
REMARK SMILES IDX 4 13 3 14 2 15 1 16
REMARK H PARENT
REMARK Flexibility Score: inf
ROOT
ATOM      1  C   UNL     1     -21.104  55.206  -3.204  1.00  0.00     0.000 C 
ENDROOT
BRANCH   1   2
ATOM      2  C   UNL     1     -22.032  55.001  -2.000  1.00  0.00     0.000 C 
BRANCH   2   3
ATOM      3  C   UNL     1     -21.851  53.603  -1.396  1.00  0.00     0.000 C 
BRANCH   3   4
ATOM      4  C   UNL     1     -22.165  53.607   0.104  1.00  0.00     0.000 C 
BRANCH   4   5
ATOM      5  C   UNL     1     -22.867  54.909   0.518  1.00  0.00     0.006 C 
BRANCH   5   6
ATOM      6  C   UNL     1     -24.331  54.680   0.913  1.00  0.00     0.053 C 
BRANCH   6   7
ATOM      7  C   UNL     1     -25.269  55.475   0.057  1.00  0.00     0.041 C 
ATOM      8  O   UNL     1     -25.758  56.553   0.485  1.00  0.00    -0.550 OA
ATOM      9  O   UNL     1     -25.578  55.041  -1.226  1.00  0.00    -0.550 OA
ENDBRANCH   6   7
ENDBRANCH   5   6
ENDBRANCH   4   5
ENDBRANCH   3   4
ENDBRANCH   2   3
ENDBRANCH   1   2
BRANCH   1  10
ATOM     10  C   UNL     1     -20.516  56.620  -3.213  1.00  0.00     0.000 C 
BRANCH  10  11
ATOM     11  C   UNL     1     -19.036  56.597  -3.627  1.00  0.00    -0.000 C 
BRANCH  11  12
ATOM     12  C   UNL     1     -18.421  55.189  -3.557  1.00  0.00    -0.000 C 
BRANCH  12  13
ATOM     13  C   UNL     1     -17.545  54.990  -2.308  1.00  0.00    -0.000 C 
BRANCH  13  14
ATOM     14  C   UNL     1     -18.134  53.965  -1.322  1.00  0.00    -0.000 C 
BRANCH  14  15
ATOM     15  C   UNL     1     -18.405  54.505   0.093  1.00  0.00    -0.003 C 
ATOM     16  C   UNL     1     -19.023  55.902   0.094  1.00  0.00     0.004 C 
ENDBRANCH  14  15
ENDBRANCH  13  14
ENDBRANCH  12  13
ENDBRANCH  11  12
ENDBRANCH  10  11
ENDBRANCH   1  10
TORSDOF 12
ENDMDL
