MODEL 1
REMARK VINA RESULT:    -1.676      0.000      0.000
REMARK INTER + INTRA:          -2.168
REMARK INTER:                  -2.362
REMARK INTRA:                   0.194
REMARK UNBOUND:                 0.194
REMARK SMILES CC1=CCC(=C(C)C)C(=O)CC(C)=CCC1
REMARK SMILES IDX 12 1 14 2 13 3 15 4 16 5 2 6 1 7 3 8 11 10 9 11 10 12 5 13
REMARK SMILES IDX 6 14 7 15 8 16 4 17
REMARK H PARENT
REMARK Flexibility Score: 60.00
ROOT
ATOM      1  C   UNL     1     123.870  83.419  56.360  1.00  0.00    -0.070 C 
ATOM      2  C   UNL     1     124.460  83.677  55.172  1.00  0.00    -0.027 C 
ATOM      3  C   UNL     1     124.559  82.459  57.296  1.00  0.00     0.039 C 
ENDROOT
BRANCH   2   4
ATOM      4  C   UNL     1     123.880  84.530  54.065  1.00  0.00     0.032 C 
BRANCH   4   5
ATOM      5  C   UNL     1     123.944  86.051  54.317  1.00  0.00     0.034 C 
BRANCH   5   6
ATOM      6  C   UNL     1     122.593  86.733  54.196  1.00  0.00    -0.077 C 
ATOM      7  C   UNL     1     121.942  86.764  52.836  1.00  0.00     0.039 C 
ATOM      8  C   UNL     1     121.967  87.375  55.213  1.00  0.00    -0.023 CG0
ATOM      9  G   UNL     1     122.419  87.460  56.658  1.00  0.00     0.000 G0
ENDBRANCH   5   6
ENDBRANCH   4   5
ENDBRANCH   2   4
BRANCH   1  10
ATOM     10  C   UNL     1     122.514  83.971  56.752  1.00  0.00     0.111 C 
BRANCH  10  11
ATOM     11  C   UNL     1     122.641  85.125  57.711  1.00  0.00     0.163 C 
ATOM     12  O   UNL     1     123.409  84.992  58.702  1.00  0.00    -0.294 OA
BRANCH  11  13
ATOM     13  C   UNL     1     121.847  86.382  57.563  1.00  0.00    -0.002 C 
ATOM     14  C   UNL     1     120.613  86.500  58.137  1.00  0.00    -0.069 C 
ATOM     15  C   UNL     1     119.719  87.693  57.876  1.00  0.00     0.039 C 
ATOM     16  C   UNL     1     120.075  85.435  59.068  1.00  0.00     0.039 C 
BRANCH  13  17
ATOM     17  C   UNL     1     122.428  87.470  56.675  1.00  0.00     0.066 CG0
ATOM     18  G   UNL     1     121.939  87.369  55.244  1.00  0.00     0.000 G0
ENDBRANCH  13  17
ENDBRANCH  11  13
ENDBRANCH  10  11
ENDBRANCH   1  10
TORSDOF 0
ENDMDL
MODEL 2
REMARK VINA RESULT:    -1.657     13.291     15.289
REMARK INTER + INTRA:          -2.141
REMARK INTER:                  -2.372
REMARK INTRA:                   0.231
REMARK UNBOUND:                 0.194
REMARK SMILES CC1=CCC(=C(C)C)C(=O)CC(C)=CCC1
REMARK SMILES IDX 12 1 14 2 13 3 15 4 16 5 2 6 1 7 3 8 11 10 9 11 10 12 5 13
REMARK SMILES IDX 6 14 7 15 8 16 4 17
REMARK H PARENT
REMARK Flexibility Score: 60.00
ROOT
ATOM      1  C   UNL     1     108.592  86.327  54.835  1.00  0.00    -0.070 C 
ATOM      2  C   UNL     1     109.681  86.777  55.498  1.00  0.00    -0.027 C 
ATOM      3  C   UNL     1     108.810  85.385  53.678  1.00  0.00     0.039 C 
ENDROOT
BRANCH   2   4
ATOM      4  C   UNL     1     109.675  87.797  56.616  1.00  0.00     0.032 C 
BRANCH   4   5
ATOM      5  C   UNL     1     108.710  87.480  57.777  1.00  0.00     0.034 C 
BRANCH   5   6
ATOM      6  C   UNL     1     109.003  86.152  58.451  1.00  0.00    -0.077 C 
ATOM      7  C   UNL     1     110.369  85.962  59.062  1.00  0.00     0.039 C 
ATOM      8  C   UNL     1     108.144  85.103  58.480  1.00  0.00    -0.023 CG0
ATOM      9  G   UNL     1     106.724  85.069  57.952  1.00  0.00     0.000 G0
ENDBRANCH   5   6
ENDBRANCH   4   5
ENDBRANCH   2   4
BRANCH   1  10
ATOM     10  C   UNL     1     107.183  86.794  55.138  1.00  0.00     0.111 C 
BRANCH  10  11
ATOM     11  C   UNL     1     106.275  85.639  55.470  1.00  0.00     0.163 C 
ATOM     12  O   UNL     1     105.152  85.584  54.900  1.00  0.00    -0.294 OA
BRANCH  11  13
ATOM     13  C   UNL     1     106.632  84.606  56.487  1.00  0.00    -0.002 C 
ATOM     14  C   UNL     1     106.797  83.298  56.126  1.00  0.00    -0.069 C 
ATOM     15  C   UNL     1     107.003  82.204  57.152  1.00  0.00     0.039 C 
ATOM     16  C   UNL     1     106.781  82.876  54.673  1.00  0.00     0.039 C 
BRANCH  13  17
ATOM     17  C   UNL     1     106.708  85.054  57.937  1.00  0.00     0.066 CG0
ATOM     18  G   UNL     1     108.133  85.108  58.451  1.00  0.00     0.000 G0
ENDBRANCH  13  17
ENDBRANCH  11  13
ENDBRANCH  10  11
ENDBRANCH   1  10
TORSDOF 0
ENDMDL
MODEL 3
REMARK VINA RESULT:    -1.615     12.122     14.165
REMARK INTER + INTRA:          -2.082
REMARK INTER:                  -2.451
REMARK INTRA:                   0.369
REMARK UNBOUND:                 0.194
REMARK SMILES CC1=CCC(=C(C)C)C(=O)CC(C)=CCC1
REMARK SMILES IDX 12 1 14 2 13 3 15 4 16 5 2 6 1 7 3 8 11 10 9 11 10 12 5 13
REMARK SMILES IDX 6 14 7 15 8 16 4 17
REMARK H PARENT
REMARK Flexibility Score: 60.00
ROOT
ATOM      1  C   UNL     1     110.626  84.753  55.608  1.00  0.00    -0.070 C 
ATOM      2  C   UNL     1     111.312  85.606  56.401  1.00  0.00    -0.027 C 
ATOM      3  C   UNL     1     110.941  84.754  54.134  1.00  0.00     0.039 C 
ENDROOT
BRANCH   2   4
ATOM      4  C   UNL     1     111.074  85.822  57.880  1.00  0.00     0.032 C 
BRANCH   4   5
ATOM      5  C   UNL     1     110.624  87.247  58.264  1.00  0.00     0.034 C 
BRANCH   5   6
ATOM      6  C   UNL     1     109.441  87.739  57.449  1.00  0.00    -0.077 C 
ATOM      7  C   UNL     1     109.640  88.965  56.593  1.00  0.00     0.039 C 
ATOM      8  C   UNL     1     108.201  87.191  57.493  1.00  0.00    -0.023 CG0
ATOM      9  G   UNL     1     107.774  85.956  58.260  1.00  0.00     0.000 G0
ENDBRANCH   5   6
ENDBRANCH   4   5
ENDBRANCH   2   4
BRANCH   1  10
ATOM     10  C   UNL     1     109.502  83.871  56.113  1.00  0.00     0.111 C 
BRANCH  10  11
ATOM     11  C   UNL     1     108.180  84.594  56.097  1.00  0.00     0.163 C 
ATOM     12  O   UNL     1     107.788  85.092  55.007  1.00  0.00    -0.294 OA
BRANCH  11  13
ATOM     13  C   UNL     1     107.361  84.792  57.330  1.00  0.00    -0.002 C 
ATOM     14  C   UNL     1     106.253  84.026  57.563  1.00  0.00    -0.069 C 
ATOM     15  C   UNL     1     105.316  84.305  58.717  1.00  0.00     0.039 C 
ATOM     16  C   UNL     1     105.908  82.854  56.671  1.00  0.00     0.039 C 
BRANCH  13  17
ATOM     17  C   UNL     1     107.756  85.934  58.251  1.00  0.00     0.066 CG0
ATOM     18  G   UNL     1     108.192  87.168  57.486  1.00  0.00     0.000 G0
ENDBRANCH  13  17
ENDBRANCH  11  13
ENDBRANCH  10  11
ENDBRANCH   1  10
TORSDOF 0
ENDMDL
MODEL 4
REMARK VINA RESULT:    -1.584     12.919     15.301
REMARK INTER + INTRA:          -2.039
REMARK INTER:                  -2.417
REMARK INTRA:                   0.379
REMARK UNBOUND:                 0.194
REMARK SMILES CC1=CCC(=C(C)C)C(=O)CC(C)=CCC1
REMARK SMILES IDX 12 1 14 2 13 3 15 4 16 5 2 6 1 7 3 8 11 10 9 11 10 12 5 13
REMARK SMILES IDX 6 14 7 15 8 16 4 17
REMARK H PARENT
REMARK Flexibility Score: 60.00
ROOT
ATOM      1  C   UNL     1     108.281  87.777  55.853  1.00  0.00    -0.070 C 
ATOM      2  C   UNL     1     108.657  87.648  57.145  1.00  0.00    -0.027 C 
ATOM      3  C   UNL     1     109.037  88.758  54.993  1.00  0.00     0.039 C 
ENDROOT
BRANCH   2   4
ATOM      4  C   UNL     1     107.966  86.794  58.185  1.00  0.00     0.032 C 
BRANCH   4   5
ATOM      5  C   UNL     1     108.813  85.629  58.736  1.00  0.00     0.034 C 
BRANCH   5   6
ATOM      6  C   UNL     1     109.559  84.869  57.652  1.00  0.00    -0.077 C 
ATOM      7  C   UNL     1     111.064  84.969  57.635  1.00  0.00     0.039 C 
ATOM      8  C   UNL     1     108.958  84.165  56.661  1.00  0.00    -0.023 CG0
ATOM      9  G   UNL     1     107.474  83.914  56.487  1.00  0.00     0.000 G0
ENDBRANCH   5   6
ENDBRANCH   4   5
ENDBRANCH   2   4
BRANCH   1  10
ATOM     10  C   UNL     1     107.087  87.057  55.260  1.00  0.00     0.111 C 
BRANCH  10  11
ATOM     11  C   UNL     1     107.482  85.737  54.651  1.00  0.00     0.163 C 
ATOM     12  O   UNL     1     108.262  85.749  53.661  1.00  0.00    -0.294 OA
BRANCH  11  13
ATOM     13  C   UNL     1     106.934  84.435  55.136  1.00  0.00    -0.002 C 
ATOM     14  C   UNL     1     105.943  83.794  54.446  1.00  0.00    -0.069 C 
ATOM     15  C   UNL     1     105.259  82.559  54.991  1.00  0.00     0.039 C 
ATOM     16  C   UNL     1     105.477  84.292  53.095  1.00  0.00     0.039 C 
BRANCH  13  17
ATOM     17  C   UNL     1     107.455  83.913  56.464  1.00  0.00     0.066 CG0
ATOM     18  G   UNL     1     108.937  84.175  56.646  1.00  0.00     0.000 G0
ENDBRANCH  13  17
ENDBRANCH  11  13
ENDBRANCH  10  11
ENDBRANCH   1  10
TORSDOF 0
ENDMDL
MODEL 5
REMARK VINA RESULT:    -1.570     12.791     14.881
REMARK INTER + INTRA:          -2.019
REMARK INTER:                  -2.265
REMARK INTRA:                   0.246
REMARK UNBOUND:                 0.194
REMARK SMILES CC1=CCC(=C(C)C)C(=O)CC(C)=CCC1
REMARK SMILES IDX 12 1 14 2 13 3 15 4 16 5 2 6 1 7 3 8 11 10 9 11 10 12 5 13
REMARK SMILES IDX 6 14 7 15 8 16 4 17
REMARK H PARENT
REMARK Flexibility Score: 60.00
ROOT
ATOM      1  C   UNL     1     106.236  83.788  56.391  1.00  0.00    -0.070 C 
ATOM      2  C   UNL     1     105.591  84.225  55.285  1.00  0.00    -0.027 C 
ATOM      3  C   UNL     1     105.425  83.080  57.446  1.00  0.00     0.039 C 
ENDROOT
BRANCH   2   4
ATOM      4  C   UNL     1     106.207  85.037  54.167  1.00  0.00     0.032 C 
BRANCH   4   5
ATOM      5  C   UNL     1     106.293  86.554  54.438  1.00  0.00     0.034 C 
BRANCH   5   6
ATOM      6  C   UNL     1     107.693  87.114  54.257  1.00  0.00    -0.077 C 
ATOM      7  C   UNL     1     108.238  87.198  52.853  1.00  0.00     0.039 C 
ATOM      8  C   UNL     1     108.509  87.477  55.277  1.00  0.00    -0.023 CG0
ATOM      9  G   UNL     1     108.174  87.495  56.755  1.00  0.00     0.000 G0
ENDBRANCH   5   6
ENDBRANCH   4   5
ENDBRANCH   2   4
BRANCH   1  10
ATOM     10  C   UNL     1     107.703  84.057  56.658  1.00  0.00     0.111 C 
BRANCH  10  11
ATOM     11  C   UNL     1     107.889  85.121  57.708  1.00  0.00     0.163 C 
ATOM     12  O   UNL     1     107.233  85.020  58.780  1.00  0.00    -0.294 OA
BRANCH  11  13
ATOM     13  C   UNL     1     108.766  86.311  57.495  1.00  0.00    -0.002 C 
ATOM     14  C   UNL     1     110.024  86.356  58.028  1.00  0.00    -0.069 C 
ATOM     15  C   UNL     1     110.876  87.605  57.966  1.00  0.00     0.039 C 
ATOM     16  C   UNL     1     110.630  85.150  58.713  1.00  0.00     0.039 C 
BRANCH  13  17
ATOM     17  C   UNL     1     108.167  87.493  56.751  1.00  0.00     0.066 CG0
ATOM     18  G   UNL     1     108.508  87.477  55.274  1.00  0.00     0.000 G0
ENDBRANCH  13  17
ENDBRANCH  11  13
ENDBRANCH  10  11
ENDBRANCH   1  10
TORSDOF 0
ENDMDL
MODEL 6
REMARK VINA RESULT:    -1.320      2.015      2.842
REMARK INTER + INTRA:          -1.665
REMARK INTER:                  -2.053
REMARK INTRA:                   0.388
REMARK UNBOUND:                 0.194
REMARK SMILES CC1=CCC(=C(C)C)C(=O)CC(C)=CCC1
REMARK SMILES IDX 12 1 14 2 13 3 15 4 16 5 2 6 1 7 3 8 11 10 9 11 10 12 5 13
REMARK SMILES IDX 6 14 7 15 8 16 4 17
REMARK H PARENT
REMARK Flexibility Score: 60.00
ROOT
ATOM      1  C   UNL     1     123.864  86.187  55.081  1.00  0.00    -0.070 C 
ATOM      2  C   UNL     1     123.817  86.195  53.729  1.00  0.00    -0.027 C 
ATOM      3  C   UNL     1     124.612  85.064  55.753  1.00  0.00     0.039 C 
ENDROOT
BRANCH   2   4
ATOM      4  C   UNL     1     123.039  87.176  52.879  1.00  0.00     0.032 C 
BRANCH   4   5
ATOM      5  C   UNL     1     121.964  86.540  51.974  1.00  0.00     0.034 C 
BRANCH   5   6
ATOM      6  C   UNL     1     120.959  85.699  52.741  1.00  0.00    -0.077 C 
ATOM      7  C   UNL     1     120.788  84.259  52.327  1.00  0.00     0.039 C 
ATOM      8  C   UNL     1     120.158  86.175  53.726  1.00  0.00    -0.023 CG0
ATOM      9  G   UNL     1     120.165  87.571  54.316  1.00  0.00     0.000 G0
ENDBRANCH   5   6
ENDBRANCH   4   5
ENDBRANCH   2   4
BRANCH   1  10
ATOM     10  C   UNL     1     123.129  87.192  55.944  1.00  0.00     0.111 C 
BRANCH  10  11
ATOM     11  C   UNL     1     121.713  86.757  56.217  1.00  0.00     0.163 C 
ATOM     12  O   UNL     1     121.531  85.633  56.759  1.00  0.00    -0.294 OA
BRANCH  11  13
ATOM     13  C   UNL     1     120.531  87.576  55.815  1.00  0.00    -0.002 C 
ATOM     14  C   UNL     1     119.777  88.223  56.754  1.00  0.00    -0.069 C 
ATOM     15  C   UNL     1     118.487  88.929  56.397  1.00  0.00     0.039 C 
ATOM     16  C   UNL     1     120.198  88.265  58.207  1.00  0.00     0.039 C 
BRANCH  13  17
ATOM     17  C   UNL     1     120.155  87.578  54.343  1.00  0.00     0.066 CG0
ATOM     18  G   UNL     1     120.165  86.186  53.743  1.00  0.00     0.000 G0
ENDBRANCH  13  17
ENDBRANCH  11  13
ENDBRANCH  10  11
ENDBRANCH   1  10
TORSDOF 0
ENDMDL
MODEL 7
REMARK VINA RESULT:    -1.289      2.504      4.669
REMARK INTER + INTRA:          -1.622
REMARK INTER:                  -2.044
REMARK INTRA:                   0.422
REMARK UNBOUND:                 0.194
REMARK SMILES CC1=CCC(=C(C)C)C(=O)CC(C)=CCC1
REMARK SMILES IDX 12 1 14 2 13 3 15 4 16 5 2 6 1 7 3 8 11 10 9 11 10 12 5 13
REMARK SMILES IDX 6 14 7 15 8 16 4 17
REMARK H PARENT
REMARK Flexibility Score: 60.00
ROOT
ATOM      1  C   UNL     1     119.324  87.296  58.526  1.00  0.00    -0.070 C 
ATOM      2  C   UNL     1     120.117  88.216  57.932  1.00  0.00    -0.027 C 
ATOM      3  C   UNL     1     118.005  87.761  59.089  1.00  0.00     0.039 C 
ENDROOT
BRANCH   2   4
ATOM      4  C   UNL     1     121.510  87.967  57.397  1.00  0.00     0.032 C 
BRANCH   4   5
ATOM      5  C   UNL     1     121.570  87.561  55.910  1.00  0.00     0.034 C 
BRANCH   5   6
ATOM      6  C   UNL     1     122.228  86.211  55.685  1.00  0.00    -0.077 C 
ATOM      7  C   UNL     1     123.733  86.169  55.603  1.00  0.00     0.039 C 
ATOM      8  C   UNL     1     121.549  85.054  55.485  1.00  0.00    -0.023 CG0
ATOM      9  G   UNL     1     120.048  84.853  55.540  1.00  0.00     0.000 G0
ENDBRANCH   5   6
ENDBRANCH   4   5
ENDBRANCH   2   4
BRANCH   1  10
ATOM     10  C   UNL     1     119.736  85.853  58.732  1.00  0.00     0.111 C 
BRANCH  10  11
ATOM     11  C   UNL     1     118.947  84.919  57.851  1.00  0.00     0.163 C 
ATOM     12  O   UNL     1     117.714  84.788  58.078  1.00  0.00    -0.294 OA
BRANCH  11  13
ATOM     13  C   UNL     1     119.584  84.106  56.772  1.00  0.00    -0.002 C 
ATOM     14  C   UNL     1     119.818  82.771  56.949  1.00  0.00    -0.069 C 
ATOM     15  C   UNL     1     120.600  81.956  55.943  1.00  0.00     0.039 C 
ATOM     16  C   UNL     1     119.302  82.039  58.169  1.00  0.00     0.039 C 
BRANCH  13  17
ATOM     17  C   UNL     1     120.041  84.843  55.524  1.00  0.00     0.066 CG0
ATOM     18  G   UNL     1     121.541  85.057  55.497  1.00  0.00     0.000 G0
ENDBRANCH  13  17
ENDBRANCH  11  13
ENDBRANCH  10  11
ENDBRANCH   1  10
TORSDOF 0
ENDMDL
MODEL 8
REMARK VINA RESULT:    -1.212      6.775      9.044
REMARK INTER + INTRA:          -1.514
REMARK INTER:                  -2.049
REMARK INTRA:                   0.535
REMARK UNBOUND:                 0.194
REMARK SMILES CC1=CCC(=C(C)C)C(=O)CC(C)=CCC1
REMARK SMILES IDX 12 1 14 2 13 3 15 4 16 5 2 6 1 7 3 8 11 10 9 11 10 12 5 13
REMARK SMILES IDX 6 14 7 15 8 16 4 17
REMARK H PARENT
REMARK Flexibility Score: 60.00
ROOT
ATOM      1  C   UNL     1     112.865  88.241  56.443  1.00  0.00    -0.070 C 
ATOM      2  C   UNL     1     113.506  89.095  57.272  1.00  0.00    -0.027 C 
ATOM      3  C   UNL     1     112.224  88.811  55.203  1.00  0.00     0.039 C 
ENDROOT
BRANCH   2   4
ATOM      4  C   UNL     1     114.124  88.734  58.605  1.00  0.00     0.032 C 
BRANCH   4   5
ATOM      5  C   UNL     1     115.623  89.072  58.738  1.00  0.00     0.034 C 
BRANCH   5   6
ATOM      6  C   UNL     1     116.498  88.302  57.765  1.00  0.00    -0.077 C 
ATOM      7  C   UNL     1     117.414  89.095  56.866  1.00  0.00     0.039 C 
ATOM      8  C   UNL     1     116.459  86.956  57.602  1.00  0.00    -0.023 CG0
ATOM      9  G   UNL     1     115.637  85.962  58.398  1.00  0.00     0.000 G0
ENDBRANCH   5   6
ENDBRANCH   4   5
ENDBRANCH   2   4
BRANCH   1  10
ATOM     10  C   UNL     1     112.682  86.768  56.746  1.00  0.00     0.111 C 
BRANCH  10  11
ATOM     11  C   UNL     1     113.936  85.984  56.462  1.00  0.00     0.163 C 
ATOM     12  O   UNL     1     114.363  85.955  55.276  1.00  0.00    -0.294 OA
BRANCH  11  13
ATOM     13  C   UNL     1     114.645  85.196  57.515  1.00  0.00    -0.002 C 
ATOM     14  C   UNL     1     114.340  83.881  57.727  1.00  0.00    -0.069 C 
ATOM     15  C   UNL     1     114.923  83.101  58.884  1.00  0.00     0.039 C 
ATOM     16  C   UNL     1     113.396  83.136  56.808  1.00  0.00     0.039 C 
BRANCH  13  17
ATOM     17  C   UNL     1     115.637  85.942  58.391  1.00  0.00     0.066 CG0
ATOM     18  G   UNL     1     116.459  86.945  57.606  1.00  0.00     0.000 G0
ENDBRANCH  13  17
ENDBRANCH  11  13
ENDBRANCH  10  11
ENDBRANCH   1  10
TORSDOF 0
ENDMDL
MODEL 9
REMARK VINA RESULT:    -1.171      4.270      5.940
REMARK INTER + INTRA:          -1.456
REMARK INTER:                  -1.763
REMARK INTRA:                   0.306
REMARK UNBOUND:                 0.194
REMARK SMILES CC1=CCC(=C(C)C)C(=O)CC(C)=CCC1
REMARK SMILES IDX 12 1 14 2 13 3 15 4 16 5 2 6 1 7 3 8 11 10 9 11 10 12 5 13
REMARK SMILES IDX 6 14 7 15 8 16 4 17
REMARK H PARENT
REMARK Flexibility Score: 60.00
ROOT
ATOM      1  C   UNL     1     117.438  84.856  56.494  1.00  0.00    -0.070 C 
ATOM      2  C   UNL     1     118.772  84.901  56.713  1.00  0.00    -0.027 C 
ATOM      3  C   UNL     1     116.583  84.131  57.502  1.00  0.00     0.039 C 
ENDROOT
BRANCH   2   4
ATOM      4  C   UNL     1     119.801  85.493  55.774  1.00  0.00     0.032 C 
BRANCH   4   5
ATOM      5  C   UNL     1     119.835  87.035  55.739  1.00  0.00     0.034 C 
BRANCH   5   6
ATOM      6  C   UNL     1     119.535  87.670  57.085  1.00  0.00    -0.077 C 
ATOM      7  C   UNL     1     120.586  87.562  58.161  1.00  0.00     0.039 C 
ATOM      8  C   UNL     1     118.359  88.265  57.404  1.00  0.00    -0.023 CG0
ATOM      9  G   UNL     1     117.176  88.503  56.487  1.00  0.00     0.000 G0
ENDBRANCH   5   6
ENDBRANCH   4   5
ENDBRANCH   2   4
BRANCH   1  10
ATOM     10  C   UNL     1     116.781  85.414  55.248  1.00  0.00     0.111 C 
BRANCH  10  11
ATOM     11  C   UNL     1     115.817  86.523  55.578  1.00  0.00     0.163 C 
ATOM     12  O   UNL     1     114.795  86.656  54.852  1.00  0.00    -0.294 OA
BRANCH  11  13
ATOM     13  C   UNL     1     116.062  87.495  56.685  1.00  0.00    -0.002 C 
ATOM     14  C   UNL     1     115.253  87.519  57.786  1.00  0.00    -0.069 C 
ATOM     15  C   UNL     1     115.376  88.590  58.847  1.00  0.00     0.039 C 
ATOM     16  C   UNL     1     114.185  86.467  57.998  1.00  0.00     0.039 C 
BRANCH  13  17
ATOM     17  C   UNL     1     117.178  88.506  56.487  1.00  0.00     0.066 CG0
ATOM     18  G   UNL     1     118.349  88.263  57.419  1.00  0.00     0.000 G0
ENDBRANCH  13  17
ENDBRANCH  11  13
ENDBRANCH  10  11
ENDBRANCH   1  10
TORSDOF 0
ENDMDL
