MODEL 1
REMARK VINA RESULT:    -4.458      0.000      0.000
REMARK INTER + INTRA:          -7.544
REMARK INTER:                  -6.804
REMARK INTRA:                  -0.740
REMARK UNBOUND:                -0.740
REMARK SMILES CCCCCCCCCCC(=O)[O-]
REMARK SMILES IDX 7 1 8 2 9 3 10 4 11 5 12 6 13 7 6 8 5 9 4 10 3 11 2 12 1 13
REMARK H PARENT
REMARK Flexibility Score: inf
ROOT
ATOM      1  C   UNL     1      27.372  -5.662  29.995  1.00  0.00     0.000 C 
ENDROOT
BRANCH   1   2
ATOM      2  C   UNL     1      26.979  -4.331  30.655  1.00  0.00     0.000 C 
BRANCH   2   3
ATOM      3  C   UNL     1      28.017  -3.225  30.416  1.00  0.00     0.006 C 
BRANCH   3   4
ATOM      4  C   UNL     1      27.601  -1.924  31.109  1.00  0.00     0.053 C 
BRANCH   4   5
ATOM      5  C   UNL     1      26.894  -1.021  30.149  1.00  0.00     0.041 C 
ATOM      6  O   UNL     1      26.051  -0.185  30.568  1.00  0.00    -0.550 OA
ATOM      7  O   UNL     1      27.129  -1.136  28.784  1.00  0.00    -0.550 OA
ENDBRANCH   4   5
ENDBRANCH   3   4
ENDBRANCH   2   3
ENDBRANCH   1   2
BRANCH   1   8
ATOM      8  C   UNL     1      28.874  -5.743  29.673  1.00  0.00     0.000 C 
BRANCH   8   9
ATOM      9  C   UNL     1      29.648  -6.602  30.686  1.00  0.00    -0.000 C 
BRANCH   9  10
ATOM     10  C   UNL     1      28.742  -7.595  31.432  1.00  0.00    -0.000 C 
BRANCH  10  11
ATOM     11  C   UNL     1      29.049  -9.062  31.084  1.00  0.00    -0.000 C 
BRANCH  11  12
ATOM     12  C   UNL     1      28.120  -9.649  30.003  1.00  0.00    -0.003 C 
ATOM     13  C   UNL     1      28.680  -9.471  28.592  1.00  0.00     0.004 C 
ENDBRANCH  11  12
ENDBRANCH  10  11
ENDBRANCH   9  10
ENDBRANCH   8   9
ENDBRANCH   1   8
TORSDOF 9
ENDMDL
MODEL 2
REMARK VINA RESULT:    -4.431      3.922      6.898
REMARK INTER + INTRA:          -7.503
REMARK INTER:                  -6.895
REMARK INTRA:                  -0.608
REMARK UNBOUND:                -0.740
REMARK SMILES CCCCCCCCCCC(=O)[O-]
REMARK SMILES IDX 7 1 8 2 9 3 10 4 11 5 12 6 13 7 6 8 5 9 4 10 3 11 2 12 1 13
REMARK H PARENT
REMARK Flexibility Score: inf
ROOT
ATOM      1  C   UNL     1      29.793  -5.213  30.291  1.00  0.00     0.000 C 
ENDROOT
BRANCH   1   2
ATOM      2  C   UNL     1      28.997  -6.100  29.321  1.00  0.00     0.000 C 
BRANCH   2   3
ATOM      3  C   UNL     1      28.161  -7.166  30.045  1.00  0.00     0.006 C 
BRANCH   3   4
ATOM      4  C   UNL     1      28.626  -7.335  31.494  1.00  0.00     0.053 C 
BRANCH   4   5
ATOM      5  C   UNL     1      28.923  -8.772  31.786  1.00  0.00     0.041 C 
ATOM      6  O   UNL     1      28.304  -9.373  32.702  1.00  0.00    -0.550 OA
ATOM      7  O   UNL     1      29.920  -9.433  31.079  1.00  0.00    -0.550 OA
ENDBRANCH   4   5
ENDBRANCH   3   4
ENDBRANCH   2   3
ENDBRANCH   1   2
BRANCH   1   8
ATOM      8  C   UNL     1      29.607  -3.712  30.009  1.00  0.00     0.000 C 
BRANCH   8   9
ATOM      9  C   UNL     1      28.223  -3.199  30.437  1.00  0.00    -0.000 C 
BRANCH   9  10
ATOM     10  C   UNL     1      28.049  -1.692  30.188  1.00  0.00    -0.000 C 
BRANCH  10  11
ATOM     11  C   UNL     1      28.151  -0.858  31.477  1.00  0.00    -0.000 C 
BRANCH  11  12
ATOM     12  C   UNL     1      29.572  -0.329  31.760  1.00  0.00    -0.003 C 
ATOM     13  C   UNL     1      30.279   0.152  30.493  1.00  0.00     0.004 C 
ENDBRANCH  11  12
ENDBRANCH  10  11
ENDBRANCH   9  10
ENDBRANCH   8   9
ENDBRANCH   1   8
TORSDOF 9
ENDMDL
MODEL 3
REMARK VINA RESULT:    -4.425      3.873      6.906
REMARK INTER + INTRA:          -7.494
REMARK INTER:                  -6.891
REMARK INTRA:                  -0.603
REMARK UNBOUND:                -0.740
REMARK SMILES CCCCCCCCCCC(=O)[O-]
REMARK SMILES IDX 7 1 8 2 9 3 10 4 11 5 12 6 13 7 6 8 5 9 4 10 3 11 2 12 1 13
REMARK H PARENT
REMARK Flexibility Score: inf
ROOT
ATOM      1  C   UNL     1      29.960  -5.285  30.421  1.00  0.00     0.000 C 
ENDROOT
BRANCH   1   2
ATOM      2  C   UNL     1      28.722  -5.995  30.991  1.00  0.00     0.000 C 
BRANCH   2   3
ATOM      3  C   UNL     1      28.575  -7.433  30.474  1.00  0.00     0.006 C 
BRANCH   3   4
ATOM      4  C   UNL     1      28.916  -7.517  28.983  1.00  0.00     0.053 C 
BRANCH   4   5
ATOM      5  C   UNL     1      28.971  -8.944  28.537  1.00  0.00     0.041 C 
ATOM      6  O   UNL     1      29.846  -9.317  27.712  1.00  0.00    -0.550 OA
ATOM      7  O   UNL     1      28.023  -9.852  28.993  1.00  0.00    -0.550 OA
ENDBRANCH   4   5
ENDBRANCH   3   4
ENDBRANCH   2   3
ENDBRANCH   1   2
BRANCH   1   8
ATOM      8  C   UNL     1      29.668  -3.836  29.995  1.00  0.00     0.000 C 
BRANCH   8   9
ATOM      9  C   UNL     1      28.247  -3.386  30.371  1.00  0.00    -0.000 C 
BRANCH   9  10
ATOM     10  C   UNL     1      28.068  -1.862  30.282  1.00  0.00    -0.000 C 
BRANCH  10  11
ATOM     11  C   UNL     1      28.195  -1.165  31.648  1.00  0.00    -0.000 C 
BRANCH  11  12
ATOM     12  C   UNL     1      29.515  -0.386  31.824  1.00  0.00    -0.003 C 
ATOM     13  C   UNL     1      30.226  -0.134  30.495  1.00  0.00     0.004 C 
ENDBRANCH  11  12
ENDBRANCH  10  11
ENDBRANCH   9  10
ENDBRANCH   8   9
ENDBRANCH   1   8
TORSDOF 9
ENDMDL
MODEL 4
REMARK VINA RESULT:    -4.405      1.968      2.605
REMARK INTER + INTRA:          -7.463
REMARK INTER:                  -6.915
REMARK INTRA:                  -0.548
REMARK UNBOUND:                -0.740
REMARK SMILES CCCCCCCCCCC(=O)[O-]
REMARK SMILES IDX 7 1 8 2 9 3 10 4 11 5 12 6 13 7 6 8 5 9 4 10 3 11 2 12 1 13
REMARK H PARENT
REMARK Flexibility Score: inf
ROOT
ATOM      1  C   UNL     1      27.281  -4.643  30.718  1.00  0.00     0.000 C 
ENDROOT
BRANCH   1   2
ATOM      2  C   UNL     1      28.409  -3.675  30.327  1.00  0.00     0.000 C 
BRANCH   2   3
ATOM      3  C   UNL     1      27.910  -2.236  30.132  1.00  0.00     0.006 C 
BRANCH   3   4
ATOM      4  C   UNL     1      29.004  -1.357  29.517  1.00  0.00     0.053 C 
BRANCH   4   5
ATOM      5  C   UNL     1      29.837  -0.729  30.590  1.00  0.00     0.041 C 
ATOM      6  O   UNL     1      30.981  -0.277  30.321  1.00  0.00    -0.550 OA
ATOM      7  O   UNL     1      29.370  -0.687  31.898  1.00  0.00    -0.550 OA
ENDBRANCH   4   5
ENDBRANCH   3   4
ENDBRANCH   2   3
ENDBRANCH   1   2
BRANCH   1   8
ATOM      8  C   UNL     1      27.355  -5.977  29.955  1.00  0.00     0.000 C 
BRANCH   8   9
ATOM      9  C   UNL     1      28.788  -6.331  29.526  1.00  0.00    -0.000 C 
BRANCH   9  10
ATOM     10  C   UNL     1      28.890  -7.740  28.918  1.00  0.00    -0.000 C 
BRANCH  10  11
ATOM     11  C   UNL     1      28.274  -8.825  29.818  1.00  0.00    -0.000 C 
BRANCH  11  12
ATOM     12  C   UNL     1      29.196  -9.268  30.972  1.00  0.00    -0.003 C 
ATOM     13  C   UNL     1      28.671  -8.830  32.339  1.00  0.00     0.004 C 
ENDBRANCH  11  12
ENDBRANCH  10  11
ENDBRANCH   9  10
ENDBRANCH   8   9
ENDBRANCH   1   8
TORSDOF 9
ENDMDL
MODEL 5
REMARK VINA RESULT:    -4.394      3.199      6.588
REMARK INTER + INTRA:          -7.446
REMARK INTER:                  -6.272
REMARK INTRA:                  -1.174
REMARK UNBOUND:                -0.740
REMARK SMILES CCCCCCCCCCC(=O)[O-]
REMARK SMILES IDX 7 1 8 2 9 3 10 4 11 5 12 6 13 7 6 8 5 9 4 10 3 11 2 12 1 13
REMARK H PARENT
REMARK Flexibility Score: inf
ROOT
ATOM      1  C   UNL     1      29.814  -1.634  30.104  1.00  0.00     0.000 C 
ENDROOT
BRANCH   1   2
ATOM      2  C   UNL     1      29.204  -3.042  30.018  1.00  0.00     0.000 C 
BRANCH   2   3
ATOM      3  C   UNL     1      28.012  -3.229  30.969  1.00  0.00     0.006 C 
BRANCH   3   4
ATOM      4  C   UNL     1      27.121  -4.386  30.509  1.00  0.00     0.053 C 
BRANCH   4   5
ATOM      5  C   UNL     1      27.889  -5.671  30.506  1.00  0.00     0.041 C 
ATOM      6  O   UNL     1      28.405  -6.102  31.571  1.00  0.00    -0.550 OA
ATOM      7  O   UNL     1      28.077  -6.366  29.318  1.00  0.00    -0.550 OA
ENDBRANCH   4   5
ENDBRANCH   3   4
ENDBRANCH   2   3
ENDBRANCH   1   2
BRANCH   1   8
ATOM      8  C   UNL     1      29.461  -0.916  31.419  1.00  0.00     0.000 C 
BRANCH   8   9
ATOM      9  C   UNL     1      29.460   0.614  31.272  1.00  0.00    -0.000 C 
BRANCH   9  10
ATOM     10  C   UNL     1      28.112   1.158  30.769  1.00  0.00    -0.000 C 
BRANCH  10  11
ATOM     11  C   UNL     1      26.913   0.338  31.273  1.00  0.00    -0.000 C 
BRANCH  11  12
ATOM     12  C   UNL     1      26.076  -0.294  30.141  1.00  0.00    -0.003 C 
ATOM     13  C   UNL     1      26.648   0.005  28.756  1.00  0.00     0.004 C 
ENDBRANCH  11  12
ENDBRANCH  10  11
ENDBRANCH   9  10
ENDBRANCH   8   9
ENDBRANCH   1   8
TORSDOF 9
ENDMDL
MODEL 6
REMARK VINA RESULT:    -4.355      3.117      6.888
REMARK INTER + INTRA:          -7.386
REMARK INTER:                  -6.562
REMARK INTRA:                  -0.824
REMARK UNBOUND:                -0.740
REMARK SMILES CCCCCCCCCCC(=O)[O-]
REMARK SMILES IDX 7 1 8 2 9 3 10 4 11 5 12 6 13 7 6 8 5 9 4 10 3 11 2 12 1 13
REMARK H PARENT
REMARK Flexibility Score: inf
ROOT
ATOM      1  C   UNL     1      26.963  -2.060  30.394  1.00  0.00     0.000 C 
ENDROOT
BRANCH   1   2
ATOM      2  C   UNL     1      27.933  -3.252  30.385  1.00  0.00     0.000 C 
BRANCH   2   3
ATOM      3  C   UNL     1      27.321  -4.516  31.005  1.00  0.00     0.006 C 
BRANCH   3   4
ATOM      4  C   UNL     1      27.215  -5.639  29.969  1.00  0.00     0.053 C 
BRANCH   4   5
ATOM      5  C   UNL     1      28.396  -6.553  30.062  1.00  0.00     0.041 C 
ATOM      6  O   UNL     1      28.636  -7.374  29.139  1.00  0.00    -0.550 OA
ATOM      7  O   UNL     1      29.203  -6.533  31.193  1.00  0.00    -0.550 OA
ENDBRANCH   4   5
ENDBRANCH   3   4
ENDBRANCH   2   3
ENDBRANCH   1   2
BRANCH   1   8
ATOM      8  C   UNL     1      27.189  -1.104  29.210  1.00  0.00     0.000 C 
BRANCH   8   9
ATOM      9  C   UNL     1      26.973   0.369  29.594  1.00  0.00    -0.000 C 
BRANCH   9  10
ATOM     10  C   UNL     1      27.373   0.664  31.049  1.00  0.00    -0.000 C 
BRANCH  10  11
ATOM     11  C   UNL     1      28.806   1.208  31.176  1.00  0.00    -0.000 C 
BRANCH  11  12
ATOM     12  C   UNL     1      29.847   0.130  31.544  1.00  0.00    -0.003 C 
ATOM     13  C   UNL     1      30.751  -0.234  30.368  1.00  0.00     0.004 C 
ENDBRANCH  11  12
ENDBRANCH  10  11
ENDBRANCH   9  10
ENDBRANCH   8   9
ENDBRANCH   1   8
TORSDOF 9
ENDMDL
MODEL 7
REMARK VINA RESULT:    -4.351      1.296      2.171
REMARK INTER + INTRA:          -7.381
REMARK INTER:                  -6.735
REMARK INTRA:                  -0.646
REMARK UNBOUND:                -0.740
REMARK SMILES CCCCCCCCCCC(=O)[O-]
REMARK SMILES IDX 7 1 8 2 9 3 10 4 11 5 12 6 13 7 6 8 5 9 4 10 3 11 2 12 1 13
REMARK H PARENT
REMARK Flexibility Score: inf
ROOT
ATOM      1  C   UNL     1      29.865  -5.183  30.410  1.00  0.00     0.000 C 
ENDROOT
BRANCH   1   2
ATOM      2  C   UNL     1      29.766  -3.872  29.614  1.00  0.00     0.000 C 
BRANCH   2   3
ATOM      3  C   UNL     1      28.883  -2.825  30.309  1.00  0.00     0.006 C 
BRANCH   3   4
ATOM      4  C   UNL     1      28.851  -1.519  29.510  1.00  0.00     0.053 C 
BRANCH   4   5
ATOM      5  C   UNL     1      27.470  -0.943  29.501  1.00  0.00     0.041 C 
ATOM      6  O   UNL     1      26.840  -0.825  28.417  1.00  0.00    -0.550 OA
ATOM      7  O   UNL     1      26.897  -0.490  30.682  1.00  0.00    -0.550 OA
ENDBRANCH   4   5
ENDBRANCH   3   4
ENDBRANCH   2   3
ENDBRANCH   1   2
BRANCH   1   8
ATOM      8  C   UNL     1      28.488  -5.724  30.832  1.00  0.00     0.000 C 
BRANCH   8   9
ATOM      9  C   UNL     1      27.820  -6.559  29.728  1.00  0.00    -0.000 C 
BRANCH   9  10
ATOM     10  C   UNL     1      28.752  -7.643  29.162  1.00  0.00    -0.000 C 
BRANCH  10  11
ATOM     11  C   UNL     1      28.524  -9.022  29.805  1.00  0.00    -0.000 C 
BRANCH  11  12
ATOM     12  C   UNL     1      29.457  -9.308  31.000  1.00  0.00    -0.003 C 
ATOM     13  C   UNL     1      28.742  -9.176  32.344  1.00  0.00     0.004 C 
ENDBRANCH  11  12
ENDBRANCH  10  11
ENDBRANCH   9  10
ENDBRANCH   8   9
ENDBRANCH   1   8
TORSDOF 9
ENDMDL
MODEL 8
REMARK VINA RESULT:    -4.332      1.666      2.667
REMARK INTER + INTRA:          -7.352
REMARK INTER:                  -6.822
REMARK INTRA:                  -0.531
REMARK UNBOUND:                -0.740
REMARK SMILES CCCCCCCCCCC(=O)[O-]
REMARK SMILES IDX 7 1 8 2 9 3 10 4 11 5 12 6 13 7 6 8 5 9 4 10 3 11 2 12 1 13
REMARK H PARENT
REMARK Flexibility Score: inf
ROOT
ATOM      1  C   UNL     1      28.596  -3.579  30.299  1.00  0.00     0.000 C 
ENDROOT
BRANCH   1   2
ATOM      2  C   UNL     1      28.307  -2.075  30.182  1.00  0.00     0.000 C 
BRANCH   2   3
ATOM      3  C   UNL     1      27.976  -1.431  31.537  1.00  0.00     0.006 C 
BRANCH   3   4
ATOM      4  C   UNL     1      27.270  -0.085  31.345  1.00  0.00     0.053 C 
BRANCH   4   5
ATOM      5  C   UNL     1      28.239   0.954  30.875  1.00  0.00     0.041 C 
ATOM      6  O   UNL     1      28.012   1.599  29.818  1.00  0.00    -0.550 OA
ATOM      7  O   UNL     1      29.417   1.174  31.578  1.00  0.00    -0.550 OA
ENDBRANCH   4   5
ENDBRANCH   3   4
ENDBRANCH   2   3
ENDBRANCH   1   2
BRANCH   1   8
ATOM      8  C   UNL     1      27.358  -4.389  30.722  1.00  0.00     0.000 C 
BRANCH   8   9
ATOM      9  C   UNL     1      27.261  -5.740  29.994  1.00  0.00    -0.000 C 
BRANCH   9  10
ATOM     10  C   UNL     1      28.617  -6.213  29.445  1.00  0.00    -0.000 C 
BRANCH  10  11
ATOM     11  C   UNL     1      29.048  -7.576  30.011  1.00  0.00    -0.000 C 
BRANCH  11  12
ATOM     12  C   UNL     1      28.767  -7.736  31.520  1.00  0.00    -0.003 C 
ATOM     13  C   UNL     1      28.787  -9.197  31.966  1.00  0.00     0.004 C 
ENDBRANCH  11  12
ENDBRANCH  10  11
ENDBRANCH   9  10
ENDBRANCH   8   9
ENDBRANCH   1   8
TORSDOF 9
ENDMDL
MODEL 9
REMARK VINA RESULT:    -4.328      5.425     10.485
REMARK INTER + INTRA:          -7.345
REMARK INTER:                  -6.942
REMARK INTRA:                  -0.403
REMARK UNBOUND:                -0.740
REMARK SMILES CCCCCCCCCCC(=O)[O-]
REMARK SMILES IDX 7 1 8 2 9 3 10 4 11 5 12 6 13 7 6 8 5 9 4 10 3 11 2 12 1 13
REMARK H PARENT
REMARK Flexibility Score: inf
ROOT
ATOM      1  C   UNL     1      27.537   1.967  29.473  1.00  0.00     0.000 C 
ENDROOT
BRANCH   1   2
ATOM      2  C   UNL     1      28.054   1.565  30.863  1.00  0.00     0.000 C 
BRANCH   2   3
ATOM      3  C   UNL     1      29.310   0.683  30.794  1.00  0.00     0.006 C 
BRANCH   3   4
ATOM      4  C   UNL     1      29.088  -0.643  31.527  1.00  0.00     0.053 C 
BRANCH   4   5
ATOM      5  C   UNL     1      28.932  -1.764  30.548  1.00  0.00     0.041 C 
ATOM      6  O   UNL     1      29.871  -2.583  30.368  1.00  0.00    -0.550 OA
ATOM      7  O   UNL     1      27.767  -1.875  29.798  1.00  0.00    -0.550 OA
ENDBRANCH   4   5
ENDBRANCH   3   4
ENDBRANCH   2   3
ENDBRANCH   1   2
BRANCH   1   8
ATOM      8  C   UNL     1      27.626   3.483  29.224  1.00  0.00     0.000 C 
BRANCH   8   9
ATOM      9  C   UNL     1      27.950   4.271  30.503  1.00  0.00    -0.000 C 
BRANCH   9  10
ATOM     10  C   UNL     1      27.366   5.693  30.484  1.00  0.00    -0.000 C 
BRANCH  10  11
ATOM     11  C   UNL     1      28.375   6.747  29.997  1.00  0.00    -0.000 C 
BRANCH  11  12
ATOM     12  C   UNL     1      28.014   8.188  30.413  1.00  0.00    -0.003 C 
ATOM     13  C   UNL     1      26.509   8.448  30.371  1.00  0.00     0.004 C 
ENDBRANCH  11  12
ENDBRANCH  10  11
ENDBRANCH   9  10
ENDBRANCH   8   9
ENDBRANCH   1   8
TORSDOF 9
ENDMDL
