MODEL 1
REMARK VINA RESULT:    -4.297      0.000      0.000
REMARK INTER + INTRA:          -6.098
REMARK INTER:                  -5.804
REMARK INTRA:                  -0.295
REMARK UNBOUND:                -0.295
REMARK SMILES CCCCCCC=CC(=O)[O-]
REMARK SMILES IDX 5 1 6 2 7 3 8 4 9 5 10 6 11 7 4 8 3 9 2 10 1 11
REMARK H PARENT
REMARK Flexibility Score: inf
ROOT
ATOM      1  C   UNL     1      31.374   8.844  48.464  1.00  0.00     0.004 C 
ENDROOT
BRANCH   1   2
ATOM      2  C   UNL     1      32.726   8.139  48.627  1.00  0.00     0.027 C 
BRANCH   2   3
ATOM      3  C   UNL     1      33.368   7.877  47.295  1.00  0.00    -0.025 C 
ATOM      4  C   UNL     1      33.453   6.641  46.792  1.00  0.00     0.020 C 
BRANCH   4   5
ATOM      5  C   UNL     1      34.067   6.371  45.483  1.00  0.00     0.064 C 
ATOM      6  O   UNL     1      34.019   7.248  44.582  1.00  0.00    -0.545 OA
ATOM      7  O   UNL     1      34.699   5.160  45.225  1.00  0.00    -0.545 OA
ENDBRANCH   4   5
ENDBRANCH   2   3
ENDBRANCH   1   2
BRANCH   1   8
ATOM      8  C   UNL     1      30.225   7.947  48.937  1.00  0.00     0.000 C 
BRANCH   8   9
ATOM      9  C   UNL     1      30.037   6.751  47.995  1.00  0.00    -0.000 C 
BRANCH   9  10
ATOM     10  C   UNL     1      28.964   5.794  48.529  1.00  0.00    -0.003 C 
ATOM     11  C   UNL     1      27.936   5.461  47.452  1.00  0.00     0.004 C 
ENDBRANCH   9  10
ENDBRANCH   8   9
ENDBRANCH   1   8
TORSDOF 6
ENDMDL
MODEL 2
REMARK VINA RESULT:    -4.184      2.312      3.354
REMARK INTER + INTRA:          -5.946
REMARK INTER:                  -5.696
REMARK INTRA:                  -0.250
REMARK UNBOUND:                -0.295
REMARK SMILES CCCCCCC=CC(=O)[O-]
REMARK SMILES IDX 5 1 6 2 7 3 8 4 9 5 10 6 11 7 4 8 3 9 2 10 1 11
REMARK H PARENT
REMARK Flexibility Score: inf
ROOT
ATOM      1  C   UNL     1      33.855   5.713  46.975  1.00  0.00     0.004 C 
ENDROOT
BRANCH   1   2
ATOM      2  C   UNL     1      33.842   6.292  45.555  1.00  0.00     0.027 C 
BRANCH   2   3
ATOM      3  C   UNL     1      34.006   7.784  45.573  1.00  0.00    -0.025 C 
ATOM      4  C   UNL     1      34.409   8.456  44.489  1.00  0.00     0.020 C 
BRANCH   4   5
ATOM      5  C   UNL     1      34.562   9.918  44.489  1.00  0.00     0.064 C 
ATOM      6  O   UNL     1      35.439  10.452  45.217  1.00  0.00    -0.545 OA
ATOM      7  O   UNL     1      33.750  10.722  43.696  1.00  0.00    -0.545 OA
ENDBRANCH   4   5
ENDBRANCH   2   3
ENDBRANCH   1   2
BRANCH   1   8
ATOM      8  C   UNL     1      32.779   6.369  47.847  1.00  0.00     0.000 C 
BRANCH   8   9
ATOM      9  C   UNL     1      31.376   6.091  47.293  1.00  0.00    -0.000 C 
BRANCH   9  10
ATOM     10  C   UNL     1      30.302   6.773  48.148  1.00  0.00    -0.003 C 
ATOM     11  C   UNL     1      29.044   5.915  48.240  1.00  0.00     0.004 C 
ENDBRANCH   9  10
ENDBRANCH   8   9
ENDBRANCH   1   8
TORSDOF 6
ENDMDL
MODEL 3
REMARK VINA RESULT:    -4.182      3.159      5.604
REMARK INTER + INTRA:          -5.944
REMARK INTER:                  -5.639
REMARK INTRA:                  -0.305
REMARK UNBOUND:                -0.295
REMARK SMILES CCCCCCC=CC(=O)[O-]
REMARK SMILES IDX 5 1 6 2 7 3 8 4 9 5 10 6 11 7 4 8 3 9 2 10 1 11
REMARK H PARENT
REMARK Flexibility Score: inf
ROOT
ATOM      1  C   UNL     1      34.007   6.246  45.476  1.00  0.00     0.004 C 
ENDROOT
BRANCH   1   2
ATOM      2  C   UNL     1      33.672   5.767  46.894  1.00  0.00     0.027 C 
BRANCH   2   3
ATOM      3  C   UNL     1      32.477   6.491  47.446  1.00  0.00    -0.025 C 
ATOM      4  C   UNL     1      31.282   5.899  47.537  1.00  0.00     0.020 C 
BRANCH   4   5
ATOM      5  C   UNL     1      30.108   6.591  48.088  1.00  0.00     0.064 C 
ATOM      6  O   UNL     1      30.222   7.772  48.506  1.00  0.00    -0.545 OA
ATOM      7  O   UNL     1      28.870   5.959  48.155  1.00  0.00    -0.545 OA
ENDBRANCH   4   5
ENDBRANCH   2   3
ENDBRANCH   1   2
BRANCH   1   8
ATOM      8  C   UNL     1      34.063   7.776  45.411  1.00  0.00     0.000 C 
BRANCH   8   9
ATOM      9  C   UNL     1      34.200   8.261  43.963  1.00  0.00    -0.000 C 
BRANCH   9  10
ATOM     10  C   UNL     1      34.685   9.714  43.913  1.00  0.00    -0.003 C 
ATOM     11  C   UNL     1      34.928  10.263  45.316  1.00  0.00     0.004 C 
ENDBRANCH   9  10
ENDBRANCH   8   9
ENDBRANCH   1   8
TORSDOF 6
ENDMDL
MODEL 4
REMARK VINA RESULT:    -4.034     16.035     17.242
REMARK INTER + INTRA:          -5.744
REMARK INTER:                  -5.057
REMARK INTRA:                  -0.686
REMARK UNBOUND:                -0.295
REMARK SMILES CCCCCCC=CC(=O)[O-]
REMARK SMILES IDX 5 1 6 2 7 3 8 4 9 5 10 6 11 7 4 8 3 9 2 10 1 11
REMARK H PARENT
REMARK Flexibility Score: inf
ROOT
ATOM      1  C   UNL     1      22.079  11.622  33.703  1.00  0.00     0.004 C 
ENDROOT
BRANCH   1   2
ATOM      2  C   UNL     1      22.500  11.346  35.152  1.00  0.00     0.027 C 
BRANCH   2   3
ATOM      3  C   UNL     1      21.904  10.064  35.658  1.00  0.00    -0.025 C 
ATOM      4  C   UNL     1      20.925   9.439  34.995  1.00  0.00     0.020 C 
BRANCH   4   5
ATOM      5  C   UNL     1      20.342   8.176  35.472  1.00  0.00     0.064 C 
ATOM      6  O   UNL     1      19.492   8.195  36.399  1.00  0.00    -0.545 OA
ATOM      7  O   UNL     1      20.718   6.958  34.914  1.00  0.00    -0.545 OA
ENDBRANCH   4   5
ENDBRANCH   2   3
ENDBRANCH   1   2
BRANCH   1   8
ATOM      8  C   UNL     1      21.287  12.930  33.599  1.00  0.00     0.000 C 
BRANCH   8   9
ATOM      9  C   UNL     1      20.931  13.470  34.989  1.00  0.00    -0.000 C 
BRANCH   9  10
ATOM     10  C   UNL     1      19.423  13.375  35.247  1.00  0.00    -0.003 C 
ATOM     11  C   UNL     1      19.119  12.422  36.400  1.00  0.00     0.004 C 
ENDBRANCH   9  10
ENDBRANCH   8   9
ENDBRANCH   1   8
TORSDOF 6
ENDMDL
MODEL 5
REMARK VINA RESULT:    -4.021      1.444      3.265
REMARK INTER + INTRA:          -5.726
REMARK INTER:                  -5.022
REMARK INTRA:                  -0.704
REMARK UNBOUND:                -0.295
REMARK SMILES CCCCCCC=CC(=O)[O-]
REMARK SMILES IDX 5 1 6 2 7 3 8 4 9 5 10 6 11 7 4 8 3 9 2 10 1 11
REMARK H PARENT
REMARK Flexibility Score: inf
ROOT
ATOM      1  C   UNL     1      31.647   7.463  48.966  1.00  0.00     0.004 C 
ENDROOT
BRANCH   1   2
ATOM      2  C   UNL     1      31.048   6.404  48.032  1.00  0.00     0.027 C 
BRANCH   2   3
ATOM      3  C   UNL     1      31.866   6.254  46.782  1.00  0.00    -0.025 C 
ATOM      4  C   UNL     1      33.195   6.405  46.794  1.00  0.00     0.020 C 
BRANCH   4   5
ATOM      5  C   UNL     1      34.010   6.248  45.580  1.00  0.00     0.064 C 
ATOM      6  O   UNL     1      34.021   7.163  44.717  1.00  0.00    -0.545 OA
ATOM      7  O   UNL     1      34.768   5.101  45.371  1.00  0.00    -0.545 OA
ENDBRANCH   4   5
ENDBRANCH   2   3
ENDBRANCH   1   2
BRANCH   1   8
ATOM      8  C   UNL     1      30.836   8.763  48.914  1.00  0.00     0.000 C 
BRANCH   8   9
ATOM      9  C   UNL     1      31.699   9.931  48.422  1.00  0.00    -0.000 C 
BRANCH   9  10
ATOM     10  C   UNL     1      33.191   9.623  48.594  1.00  0.00    -0.003 C 
ATOM     11  C   UNL     1      33.976   9.977  47.334  1.00  0.00     0.004 C 
ENDBRANCH   9  10
ENDBRANCH   8   9
ENDBRANCH   1   8
TORSDOF 6
ENDMDL
MODEL 6
REMARK VINA RESULT:    -4.013     15.967     17.247
REMARK INTER + INTRA:          -5.715
REMARK INTER:                  -5.230
REMARK INTRA:                  -0.485
REMARK UNBOUND:                -0.295
REMARK SMILES CCCCCCC=CC(=O)[O-]
REMARK SMILES IDX 5 1 6 2 7 3 8 4 9 5 10 6 11 7 4 8 3 9 2 10 1 11
REMARK H PARENT
REMARK Flexibility Score: inf
ROOT
ATOM      1  C   UNL     1      22.038  10.332  35.682  1.00  0.00     0.004 C 
ENDROOT
BRANCH   1   2
ATOM      2  C   UNL     1      20.953   9.785  34.746  1.00  0.00     0.027 C 
BRANCH   2   3
ATOM      3  C   UNL     1      20.024   8.856  35.472  1.00  0.00    -0.025 C 
ATOM      4  C   UNL     1      20.137   7.528  35.363  1.00  0.00     0.020 C 
BRANCH   4   5
ATOM      5  C   UNL     1      19.243   6.606  36.079  1.00  0.00     0.064 C 
ATOM      6  O   UNL     1      19.414   6.404  37.309  1.00  0.00    -0.545 OA
ATOM      7  O   UNL     1      18.210   5.951  35.416  1.00  0.00    -0.545 OA
ENDBRANCH   4   5
ENDBRANCH   2   3
ENDBRANCH   1   2
BRANCH   1   8
ATOM      8  C   UNL     1      22.304  11.816  35.409  1.00  0.00     0.000 C 
BRANCH   8   9
ATOM      9  C   UNL     1      21.136  12.453  34.645  1.00  0.00    -0.000 C 
BRANCH   9  10
ATOM     10  C   UNL     1      20.345  13.408  35.547  1.00  0.00    -0.003 C 
ATOM     11  C   UNL     1      19.052  12.762  36.034  1.00  0.00     0.004 C 
ENDBRANCH   9  10
ENDBRANCH   8   9
ENDBRANCH   1   8
TORSDOF 6
ENDMDL
MODEL 7
REMARK VINA RESULT:    -4.002      1.986      2.348
REMARK INTER + INTRA:          -5.700
REMARK INTER:                  -5.341
REMARK INTRA:                  -0.359
REMARK UNBOUND:                -0.295
REMARK SMILES CCCCCCC=CC(=O)[O-]
REMARK SMILES IDX 5 1 6 2 7 3 8 4 9 5 10 6 11 7 4 8 3 9 2 10 1 11
REMARK H PARENT
REMARK Flexibility Score: inf
ROOT
ATOM      1  C   UNL     1      31.633   9.306  48.477  1.00  0.00     0.004 C 
ENDROOT
BRANCH   1   2
ATOM      2  C   UNL     1      33.075   8.788  48.412  1.00  0.00     0.027 C 
BRANCH   2   3
ATOM      3  C   UNL     1      33.872   9.521  47.372  1.00  0.00    -0.025 C 
ATOM      4  C   UNL     1      33.973   9.065  46.120  1.00  0.00     0.020 C 
BRANCH   4   5
ATOM      5  C   UNL     1      34.739   9.779  45.087  1.00  0.00     0.064 C 
ATOM      6  O   UNL     1      35.111  10.963  45.297  1.00  0.00    -0.545 OA
ATOM      7  O   UNL     1      35.059   9.167  43.880  1.00  0.00    -0.545 OA
ENDBRANCH   4   5
ENDBRANCH   2   3
ENDBRANCH   1   2
BRANCH   1   8
ATOM      8  C   UNL     1      30.645   8.156  48.700  1.00  0.00     0.000 C 
BRANCH   8   9
ATOM      9  C   UNL     1      31.020   6.935  47.851  1.00  0.00    -0.000 C 
BRANCH   9  10
ATOM     10  C   UNL     1      30.300   5.677  48.350  1.00  0.00    -0.003 C 
ATOM     11  C   UNL     1      28.788   5.804  48.185  1.00  0.00     0.004 C 
ENDBRANCH   9  10
ENDBRANCH   8   9
ENDBRANCH   1   8
TORSDOF 6
ENDMDL
MODEL 8
REMARK VINA RESULT:    -3.959      3.155      5.254
REMARK INTER + INTRA:          -5.643
REMARK INTER:                  -5.294
REMARK INTRA:                  -0.349
REMARK UNBOUND:                -0.295
REMARK SMILES CCCCCCC=CC(=O)[O-]
REMARK SMILES IDX 5 1 6 2 7 3 8 4 9 5 10 6 11 7 4 8 3 9 2 10 1 11
REMARK H PARENT
REMARK Flexibility Score: inf
ROOT
ATOM      1  C   UNL     1      33.801   9.368  47.077  1.00  0.00     0.004 C 
ENDROOT
BRANCH   1   2
ATOM      2  C   UNL     1      32.682   9.663  48.083  1.00  0.00     0.027 C 
BRANCH   2   3
ATOM      3  C   UNL     1      31.719   8.515  48.180  1.00  0.00    -0.025 C 
ATOM      4  C   UNL     1      32.027   7.302  47.708  1.00  0.00     0.020 C 
BRANCH   4   5
ATOM      5  C   UNL     1      31.100   6.166  47.807  1.00  0.00     0.064 C 
ATOM      6  O   UNL     1      31.557   4.997  47.904  1.00  0.00    -0.545 OA
ATOM      7  O   UNL     1      29.723   6.362  47.796  1.00  0.00    -0.545 OA
ENDBRANCH   4   5
ENDBRANCH   2   3
ENDBRANCH   1   2
BRANCH   1   8
ATOM      8  C   UNL     1      34.753  10.562  46.947  1.00  0.00     0.000 C 
BRANCH   8   9
ATOM      9  C   UNL     1      35.300  10.677  45.519  1.00  0.00    -0.000 C 
BRANCH   9  10
ATOM     10  C   UNL     1      34.716   9.584  44.617  1.00  0.00    -0.003 C 
ATOM     11  C   UNL     1      33.869  10.186  43.499  1.00  0.00     0.004 C 
ENDBRANCH   9  10
ENDBRANCH   8   9
ENDBRANCH   1   8
TORSDOF 6
ENDMDL
MODEL 9
REMARK VINA RESULT:    -3.882     16.191     17.639
REMARK INTER + INTRA:          -5.538
REMARK INTER:                  -5.134
REMARK INTRA:                  -0.404
REMARK UNBOUND:                -0.295
REMARK SMILES CCCCCCC=CC(=O)[O-]
REMARK SMILES IDX 5 1 6 2 7 3 8 4 9 5 10 6 11 7 4 8 3 9 2 10 1 11
REMARK H PARENT
REMARK Flexibility Score: inf
ROOT
ATOM      1  C   UNL     1      22.043  10.070  35.637  1.00  0.00     0.004 C 
ENDROOT
BRANCH   1   2
ATOM      2  C   UNL     1      20.544   9.748  35.596  1.00  0.00     0.027 C 
BRANCH   2   3
ATOM      3  C   UNL     1      20.304   8.321  35.193  1.00  0.00    -0.025 C 
ATOM      4  C   UNL     1      20.196   7.967  33.908  1.00  0.00     0.020 C 
BRANCH   4   5
ATOM      5  C   UNL     1      19.975   6.572  33.498  1.00  0.00     0.064 C 
ATOM      6  O   UNL     1      20.912   5.925  32.964  1.00  0.00    -0.545 OA
ATOM      7  O   UNL     1      18.742   5.957  33.691  1.00  0.00    -0.545 OA
ENDBRANCH   4   5
ENDBRANCH   2   3
ENDBRANCH   1   2
BRANCH   1   8
ATOM      8  C   UNL     1      22.290  11.566  35.412  1.00  0.00     0.000 C 
BRANCH   8   9
ATOM      9  C   UNL     1      21.003  12.374  35.615  1.00  0.00    -0.000 C 
BRANCH   9  10
ATOM     10  C   UNL     1      20.903  13.514  34.595  1.00  0.00    -0.003 C 
ATOM     11  C   UNL     1      21.309  13.045  33.201  1.00  0.00     0.004 C 
ENDBRANCH   9  10
ENDBRANCH   8   9
ENDBRANCH   1   8
TORSDOF 6
ENDMDL
