MODEL 1
REMARK VINA RESULT:    -4.223      0.000      0.000
REMARK INTER + INTRA:          -6.438
REMARK INTER:                  -5.705
REMARK INTRA:                  -0.733
REMARK UNBOUND:                -0.733
REMARK SMILES O=C[C@@H](O)[C@@H](O)[C@@H](O)CO
REMARK SMILES IDX 7 1 9 2 10 3 5 5 3 6 2 7 1 8 4 9 6 11 8 13
REMARK H PARENT 10 4 4 10 6 12 8 14
REMARK Flexibility Score: inf
ROOT
ATOM      1  C   UNL     1     -11.992  54.768  21.470  1.00  0.00     0.171 C 
ENDROOT
BRANCH   1   2
ATOM      2  C   UNL     1     -10.523  54.303  21.480  1.00  0.00     0.190 C 
BRANCH   2   3
ATOM      3  O   UNL     1      -9.679  55.347  21.886  1.00  0.00    -0.394 OA
ATOM      4  H   UNL     1      -9.127  55.588  21.098  1.00  0.00     0.210 HD
ENDBRANCH   2   3
ENDBRANCH   1   2
BRANCH   1   5
ATOM      5  C   UNL     1     -12.385  55.404  20.109  1.00  0.00     0.181 C 
BRANCH   5   6
ATOM      6  C   UNL     1     -13.803  56.026  20.151  1.00  0.00     0.209 C 
BRANCH   6   7
ATOM      7  C   UNL     1     -14.790  55.168  19.407  1.00  0.00     0.258 C 
ATOM      8  O   UNL     1     -15.109  54.071  19.837  1.00  0.00    -0.300 OA
ENDBRANCH   6   7
BRANCH   6   9
ATOM      9  O   UNL     1     -14.241  56.139  21.482  1.00  0.00    -0.383 OA
ATOM     10  H   UNL     1     -15.213  56.342  21.460  1.00  0.00     0.211 HD
ENDBRANCH   6   9
ENDBRANCH   5   6
BRANCH   5  11
ATOM     11  O   UNL     1     -11.448  56.408  19.795  1.00  0.00    -0.387 OA
ATOM     12  H   UNL     1     -10.646  55.959  19.419  1.00  0.00     0.211 HD
ENDBRANCH   5  11
ENDBRANCH   1   5
BRANCH   1  13
ATOM     13  O   UNL     1     -12.836  53.690  21.792  1.00  0.00    -0.388 OA
ATOM     14  H   UNL     1     -12.455  52.875  21.372  1.00  0.00     0.211 HD
ENDBRANCH   1  13
TORSDOF 8
ENDMDL
MODEL 2
REMARK VINA RESULT:    -4.103      3.170      4.405
REMARK INTER + INTRA:          -6.276
REMARK INTER:                  -5.775
REMARK INTRA:                  -0.500
REMARK UNBOUND:                -0.733
REMARK SMILES O=C[C@@H](O)[C@@H](O)[C@@H](O)CO
REMARK SMILES IDX 7 1 9 2 10 3 5 5 3 6 2 7 1 8 4 9 6 11 8 13
REMARK H PARENT 10 4 4 10 6 12 8 14
REMARK Flexibility Score: inf
ROOT
ATOM      1  C   UNL     1     -16.882  54.573  20.888  1.00  0.00     0.171 C 
ENDROOT
BRANCH   1   2
ATOM      2  C   UNL     1     -16.609  56.088  20.953  1.00  0.00     0.190 C 
BRANCH   2   3
ATOM      3  O   UNL     1     -15.805  56.395  22.061  1.00  0.00    -0.394 OA
ATOM      4  H   UNL     1     -15.131  57.052  21.749  1.00  0.00     0.210 HD
ENDBRANCH   2   3
ENDBRANCH   1   2
BRANCH   1   5
ATOM      5  C   UNL     1     -15.684  53.798  20.276  1.00  0.00     0.181 C 
BRANCH   5   6
ATOM      6  C   UNL     1     -15.524  54.087  18.762  1.00  0.00     0.209 C 
BRANCH   6   7
ATOM      7  C   UNL     1     -14.078  54.291  18.402  1.00  0.00     0.258 C 
ATOM      8  O   UNL     1     -13.331  53.335  18.265  1.00  0.00    -0.300 OA
ENDBRANCH   6   7
BRANCH   6   9
ATOM      9  O   UNL     1     -16.011  53.003  18.010  1.00  0.00    -0.383 OA
ATOM     10  H   UNL     1     -16.176  53.331  17.087  1.00  0.00     0.211 HD
ENDBRANCH   6   9
ENDBRANCH   5   6
BRANCH   5  11
ATOM     11  O   UNL     1     -14.508  54.185  20.948  1.00  0.00    -0.387 OA
ATOM     12  H   UNL     1     -14.615  55.136  21.210  1.00  0.00     0.211 HD
ENDBRANCH   5  11
ENDBRANCH   1   5
BRANCH   1  13
ATOM     13  O   UNL     1     -17.201  54.090  22.170  1.00  0.00    -0.388 OA
ATOM     14  H   UNL     1     -17.742  54.786  22.627  1.00  0.00     0.211 HD
ENDBRANCH   1  13
TORSDOF 8
ENDMDL
MODEL 3
REMARK VINA RESULT:    -4.091      1.205      2.581
REMARK INTER + INTRA:          -6.260
REMARK INTER:                  -5.580
REMARK INTRA:                  -0.680
REMARK UNBOUND:                -0.733
REMARK SMILES O=C[C@@H](O)[C@@H](O)[C@@H](O)CO
REMARK SMILES IDX 7 1 9 2 10 3 5 5 3 6 2 7 1 8 4 9 6 11 8 13
REMARK H PARENT 10 4 4 10 6 12 8 14
REMARK Flexibility Score: inf
ROOT
ATOM      1  C   UNL     1     -11.414  54.106  21.269  1.00  0.00     0.171 C 
ENDROOT
BRANCH   1   2
ATOM      2  C   UNL     1     -11.643  52.933  22.242  1.00  0.00     0.190 C 
BRANCH   2   3
ATOM      3  O   UNL     1     -11.896  51.749  21.534  1.00  0.00    -0.394 OA
ATOM      4  H   UNL     1     -11.866  51.984  20.570  1.00  0.00     0.210 HD
ENDBRANCH   2   3
ENDBRANCH   1   2
BRANCH   1   5
ATOM      5  C   UNL     1     -12.694  54.969  21.099  1.00  0.00     0.181 C 
BRANCH   5   6
ATOM      6  C   UNL     1     -12.720  55.695  19.730  1.00  0.00     0.209 C 
BRANCH   6   7
ATOM      7  C   UNL     1     -13.960  56.537  19.591  1.00  0.00     0.258 C 
ATOM      8  O   UNL     1     -14.702  56.713  20.544  1.00  0.00    -0.300 OA
ENDBRANCH   6   7
BRANCH   6   9
ATOM      9  O   UNL     1     -11.604  56.541  19.610  1.00  0.00    -0.383 OA
ATOM     10  H   UNL     1     -11.295  56.759  20.528  1.00  0.00     0.211 HD
ENDBRANCH   6   9
ENDBRANCH   5   6
BRANCH   5  11
ATOM     11  O   UNL     1     -13.820  54.129  21.200  1.00  0.00    -0.387 OA
ATOM     12  H   UNL     1     -14.402  54.318  20.420  1.00  0.00     0.211 HD
ENDBRANCH   5  11
ENDBRANCH   1   5
BRANCH   1  13
ATOM     13  O   UNL     1     -10.328  54.885  21.709  1.00  0.00    -0.388 OA
ATOM     14  H   UNL     1      -9.958  54.452  22.522  1.00  0.00     0.211 HD
ENDBRANCH   1  13
TORSDOF 8
ENDMDL
MODEL 4
REMARK VINA RESULT:    -4.013      1.858      2.294
REMARK INTER + INTRA:          -6.154
REMARK INTER:                  -5.473
REMARK INTRA:                  -0.681
REMARK UNBOUND:                -0.733
REMARK SMILES O=C[C@@H](O)[C@@H](O)[C@@H](O)CO
REMARK SMILES IDX 7 1 9 2 10 3 5 5 3 6 2 7 1 8 4 9 6 11 8 13
REMARK H PARENT 10 4 4 10 6 12 8 14
REMARK Flexibility Score: inf
ROOT
ATOM      1  C   UNL     1     -13.074  55.363  20.810  1.00  0.00     0.171 C 
ENDROOT
BRANCH   1   2
ATOM      2  C   UNL     1     -11.778  55.237  19.986  1.00  0.00     0.190 C 
BRANCH   2   3
ATOM      3  O   UNL     1     -11.193  56.498  19.796  1.00  0.00    -0.394 OA
ATOM      4  H   UNL     1     -10.236  56.406  20.044  1.00  0.00     0.210 HD
ENDBRANCH   2   3
ENDBRANCH   1   2
BRANCH   1   5
ATOM      5  C   UNL     1     -14.290  55.731  19.917  1.00  0.00     0.181 C 
BRANCH   5   6
ATOM      6  C   UNL     1     -15.262  56.698  20.639  1.00  0.00     0.209 C 
BRANCH   6   7
ATOM      7  C   UNL     1     -16.497  56.936  19.813  1.00  0.00     0.258 C 
ATOM      8  O   UNL     1     -16.462  57.674  18.841  1.00  0.00    -0.300 OA
ENDBRANCH   6   7
BRANCH   6   9
ATOM      9  O   UNL     1     -15.662  56.151  21.871  1.00  0.00    -0.383 OA
ATOM     10  H   UNL     1     -15.952  56.902  22.451  1.00  0.00     0.211 HD
ENDBRANCH   6   9
ENDBRANCH   5   6
BRANCH   5  11
ATOM     11  O   UNL     1     -13.814  56.344  18.742  1.00  0.00    -0.387 OA
ATOM     12  H   UNL     1     -14.063  55.758  17.980  1.00  0.00     0.211 HD
ENDBRANCH   5  11
ENDBRANCH   1   5
BRANCH   1  13
ATOM     13  O   UNL     1     -13.305  54.170  21.519  1.00  0.00    -0.388 OA
ATOM     14  H   UNL     1     -14.283  53.999  21.509  1.00  0.00     0.211 HD
ENDBRANCH   1  13
TORSDOF 8
ENDMDL
MODEL 5
REMARK VINA RESULT:    -3.976      1.861      2.574
REMARK INTER + INTRA:          -6.103
REMARK INTER:                  -5.446
REMARK INTRA:                  -0.657
REMARK UNBOUND:                -0.733
REMARK SMILES O=C[C@@H](O)[C@@H](O)[C@@H](O)CO
REMARK SMILES IDX 7 1 9 2 10 3 5 5 3 6 2 7 1 8 4 9 6 11 8 13
REMARK H PARENT 10 4 4 10 6 12 8 14
REMARK Flexibility Score: inf
ROOT
ATOM      1  C   UNL     1     -14.340  54.341  20.726  1.00  0.00     0.171 C 
ENDROOT
BRANCH   1   2
ATOM      2  C   UNL     1     -12.968  53.640  20.730  1.00  0.00     0.190 C 
BRANCH   2   3
ATOM      3  O   UNL     1     -12.499  53.485  22.043  1.00  0.00    -0.394 OA
ATOM      4  H   UNL     1     -13.019  52.742  22.444  1.00  0.00     0.210 HD
ENDBRANCH   2   3
ENDBRANCH   1   2
BRANCH   1   5
ATOM      5  C   UNL     1     -14.199  55.881  20.588  1.00  0.00     0.181 C 
BRANCH   5   6
ATOM      6  C   UNL     1     -15.503  56.617  20.984  1.00  0.00     0.209 C 
BRANCH   6   7
ATOM      7  C   UNL     1     -16.337  56.928  19.770  1.00  0.00     0.258 C 
ATOM      8  O   UNL     1     -17.165  56.128  19.364  1.00  0.00    -0.300 OA
ENDBRANCH   6   7
BRANCH   6   9
ATOM      9  O   UNL     1     -16.270  55.812  21.844  1.00  0.00    -0.383 OA
ATOM     10  H   UNL     1     -16.458  54.961  21.368  1.00  0.00     0.211 HD
ENDBRANCH   6   9
ENDBRANCH   5   6
BRANCH   5  11
ATOM     11  O   UNL     1     -13.151  56.313  21.424  1.00  0.00    -0.387 OA
ATOM     12  H   UNL     1     -12.301  55.995  21.023  1.00  0.00     0.211 HD
ENDBRANCH   5  11
ENDBRANCH   1   5
BRANCH   1  13
ATOM     13  O   UNL     1     -15.144  53.809  19.701  1.00  0.00    -0.388 OA
ATOM     14  H   UNL     1     -15.885  53.307  20.132  1.00  0.00     0.211 HD
ENDBRANCH   1  13
TORSDOF 8
ENDMDL
MODEL 6
REMARK VINA RESULT:    -3.941      1.984      3.057
REMARK INTER + INTRA:          -6.057
REMARK INTER:                  -5.293
REMARK INTRA:                  -0.763
REMARK UNBOUND:                -0.733
REMARK SMILES O=C[C@@H](O)[C@@H](O)[C@@H](O)CO
REMARK SMILES IDX 7 1 9 2 10 3 5 5 3 6 2 7 1 8 4 9 6 11 8 13
REMARK H PARENT 10 4 4 10 6 12 8 14
REMARK Flexibility Score: inf
ROOT
ATOM      1  C   UNL     1     -12.962  55.886  19.507  1.00  0.00     0.171 C 
ENDROOT
BRANCH   1   2
ATOM      2  C   UNL     1     -12.796  54.532  18.790  1.00  0.00     0.190 C 
BRANCH   2   3
ATOM      3  O   UNL     1     -13.902  54.271  17.970  1.00  0.00    -0.394 OA
ATOM      4  H   UNL     1     -14.295  53.417  18.286  1.00  0.00     0.210 HD
ENDBRANCH   2   3
ENDBRANCH   1   2
BRANCH   1   5
ATOM      5  C   UNL     1     -13.740  55.739  20.842  1.00  0.00     0.181 C 
BRANCH   5   6
ATOM      6  C   UNL     1     -14.968  56.682  20.900  1.00  0.00     0.209 C 
BRANCH   6   7
ATOM      7  C   UNL     1     -15.782  56.585  19.638  1.00  0.00     0.258 C 
ATOM      8  O   UNL     1     -16.329  55.538  19.330  1.00  0.00    -0.300 OA
ENDBRANCH   6   7
BRANCH   6   9
ATOM      9  O   UNL     1     -15.797  56.330  21.980  1.00  0.00    -0.383 OA
ATOM     10  H   UNL     1     -15.924  57.143  22.536  1.00  0.00     0.211 HD
ENDBRANCH   6   9
ENDBRANCH   5   6
BRANCH   5  11
ATOM     11  O   UNL     1     -14.174  54.405  20.965  1.00  0.00    -0.387 OA
ATOM     12  H   UNL     1     -14.236  54.027  20.049  1.00  0.00     0.211 HD
ENDBRANCH   5  11
ENDBRANCH   1   5
BRANCH   1  13
ATOM     13  O   UNL     1     -11.700  56.474  19.714  1.00  0.00    -0.388 OA
ATOM     14  H   UNL     1     -11.809  57.457  19.628  1.00  0.00     0.211 HD
ENDBRANCH   1  13
TORSDOF 8
ENDMDL
MODEL 7
REMARK VINA RESULT:    -3.883      2.008      2.998
REMARK INTER + INTRA:          -5.978
REMARK INTER:                  -5.395
REMARK INTRA:                  -0.583
REMARK UNBOUND:                -0.733
REMARK SMILES O=C[C@@H](O)[C@@H](O)[C@@H](O)CO
REMARK SMILES IDX 7 1 9 2 10 3 5 5 3 6 2 7 1 8 4 9 6 11 8 13
REMARK H PARENT 10 4 4 10 6 12 8 14
REMARK Flexibility Score: inf
ROOT
ATOM      1  C   UNL     1     -13.720  56.034  20.874  1.00  0.00     0.171 C 
ENDROOT
BRANCH   1   2
ATOM      2  C   UNL     1     -13.002  56.154  19.515  1.00  0.00     0.190 C 
BRANCH   2   3
ATOM      3  O   UNL     1     -11.662  56.525  19.698  1.00  0.00    -0.394 OA
ATOM      4  H   UNL     1     -11.202  56.357  18.836  1.00  0.00     0.210 HD
ENDBRANCH   2   3
ENDBRANCH   1   2
BRANCH   1   5
ATOM      5  C   UNL     1     -15.101  56.743  20.859  1.00  0.00     0.181 C 
BRANCH   5   6
ATOM      6  C   UNL     1     -15.896  56.429  19.567  1.00  0.00     0.209 C 
BRANCH   6   7
ATOM      7  C   UNL     1     -16.954  55.389  19.825  1.00  0.00     0.258 C 
ATOM      8  O   UNL     1     -16.643  54.235  20.071  1.00  0.00    -0.300 OA
ENDBRANCH   6   7
BRANCH   6   9
ATOM      9  O   UNL     1     -16.533  57.590  19.097  1.00  0.00    -0.383 OA
ATOM     10  H   UNL     1     -17.486  57.541  19.374  1.00  0.00     0.211 HD
ENDBRANCH   6   9
ENDBRANCH   5   6
BRANCH   5  11
ATOM     11  O   UNL     1     -15.841  56.309  21.976  1.00  0.00    -0.387 OA
ATOM     12  H   UNL     1     -16.613  55.787  21.636  1.00  0.00     0.211 HD
ENDBRANCH   5  11
ENDBRANCH   1   5
BRANCH   1  13
ATOM     13  O   UNL     1     -13.846  54.679  21.229  1.00  0.00    -0.388 OA
ATOM     14  H   UNL     1     -14.790  54.414  21.071  1.00  0.00     0.211 HD
ENDBRANCH   1  13
TORSDOF 8
ENDMDL
MODEL 8
REMARK VINA RESULT:    -3.869      1.287      3.639
REMARK INTER + INTRA:          -5.959
REMARK INTER:                  -5.360
REMARK INTRA:                  -0.600
REMARK UNBOUND:                -0.733
REMARK SMILES O=C[C@@H](O)[C@@H](O)[C@@H](O)CO
REMARK SMILES IDX 7 1 9 2 10 3 5 5 3 6 2 7 1 8 4 9 6 11 8 13
REMARK H PARENT 10 4 4 10 6 12 8 14
REMARK Flexibility Score: inf
ROOT
ATOM      1  C   UNL     1     -14.820  55.177  20.090  1.00  0.00     0.171 C 
ENDROOT
BRANCH   1   2
ATOM      2  C   UNL     1     -15.040  56.526  20.802  1.00  0.00     0.190 C 
BRANCH   2   3
ATOM      3  O   UNL     1     -15.785  56.346  21.977  1.00  0.00    -0.394 OA
ATOM      4  H   UNL     1     -15.987  57.252  22.326  1.00  0.00     0.210 HD
ENDBRANCH   2   3
ENDBRANCH   1   2
BRANCH   1   5
ATOM      5  C   UNL     1     -13.393  55.072  19.486  1.00  0.00     0.181 C 
BRANCH   5   6
ATOM      6  C   UNL     1     -12.313  55.596  20.465  1.00  0.00     0.209 C 
BRANCH   6   7
ATOM      7  C   UNL     1     -11.600  54.456  21.141  1.00  0.00     0.258 C 
ATOM      8  O   UNL     1     -12.192  53.731  21.925  1.00  0.00    -0.300 OA
ENDBRANCH   6   7
BRANCH   6   9
ATOM      9  O   UNL     1     -11.357  56.355  19.767  1.00  0.00    -0.383 OA
ATOM     10  H   UNL     1     -10.570  56.463  20.363  1.00  0.00     0.211 HD
ENDBRANCH   6   9
ENDBRANCH   5   6
BRANCH   5  11
ATOM     11  O   UNL     1     -13.131  53.721  19.185  1.00  0.00    -0.387 OA
ATOM     12  H   UNL     1     -13.947  53.203  19.409  1.00  0.00     0.211 HD
ENDBRANCH   5  11
ENDBRANCH   1   5
BRANCH   1  13
ATOM     13  O   UNL     1     -15.075  54.120  20.982  1.00  0.00    -0.388 OA
ATOM     14  H   UNL     1     -14.202  53.715  21.226  1.00  0.00     0.211 HD
ENDBRANCH   1  13
TORSDOF 8
ENDMDL
MODEL 9
REMARK VINA RESULT:    -3.851      2.532      4.067
REMARK INTER + INTRA:          -5.935
REMARK INTER:                  -5.452
REMARK INTRA:                  -0.483
REMARK UNBOUND:                -0.733
REMARK SMILES O=C[C@@H](O)[C@@H](O)[C@@H](O)CO
REMARK SMILES IDX 7 1 9 2 10 3 5 5 3 6 2 7 1 8 4 9 6 11 8 13
REMARK H PARENT 10 4 4 10 6 12 8 14
REMARK Flexibility Score: inf
ROOT
ATOM      1  C   UNL     1     -15.495  55.793  20.633  1.00  0.00     0.171 C 
ENDROOT
BRANCH   1   2
ATOM      2  C   UNL     1     -13.985  55.935  20.359  1.00  0.00     0.190 C 
BRANCH   2   3
ATOM      3  O   UNL     1     -13.305  56.302  21.529  1.00  0.00    -0.394 OA
ATOM      4  H   UNL     1     -12.933  55.466  21.915  1.00  0.00     0.210 HD
ENDBRANCH   2   3
ENDBRANCH   1   2
BRANCH   1   5
ATOM      5  C   UNL     1     -15.972  54.324  20.477  1.00  0.00     0.181 C 
BRANCH   5   6
ATOM      6  C   UNL     1     -17.394  54.116  21.056  1.00  0.00     0.209 C 
BRANCH   6   7
ATOM      7  C   UNL     1     -18.127  53.034  20.310  1.00  0.00     0.258 C 
ATOM      8  O   UNL     1     -18.858  53.311  19.372  1.00  0.00    -0.300 OA
ENDBRANCH   6   7
BRANCH   6   9
ATOM      9  O   UNL     1     -17.314  53.736  22.407  1.00  0.00    -0.383 OA
ATOM     10  H   UNL     1     -17.721  52.833  22.488  1.00  0.00     0.211 HD
ENDBRANCH   6   9
ENDBRANCH   5   6
BRANCH   5  11
ATOM     11  O   UNL     1     -15.977  53.997  19.107  1.00  0.00    -0.387 OA
ATOM     12  H   UNL     1     -16.815  53.497  18.924  1.00  0.00     0.211 HD
ENDBRANCH   5  11
ENDBRANCH   1   5
BRANCH   1  13
ATOM     13  O   UNL     1     -15.795  56.294  21.913  1.00  0.00    -0.388 OA
ATOM     14  H   UNL     1     -15.659  57.277  21.890  1.00  0.00     0.211 HD
ENDBRANCH   1  13
TORSDOF 8
ENDMDL
