MODEL 1
REMARK VINA RESULT:    -3.918      0.000      0.000
REMARK INTER + INTRA:          -5.972
REMARK INTER:                  -5.521
REMARK INTRA:                  -0.451
REMARK UNBOUND:                -0.451
REMARK SMILES C=CCCCCCCC(=O)[O-]
REMARK SMILES IDX 6 1 7 2 8 3 9 4 10 5 11 6 5 7 4 8 3 9 2 10 1 11
REMARK H PARENT
REMARK Flexibility Score: inf
ROOT
ATOM      1  C   UNL     1      -6.582  65.667  31.534  1.00  0.00     0.000 C 
ENDROOT
BRANCH   1   2
ATOM      2  C   UNL     1      -5.579  66.767  31.927  1.00  0.00     0.006 C 
BRANCH   2   3
ATOM      3  C   UNL     1      -6.130  67.776  32.950  1.00  0.00     0.053 C 
BRANCH   3   4
ATOM      4  C   UNL     1      -5.607  67.535  34.334  1.00  0.00     0.041 C 
ATOM      5  O   UNL     1      -4.655  66.731  34.520  1.00  0.00    -0.550 OA
ATOM      6  O   UNL     1      -6.193  68.168  35.423  1.00  0.00    -0.550 OA
ENDBRANCH   3   4
ENDBRANCH   2   3
ENDBRANCH   1   2
BRANCH   1   7
ATOM      7  C   UNL     1      -6.327  65.093  30.130  1.00  0.00     0.000 C 
BRANCH   7   8
ATOM      8  C   UNL     1      -5.164  65.789  29.409  1.00  0.00     0.004 C 
BRANCH   8   9
ATOM      9  C   UNL     1      -3.911  64.905  29.321  1.00  0.00     0.027 C 
BRANCH   9  10
ATOM     10  C   UNL     1      -2.664  65.738  29.206  1.00  0.00    -0.035 C 
ATOM     11  C   UNL     1      -2.374  66.694  30.094  1.00  0.00     0.004 C 
ENDBRANCH   9  10
ENDBRANCH   8   9
ENDBRANCH   7   8
ENDBRANCH   1   7
TORSDOF 7
ENDMDL
MODEL 2
REMARK VINA RESULT:    -3.859      1.397      2.081
REMARK INTER + INTRA:          -5.890
REMARK INTER:                  -5.305
REMARK INTRA:                  -0.585
REMARK UNBOUND:                -0.451
REMARK SMILES C=CCCCCCCC(=O)[O-]
REMARK SMILES IDX 6 1 7 2 8 3 9 4 10 5 11 6 5 7 4 8 3 9 2 10 1 11
REMARK H PARENT
REMARK Flexibility Score: inf
ROOT
ATOM      1  C   UNL     1      -8.447  66.363  31.694  1.00  0.00     0.000 C 
ENDROOT
BRANCH   1   2
ATOM      2  C   UNL     1      -7.617  67.346  32.540  1.00  0.00     0.006 C 
BRANCH   2   3
ATOM      3  C   UNL     1      -6.792  66.670  33.650  1.00  0.00     0.053 C 
BRANCH   3   4
ATOM      4  C   UNL     1      -5.320  66.900  33.491  1.00  0.00     0.041 C 
ATOM      5  O   UNL     1      -4.846  67.222  32.369  1.00  0.00    -0.550 OA
ATOM      6  O   UNL     1      -4.464  66.724  34.572  1.00  0.00    -0.550 OA
ENDBRANCH   3   4
ENDBRANCH   2   3
ENDBRANCH   1   2
BRANCH   1   7
ATOM      7  C   UNL     1      -7.598  65.566  30.689  1.00  0.00     0.000 C 
BRANCH   7   8
ATOM      8  C   UNL     1      -7.392  66.316  29.364  1.00  0.00     0.004 C 
BRANCH   8   9
ATOM      9  C   UNL     1      -5.907  66.479  29.004  1.00  0.00     0.027 C 
BRANCH   9  10
ATOM     10  C   UNL     1      -5.104  65.292  29.461  1.00  0.00    -0.035 C 
ATOM     11  C   UNL     1      -3.772  65.262  29.353  1.00  0.00     0.004 C 
ENDBRANCH   9  10
ENDBRANCH   8   9
ENDBRANCH   7   8
ENDBRANCH   1   7
TORSDOF 7
ENDMDL
MODEL 3
REMARK VINA RESULT:    -3.838      4.202      5.599
REMARK INTER + INTRA:          -5.859
REMARK INTER:                  -5.303
REMARK INTRA:                  -0.556
REMARK UNBOUND:                -0.451
REMARK SMILES C=CCCCCCCC(=O)[O-]
REMARK SMILES IDX 6 1 7 2 8 3 9 4 10 5 11 6 5 7 4 8 3 9 2 10 1 11
REMARK H PARENT
REMARK Flexibility Score: inf
ROOT
ATOM      1  C   UNL     1      -7.252  67.497  31.543  1.00  0.00     0.000 C 
ENDROOT
BRANCH   1   2
ATOM      2  C   UNL     1      -8.746  67.755  31.811  1.00  0.00     0.006 C 
BRANCH   2   3
ATOM      3  C   UNL     1      -9.642  66.525  31.581  1.00  0.00     0.053 C 
BRANCH   3   4
ATOM      4  C   UNL     1     -11.053  66.899  31.240  1.00  0.00     0.041 C 
ATOM      5  O   UNL     1     -11.299  68.000  30.680  1.00  0.00    -0.550 OA
ATOM      6  O   UNL     1     -12.101  66.050  31.574  1.00  0.00    -0.550 OA
ENDBRANCH   3   4
ENDBRANCH   2   3
ENDBRANCH   1   2
BRANCH   1   7
ATOM      7  C   UNL     1      -6.780  66.117  32.032  1.00  0.00     0.000 C 
BRANCH   7   8
ATOM      8  C   UNL     1      -6.617  66.055  33.559  1.00  0.00     0.004 C 
BRANCH   8   9
ATOM      9  C   UNL     1      -5.503  66.981  34.070  1.00  0.00     0.027 C 
BRANCH   9  10
ATOM     10  C   UNL     1      -6.022  67.933  35.112  1.00  0.00    -0.035 C 
ATOM     11  C   UNL     1      -7.279  67.867  35.560  1.00  0.00     0.004 C 
ENDBRANCH   9  10
ENDBRANCH   8   9
ENDBRANCH   7   8
ENDBRANCH   1   7
TORSDOF 7
ENDMDL
MODEL 4
REMARK VINA RESULT:    -3.827      1.259      2.560
REMARK INTER + INTRA:          -5.845
REMARK INTER:                  -5.403
REMARK INTRA:                  -0.442
REMARK UNBOUND:                -0.451
REMARK SMILES C=CCCCCCCC(=O)[O-]
REMARK SMILES IDX 6 1 7 2 8 3 9 4 10 5 11 6 5 7 4 8 3 9 2 10 1 11
REMARK H PARENT
REMARK Flexibility Score: inf
ROOT
ATOM      1  C   UNL     1      -3.196  67.589  31.995  1.00  0.00     0.000 C 
ENDROOT
BRANCH   1   2
ATOM      2  C   UNL     1      -4.633  67.661  32.542  1.00  0.00     0.006 C 
BRANCH   2   3
ATOM      3  C   UNL     1      -4.779  67.137  33.981  1.00  0.00     0.053 C 
BRANCH   3   4
ATOM      4  C   UNL     1      -6.097  67.501  34.594  1.00  0.00     0.041 C 
ATOM      5  O   UNL     1      -7.172  67.153  34.036  1.00  0.00    -0.550 OA
ATOM      6  O   UNL     1      -6.142  68.254  35.760  1.00  0.00    -0.550 OA
ENDBRANCH   3   4
ENDBRANCH   2   3
ENDBRANCH   1   2
BRANCH   1   7
ATOM      7  C   UNL     1      -3.134  67.610  30.458  1.00  0.00     0.000 C 
BRANCH   7   8
ATOM      8  C   UNL     1      -2.423  66.379  29.878  1.00  0.00     0.004 C 
BRANCH   8   9
ATOM      9  C   UNL     1      -3.372  65.470  29.083  1.00  0.00     0.027 C 
BRANCH   9  10
ATOM     10  C   UNL     1      -4.810  65.790  29.384  1.00  0.00    -0.035 C 
ATOM     11  C   UNL     1      -5.652  64.865  29.854  1.00  0.00     0.004 C 
ENDBRANCH   9  10
ENDBRANCH   8   9
ENDBRANCH   7   8
ENDBRANCH   1   7
TORSDOF 7
ENDMDL
MODEL 5
REMARK VINA RESULT:    -3.753      2.105      3.028
REMARK INTER + INTRA:          -5.740
REMARK INTER:                  -5.260
REMARK INTRA:                  -0.480
REMARK UNBOUND:                -0.451
REMARK SMILES C=CCCCCCCC(=O)[O-]
REMARK SMILES IDX 6 1 7 2 8 3 9 4 10 5 11 6 5 7 4 8 3 9 2 10 1 11
REMARK H PARENT
REMARK Flexibility Score: inf
ROOT
ATOM      1  C   UNL     1      -4.970  68.099  32.617  1.00  0.00     0.000 C 
ENDROOT
BRANCH   1   2
ATOM      2  C   UNL     1      -5.645  67.442  33.835  1.00  0.00     0.006 C 
BRANCH   2   3
ATOM      3  C   UNL     1      -6.522  66.228  33.483  1.00  0.00     0.053 C 
BRANCH   3   4
ATOM      4  C   UNL     1      -7.586  66.559  32.481  1.00  0.00     0.041 C 
ATOM      5  O   UNL     1      -8.369  67.525  32.684  1.00  0.00    -0.550 OA
ATOM      6  O   UNL     1      -7.739  65.781  31.340  1.00  0.00    -0.550 OA
ENDBRANCH   3   4
ENDBRANCH   2   3
ENDBRANCH   1   2
BRANCH   1   7
ATOM      7  C   UNL     1      -3.591  67.498  32.295  1.00  0.00     0.000 C 
BRANCH   7   8
ATOM      8  C   UNL     1      -3.418  67.183  30.801  1.00  0.00     0.004 C 
BRANCH   8   9
ATOM      9  C   UNL     1      -4.515  66.251  30.264  1.00  0.00     0.027 C 
BRANCH   9  10
ATOM     10  C   UNL     1      -3.936  65.193  29.364  1.00  0.00    -0.035 C 
ATOM     11  C   UNL     1      -2.655  65.215  28.988  1.00  0.00     0.004 C 
ENDBRANCH   9  10
ENDBRANCH   8   9
ENDBRANCH   7   8
ENDBRANCH   1   7
TORSDOF 7
ENDMDL
MODEL 6
REMARK VINA RESULT:    -3.743      4.839      6.331
REMARK INTER + INTRA:          -5.725
REMARK INTER:                  -5.355
REMARK INTRA:                  -0.369
REMARK UNBOUND:                -0.451
REMARK SMILES C=CCCCCCCC(=O)[O-]
REMARK SMILES IDX 6 1 7 2 8 3 9 4 10 5 11 6 5 7 4 8 3 9 2 10 1 11
REMARK H PARENT
REMARK Flexibility Score: inf
ROOT
ATOM      1  C   UNL     1      -9.156  68.130  31.633  1.00  0.00     0.000 C 
ENDROOT
BRANCH   1   2
ATOM      2  C   UNL     1     -10.646  68.132  31.245  1.00  0.00     0.006 C 
BRANCH   2   3
ATOM      3  C   UNL     1     -11.309  66.745  31.307  1.00  0.00     0.053 C 
BRANCH   3   4
ATOM      4  C   UNL     1     -11.871  66.318  29.985  1.00  0.00     0.041 C 
ATOM      5  O   UNL     1     -11.432  65.283  29.415  1.00  0.00    -0.550 OA
ATOM      6  O   UNL     1     -12.853  67.079  29.363  1.00  0.00    -0.550 OA
ENDBRANCH   3   4
ENDBRANCH   2   3
ENDBRANCH   1   2
BRANCH   1   7
ATOM      7  C   UNL     1      -8.616  66.723  31.944  1.00  0.00     0.000 C 
BRANCH   7   8
ATOM      8  C   UNL     1      -7.111  66.723  32.250  1.00  0.00     0.004 C 
BRANCH   8   9
ATOM      9  C   UNL     1      -6.804  66.300  33.695  1.00  0.00     0.027 C 
BRANCH   9  10
ATOM     10  C   UNL     1      -6.429  67.486  34.540  1.00  0.00    -0.035 C 
ATOM     11  C   UNL     1      -7.202  67.905  35.546  1.00  0.00     0.004 C 
ENDBRANCH   9  10
ENDBRANCH   8   9
ENDBRANCH   7   8
ENDBRANCH   1   7
TORSDOF 7
ENDMDL
MODEL 7
REMARK VINA RESULT:    -3.728      5.524      6.896
REMARK INTER + INTRA:          -5.705
REMARK INTER:                  -4.900
REMARK INTRA:                  -0.805
REMARK UNBOUND:                -0.451
REMARK SMILES C=CCCCCCCC(=O)[O-]
REMARK SMILES IDX 6 1 7 2 8 3 9 4 10 5 11 6 5 7 4 8 3 9 2 10 1 11
REMARK H PARENT
REMARK Flexibility Score: inf
ROOT
ATOM      1  C   UNL     1     -10.601  67.028  28.423  1.00  0.00     0.000 C 
ENDROOT
BRANCH   1   2
ATOM      2  C   UNL     1     -12.063  66.555  28.519  1.00  0.00     0.006 C 
BRANCH   2   3
ATOM      3  C   UNL     1     -12.748  66.910  29.850  1.00  0.00     0.053 C 
BRANCH   3   4
ATOM      4  C   UNL     1     -12.705  65.783  30.836  1.00  0.00     0.041 C 
ATOM      5  O   UNL     1     -12.328  65.992  32.020  1.00  0.00    -0.550 OA
ATOM      6  O   UNL     1     -13.045  64.495  30.442  1.00  0.00    -0.550 OA
ENDBRANCH   3   4
ENDBRANCH   2   3
ENDBRANCH   1   2
BRANCH   1   7
ATOM      7  C   UNL     1      -9.587  65.926  28.773  1.00  0.00     0.000 C 
BRANCH   7   8
ATOM      8  C   UNL     1      -8.498  66.411  29.742  1.00  0.00     0.004 C 
BRANCH   8   9
ATOM      9  C   UNL     1      -8.993  66.485  31.195  1.00  0.00     0.027 C 
BRANCH   9  10
ATOM     10  C   UNL     1      -8.948  67.896  31.713  1.00  0.00    -0.035 C 
ATOM     11  C   UNL     1      -9.969  68.741  31.540  1.00  0.00     0.004 C 
ENDBRANCH   9  10
ENDBRANCH   8   9
ENDBRANCH   7   8
ENDBRANCH   1   7
TORSDOF 7
ENDMDL
MODEL 8
REMARK VINA RESULT:    -3.716      3.364      4.105
REMARK INTER + INTRA:          -5.688
REMARK INTER:                  -5.020
REMARK INTRA:                  -0.668
REMARK UNBOUND:                -0.451
REMARK SMILES C=CCCCCCCC(=O)[O-]
REMARK SMILES IDX 6 1 7 2 8 3 9 4 10 5 11 6 5 7 4 8 3 9 2 10 1 11
REMARK H PARENT
REMARK Flexibility Score: inf
ROOT
ATOM      1  C   UNL     1      -6.846  65.966  31.880  1.00  0.00     0.000 C 
ENDROOT
BRANCH   1   2
ATOM      2  C   UNL     1      -8.054  66.921  31.899  1.00  0.00     0.006 C 
BRANCH   2   3
ATOM      3  C   UNL     1      -9.170  66.533  30.913  1.00  0.00     0.053 C 
BRANCH   3   4
ATOM      4  C   UNL     1     -10.512  67.051  31.333  1.00  0.00     0.041 C 
ATOM      5  O   UNL     1     -11.421  66.250  31.678  1.00  0.00    -0.550 OA
ATOM      6  O   UNL     1     -10.774  68.416  31.307  1.00  0.00    -0.550 OA
ENDBRANCH   3   4
ENDBRANCH   2   3
ENDBRANCH   1   2
BRANCH   1   7
ATOM      7  C   UNL     1      -6.892  64.957  30.721  1.00  0.00     0.000 C 
BRANCH   7   8
ATOM      8  C   UNL     1      -5.624  64.994  29.854  1.00  0.00     0.004 C 
BRANCH   8   9
ATOM      9  C   UNL     1      -5.083  66.419  29.663  1.00  0.00     0.027 C 
BRANCH   9  10
ATOM     10  C   UNL     1      -5.487  66.979  28.327  1.00  0.00    -0.035 C 
ATOM     11  C   UNL     1      -6.638  67.638  28.160  1.00  0.00     0.004 C 
ENDBRANCH   9  10
ENDBRANCH   8   9
ENDBRANCH   7   8
ENDBRANCH   1   7
TORSDOF 7
ENDMDL
MODEL 9
REMARK VINA RESULT:    -3.662      1.423      1.932
REMARK INTER + INTRA:          -5.612
REMARK INTER:                  -4.933
REMARK INTRA:                  -0.679
REMARK UNBOUND:                -0.451
REMARK SMILES C=CCCCCCCC(=O)[O-]
REMARK SMILES IDX 6 1 7 2 8 3 9 4 10 5 11 6 5 7 4 8 3 9 2 10 1 11
REMARK H PARENT
REMARK Flexibility Score: inf
ROOT
ATOM      1  C   UNL     1      -5.652  68.709  30.801  1.00  0.00     0.000 C 
ENDROOT
BRANCH   1   2
ATOM      2  C   UNL     1      -5.271  68.773  32.292  1.00  0.00     0.006 C 
BRANCH   2   3
ATOM      3  C   UNL     1      -5.172  67.396  32.969  1.00  0.00     0.053 C 
BRANCH   3   4
ATOM      4  C   UNL     1      -6.172  67.224  34.072  1.00  0.00     0.041 C 
ATOM      5  O   UNL     1      -6.057  67.883  35.139  1.00  0.00    -0.550 OA
ATOM      6  O   UNL     1      -7.211  66.311  33.938  1.00  0.00    -0.550 OA
ENDBRANCH   3   4
ENDBRANCH   2   3
ENDBRANCH   1   2
BRANCH   1   7
ATOM      7  C   UNL     1      -6.614  67.555  30.473  1.00  0.00     0.000 C 
BRANCH   7   8
ATOM      8  C   UNL     1      -6.103  66.667  29.329  1.00  0.00     0.004 C 
BRANCH   8   9
ATOM      9  C   UNL     1      -5.488  65.352  29.833  1.00  0.00     0.027 C 
BRANCH   9  10
ATOM     10  C   UNL     1      -4.064  65.206  29.369  1.00  0.00    -0.035 C 
ATOM     11  C   UNL     1      -3.123  66.096  29.698  1.00  0.00     0.004 C 
ENDBRANCH   9  10
ENDBRANCH   8   9
ENDBRANCH   7   8
ENDBRANCH   1   7
TORSDOF 7
ENDMDL
