MODEL 1
REMARK VINA RESULT:    -6.302      0.000      0.000
REMARK INTER + INTRA:         -21.236
REMARK INTER:                 -16.616
REMARK INTRA:                  -4.620
REMARK UNBOUND:                -4.620
REMARK SMILES CCCCCCCCCCCCCCCCCCCCCCCCCCCCCC(=O)[O-]
REMARK SMILES IDX 16 1 17 2 18 3 19 4 20 5 21 6 22 7 23 8 24 9 25 10 26 11
REMARK SMILES IDX 27 12 28 13 29 14 30 15 31 16 32 17 15 18 14 19 13 20 12 21
REMARK SMILES IDX 11 22 10 23 9 24 8 25 7 26 6 27 5 28 4 29 3 30 2 31 1 32
REMARK H PARENT
REMARK Flexibility Score: inf
ROOT
ATOM      1  C   UNL     1     102.004  20.207 196.838  1.00  0.00     0.000 C 
ENDROOT
BRANCH   1   2
ATOM      2  C   UNL     1     100.805  20.293 195.878  1.00  0.00     0.000 C 
BRANCH   2   3
ATOM      3  C   UNL     1     101.104  21.164 194.645  1.00  0.00     0.000 C 
BRANCH   3   4
ATOM      4  C   UNL     1     102.272  22.144 194.884  1.00  0.00     0.000 C 
BRANCH   4   5
ATOM      5  C   UNL     1     102.949  22.631 193.588  1.00  0.00     0.000 C 
BRANCH   5   6
ATOM      6  C   UNL     1     104.480  22.767 193.665  1.00  0.00     0.000 C 
BRANCH   6   7
ATOM      7  C   UNL     1     105.131  22.136 194.912  1.00  0.00     0.000 C 
BRANCH   7   8
ATOM      8  C   UNL     1     106.138  21.011 194.588  1.00  0.00     0.000 C 
BRANCH   8   9
ATOM      9  C   UNL     1     106.354  20.831 193.074  1.00  0.00     0.000 C 
BRANCH   9  10
ATOM     10  C   UNL     1     107.836  20.913 192.662  1.00  0.00     0.000 C 
BRANCH  10  11
ATOM     11  C   UNL     1     108.838  20.890 193.830  1.00  0.00     0.000 C 
BRANCH  11  12
ATOM     12  C   UNL     1     110.271  20.563 193.386  1.00  0.00     0.000 C 
BRANCH  12  13
ATOM     13  C   UNL     1     111.158  20.221 194.594  1.00  0.00     0.006 C 
BRANCH  13  14
ATOM     14  C   UNL     1     110.425  20.419 195.927  1.00  0.00     0.053 C 
BRANCH  14  15
ATOM     15  C   UNL     1     111.128  21.405 196.807  1.00  0.00     0.041 C 
ATOM     16  O   UNL     1     112.386  21.476 196.800  1.00  0.00    -0.550 OA
ATOM     17  O   UNL     1     110.398  22.222 197.661  1.00  0.00    -0.550 OA
ENDBRANCH  14  15
ENDBRANCH  13  14
ENDBRANCH  12  13
ENDBRANCH  11  12
ENDBRANCH  10  11
ENDBRANCH   9  10
ENDBRANCH   8   9
ENDBRANCH   7   8
ENDBRANCH   6   7
ENDBRANCH   5   6
ENDBRANCH   4   5
ENDBRANCH   3   4
ENDBRANCH   2   3
ENDBRANCH   1   2
BRANCH   1  18
ATOM     18  C   UNL     1     102.286  18.767 197.296  1.00  0.00     0.000 C 
BRANCH  18  19
ATOM     19  C   UNL     1     103.771  18.389 197.186  1.00  0.00     0.000 C 
BRANCH  19  20
ATOM     20  C   UNL     1     104.714  19.551 197.542  1.00  0.00     0.000 C 
BRANCH  20  21
ATOM     21  C   UNL     1     106.168  19.073 197.738  1.00  0.00     0.000 C 
BRANCH  21  22
ATOM     22  C   UNL     1     106.951  19.873 198.795  1.00  0.00     0.000 C 
BRANCH  22  23
ATOM     23  C   UNL     1     107.078  21.381 198.489  1.00  0.00     0.000 C 
BRANCH  23  24
ATOM     24  C   UNL     1     107.176  22.312 199.716  1.00  0.00    -0.000 C 
BRANCH  24  25
ATOM     25  C   UNL     1     105.866  23.002 200.138  1.00  0.00    -0.000 C 
BRANCH  25  26
ATOM     26  C   UNL     1     104.774  22.927 199.057  1.00  0.00    -0.000 C 
BRANCH  26  27
ATOM     27  C   UNL     1     103.356  22.952 199.651  1.00  0.00    -0.000 C 
BRANCH  27  28
ATOM     28  C   UNL     1     102.360  23.717 198.762  1.00  0.00    -0.000 C 
BRANCH  28  29
ATOM     29  C   UNL     1     102.895  23.963 197.339  1.00  0.00    -0.000 C 
BRANCH  29  30
ATOM     30  C   UNL     1     103.171  25.438 196.999  1.00  0.00    -0.000 C 
BRANCH  30  31
ATOM     31  C   UNL     1     104.367  25.619 196.052  1.00  0.00    -0.003 C 
ATOM     32  C   UNL     1     105.681  25.300 196.760  1.00  0.00     0.004 C 
ENDBRANCH  30  31
ENDBRANCH  29  30
ENDBRANCH  28  29
ENDBRANCH  27  28
ENDBRANCH  26  27
ENDBRANCH  25  26
ENDBRANCH  24  25
ENDBRANCH  23  24
ENDBRANCH  22  23
ENDBRANCH  21  22
ENDBRANCH  20  21
ENDBRANCH  19  20
ENDBRANCH  18  19
ENDBRANCH   1  18
TORSDOF 28
ENDMDL
MODEL 2
REMARK VINA RESULT:    -6.246      1.401      4.198
REMARK INTER + INTRA:         -21.090
REMARK INTER:                 -16.283
REMARK INTRA:                  -4.807
REMARK UNBOUND:                -4.620
REMARK SMILES CCCCCCCCCCCCCCCCCCCCCCCCCCCCCC(=O)[O-]
REMARK SMILES IDX 16 1 17 2 18 3 19 4 20 5 21 6 22 7 23 8 24 9 25 10 26 11
REMARK SMILES IDX 27 12 28 13 29 14 30 15 31 16 32 17 15 18 14 19 13 20 12 21
REMARK SMILES IDX 11 22 10 23 9 24 8 25 7 26 6 27 5 28 4 29 3 30 2 31 1 32
REMARK H PARENT
REMARK Flexibility Score: inf
ROOT
ATOM      1  C   UNL     1     101.316  23.027 196.539  1.00  0.00     0.000 C 
ENDROOT
BRANCH   1   2
ATOM      2  C   UNL     1     102.015  21.674 196.326  1.00  0.00     0.000 C 
BRANCH   2   3
ATOM      3  C   UNL     1     101.019  20.543 196.016  1.00  0.00     0.000 C 
BRANCH   3   4
ATOM      4  C   UNL     1     101.271  19.284 196.873  1.00  0.00     0.000 C 
BRANCH   4   5
ATOM      5  C   UNL     1     102.602  19.316 197.648  1.00  0.00     0.000 C 
BRANCH   5   6
ATOM      6  C   UNL     1     103.704  18.399 197.088  1.00  0.00     0.000 C 
BRANCH   6   7
ATOM      7  C   UNL     1     105.057  19.089 196.825  1.00  0.00     0.000 C 
BRANCH   7   8
ATOM      8  C   UNL     1     106.176  18.661 197.798  1.00  0.00     0.000 C 
BRANCH   8   9
ATOM      9  C   UNL     1     106.839  19.860 198.501  1.00  0.00     0.000 C 
BRANCH   9  10
ATOM     10  C   UNL     1     106.903  21.118 197.615  1.00  0.00     0.000 C 
BRANCH  10  11
ATOM     11  C   UNL     1     108.314  21.510 197.143  1.00  0.00     0.000 C 
BRANCH  11  12
ATOM     12  C   UNL     1     108.872  20.566 196.067  1.00  0.00     0.000 C 
BRANCH  12  13
ATOM     13  C   UNL     1     110.397  20.429 196.192  1.00  0.00     0.006 C 
BRANCH  13  14
ATOM     14  C   UNL     1     110.988  21.416 197.207  1.00  0.00     0.053 C 
BRANCH  14  15
ATOM     15  C   UNL     1     112.484  21.442 197.150  1.00  0.00     0.041 C 
ATOM     16  O   UNL     1     113.078  21.315 196.047  1.00  0.00    -0.550 OA
ATOM     17  O   UNL     1     113.224  21.571 198.319  1.00  0.00    -0.550 OA
ENDBRANCH  14  15
ENDBRANCH  13  14
ENDBRANCH  12  13
ENDBRANCH  11  12
ENDBRANCH  10  11
ENDBRANCH   9  10
ENDBRANCH   8   9
ENDBRANCH   7   8
ENDBRANCH   6   7
ENDBRANCH   5   6
ENDBRANCH   4   5
ENDBRANCH   3   4
ENDBRANCH   2   3
ENDBRANCH   1   2
BRANCH   1  18
ATOM     18  C   UNL     1      99.886  22.867 197.081  1.00  0.00     0.000 C 
BRANCH  18  19
ATOM     19  C   UNL     1      99.822  22.930 198.616  1.00  0.00     0.000 C 
BRANCH  19  20
ATOM     20  C   UNL     1     100.808  23.946 199.216  1.00  0.00     0.000 C 
BRANCH  20  21
ATOM     21  C   UNL     1     101.623  23.340 200.378  1.00  0.00     0.000 C 
BRANCH  21  22
ATOM     22  C   UNL     1     102.886  22.582 199.926  1.00  0.00     0.000 C 
BRANCH  22  23
ATOM     23  C   UNL     1     104.213  23.223 200.384  1.00  0.00     0.000 C 
BRANCH  23  24
ATOM     24  C   UNL     1     105.201  23.604 199.262  1.00  0.00    -0.000 C 
BRANCH  24  25
ATOM     25  C   UNL     1     104.563  24.031 197.927  1.00  0.00    -0.000 C 
BRANCH  25  26
ATOM     26  C   UNL     1     105.403  25.069 197.165  1.00  0.00    -0.000 C 
BRANCH  26  27
ATOM     27  C   UNL     1     105.925  24.532 195.822  1.00  0.00    -0.000 C 
BRANCH  27  28
ATOM     28  C   UNL     1     104.879  24.640 194.698  1.00  0.00    -0.000 C 
BRANCH  28  29
ATOM     29  C   UNL     1     104.392  23.267 194.200  1.00  0.00    -0.000 C 
BRANCH  29  30
ATOM     30  C   UNL     1     105.423  22.132 194.327  1.00  0.00    -0.000 C 
BRANCH  30  31
ATOM     31  C   UNL     1     105.674  21.401 193.000  1.00  0.00    -0.003 C 
ATOM     32  C   UNL     1     107.160  21.113 192.805  1.00  0.00     0.004 C 
ENDBRANCH  30  31
ENDBRANCH  29  30
ENDBRANCH  28  29
ENDBRANCH  27  28
ENDBRANCH  26  27
ENDBRANCH  25  26
ENDBRANCH  24  25
ENDBRANCH  23  24
ENDBRANCH  22  23
ENDBRANCH  21  22
ENDBRANCH  20  21
ENDBRANCH  19  20
ENDBRANCH  18  19
ENDBRANCH   1  18
TORSDOF 28
ENDMDL
MODEL 3
REMARK VINA RESULT:    -6.198      3.487      7.600
REMARK INTER + INTRA:         -20.962
REMARK INTER:                 -16.484
REMARK INTRA:                  -4.478
REMARK UNBOUND:                -4.620
REMARK SMILES CCCCCCCCCCCCCCCCCCCCCCCCCCCCCC(=O)[O-]
REMARK SMILES IDX 16 1 17 2 18 3 19 4 20 5 21 6 22 7 23 8 24 9 25 10 26 11
REMARK SMILES IDX 27 12 28 13 29 14 30 15 31 16 32 17 15 18 14 19 13 20 12 21
REMARK SMILES IDX 11 22 10 23 9 24 8 25 7 26 6 27 5 28 4 29 3 30 2 31 1 32
REMARK H PARENT
REMARK Flexibility Score: inf
ROOT
ATOM      1  C   UNL     1     101.782  22.125 193.891  1.00  0.00     0.000 C 
ENDROOT
BRANCH   1   2
ATOM      2  C   UNL     1     103.003  22.904 193.375  1.00  0.00     0.000 C 
BRANCH   2   3
ATOM      3  C   UNL     1     104.297  22.074 193.441  1.00  0.00     0.000 C 
BRANCH   3   4
ATOM      4  C   UNL     1     105.345  22.690 194.391  1.00  0.00     0.000 C 
BRANCH   4   5
ATOM      5  C   UNL     1     104.792  23.823 195.276  1.00  0.00     0.000 C 
BRANCH   5   6
ATOM      6  C   UNL     1     105.854  24.626 196.048  1.00  0.00     0.000 C 
BRANCH   6   7
ATOM      7  C   UNL     1     105.344  25.332 197.320  1.00  0.00     0.000 C 
BRANCH   7   8
ATOM      8  C   UNL     1     105.223  24.400 198.544  1.00  0.00     0.000 C 
BRANCH   8   9
ATOM      9  C   UNL     1     103.780  23.916 198.778  1.00  0.00     0.000 C 
BRANCH   9  10
ATOM     10  C   UNL     1     103.633  23.040 200.036  1.00  0.00     0.000 C 
BRANCH  10  11
ATOM     11  C   UNL     1     102.183  22.756 200.466  1.00  0.00     0.000 C 
BRANCH  11  12
ATOM     12  C   UNL     1     101.376  24.034 200.739  1.00  0.00     0.000 C 
BRANCH  12  13
ATOM     13  C   UNL     1     100.047  24.022 199.967  1.00  0.00     0.006 C 
BRANCH  13  14
ATOM     14  C   UNL     1     100.144  23.230 198.656  1.00  0.00     0.053 C 
BRANCH  14  15
ATOM     15  C   UNL     1      98.828  22.629 198.272  1.00  0.00     0.041 C 
ATOM     16  O   UNL     1      97.752  23.195 198.604  1.00  0.00    -0.550 OA
ATOM     17  O   UNL     1      98.787  21.426 197.578  1.00  0.00    -0.550 OA
ENDBRANCH  14  15
ENDBRANCH  13  14
ENDBRANCH  12  13
ENDBRANCH  11  12
ENDBRANCH  10  11
ENDBRANCH   9  10
ENDBRANCH   8   9
ENDBRANCH   7   8
ENDBRANCH   6   7
ENDBRANCH   5   6
ENDBRANCH   4   5
ENDBRANCH   3   4
ENDBRANCH   2   3
ENDBRANCH   1   2
BRANCH   1  18
ATOM     18  C   UNL     1     101.743  22.048 195.426  1.00  0.00     0.000 C 
BRANCH  18  19
ATOM     19  C   UNL     1     101.654  20.605 195.947  1.00  0.00     0.000 C 
BRANCH  19  20
ATOM     20  C   UNL     1     102.416  20.395 197.266  1.00  0.00     0.000 C 
BRANCH  20  21
ATOM     21  C   UNL     1     103.388  19.198 197.185  1.00  0.00     0.000 C 
BRANCH  21  22
ATOM     22  C   UNL     1     104.837  19.594 196.847  1.00  0.00     0.000 C 
BRANCH  22  23
ATOM     23  C   UNL     1     105.339  20.860 197.573  1.00  0.00     0.000 C 
BRANCH  23  24
ATOM     24  C   UNL     1     106.834  20.870 197.957  1.00  0.00    -0.000 C 
BRANCH  24  25
ATOM     25  C   UNL     1     107.795  21.418 196.886  1.00  0.00    -0.000 C 
BRANCH  25  26
ATOM     26  C   UNL     1     108.119  20.390 195.789  1.00  0.00    -0.000 C 
BRANCH  26  27
ATOM     27  C   UNL     1     109.445  19.657 196.043  1.00  0.00    -0.000 C 
BRANCH  27  28
ATOM     28  C   UNL     1     110.634  20.326 195.332  1.00  0.00    -0.000 C 
BRANCH  28  29
ATOM     29  C   UNL     1     111.689  20.869 196.313  1.00  0.00    -0.000 C 
BRANCH  29  30
ATOM     30  C   UNL     1     111.243  22.095 197.128  1.00  0.00    -0.000 C 
BRANCH  30  31
ATOM     31  C   UNL     1     112.183  22.409 198.301  1.00  0.00    -0.003 C 
ATOM     32  C   UNL     1     113.223  21.306 198.480  1.00  0.00     0.004 C 
ENDBRANCH  30  31
ENDBRANCH  29  30
ENDBRANCH  28  29
ENDBRANCH  27  28
ENDBRANCH  26  27
ENDBRANCH  25  26
ENDBRANCH  24  25
ENDBRANCH  23  24
ENDBRANCH  22  23
ENDBRANCH  21  22
ENDBRANCH  20  21
ENDBRANCH  19  20
ENDBRANCH  18  19
ENDBRANCH   1  18
TORSDOF 28
ENDMDL
MODEL 4
REMARK VINA RESULT:    -6.184      1.089      3.754
REMARK INTER + INTRA:         -20.927
REMARK INTER:                 -15.992
REMARK INTRA:                  -4.934
REMARK UNBOUND:                -4.620
REMARK SMILES CCCCCCCCCCCCCCCCCCCCCCCCCCCCCC(=O)[O-]
REMARK SMILES IDX 16 1 17 2 18 3 19 4 20 5 21 6 22 7 23 8 24 9 25 10 26 11
REMARK SMILES IDX 27 12 28 13 29 14 30 15 31 16 32 17 15 18 14 19 13 20 12 21
REMARK SMILES IDX 11 22 10 23 9 24 8 25 7 26 6 27 5 28 4 29 3 30 2 31 1 32
REMARK H PARENT
REMARK Flexibility Score: inf
ROOT
ATOM      1  C   UNL     1     105.735  22.976 199.567  1.00  0.00     0.000 C 
ENDROOT
BRANCH   1   2
ATOM      2  C   UNL     1     105.004  23.370 198.272  1.00  0.00     0.000 C 
BRANCH   2   3
ATOM      3  C   UNL     1     105.305  24.819 197.849  1.00  0.00     0.000 C 
BRANCH   3   4
ATOM      4  C   UNL     1     105.970  24.902 196.459  1.00  0.00     0.000 C 
BRANCH   4   5
ATOM      5  C   UNL     1     104.977  25.165 195.310  1.00  0.00     0.000 C 
BRANCH   5   6
ATOM      6  C   UNL     1     104.427  23.903 194.622  1.00  0.00     0.000 C 
BRANCH   6   7
ATOM      7  C   UNL     1     105.391  22.701 194.596  1.00  0.00     0.000 C 
BRANCH   7   8
ATOM      8  C   UNL     1     105.255  21.820 193.336  1.00  0.00     0.000 C 
BRANCH   8   9
ATOM      9  C   UNL     1     106.255  20.649 193.323  1.00  0.00     0.000 C 
BRANCH   9  10
ATOM     10  C   UNL     1     107.680  21.077 192.924  1.00  0.00     0.000 C 
BRANCH  10  11
ATOM     11  C   UNL     1     108.763  20.793 193.980  1.00  0.00     0.000 C 
BRANCH  11  12
ATOM     12  C   UNL     1     110.159  20.595 193.372  1.00  0.00     0.000 C 
BRANCH  12  13
ATOM     13  C   UNL     1     111.250  20.701 194.448  1.00  0.00     0.006 C 
BRANCH  13  14
ATOM     14  C   UNL     1     110.715  20.387 195.851  1.00  0.00     0.053 C 
BRANCH  14  15
ATOM     15  C   UNL     1     111.329  21.271 196.892  1.00  0.00     0.041 C 
ATOM     16  O   UNL     1     112.539  21.124 197.212  1.00  0.00    -0.550 OA
ATOM     17  O   UNL     1     110.559  22.232 197.533  1.00  0.00    -0.550 OA
ENDBRANCH  14  15
ENDBRANCH  13  14
ENDBRANCH  12  13
ENDBRANCH  11  12
ENDBRANCH  10  11
ENDBRANCH   9  10
ENDBRANCH   8   9
ENDBRANCH   7   8
ENDBRANCH   6   7
ENDBRANCH   5   6
ENDBRANCH   4   5
ENDBRANCH   3   4
ENDBRANCH   2   3
ENDBRANCH   1   2
BRANCH   1  18
ATOM     18  C   UNL     1     107.001  22.147 199.295  1.00  0.00     0.000 C 
BRANCH  18  19
ATOM     19  C   UNL     1     107.124  21.717 197.825  1.00  0.00     0.000 C 
BRANCH  19  20
ATOM     20  C   UNL     1     107.436  20.219 197.663  1.00  0.00     0.000 C 
BRANCH  20  21
ATOM     21  C   UNL     1     106.170  19.349 197.813  1.00  0.00     0.000 C 
BRANCH  21  22
ATOM     22  C   UNL     1     105.163  19.509 196.659  1.00  0.00     0.000 C 
BRANCH  22  23
ATOM     23  C   UNL     1     103.782  20.052 197.087  1.00  0.00     0.000 C 
BRANCH  23  24
ATOM     24  C   UNL     1     102.725  18.990 197.455  1.00  0.00    -0.000 C 
BRANCH  24  25
ATOM     25  C   UNL     1     101.293  19.276 196.966  1.00  0.00    -0.000 C 
BRANCH  25  26
ATOM     26  C   UNL     1     101.230  20.400 195.918  1.00  0.00    -0.000 C 
BRANCH  26  27
ATOM     27  C   UNL     1     100.305  21.551 196.345  1.00  0.00    -0.000 C 
BRANCH  27  28
ATOM     28  C   UNL     1     100.817  22.924 195.873  1.00  0.00    -0.000 C 
BRANCH  28  29
ATOM     29  C   UNL     1     101.596  23.679 196.965  1.00  0.00    -0.000 C 
BRANCH  29  30
ATOM     30  C   UNL     1     101.543  23.033 198.361  1.00  0.00    -0.000 C 
BRANCH  30  31
ATOM     31  C   UNL     1     101.460  24.064 199.495  1.00  0.00    -0.003 C 
ATOM     32  C   UNL     1     101.843  23.440 200.834  1.00  0.00     0.004 C 
ENDBRANCH  30  31
ENDBRANCH  29  30
ENDBRANCH  28  29
ENDBRANCH  27  28
ENDBRANCH  26  27
ENDBRANCH  25  26
ENDBRANCH  24  25
ENDBRANCH  23  24
ENDBRANCH  22  23
ENDBRANCH  21  22
ENDBRANCH  20  21
ENDBRANCH  19  20
ENDBRANCH  18  19
ENDBRANCH   1  18
TORSDOF 28
ENDMDL
MODEL 5
REMARK VINA RESULT:    -6.166      2.125      6.211
REMARK INTER + INTRA:         -20.879
REMARK INTER:                 -15.807
REMARK INTRA:                  -5.072
REMARK UNBOUND:                -4.620
REMARK SMILES CCCCCCCCCCCCCCCCCCCCCCCCCCCCCC(=O)[O-]
REMARK SMILES IDX 16 1 17 2 18 3 19 4 20 5 21 6 22 7 23 8 24 9 25 10 26 11
REMARK SMILES IDX 27 12 28 13 29 14 30 15 31 16 32 17 15 18 14 19 13 20 12 21
REMARK SMILES IDX 11 22 10 23 9 24 8 25 7 26 6 27 5 28 4 29 3 30 2 31 1 32
REMARK H PARENT
REMARK Flexibility Score: inf
ROOT
ATOM      1  C   UNL     1     105.514  22.041 193.733  1.00  0.00     0.000 C 
ENDROOT
BRANCH   1   2
ATOM      2  C   UNL     1     104.043  22.268 193.346  1.00  0.00     0.000 C 
BRANCH   2   3
ATOM      3  C   UNL     1     103.162  22.600 194.563  1.00  0.00     0.000 C 
BRANCH   3   4
ATOM      4  C   UNL     1     101.841  21.802 194.570  1.00  0.00     0.000 C 
BRANCH   4   5
ATOM      5  C   UNL     1     100.875  22.210 195.699  1.00  0.00     0.000 C 
BRANCH   5   6
ATOM      6  C   UNL     1     101.513  23.018 196.843  1.00  0.00     0.000 C 
BRANCH   6   7
ATOM      7  C   UNL     1     100.912  22.761 198.239  1.00  0.00     0.000 C 
BRANCH   7   8
ATOM      8  C   UNL     1     100.939  23.995 199.166  1.00  0.00     0.000 C 
BRANCH   8   9
ATOM      9  C   UNL     1     101.427  23.656 200.586  1.00  0.00     0.000 C 
BRANCH   9  10
ATOM     10  C   UNL     1     102.604  22.662 200.599  1.00  0.00     0.000 C 
BRANCH  10  11
ATOM     11  C   UNL     1     104.000  23.307 200.539  1.00  0.00     0.000 C 
BRANCH  11  12
ATOM     12  C   UNL     1     104.741  23.014 199.226  1.00  0.00     0.000 C 
BRANCH  12  13
ATOM     13  C   UNL     1     104.481  24.117 198.189  1.00  0.00     0.006 C 
BRANCH  13  14
ATOM     14  C   UNL     1     105.505  24.094 197.046  1.00  0.00     0.053 C 
BRANCH  14  15
ATOM     15  C   UNL     1     105.472  25.358 196.245  1.00  0.00     0.041 C 
ATOM     16  O   UNL     1     105.336  25.311 194.993  1.00  0.00    -0.550 OA
ATOM     17  O   UNL     1     105.628  26.587 196.874  1.00  0.00    -0.550 OA
ENDBRANCH  14  15
ENDBRANCH  13  14
ENDBRANCH  12  13
ENDBRANCH  11  12
ENDBRANCH  10  11
ENDBRANCH   9  10
ENDBRANCH   8   9
ENDBRANCH   7   8
ENDBRANCH   6   7
ENDBRANCH   5   6
ENDBRANCH   4   5
ENDBRANCH   3   4
ENDBRANCH   2   3
ENDBRANCH   1   2
BRANCH   1  18
ATOM     18  C   UNL     1     106.114  20.801 193.050  1.00  0.00     0.000 C 
BRANCH  18  19
ATOM     19  C   UNL     1     107.579  21.005 192.632  1.00  0.00     0.000 C 
BRANCH  19  20
ATOM     20  C   UNL     1     108.562  20.878 193.808  1.00  0.00     0.000 C 
BRANCH  20  21
ATOM     21  C   UNL     1     110.005  20.620 193.327  1.00  0.00     0.000 C 
BRANCH  21  22
ATOM     22  C   UNL     1     110.999  20.321 194.465  1.00  0.00     0.000 C 
BRANCH  22  23
ATOM     23  C   UNL     1     110.350  20.186 195.859  1.00  0.00     0.000 C 
BRANCH  23  24
ATOM     24  C   UNL     1     110.837  21.186 196.930  1.00  0.00    -0.000 C 
BRANCH  24  25
ATOM     25  C   UNL     1     109.761  22.125 197.504  1.00  0.00    -0.000 C 
BRANCH  25  26
ATOM     26  C   UNL     1     108.329  21.647 197.212  1.00  0.00    -0.000 C 
BRANCH  26  27
ATOM     27  C   UNL     1     107.606  21.150 198.474  1.00  0.00    -0.000 C 
BRANCH  27  28
ATOM     28  C   UNL     1     106.611  20.014 198.174  1.00  0.00    -0.000 C 
BRANCH  28  29
ATOM     29  C   UNL     1     105.834  20.231 196.862  1.00  0.00    -0.000 C 
BRANCH  29  30
ATOM     30  C   UNL     1     104.303  20.240 197.012  1.00  0.00    -0.000 C 
BRANCH  30  31
ATOM     31  C   UNL     1     103.717  18.839 197.245  1.00  0.00    -0.003 C 
ATOM     32  C   UNL     1     102.192  18.869 197.205  1.00  0.00     0.004 C 
ENDBRANCH  30  31
ENDBRANCH  29  30
ENDBRANCH  28  29
ENDBRANCH  27  28
ENDBRANCH  26  27
ENDBRANCH  25  26
ENDBRANCH  24  25
ENDBRANCH  23  24
ENDBRANCH  22  23
ENDBRANCH  21  22
ENDBRANCH  20  21
ENDBRANCH  19  20
ENDBRANCH  18  19
ENDBRANCH   1  18
TORSDOF 28
ENDMDL
MODEL 6
REMARK VINA RESULT:    -6.151      1.059      3.976
REMARK INTER + INTRA:         -20.840
REMARK INTER:                 -15.690
REMARK INTRA:                  -5.150
REMARK UNBOUND:                -4.620
REMARK SMILES CCCCCCCCCCCCCCCCCCCCCCCCCCCCCC(=O)[O-]
REMARK SMILES IDX 16 1 17 2 18 3 19 4 20 5 21 6 22 7 23 8 24 9 25 10 26 11
REMARK SMILES IDX 27 12 28 13 29 14 30 15 31 16 32 17 15 18 14 19 13 20 12 21
REMARK SMILES IDX 11 22 10 23 9 24 8 25 7 26 6 27 5 28 4 29 3 30 2 31 1 32
REMARK H PARENT
REMARK Flexibility Score: inf
ROOT
ATOM      1  C   UNL     1     103.657  25.171 197.288  1.00  0.00     0.000 C 
ENDROOT
BRANCH   1   2
ATOM      2  C   UNL     1     104.614  25.647 196.182  1.00  0.00     0.000 C 
BRANCH   2   3
ATOM      3  C   UNL     1     105.811  24.698 195.996  1.00  0.00     0.000 C 
BRANCH   3   4
ATOM      4  C   UNL     1     105.393  23.328 195.421  1.00  0.00     0.000 C 
BRANCH   4   5
ATOM      5  C   UNL     1     104.608  23.423 194.097  1.00  0.00     0.000 C 
BRANCH   5   6
ATOM      6  C   UNL     1     104.574  22.128 193.266  1.00  0.00     0.000 C 
BRANCH   6   7
ATOM      7  C   UNL     1     105.718  21.136 193.555  1.00  0.00     0.000 C 
BRANCH   7   8
ATOM      8  C   UNL     1     106.920  21.274 192.596  1.00  0.00     0.000 C 
BRANCH   8   9
ATOM      9  C   UNL     1     108.262  20.966 193.284  1.00  0.00     0.000 C 
BRANCH   9  10
ATOM     10  C   UNL     1     108.115  20.670 194.788  1.00  0.00     0.000 C 
BRANCH  10  11
ATOM     11  C   UNL     1     109.416  20.258 195.500  1.00  0.00     0.000 C 
BRANCH  11  12
ATOM     12  C   UNL     1     110.633  20.236 194.563  1.00  0.00     0.000 C 
BRANCH  12  13
ATOM     13  C   UNL     1     111.937  20.435 195.350  1.00  0.00     0.006 C 
BRANCH  13  14
ATOM     14  C   UNL     1     112.039  21.840 195.960  1.00  0.00     0.053 C 
BRANCH  14  15
ATOM     15  C   UNL     1     111.975  21.803 197.455  1.00  0.00     0.041 C 
ATOM     16  O   UNL     1     112.914  21.286 198.116  1.00  0.00    -0.550 OA
ATOM     17  O   UNL     1     110.863  22.308 198.117  1.00  0.00    -0.550 OA
ENDBRANCH  14  15
ENDBRANCH  13  14
ENDBRANCH  12  13
ENDBRANCH  11  12
ENDBRANCH  10  11
ENDBRANCH   9  10
ENDBRANCH   8   9
ENDBRANCH   7   8
ENDBRANCH   6   7
ENDBRANCH   5   6
ENDBRANCH   4   5
ENDBRANCH   3   4
ENDBRANCH   2   3
ENDBRANCH   1   2
BRANCH   1  18
ATOM     18  C   UNL     1     102.273  24.790 196.739  1.00  0.00     0.000 C 
BRANCH  18  19
ATOM     19  C   UNL     1     101.973  23.289 196.873  1.00  0.00     0.000 C 
BRANCH  19  20
ATOM     20  C   UNL     1     101.606  22.628 195.533  1.00  0.00     0.000 C 
BRANCH  20  21
ATOM     21  C   UNL     1     101.636  21.088 195.624  1.00  0.00     0.000 C 
BRANCH  21  22
ATOM     22  C   UNL     1     101.510  20.545 197.060  1.00  0.00     0.000 C 
BRANCH  22  23
ATOM     23  C   UNL     1     102.798  19.898 197.614  1.00  0.00     0.000 C 
BRANCH  23  24
ATOM     24  C   UNL     1     104.123  20.415 197.015  1.00  0.00    -0.000 C 
BRANCH  24  25
ATOM     25  C   UNL     1     105.330  19.468 197.150  1.00  0.00    -0.000 C 
BRANCH  25  26
ATOM     26  C   UNL     1     106.431  20.027 198.068  1.00  0.00    -0.000 C 
BRANCH  26  27
ATOM     27  C   UNL     1     106.419  21.563 198.133  1.00  0.00    -0.000 C 
BRANCH  27  28
ATOM     28  C   UNL     1     106.581  22.092 199.570  1.00  0.00    -0.000 C 
BRANCH  28  29
ATOM     29  C   UNL     1     105.560  23.189 199.921  1.00  0.00    -0.000 C 
BRANCH  29  30
ATOM     30  C   UNL     1     104.088  22.788 199.724  1.00  0.00    -0.000 C 
BRANCH  30  31
ATOM     31  C   UNL     1     103.176  23.278 200.858  1.00  0.00    -0.003 C 
ATOM     32  C   UNL     1     101.718  23.321 200.411  1.00  0.00     0.004 C 
ENDBRANCH  30  31
ENDBRANCH  29  30
ENDBRANCH  28  29
ENDBRANCH  27  28
ENDBRANCH  26  27
ENDBRANCH  25  26
ENDBRANCH  24  25
ENDBRANCH  23  24
ENDBRANCH  22  23
ENDBRANCH  21  22
ENDBRANCH  20  21
ENDBRANCH  19  20
ENDBRANCH  18  19
ENDBRANCH   1  18
TORSDOF 28
ENDMDL
MODEL 7
REMARK VINA RESULT:    -6.120      2.691      7.806
REMARK INTER + INTRA:         -20.758
REMARK INTER:                 -16.121
REMARK INTRA:                  -4.637
REMARK UNBOUND:                -4.620
REMARK SMILES CCCCCCCCCCCCCCCCCCCCCCCCCCCCCC(=O)[O-]
REMARK SMILES IDX 16 1 17 2 18 3 19 4 20 5 21 6 22 7 23 8 24 9 25 10 26 11
REMARK SMILES IDX 27 12 28 13 29 14 30 15 31 16 32 17 15 18 14 19 13 20 12 21
REMARK SMILES IDX 11 22 10 23 9 24 8 25 7 26 6 27 5 28 4 29 3 30 2 31 1 32
REMARK H PARENT
REMARK Flexibility Score: inf
ROOT
ATOM      1  C   UNL     1     105.890  22.643 199.471  1.00  0.00     0.000 C 
ENDROOT
BRANCH   1   2
ATOM      2  C   UNL     1     107.180  21.823 199.298  1.00  0.00     0.000 C 
BRANCH   2   3
ATOM      3  C   UNL     1     107.529  21.588 197.818  1.00  0.00     0.000 C 
BRANCH   3   4
ATOM      4  C   UNL     1     107.780  20.098 197.501  1.00  0.00     0.000 C 
BRANCH   4   5
ATOM      5  C   UNL     1     106.545  19.201 197.716  1.00  0.00     0.000 C 
BRANCH   5   6
ATOM      6  C   UNL     1     105.374  19.463 196.752  1.00  0.00     0.000 C 
BRANCH   6   7
ATOM      7  C   UNL     1     104.040  18.798 197.148  1.00  0.00     0.000 C 
BRANCH   7   8
ATOM      8  C   UNL     1     102.916  19.803 197.478  1.00  0.00     0.000 C 
BRANCH   8   9
ATOM      9  C   UNL     1     101.526  19.295 197.054  1.00  0.00     0.000 C 
BRANCH   9  10
ATOM     10  C   UNL     1     100.715  20.341 196.267  1.00  0.00     0.000 C 
BRANCH  10  11
ATOM     11  C   UNL     1     101.544  21.492 195.670  1.00  0.00     0.000 C 
BRANCH  11  12
ATOM     12  C   UNL     1     101.027  22.879 196.078  1.00  0.00     0.000 C 
BRANCH  12  13
ATOM     13  C   UNL     1     100.600  22.896 197.554  1.00  0.00     0.006 C 
BRANCH  13  14
ATOM     14  C   UNL     1     101.570  23.698 198.431  1.00  0.00     0.053 C 
BRANCH  14  15
ATOM     15  C   UNL     1     101.340  23.447 199.889  1.00  0.00     0.041 C 
ATOM     16  O   UNL     1     100.379  24.006 200.483  1.00  0.00    -0.550 OA
ATOM     17  O   UNL     1     102.204  22.625 200.600  1.00  0.00    -0.550 OA
ENDBRANCH  14  15
ENDBRANCH  13  14
ENDBRANCH  12  13
ENDBRANCH  11  12
ENDBRANCH  10  11
ENDBRANCH   9  10
ENDBRANCH   8   9
ENDBRANCH   7   8
ENDBRANCH   6   7
ENDBRANCH   5   6
ENDBRANCH   4   5
ENDBRANCH   3   4
ENDBRANCH   2   3
ENDBRANCH   1   2
BRANCH   1  18
ATOM     18  C   UNL     1     105.132  22.827 198.146  1.00  0.00     0.000 C 
BRANCH  18  19
ATOM     19  C   UNL     1     105.178  24.275 197.632  1.00  0.00     0.000 C 
BRANCH  19  20
ATOM     20  C   UNL     1     105.275  24.365 196.099  1.00  0.00     0.000 C 
BRANCH  20  21
ATOM     21  C   UNL     1     105.258  22.970 195.440  1.00  0.00     0.000 C 
BRANCH  21  22
ATOM     22  C   UNL     1     104.420  22.900 194.149  1.00  0.00     0.000 C 
BRANCH  22  23
ATOM     23  C   UNL     1     104.994  21.963 193.065  1.00  0.00     0.000 C 
BRANCH  23  24
ATOM     24  C   UNL     1     106.031  20.927 193.549  1.00  0.00    -0.000 C 
BRANCH  24  25
ATOM     25  C   UNL     1     107.424  21.026 192.902  1.00  0.00    -0.000 C 
BRANCH  25  26
ATOM     26  C   UNL     1     108.568  20.776 193.898  1.00  0.00    -0.000 C 
BRANCH  26  27
ATOM     27  C   UNL     1     109.940  20.688 193.210  1.00  0.00    -0.000 C 
BRANCH  27  28
ATOM     28  C   UNL     1     111.000  20.006 194.093  1.00  0.00    -0.000 C 
BRANCH  28  29
ATOM     29  C   UNL     1     110.917  20.439 195.568  1.00  0.00    -0.000 C 
BRANCH  29  30
ATOM     30  C   UNL     1     112.110  21.276 196.064  1.00  0.00    -0.000 C 
BRANCH  30  31
ATOM     31  C   UNL     1     111.810  22.033 197.365  1.00  0.00    -0.003 C 
ATOM     32  C   UNL     1     112.896  21.784 198.408  1.00  0.00     0.004 C 
ENDBRANCH  30  31
ENDBRANCH  29  30
ENDBRANCH  28  29
ENDBRANCH  27  28
ENDBRANCH  26  27
ENDBRANCH  25  26
ENDBRANCH  24  25
ENDBRANCH  23  24
ENDBRANCH  22  23
ENDBRANCH  21  22
ENDBRANCH  20  21
ENDBRANCH  19  20
ENDBRANCH  18  19
ENDBRANCH   1  18
TORSDOF 28
ENDMDL
MODEL 8
REMARK VINA RESULT:    -6.079      1.375      3.948
REMARK INTER + INTRA:         -20.649
REMARK INTER:                 -16.008
REMARK INTRA:                  -4.640
REMARK UNBOUND:                -4.620
REMARK SMILES CCCCCCCCCCCCCCCCCCCCCCCCCCCCCC(=O)[O-]
REMARK SMILES IDX 16 1 17 2 18 3 19 4 20 5 21 6 22 7 23 8 24 9 25 10 26 11
REMARK SMILES IDX 27 12 28 13 29 14 30 15 31 16 32 17 15 18 14 19 13 20 12 21
REMARK SMILES IDX 11 22 10 23 9 24 8 25 7 26 6 27 5 28 4 29 3 30 2 31 1 32
REMARK H PARENT
REMARK Flexibility Score: inf
ROOT
ATOM      1  C   UNL     1     101.296  21.540 195.537  1.00  0.00     0.000 C 
ENDROOT
BRANCH   1   2
ATOM      2  C   UNL     1     102.429  20.804 196.272  1.00  0.00     0.000 C 
BRANCH   2   3
ATOM      3  C   UNL     1     101.906  19.651 197.148  1.00  0.00     0.000 C 
BRANCH   3   4
ATOM      4  C   UNL     1     103.044  18.776 197.713  1.00  0.00     0.000 C 
BRANCH   4   5
ATOM      5  C   UNL     1     104.286  18.708 196.803  1.00  0.00     0.000 C 
BRANCH   5   6
ATOM      6  C   UNL     1     105.554  18.148 197.471  1.00  0.00     0.000 C 
BRANCH   6   7
ATOM      7  C   UNL     1     106.455  19.201 198.147  1.00  0.00     0.000 C 
BRANCH   7   8
ATOM      8  C   UNL     1     106.475  20.563 197.421  1.00  0.00     0.000 C 
BRANCH   8   9
ATOM      9  C   UNL     1     107.900  21.011 197.046  1.00  0.00     0.000 C 
BRANCH   9  10
ATOM     10  C   UNL     1     108.455  20.285 195.806  1.00  0.00     0.000 C 
BRANCH  10  11
ATOM     11  C   UNL     1     109.701  19.420 196.063  1.00  0.00     0.000 C 
BRANCH  11  12
ATOM     12  C   UNL     1     110.854  19.725 195.096  1.00  0.00     0.000 C 
BRANCH  12  13
ATOM     13  C   UNL     1     111.455  21.111 195.375  1.00  0.00     0.006 C 
BRANCH  13  14
ATOM     14  C   UNL     1     112.372  21.110 196.605  1.00  0.00     0.053 C 
BRANCH  14  15
ATOM     15  C   UNL     1     111.899  22.070 197.652  1.00  0.00     0.041 C 
ATOM     16  O   UNL     1     110.756  22.591 197.563  1.00  0.00    -0.550 OA
ATOM     17  O   UNL     1     112.733  22.417 198.707  1.00  0.00    -0.550 OA
ENDBRANCH  14  15
ENDBRANCH  13  14
ENDBRANCH  12  13
ENDBRANCH  11  12
ENDBRANCH  10  11
ENDBRANCH   9  10
ENDBRANCH   8   9
ENDBRANCH   7   8
ENDBRANCH   6   7
ENDBRANCH   5   6
ENDBRANCH   4   5
ENDBRANCH   3   4
ENDBRANCH   2   3
ENDBRANCH   1   2
BRANCH   1  18
ATOM     18  C   UNL     1     101.009  22.924 196.141  1.00  0.00     0.000 C 
BRANCH  18  19
ATOM     19  C   UNL     1      99.695  22.963 196.937  1.00  0.00     0.000 C 
BRANCH  19  20
ATOM     20  C   UNL     1      99.911  22.853 198.457  1.00  0.00     0.000 C 
BRANCH  20  21
ATOM     21  C   UNL     1     101.239  23.506 198.897  1.00  0.00     0.000 C 
BRANCH  21  22
ATOM     22  C   UNL     1     102.212  22.534 199.590  1.00  0.00     0.000 C 
BRANCH  22  23
ATOM     23  C   UNL     1     103.234  23.213 200.527  1.00  0.00     0.000 C 
BRANCH  23  24
ATOM     24  C   UNL     1     104.695  23.232 200.031  1.00  0.00    -0.000 C 
BRANCH  24  25
ATOM     25  C   UNL     1     104.880  23.319 198.505  1.00  0.00    -0.000 C 
BRANCH  25  26
ATOM     26  C   UNL     1     104.985  24.766 197.994  1.00  0.00    -0.000 C 
BRANCH  26  27
ATOM     27  C   UNL     1     103.945  25.083 196.908  1.00  0.00    -0.000 C 
BRANCH  27  28
ATOM     28  C   UNL     1     104.593  25.511 195.579  1.00  0.00    -0.000 C 
BRANCH  28  29
ATOM     29  C   UNL     1     105.364  24.367 194.894  1.00  0.00    -0.000 C 
BRANCH  29  30
ATOM     30  C   UNL     1     104.478  23.263 194.290  1.00  0.00    -0.000 C 
BRANCH  30  31
ATOM     31  C   UNL     1     105.141  21.878 194.326  1.00  0.00    -0.003 C 
ATOM     32  C   UNL     1     105.644  21.475 192.943  1.00  0.00     0.004 C 
ENDBRANCH  30  31
ENDBRANCH  29  30
ENDBRANCH  28  29
ENDBRANCH  27  28
ENDBRANCH  26  27
ENDBRANCH  25  26
ENDBRANCH  24  25
ENDBRANCH  23  24
ENDBRANCH  22  23
ENDBRANCH  21  22
ENDBRANCH  20  21
ENDBRANCH  19  20
ENDBRANCH  18  19
ENDBRANCH   1  18
TORSDOF 28
ENDMDL
MODEL 9
REMARK VINA RESULT:    -6.072      2.834      6.818
REMARK INTER + INTRA:         -20.631
REMARK INTER:                 -15.627
REMARK INTRA:                  -5.003
REMARK UNBOUND:                -4.620
REMARK SMILES CCCCCCCCCCCCCCCCCCCCCCCCCCCCCC(=O)[O-]
REMARK SMILES IDX 16 1 17 2 18 3 19 4 20 5 21 6 22 7 23 8 24 9 25 10 26 11
REMARK SMILES IDX 27 12 28 13 29 14 30 15 31 16 32 17 15 18 14 19 13 20 12 21
REMARK SMILES IDX 11 22 10 23 9 24 8 25 7 26 6 27 5 28 4 29 3 30 2 31 1 32
REMARK H PARENT
REMARK Flexibility Score: inf
ROOT
ATOM      1  C   UNL     1     110.198  20.352 193.351  1.00  0.00     0.000 C 
ENDROOT
BRANCH   1   2
ATOM      2  C   UNL     1     111.230  20.282 194.489  1.00  0.00     0.000 C 
BRANCH   2   3
ATOM      3  C   UNL     1     110.567  20.185 195.875  1.00  0.00     0.000 C 
BRANCH   3   4
ATOM      4  C   UNL     1     111.209  21.139 196.904  1.00  0.00     0.000 C 
BRANCH   4   5
ATOM      5  C   UNL     1     110.212  22.125 197.544  1.00  0.00     0.000 C 
BRANCH   5   6
ATOM      6  C   UNL     1     108.729  21.829 197.257  1.00  0.00     0.000 C 
BRANCH   6   7
ATOM      7  C   UNL     1     107.825  21.753 198.504  1.00  0.00     0.000 C 
BRANCH   7   8
ATOM      8  C   UNL     1     106.866  20.544 198.506  1.00  0.00     0.000 C 
BRANCH   8   9
ATOM      9  C   UNL     1     107.309  19.437 197.532  1.00  0.00     0.000 C 
BRANCH   9  10
ATOM     10  C   UNL     1     106.343  18.238 197.501  1.00  0.00     0.000 C 
BRANCH  10  11
ATOM     11  C   UNL     1     104.892  18.561 197.902  1.00  0.00     0.000 C 
BRANCH  11  12
ATOM     12  C   UNL     1     103.899  18.408 196.741  1.00  0.00     0.000 C 
BRANCH  12  13
ATOM     13  C   UNL     1     102.493  18.868 197.155  1.00  0.00     0.006 C 
BRANCH  13  14
ATOM     14  C   UNL     1     102.395  20.395 197.279  1.00  0.00     0.053 C 
BRANCH  14  15
ATOM     15  C   UNL     1     101.255  20.946 196.481  1.00  0.00     0.041 C 
ATOM     16  O   UNL     1     101.204  20.756 195.236  1.00  0.00    -0.550 OA
ATOM     17  O   UNL     1     100.266  21.697 197.103  1.00  0.00    -0.550 OA
ENDBRANCH  14  15
ENDBRANCH  13  14
ENDBRANCH  12  13
ENDBRANCH  11  12
ENDBRANCH  10  11
ENDBRANCH   9  10
ENDBRANCH   8   9
ENDBRANCH   7   8
ENDBRANCH   6   7
ENDBRANCH   5   6
ENDBRANCH   4   5
ENDBRANCH   3   4
ENDBRANCH   2   3
ENDBRANCH   1   2
BRANCH   1  18
ATOM     18  C   UNL     1     108.802  20.757 193.852  1.00  0.00     0.000 C 
BRANCH  18  19
ATOM     19  C   UNL     1     107.819  21.041 192.705  1.00  0.00     0.000 C 
BRANCH  19  20
ATOM     20  C   UNL     1     106.351  20.804 193.100  1.00  0.00     0.000 C 
BRANCH  20  21
ATOM     21  C   UNL     1     106.150  20.869 194.629  1.00  0.00     0.000 C 
BRANCH  21  22
ATOM     22  C   UNL     1     104.957  21.742 195.064  1.00  0.00     0.000 C 
BRANCH  22  23
ATOM     23  C   UNL     1     104.972  23.175 194.489  1.00  0.00     0.000 C 
BRANCH  23  24
ATOM     24  C   UNL     1     105.739  24.226 195.319  1.00  0.00    -0.000 C 
BRANCH  24  25
ATOM     25  C   UNL     1     104.940  25.483 195.706  1.00  0.00    -0.000 C 
BRANCH  25  26
ATOM     26  C   UNL     1     104.505  25.487 197.182  1.00  0.00    -0.000 C 
BRANCH  26  27
ATOM     27  C   UNL     1     105.255  24.437 198.018  1.00  0.00    -0.000 C 
BRANCH  27  28
ATOM     28  C   UNL     1     104.316  23.358 198.587  1.00  0.00    -0.000 C 
BRANCH  28  29
ATOM     29  C   UNL     1     104.444  23.198 200.113  1.00  0.00    -0.000 C 
BRANCH  29  30
ATOM     30  C   UNL     1     103.109  23.211 200.878  1.00  0.00    -0.000 C 
BRANCH  30  31
ATOM     31  C   UNL     1     101.894  22.993 199.965  1.00  0.00    -0.003 C 
ATOM     32  C   UNL     1     100.785  23.992 200.279  1.00  0.00     0.004 C 
ENDBRANCH  30  31
ENDBRANCH  29  30
ENDBRANCH  28  29
ENDBRANCH  27  28
ENDBRANCH  26  27
ENDBRANCH  25  26
ENDBRANCH  24  25
ENDBRANCH  23  24
ENDBRANCH  22  23
ENDBRANCH  21  22
ENDBRANCH  20  21
ENDBRANCH  19  20
ENDBRANCH  18  19
ENDBRANCH   1  18
TORSDOF 28
ENDMDL
