MODEL 1
REMARK VINA RESULT:     0.000      0.000      0.000
REMARK INTER + INTRA:          -2.959
REMARK INTER:                   0.000
REMARK INTRA:                  -2.959
REMARK UNBOUND:                -2.959
REMARK SMILES CCCCCCC=CCCCCCCCC(=O)[O-]
REMARK SMILES IDX 10 1 11 2 12 3 13 4 14 5 15 6 16 7 17 8 18 9 9 10 8 11 7 12
REMARK SMILES IDX 6 13 5 14 4 15 3 16 2 17 1 18
REMARK H PARENT
REMARK Flexibility Score: inf
ROOT
ATOM      1  C   UNL     1      -2.670  -1.076  -8.237  1.00  0.00     0.004 C 
ENDROOT
BRANCH   1   2
ATOM      2  C   UNL     1      -4.146  -0.835  -7.890  1.00  0.00     0.000 C 
BRANCH   2   3
ATOM      3  C   UNL     1      -5.023  -0.889  -9.147  1.00  0.00     0.000 C 
BRANCH   3   4
ATOM      4  C   UNL     1      -5.396   0.521  -9.619  1.00  0.00     0.000 C 
BRANCH   4   5
ATOM      5  C   UNL     1      -4.970   0.744 -11.078  1.00  0.00     0.006 C 
BRANCH   5   6
ATOM      6  C   UNL     1      -3.739   1.653 -11.190  1.00  0.00     0.053 C 
BRANCH   6   7
ATOM      7  C   UNL     1      -2.479   0.860 -11.367  1.00  0.00     0.041 C 
ATOM      8  O   UNL     1      -2.532  -0.337 -11.753  1.00  0.00    -0.550 OA
ATOM      9  O   UNL     1      -1.250   1.435 -11.072  1.00  0.00    -0.550 OA
ENDBRANCH   6   7
ENDBRANCH   5   6
ENDBRANCH   4   5
ENDBRANCH   3   4
ENDBRANCH   2   3
ENDBRANCH   1   2
BRANCH   1  10
ATOM     10  C   UNL     1      -1.773   0.084  -7.786  1.00  0.00     0.027 C 
BRANCH  10  11
ATOM     11  C   UNL     1      -2.586   1.260  -7.317  1.00  0.00    -0.031 C 
ATOM     12  C   UNL     1      -2.430   2.481  -7.851  1.00  0.00    -0.031 C 
BRANCH  12  13
ATOM     13  C   UNL     1      -3.245   3.657  -7.384  1.00  0.00     0.027 C 
BRANCH  13  14
ATOM     14  C   UNL     1      -4.337   4.024  -8.396  1.00  0.00     0.004 C 
BRANCH  14  15
ATOM     15  C   UNL     1      -5.745   3.716  -7.867  1.00  0.00     0.000 C 
BRANCH  15  16
ATOM     16  C   UNL     1      -5.694   3.261  -6.401  1.00  0.00    -0.000 C 
BRANCH  16  17
ATOM     17  C   UNL     1      -6.237   1.837  -6.205  1.00  0.00    -0.003 C 
ATOM     18  C   UNL     1      -5.558   1.098  -5.052  1.00  0.00     0.004 C 
ENDBRANCH  16  17
ENDBRANCH  15  16
ENDBRANCH  14  15
ENDBRANCH  13  14
ENDBRANCH  12  13
ENDBRANCH  10  11
ENDBRANCH   1  10
TORSDOF 13
ENDMDL
MODEL 2
REMARK VINA RESULT:     0.003      9.230     12.043
REMARK INTER + INTRA:          -2.954
REMARK INTER:                   0.000
REMARK INTRA:                  -2.954
REMARK UNBOUND:                -2.959
REMARK SMILES CCCCCCC=CCCCCCCCC(=O)[O-]
REMARK SMILES IDX 10 1 11 2 12 3 13 4 14 5 15 6 16 7 17 8 18 9 9 10 8 11 7 12
REMARK SMILES IDX 6 13 5 14 4 15 3 16 2 17 1 18
REMARK H PARENT
REMARK Flexibility Score: inf
ROOT
ATOM      1  C   UNL     1      -3.071  -7.491  -7.911  1.00  0.00     0.004 C 
ENDROOT
BRANCH   1   2
ATOM      2  C   UNL     1      -1.572  -7.825  -7.948  1.00  0.00     0.000 C 
BRANCH   2   3
ATOM      3  C   UNL     1      -0.964  -7.477  -9.312  1.00  0.00     0.000 C 
BRANCH   3   4
ATOM      4  C   UNL     1      -0.779  -8.735 -10.169  1.00  0.00     0.000 C 
BRANCH   4   5
ATOM      5  C   UNL     1      -1.484  -8.585 -11.526  1.00  0.00     0.006 C 
BRANCH   5   6
ATOM      6  C   UNL     1      -2.760  -9.433 -11.613  1.00  0.00     0.053 C 
BRANCH   6   7
ATOM      7  C   UNL     1      -3.984  -8.627 -11.296  1.00  0.00     0.041 C 
ATOM      8  O   UNL     1      -5.057  -9.203 -10.981  1.00  0.00    -0.550 OA
ATOM      9  O   UNL     1      -3.945  -7.242 -11.382  1.00  0.00    -0.550 OA
ENDBRANCH   6   7
ENDBRANCH   5   6
ENDBRANCH   4   5
ENDBRANCH   3   4
ENDBRANCH   2   3
ENDBRANCH   1   2
BRANCH   1  10
ATOM     10  C   UNL     1      -3.928  -8.717  -7.574  1.00  0.00     0.027 C 
BRANCH  10  11
ATOM     11  C   UNL     1      -3.110  -9.981  -7.577  1.00  0.00    -0.031 C 
ATOM     12  C   UNL     1      -3.432 -11.026  -8.353  1.00  0.00    -0.031 C 
BRANCH  12  13
ATOM     13  C   UNL     1      -2.612 -12.288  -8.358  1.00  0.00     0.027 C 
BRANCH  13  14
ATOM     14  C   UNL     1      -1.757 -12.400  -9.626  1.00  0.00     0.004 C 
BRANCH  14  15
ATOM     15  C   UNL     1      -0.257 -12.262  -9.327  1.00  0.00     0.000 C 
BRANCH  15  16
ATOM     16  C   UNL     1      -0.004 -12.169  -7.815  1.00  0.00    -0.000 C 
BRANCH  16  17
ATOM     17  C   UNL     1       0.648 -10.839  -7.406  1.00  0.00    -0.003 C 
ATOM     18  C   UNL     1       0.258 -10.398  -5.995  1.00  0.00     0.004 C 
ENDBRANCH  16  17
ENDBRANCH  15  16
ENDBRANCH  14  15
ENDBRANCH  13  14
ENDBRANCH  12  13
ENDBRANCH  10  11
ENDBRANCH   1  10
TORSDOF 13
ENDMDL
MODEL 3
REMARK VINA RESULT:     0.004      6.328      9.367
REMARK INTER + INTRA:          -2.951
REMARK INTER:                   0.000
REMARK INTRA:                  -2.951
REMARK UNBOUND:                -2.959
REMARK SMILES CCCCCCC=CCCCCCCCC(=O)[O-]
REMARK SMILES IDX 10 1 11 2 12 3 13 4 14 5 15 6 16 7 17 8 18 9 9 10 8 11 7 12
REMARK SMILES IDX 6 13 5 14 4 15 3 16 2 17 1 18
REMARK H PARENT
REMARK Flexibility Score: inf
ROOT
ATOM      1  C   UNL     1       2.720  -1.557 -11.753  1.00  0.00     0.004 C 
ENDROOT
BRANCH   1   2
ATOM      2  C   UNL     1       2.918  -2.753 -12.696  1.00  0.00     0.000 C 
BRANCH   2   3
ATOM      3  C   UNL     1       1.840  -2.779 -13.786  1.00  0.00     0.000 C 
BRANCH   3   4
ATOM      4  C   UNL     1       1.068  -4.104 -13.766  1.00  0.00     0.000 C 
BRANCH   4   5
ATOM      5  C   UNL     1      -0.239  -3.967 -12.971  1.00  0.00     0.006 C 
BRANCH   5   6
ATOM      6  C   UNL     1      -0.788  -2.535 -12.998  1.00  0.00     0.053 C 
BRANCH   6   7
ATOM      7  C   UNL     1      -1.189  -2.069 -11.631  1.00  0.00     0.041 C 
ATOM      8  O   UNL     1      -0.755  -0.976 -11.182  1.00  0.00    -0.550 OA
ATOM      9  O   UNL     1      -2.015  -2.859 -10.842  1.00  0.00    -0.550 OA
ENDBRANCH   6   7
ENDBRANCH   5   6
ENDBRANCH   4   5
ENDBRANCH   3   4
ENDBRANCH   2   3
ENDBRANCH   1   2
BRANCH   1  10
ATOM     10  C   UNL     1       2.552  -1.995 -10.292  1.00  0.00     0.027 C 
BRANCH  10  11
ATOM     11  C   UNL     1       2.229  -3.462 -10.189  1.00  0.00    -0.031 C 
ATOM     12  C   UNL     1       1.152  -3.899  -9.519  1.00  0.00    -0.031 C 
BRANCH  12  13
ATOM     13  C   UNL     1       0.827  -5.365  -9.418  1.00  0.00     0.027 C 
BRANCH  13  14
ATOM     14  C   UNL     1       1.884  -6.228 -10.119  1.00  0.00     0.004 C 
BRANCH  14  15
ATOM     15  C   UNL     1       1.307  -6.991 -11.320  1.00  0.00     0.000 C 
BRANCH  15  16
ATOM     16  C   UNL     1       2.389  -7.249 -12.379  1.00  0.00    -0.000 C 
BRANCH  16  17
ATOM     17  C   UNL     1       3.633  -6.369 -12.179  1.00  0.00    -0.003 C 
ATOM     18  C   UNL     1       4.360  -6.066 -13.489  1.00  0.00     0.004 C 
ENDBRANCH  16  17
ENDBRANCH  15  16
ENDBRANCH  14  15
ENDBRANCH  13  14
ENDBRANCH  12  13
ENDBRANCH  10  11
ENDBRANCH   1  10
TORSDOF 13
ENDMDL
MODEL 4
REMARK VINA RESULT:     0.005      2.589      4.327
REMARK INTER + INTRA:          -2.950
REMARK INTER:                   0.000
REMARK INTRA:                  -2.950
REMARK UNBOUND:                -2.959
REMARK SMILES CCCCCCC=CCCCCCCCC(=O)[O-]
REMARK SMILES IDX 10 1 11 2 12 3 13 4 14 5 15 6 16 7 17 8 18 9 9 10 8 11 7 12
REMARK SMILES IDX 6 13 5 14 4 15 3 16 2 17 1 18
REMARK H PARENT
REMARK Flexibility Score: inf
ROOT
ATOM      1  C   UNL     1      -1.806  -3.347  -9.993  1.00  0.00     0.004 C 
ENDROOT
BRANCH   1   2
ATOM      2  C   UNL     1      -3.178  -3.088 -10.632  1.00  0.00     0.000 C 
BRANCH   2   3
ATOM      3  C   UNL     1      -3.155  -1.816 -11.488  1.00  0.00     0.000 C 
BRANCH   3   4
ATOM      4  C   UNL     1      -3.922  -0.677 -10.804  1.00  0.00     0.000 C 
BRANCH   4   5
ATOM      5  C   UNL     1      -2.984   0.490 -10.461  1.00  0.00     0.006 C 
BRANCH   5   6
ATOM      6  C   UNL     1      -2.629   0.532  -8.970  1.00  0.00     0.053 C 
BRANCH   6   7
ATOM      7  C   UNL     1      -1.209   0.122  -8.725  1.00  0.00     0.041 C 
ATOM      8  O   UNL     1      -0.421  -0.044  -9.693  1.00  0.00    -0.550 OA
ATOM      9  O   UNL     1      -0.766  -0.109  -7.430  1.00  0.00    -0.550 OA
ENDBRANCH   6   7
ENDBRANCH   5   6
ENDBRANCH   4   5
ENDBRANCH   3   4
ENDBRANCH   2   3
ENDBRANCH   1   2
BRANCH   1  10
ATOM     10  C   UNL     1      -1.892  -3.453  -8.465  1.00  0.00     0.027 C 
BRANCH  10  11
ATOM     11  C   UNL     1      -3.283  -3.163  -7.968  1.00  0.00    -0.031 C 
ATOM     12  C   UNL     1      -3.498  -2.403  -6.884  1.00  0.00    -0.031 C 
BRANCH  12  13
ATOM     13  C   UNL     1      -4.889  -2.110  -6.388  1.00  0.00     0.027 C 
BRANCH  13  14
ATOM     14  C   UNL     1      -5.335  -0.692  -6.766  1.00  0.00     0.004 C 
BRANCH  14  15
ATOM     15  C   UNL     1      -6.241  -0.680  -8.005  1.00  0.00     0.000 C 
BRANCH  15  16
ATOM     16  C   UNL     1      -6.990  -2.013  -8.152  1.00  0.00    -0.000 C 
BRANCH  16  17
ATOM     17  C   UNL     1      -6.778  -2.661  -9.529  1.00  0.00    -0.003 C 
ATOM     18  C   UNL     1      -6.548  -4.170  -9.444  1.00  0.00     0.004 C 
ENDBRANCH  16  17
ENDBRANCH  15  16
ENDBRANCH  14  15
ENDBRANCH  13  14
ENDBRANCH  12  13
ENDBRANCH  10  11
ENDBRANCH   1  10
TORSDOF 13
ENDMDL
MODEL 5
REMARK VINA RESULT:     0.006      6.044      8.700
REMARK INTER + INTRA:          -2.947
REMARK INTER:                   0.000
REMARK INTRA:                  -2.947
REMARK UNBOUND:                -2.959
REMARK SMILES CCCCCCC=CCCCCCCCC(=O)[O-]
REMARK SMILES IDX 10 1 11 2 12 3 13 4 14 5 15 6 16 7 17 8 18 9 9 10 8 11 7 12
REMARK SMILES IDX 6 13 5 14 4 15 3 16 2 17 1 18
REMARK H PARENT
REMARK Flexibility Score: inf
ROOT
ATOM      1  C   UNL     1      -2.212  -3.972  -9.653  1.00  0.00     0.004 C 
ENDROOT
BRANCH   1   2
ATOM      2  C   UNL     1      -2.167  -5.504  -9.753  1.00  0.00     0.000 C 
BRANCH   2   3
ATOM      3  C   UNL     1      -0.722  -6.016  -9.719  1.00  0.00     0.000 C 
BRANCH   3   4
ATOM      4  C   UNL     1      -0.292  -6.542 -11.093  1.00  0.00     0.000 C 
BRANCH   4   5
ATOM      5  C   UNL     1       0.918  -5.762 -11.627  1.00  0.00     0.006 C 
BRANCH   5   6
ATOM      6  C   UNL     1       0.517  -4.710 -12.669  1.00  0.00     0.053 C 
BRANCH   6   7
ATOM      7  C   UNL     1       0.538  -3.325 -12.095  1.00  0.00     0.041 C 
ATOM      8  O   UNL     1       1.017  -3.121 -10.949  1.00  0.00    -0.550 OA
ATOM      9  O   UNL     1      -0.001  -2.267 -12.814  1.00  0.00    -0.550 OA
ENDBRANCH   6   7
ENDBRANCH   5   6
ENDBRANCH   4   5
ENDBRANCH   3   4
ENDBRANCH   2   3
ENDBRANCH   1   2
BRANCH   1  10
ATOM     10  C   UNL     1      -2.961  -3.338 -10.832  1.00  0.00     0.027 C 
BRANCH  10  11
ATOM     11  C   UNL     1      -3.269  -4.352 -11.901  1.00  0.00    -0.031 C 
ATOM     12  C   UNL     1      -3.033  -4.102 -13.197  1.00  0.00    -0.031 C 
BRANCH  12  13
ATOM     13  C   UNL     1      -3.338  -5.118 -14.266  1.00  0.00     0.027 C 
BRANCH  13  14
ATOM     14  C   UNL     1      -2.586  -6.433 -14.026  1.00  0.00     0.004 C 
BRANCH  14  15
ATOM     15  C   UNL     1      -3.540  -7.600 -13.731  1.00  0.00     0.000 C 
BRANCH  15  16
ATOM     16  C   UNL     1      -3.372  -8.096 -12.287  1.00  0.00    -0.000 C 
BRANCH  16  17
ATOM     17  C   UNL     1      -4.600  -7.798 -11.413  1.00  0.00    -0.003 C 
ATOM     18  C   UNL     1      -5.754  -7.183 -12.205  1.00  0.00     0.004 C 
ENDBRANCH  16  17
ENDBRANCH  15  16
ENDBRANCH  14  15
ENDBRANCH  13  14
ENDBRANCH  12  13
ENDBRANCH  10  11
ENDBRANCH   1  10
TORSDOF 13
ENDMDL
MODEL 6
REMARK VINA RESULT:     0.008      6.170      8.049
REMARK INTER + INTRA:          -2.944
REMARK INTER:                   0.000
REMARK INTRA:                  -2.944
REMARK UNBOUND:                -2.959
REMARK SMILES CCCCCCC=CCCCCCCCC(=O)[O-]
REMARK SMILES IDX 10 1 11 2 12 3 13 4 14 5 15 6 16 7 17 8 18 9 9 10 8 11 7 12
REMARK SMILES IDX 6 13 5 14 4 15 3 16 2 17 1 18
REMARK H PARENT
REMARK Flexibility Score: inf
ROOT
ATOM      1  C   UNL     1      -0.310  -6.408  -8.673  1.00  0.00     0.004 C 
ENDROOT
BRANCH   1   2
ATOM      2  C   UNL     1      -0.251  -4.936  -9.107  1.00  0.00     0.000 C 
BRANCH   2   3
ATOM      3  C   UNL     1      -1.656  -4.325  -9.172  1.00  0.00     0.000 C 
BRANCH   3   4
ATOM      4  C   UNL     1      -1.858  -3.290  -8.058  1.00  0.00     0.000 C 
BRANCH   4   5
ATOM      5  C   UNL     1      -2.939  -3.752  -7.069  1.00  0.00     0.006 C 
BRANCH   5   6
ATOM      6  C   UNL     1      -2.338  -4.349  -5.790  1.00  0.00     0.053 C 
BRANCH   6   7
ATOM      7  C   UNL     1      -2.548  -5.831  -5.718  1.00  0.00     0.041 C 
ATOM      8  O   UNL     1      -1.988  -6.508  -4.816  1.00  0.00    -0.550 OA
ATOM      9  O   UNL     1      -3.337  -6.468  -6.667  1.00  0.00    -0.550 OA
ENDBRANCH   6   7
ENDBRANCH   5   6
ENDBRANCH   4   5
ENDBRANCH   3   4
ENDBRANCH   2   3
ENDBRANCH   1   2
BRANCH   1  10
ATOM     10  C   UNL     1       0.555  -6.680  -7.435  1.00  0.00     0.027 C 
BRANCH  10  11
ATOM     11  C   UNL     1       1.199  -5.420  -6.923  1.00  0.00    -0.031 C 
ATOM     12  C   UNL     1       1.268  -5.148  -5.611  1.00  0.00    -0.031 C 
BRANCH  12  13
ATOM     13  C   UNL     1       1.914  -3.889  -5.098  1.00  0.00     0.027 C 
BRANCH  13  14
ATOM     14  C   UNL     1       0.869  -2.862  -4.646  1.00  0.00     0.004 C 
BRANCH  14  15
ATOM     15  C   UNL     1       0.529  -1.854  -5.753  1.00  0.00     0.000 C 
BRANCH  15  16
ATOM     16  C   UNL     1       1.765  -1.542  -6.610  1.00  0.00    -0.000 C 
BRANCH  16  17
ATOM     17  C   UNL     1       1.510  -1.750  -8.111  1.00  0.00    -0.003 C 
ATOM     18  C   UNL     1       2.622  -2.544  -8.796  1.00  0.00     0.004 C 
ENDBRANCH  16  17
ENDBRANCH  15  16
ENDBRANCH  14  15
ENDBRANCH  13  14
ENDBRANCH  12  13
ENDBRANCH  10  11
ENDBRANCH   1  10
TORSDOF 13
ENDMDL
MODEL 7
REMARK VINA RESULT:     0.011      4.657      7.414
REMARK INTER + INTRA:          -2.939
REMARK INTER:                   0.000
REMARK INTRA:                  -2.939
REMARK UNBOUND:                -2.959
REMARK SMILES CCCCCCC=CCCCCCCCC(=O)[O-]
REMARK SMILES IDX 10 1 11 2 12 3 13 4 14 5 15 6 16 7 17 8 18 9 9 10 8 11 7 12
REMARK SMILES IDX 6 13 5 14 4 15 3 16 2 17 1 18
REMARK H PARENT
REMARK Flexibility Score: inf
ROOT
ATOM      1  C   UNL     1      -0.120  -3.332 -11.988  1.00  0.00     0.004 C 
ENDROOT
BRANCH   1   2
ATOM      2  C   UNL     1      -0.397  -1.892 -12.444  1.00  0.00     0.000 C 
BRANCH   2   3
ATOM      3  C   UNL     1      -1.548  -1.273 -11.642  1.00  0.00     0.000 C 
BRANCH   3   4
ATOM      4  C   UNL     1      -1.032  -0.194 -10.682  1.00  0.00     0.000 C 
BRANCH   4   5
ATOM      5  C   UNL     1      -1.365  -0.549  -9.225  1.00  0.00     0.006 C 
BRANCH   5   6
ATOM      6  C   UNL     1      -0.158  -1.131  -8.478  1.00  0.00     0.053 C 
BRANCH   6   7
ATOM      7  C   UNL     1      -0.266  -2.618  -8.323  1.00  0.00     0.041 C 
ATOM      8  O   UNL     1      -1.340  -3.209  -8.609  1.00  0.00    -0.550 OA
ATOM      9  O   UNL     1       0.810  -3.344  -7.831  1.00  0.00    -0.550 OA
ENDBRANCH   6   7
ENDBRANCH   5   6
ENDBRANCH   4   5
ENDBRANCH   3   4
ENDBRANCH   2   3
ENDBRANCH   1   2
BRANCH   1  10
ATOM     10  C   UNL     1       1.334  -3.526 -11.539  1.00  0.00     0.027 C 
BRANCH  10  11
ATOM     11  C   UNL     1       2.057  -2.212 -11.425  1.00  0.00    -0.031 C 
ATOM     12  C   UNL     1       2.861  -1.939 -10.387  1.00  0.00    -0.031 C 
BRANCH  12  13
ATOM     13  C   UNL     1       3.587  -0.625 -10.273  1.00  0.00     0.027 C 
BRANCH  13  14
ATOM     14  C   UNL     1       2.623   0.564 -10.377  1.00  0.00     0.004 C 
BRANCH  14  15
ATOM     15  C   UNL     1       2.882   1.412 -11.631  1.00  0.00     0.000 C 
BRANCH  15  16
ATOM     16  C   UNL     1       1.682   1.360 -12.588  1.00  0.00    -0.000 C 
BRANCH  16  17
ATOM     17  C   UNL     1       1.991   0.588 -13.880  1.00  0.00    -0.003 C 
ATOM     18  C   UNL     1       3.458   0.172 -13.985  1.00  0.00     0.004 C 
ENDBRANCH  16  17
ENDBRANCH  15  16
ENDBRANCH  14  15
ENDBRANCH  13  14
ENDBRANCH  12  13
ENDBRANCH  10  11
ENDBRANCH   1  10
TORSDOF 13
ENDMDL
MODEL 8
REMARK VINA RESULT:     0.012      9.272     11.855
REMARK INTER + INTRA:          -2.938
REMARK INTER:                   0.000
REMARK INTRA:                  -2.938
REMARK UNBOUND:                -2.959
REMARK SMILES CCCCCCC=CCCCCCCCC(=O)[O-]
REMARK SMILES IDX 10 1 11 2 12 3 13 4 14 5 15 6 16 7 17 8 18 9 9 10 8 11 7 12
REMARK SMILES IDX 6 13 5 14 4 15 3 16 2 17 1 18
REMARK H PARENT
REMARK Flexibility Score: inf
ROOT
ATOM      1  C   UNL     1      -1.010  -4.709  -3.873  1.00  0.00     0.004 C 
ENDROOT
BRANCH   1   2
ATOM      2  C   UNL     1       0.112  -4.101  -3.018  1.00  0.00     0.000 C 
BRANCH   2   3
ATOM      3  C   UNL     1      -0.464  -3.225  -1.898  1.00  0.00     0.000 C 
BRANCH   3   4
ATOM      4  C   UNL     1      -0.291  -3.898  -0.531  1.00  0.00     0.000 C 
BRANCH   4   5
ATOM      5  C   UNL     1      -1.651  -4.120   0.149  1.00  0.00     0.006 C 
BRANCH   5   6
ATOM      6  C   UNL     1      -2.121  -5.576   0.043  1.00  0.00     0.053 C 
BRANCH   6   7
ATOM      7  C   UNL     1      -3.192  -5.739  -0.994  1.00  0.00     0.041 C 
ATOM      8  O   UNL     1      -3.565  -6.888  -1.345  1.00  0.00    -0.550 OA
ATOM      9  O   UNL     1      -3.753  -4.619  -1.594  1.00  0.00    -0.550 OA
ENDBRANCH   6   7
ENDBRANCH   5   6
ENDBRANCH   4   5
ENDBRANCH   3   4
ENDBRANCH   2   3
ENDBRANCH   1   2
BRANCH   1  10
ATOM     10  C   UNL     1      -0.934  -6.240  -3.922  1.00  0.00     0.027 C 
BRANCH  10  11
ATOM     11  C   UNL     1       0.078  -6.774  -2.944  1.00  0.00    -0.031 C 
ATOM     12  C   UNL     1      -0.209  -7.795  -2.123  1.00  0.00    -0.031 C 
BRANCH  12  13
ATOM     13  C   UNL     1       0.804  -8.332  -1.147  1.00  0.00     0.027 C 
BRANCH  13  14
ATOM     14  C   UNL     1       1.293  -7.242  -0.184  1.00  0.00     0.004 C 
BRANCH  14  15
ATOM     15  C   UNL     1       2.778  -6.911  -0.391  1.00  0.00     0.000 C 
BRANCH  15  16
ATOM     16  C   UNL     1       2.953  -5.481  -0.924  1.00  0.00    -0.000 C 
BRANCH  16  17
ATOM     17  C   UNL     1       3.543  -5.447  -2.342  1.00  0.00    -0.003 C 
ATOM     18  C   UNL     1       3.818  -6.843  -2.902  1.00  0.00     0.004 C 
ENDBRANCH  16  17
ENDBRANCH  15  16
ENDBRANCH  14  15
ENDBRANCH  13  14
ENDBRANCH  12  13
ENDBRANCH  10  11
ENDBRANCH   1  10
TORSDOF 13
ENDMDL
MODEL 9
REMARK VINA RESULT:     0.012      9.832     12.058
REMARK INTER + INTRA:          -2.937
REMARK INTER:                   0.000
REMARK INTRA:                  -2.937
REMARK UNBOUND:                -2.959
REMARK SMILES CCCCCCC=CCCCCCCCC(=O)[O-]
REMARK SMILES IDX 10 1 11 2 12 3 13 4 14 5 15 6 16 7 17 8 18 9 9 10 8 11 7 12
REMARK SMILES IDX 6 13 5 14 4 15 3 16 2 17 1 18
REMARK H PARENT
REMARK Flexibility Score: inf
ROOT
ATOM      1  C   UNL     1      -4.616  -4.735  -1.053  1.00  0.00     0.004 C 
ENDROOT
BRANCH   1   2
ATOM      2  C   UNL     1      -4.410  -5.275  -2.476  1.00  0.00     0.000 C 
BRANCH   2   3
ATOM      3  C   UNL     1      -5.568  -6.191  -2.890  1.00  0.00     0.000 C 
BRANCH   3   4
ATOM      4  C   UNL     1      -5.124  -7.659  -2.922  1.00  0.00     0.000 C 
BRANCH   4   5
ATOM      5  C   UNL     1      -5.951  -8.505  -1.942  1.00  0.00     0.006 C 
BRANCH   5   6
ATOM      6  C   UNL     1      -5.181  -8.816  -0.652  1.00  0.00     0.053 C 
BRANCH   6   7
ATOM      7  C   UNL     1      -5.650  -7.968   0.492  1.00  0.00     0.041 C 
ATOM      8  O   UNL     1      -5.023  -7.975   1.584  1.00  0.00    -0.550 OA
ATOM      9  O   UNL     1      -6.797  -7.197   0.360  1.00  0.00    -0.550 OA
ENDBRANCH   6   7
ENDBRANCH   5   6
ENDBRANCH   4   5
ENDBRANCH   3   4
ENDBRANCH   2   3
ENDBRANCH   1   2
BRANCH   1  10
ATOM     10  C   UNL     1      -3.427  -5.049  -0.137  1.00  0.00     0.027 C 
BRANCH  10  11
ATOM     11  C   UNL     1      -2.471  -6.016  -0.785  1.00  0.00    -0.031 C 
ATOM     12  C   UNL     1      -2.014  -7.095  -0.133  1.00  0.00    -0.031 C 
BRANCH  12  13
ATOM     13  C   UNL     1      -1.061  -8.064  -0.781  1.00  0.00     0.027 C 
BRANCH  13  14
ATOM     14  C   UNL     1      -1.655  -8.671  -2.058  1.00  0.00     0.004 C 
BRANCH  14  15
ATOM     15  C   UNL     1      -0.874  -8.258  -3.314  1.00  0.00     0.000 C 
BRANCH  15  16
ATOM     16  C   UNL     1      -1.729  -7.361  -4.222  1.00  0.00    -0.000 C 
BRANCH  16  17
ATOM     17  C   UNL     1      -1.205  -5.918  -4.287  1.00  0.00    -0.003 C 
ATOM     18  C   UNL     1       0.110  -5.731  -3.532  1.00  0.00     0.004 C 
ENDBRANCH  16  17
ENDBRANCH  15  16
ENDBRANCH  14  15
ENDBRANCH  13  14
ENDBRANCH  12  13
ENDBRANCH  10  11
ENDBRANCH   1  10
TORSDOF 13
ENDMDL
