MODEL 1
REMARK VINA RESULT:    -3.642      0.000      0.000
REMARK INTER + INTRA:          -9.744
REMARK INTER:                  -6.836
REMARK INTRA:                  -2.908
REMARK UNBOUND:                -2.908
REMARK SMILES CCCCCCCCC=CCCCCCCCC(=O)[O-]
REMARK SMILES IDX 10 1 9 2 11 3 12 4 13 5 14 6 15 7 16 8 17 9 18 10 19 11
REMARK SMILES IDX 20 12 8 13 7 14 6 15 5 16 4 17 3 18 2 19 1 20
REMARK H PARENT
REMARK Flexibility Score: inf
ROOT
ATOM      1  C   UNL     1      53.978 -40.376 -23.583  1.00  0.00    -0.031 C 
ATOM      2  C   UNL     1      54.238 -39.333 -22.780  1.00  0.00    -0.031 C 
ENDROOT
BRANCH   1   3
ATOM      3  C   UNL     1      52.592 -40.942 -23.714  1.00  0.00     0.027 C 
BRANCH   3   4
ATOM      4  C   UNL     1      52.268 -41.274 -25.179  1.00  0.00     0.004 C 
BRANCH   4   5
ATOM      5  C   UNL     1      53.405 -42.037 -25.878  1.00  0.00     0.000 C 
BRANCH   5   6
ATOM      6  C   UNL     1      53.232 -42.089 -27.405  1.00  0.00     0.000 C 
BRANCH   6   7
ATOM      7  C   UNL     1      52.069 -41.196 -27.891  1.00  0.00     0.000 C 
BRANCH   7   8
ATOM      8  C   UNL     1      52.436 -40.311 -29.097  1.00  0.00     0.006 C 
BRANCH   8   9
ATOM      9  C   UNL     1      52.136 -40.956 -30.458  1.00  0.00     0.053 C 
BRANCH   9  10
ATOM     10  C   UNL     1      53.371 -41.089 -31.296  1.00  0.00     0.041 C 
ATOM     11  O   UNL     1      54.469 -41.395 -30.760  1.00  0.00    -0.550 OA
ATOM     12  O   UNL     1      53.316 -40.860 -32.665  1.00  0.00    -0.550 OA
ENDBRANCH   9  10
ENDBRANCH   8   9
ENDBRANCH   7   8
ENDBRANCH   6   7
ENDBRANCH   5   6
ENDBRANCH   4   5
ENDBRANCH   3   4
ENDBRANCH   1   3
BRANCH   2  13
ATOM     13  C   UNL     1      55.629 -38.781 -22.633  1.00  0.00     0.027 C 
BRANCH  13  14
ATOM     14  C   UNL     1      56.601 -39.465 -23.607  1.00  0.00     0.004 C 
BRANCH  14  15
ATOM     15  C   UNL     1      57.420 -38.458 -24.429  1.00  0.00     0.000 C 
BRANCH  15  16
ATOM     16  C   UNL     1      57.514 -38.844 -25.912  1.00  0.00     0.000 C 
BRANCH  16  17
ATOM     17  C   UNL     1      56.253 -39.588 -26.365  1.00  0.00    -0.000 C 
BRANCH  17  18
ATOM     18  C   UNL     1      55.382 -38.701 -27.263  1.00  0.00    -0.000 C 
BRANCH  18  19
ATOM     19  C   UNL     1      54.068 -38.333 -26.563  1.00  0.00    -0.003 C 
ATOM     20  C   UNL     1      54.200 -37.021 -25.796  1.00  0.00     0.004 C 
ENDBRANCH  18  19
ENDBRANCH  17  18
ENDBRANCH  16  17
ENDBRANCH  15  16
ENDBRANCH  14  15
ENDBRANCH  13  14
ENDBRANCH   2  13
TORSDOF 15
ENDMDL
MODEL 2
REMARK VINA RESULT:    -3.594      2.613      5.624
REMARK INTER + INTRA:          -9.653
REMARK INTER:                  -7.206
REMARK INTRA:                  -2.448
REMARK UNBOUND:                -2.908
REMARK SMILES CCCCCCCCC=CCCCCCCCC(=O)[O-]
REMARK SMILES IDX 10 1 9 2 11 3 12 4 13 5 14 6 15 7 16 8 17 9 18 10 19 11
REMARK SMILES IDX 20 12 8 13 7 14 6 15 5 16 4 17 3 18 2 19 1 20
REMARK H PARENT
REMARK Flexibility Score: inf
ROOT
ATOM      1  C   UNL     1      51.658 -42.017 -23.946  1.00  0.00    -0.031 C 
ATOM      2  C   UNL     1      50.735 -42.917 -24.315  1.00  0.00    -0.031 C 
ENDROOT
BRANCH   1   3
ATOM      3  C   UNL     1      51.420 -41.067 -22.805  1.00  0.00     0.027 C 
BRANCH   3   4
ATOM      4  C   UNL     1      52.652 -40.185 -22.555  1.00  0.00     0.004 C 
BRANCH   4   5
ATOM      5  C   UNL     1      53.613 -40.157 -23.755  1.00  0.00     0.000 C 
BRANCH   5   6
ATOM      6  C   UNL     1      55.086 -40.029 -23.332  1.00  0.00     0.000 C 
BRANCH   6   7
ATOM      7  C   UNL     1      56.027 -40.847 -24.244  1.00  0.00     0.000 C 
BRANCH   7   8
ATOM      8  C   UNL     1      55.283 -41.672 -25.312  1.00  0.00     0.006 C 
BRANCH   8   9
ATOM      9  C   UNL     1      55.996 -42.975 -25.702  1.00  0.00     0.053 C 
BRANCH   9  10
ATOM     10  C   UNL     1      56.250 -43.052 -27.177  1.00  0.00     0.041 C 
ATOM     11  O   UNL     1      56.931 -43.999 -27.653  1.00  0.00    -0.550 OA
ATOM     12  O   UNL     1      55.751 -42.071 -28.025  1.00  0.00    -0.550 OA
ENDBRANCH   9  10
ENDBRANCH   8   9
ENDBRANCH   7   8
ENDBRANCH   6   7
ENDBRANCH   5   6
ENDBRANCH   4   5
ENDBRANCH   3   4
ENDBRANCH   1   3
BRANCH   2  13
ATOM     13  C   UNL     1      50.965 -43.852 -25.470  1.00  0.00     0.027 C 
BRANCH  13  14
ATOM     14  C   UNL     1      52.373 -43.666 -26.058  1.00  0.00     0.004 C 
BRANCH  14  15
ATOM     15  C   UNL     1      52.347 -43.095 -27.485  1.00  0.00     0.000 C 
BRANCH  15  16
ATOM     16  C   UNL     1      52.239 -41.563 -27.505  1.00  0.00     0.000 C 
BRANCH  16  17
ATOM     17  C   UNL     1      51.140 -41.105 -28.471  1.00  0.00    -0.000 C 
BRANCH  17  18
ATOM     18  C   UNL     1      49.755 -41.207 -27.819  1.00  0.00    -0.000 C 
BRANCH  18  19
ATOM     19  C   UNL     1      48.841 -42.149 -28.612  1.00  0.00    -0.003 C 
ATOM     20  C   UNL     1      49.437 -42.473 -29.979  1.00  0.00     0.004 C 
ENDBRANCH  18  19
ENDBRANCH  17  18
ENDBRANCH  16  17
ENDBRANCH  15  16
ENDBRANCH  14  15
ENDBRANCH  13  14
ENDBRANCH   2  13
TORSDOF 15
ENDMDL
MODEL 3
REMARK VINA RESULT:    -3.580      3.603      6.888
REMARK INTER + INTRA:          -9.627
REMARK INTER:                  -7.338
REMARK INTRA:                  -2.289
REMARK UNBOUND:                -2.908
REMARK SMILES CCCCCCCCC=CCCCCCCCC(=O)[O-]
REMARK SMILES IDX 10 1 9 2 11 3 12 4 13 5 14 6 15 7 16 8 17 9 18 10 19 11
REMARK SMILES IDX 20 12 8 13 7 14 6 15 5 16 4 17 3 18 2 19 1 20
REMARK H PARENT
REMARK Flexibility Score: inf
ROOT
ATOM      1  C   UNL     1      50.392 -42.572 -25.581  1.00  0.00    -0.031 C 
ATOM      2  C   UNL     1      50.218 -41.887 -26.721  1.00  0.00    -0.031 C 
ENDROOT
BRANCH   1   3
ATOM      3  C   UNL     1      51.646 -43.359 -25.319  1.00  0.00     0.027 C 
BRANCH   3   4
ATOM      4  C   UNL     1      52.182 -43.992 -26.612  1.00  0.00     0.004 C 
BRANCH   4   5
ATOM      5  C   UNL     1      53.678 -43.715 -26.830  1.00  0.00     0.000 C 
BRANCH   5   6
ATOM      6  C   UNL     1      54.150 -42.428 -26.133  1.00  0.00     0.000 C 
BRANCH   6   7
ATOM      7  C   UNL     1      55.642 -42.494 -25.736  1.00  0.00     0.000 C 
BRANCH   7   8
ATOM      8  C   UNL     1      56.000 -41.590 -24.541  1.00  0.00     0.006 C 
BRANCH   8   9
ATOM      9  C   UNL     1      54.828 -40.741 -24.029  1.00  0.00     0.053 C 
BRANCH   9  10
ATOM     10  C   UNL     1      55.294 -39.615 -23.156  1.00  0.00     0.041 C 
ATOM     11  O   UNL     1      54.508 -39.096 -22.319  1.00  0.00    -0.550 OA
ATOM     12  O   UNL     1      56.588 -39.126 -23.278  1.00  0.00    -0.550 OA
ENDBRANCH   9  10
ENDBRANCH   8   9
ENDBRANCH   7   8
ENDBRANCH   6   7
ENDBRANCH   5   6
ENDBRANCH   4   5
ENDBRANCH   3   4
ENDBRANCH   1   3
BRANCH   2  13
ATOM     13  C   UNL     1      48.955 -41.117 -26.992  1.00  0.00     0.027 C 
BRANCH  13  14
ATOM     14  C   UNL     1      48.405 -41.434 -28.392  1.00  0.00     0.004 C 
BRANCH  14  15
ATOM     15  C   UNL     1      48.857 -42.810 -28.906  1.00  0.00     0.000 C 
BRANCH  15  16
ATOM     16  C   UNL     1      49.569 -42.728 -30.265  1.00  0.00     0.000 C 
BRANCH  16  17
ATOM     17  C   UNL     1      51.033 -43.165 -30.143  1.00  0.00    -0.000 C 
BRANCH  17  18
ATOM     18  C   UNL     1      51.976 -42.102 -30.722  1.00  0.00    -0.000 C 
BRANCH  18  19
ATOM     19  C   UNL     1      51.632 -40.709 -30.180  1.00  0.00    -0.003 C 
ATOM     20  C   UNL     1      52.531 -40.336 -29.005  1.00  0.00     0.004 C 
ENDBRANCH  18  19
ENDBRANCH  17  18
ENDBRANCH  16  17
ENDBRANCH  15  16
ENDBRANCH  14  15
ENDBRANCH  13  14
ENDBRANCH   2  13
TORSDOF 15
ENDMDL
MODEL 4
REMARK VINA RESULT:    -3.566      3.064      6.124
REMARK INTER + INTRA:          -9.600
REMARK INTER:                  -6.895
REMARK INTRA:                  -2.705
REMARK UNBOUND:                -2.908
REMARK SMILES CCCCCCCCC=CCCCCCCCC(=O)[O-]
REMARK SMILES IDX 10 1 9 2 11 3 12 4 13 5 14 6 15 7 16 8 17 9 18 10 19 11
REMARK SMILES IDX 20 12 8 13 7 14 6 15 5 16 4 17 3 18 2 19 1 20
REMARK H PARENT
REMARK Flexibility Score: inf
ROOT
ATOM      1  C   UNL     1      51.653 -41.805 -28.059  1.00  0.00    -0.031 C 
ATOM      2  C   UNL     1      50.883 -41.308 -29.038  1.00  0.00    -0.031 C 
ENDROOT
BRANCH   1   3
ATOM      3  C   UNL     1      51.058 -42.493 -26.861  1.00  0.00     0.027 C 
BRANCH   3   4
ATOM      4  C   UNL     1      52.146 -43.181 -26.023  1.00  0.00     0.004 C 
BRANCH   4   5
ATOM      5  C   UNL     1      53.374 -42.285 -25.796  1.00  0.00     0.000 C 
BRANCH   5   6
ATOM      6  C   UNL     1      54.693 -42.982 -26.166  1.00  0.00     0.000 C 
BRANCH   6   7
ATOM      7  C   UNL     1      55.907 -42.355 -25.443  1.00  0.00     0.000 C 
BRANCH   7   8
ATOM      8  C   UNL     1      55.525 -41.216 -24.479  1.00  0.00     0.006 C 
BRANCH   8   9
ATOM      9  C   UNL     1      56.703 -40.315 -24.080  1.00  0.00     0.053 C 
BRANCH   9  10
ATOM     10  C   UNL     1      56.243 -38.959 -23.636  1.00  0.00     0.041 C 
ATOM     11  O   UNL     1      56.291 -37.984 -24.431  1.00  0.00    -0.550 OA
ATOM     12  O   UNL     1      55.780 -38.768 -22.341  1.00  0.00    -0.550 OA
ENDBRANCH   9  10
ENDBRANCH   8   9
ENDBRANCH   7   8
ENDBRANCH   6   7
ENDBRANCH   5   6
ENDBRANCH   4   5
ENDBRANCH   3   4
ENDBRANCH   1   3
BRANCH   2  13
ATOM     13  C   UNL     1      51.478 -40.602 -30.225  1.00  0.00     0.027 C 
BRANCH  13  14
ATOM     14  C   UNL     1      52.376 -41.549 -31.038  1.00  0.00     0.004 C 
BRANCH  14  15
ATOM     15  C   UNL     1      53.865 -41.181 -30.938  1.00  0.00     0.000 C 
BRANCH  15  16
ATOM     16  C   UNL     1      54.679 -42.222 -30.156  1.00  0.00     0.000 C 
BRANCH  16  17
ATOM     17  C   UNL     1      55.743 -41.544 -29.285  1.00  0.00    -0.000 C 
BRANCH  17  18
ATOM     18  C   UNL     1      55.517 -40.028 -29.220  1.00  0.00    -0.000 C 
BRANCH  18  19
ATOM     19  C   UNL     1      55.281 -39.569 -27.775  1.00  0.00    -0.003 C 
ATOM     20  C   UNL     1      53.868 -39.023 -27.594  1.00  0.00     0.004 C 
ENDBRANCH  18  19
ENDBRANCH  17  18
ENDBRANCH  16  17
ENDBRANCH  15  16
ENDBRANCH  14  15
ENDBRANCH  13  14
ENDBRANCH   2  13
TORSDOF 15
ENDMDL
MODEL 5
REMARK VINA RESULT:    -3.535      2.829      5.843
REMARK INTER + INTRA:          -9.542
REMARK INTER:                  -6.597
REMARK INTRA:                  -2.946
REMARK UNBOUND:                -2.908
REMARK SMILES CCCCCCCCC=CCCCCCCCC(=O)[O-]
REMARK SMILES IDX 10 1 9 2 11 3 12 4 13 5 14 6 15 7 16 8 17 9 18 10 19 11
REMARK SMILES IDX 20 12 8 13 7 14 6 15 5 16 4 17 3 18 2 19 1 20
REMARK H PARENT
REMARK Flexibility Score: inf
ROOT
ATOM      1  C   UNL     1      50.421 -42.487 -26.899  1.00  0.00    -0.031 C 
ATOM      2  C   UNL     1      49.652 -41.511 -27.404  1.00  0.00    -0.031 C 
ENDROOT
BRANCH   1   3
ATOM      3  C   UNL     1      51.229 -42.284 -25.647  1.00  0.00     0.027 C 
BRANCH   3   4
ATOM      4  C   UNL     1      52.693 -42.698 -25.862  1.00  0.00     0.004 C 
BRANCH   4   5
ATOM      5  C   UNL     1      53.683 -41.579 -25.499  1.00  0.00     0.000 C 
BRANCH   5   6
ATOM      6  C   UNL     1      54.987 -41.655 -26.311  1.00  0.00     0.000 C 
BRANCH   6   7
ATOM      7  C   UNL     1      55.133 -43.002 -27.054  1.00  0.00     0.000 C 
BRANCH   7   8
ATOM      8  C   UNL     1      55.491 -42.846 -28.544  1.00  0.00     0.006 C 
BRANCH   8   9
ATOM      9  C   UNL     1      56.546 -41.765 -28.822  1.00  0.00     0.053 C 
BRANCH   9  10
ATOM     10  C   UNL     1      56.164 -40.898 -29.983  1.00  0.00     0.041 C 
ATOM     11  O   UNL     1      56.267 -39.645 -29.897  1.00  0.00    -0.550 OA
ATOM     12  O   UNL     1      55.678 -41.468 -31.152  1.00  0.00    -0.550 OA
ENDBRANCH   9  10
ENDBRANCH   8   9
ENDBRANCH   7   8
ENDBRANCH   6   7
ENDBRANCH   5   6
ENDBRANCH   4   5
ENDBRANCH   3   4
ENDBRANCH   1   3
BRANCH   2  13
ATOM     13  C   UNL     1      48.861 -41.707 -28.667  1.00  0.00     0.027 C 
BRANCH  13  14
ATOM     14  C   UNL     1      48.983 -43.153 -29.176  1.00  0.00     0.004 C 
BRANCH  14  15
ATOM     15  C   UNL     1      49.772 -43.252 -30.491  1.00  0.00     0.000 C 
BRANCH  15  16
ATOM     16  C   UNL     1      51.154 -43.896 -30.302  1.00  0.00     0.000 C 
BRANCH  16  17
ATOM     17  C   UNL     1      52.218 -42.833 -30.003  1.00  0.00    -0.000 C 
BRANCH  17  18
ATOM     18  C   UNL     1      52.131 -41.671 -31.000  1.00  0.00    -0.000 C 
BRANCH  18  19
ATOM     19  C   UNL     1      51.938 -40.335 -30.271  1.00  0.00    -0.003 C 
ATOM     20  C   UNL     1      52.704 -40.310 -28.952  1.00  0.00     0.004 C 
ENDBRANCH  18  19
ENDBRANCH  17  18
ENDBRANCH  16  17
ENDBRANCH  15  16
ENDBRANCH  14  15
ENDBRANCH  13  14
ENDBRANCH   2  13
TORSDOF 15
ENDMDL
MODEL 6
REMARK VINA RESULT:    -3.513      3.102      6.367
REMARK INTER + INTRA:          -9.502
REMARK INTER:                  -7.127
REMARK INTRA:                  -2.376
REMARK UNBOUND:                -2.908
REMARK SMILES CCCCCCCCC=CCCCCCCCC(=O)[O-]
REMARK SMILES IDX 10 1 9 2 11 3 12 4 13 5 14 6 15 7 16 8 17 9 18 10 19 11
REMARK SMILES IDX 20 12 8 13 7 14 6 15 5 16 4 17 3 18 2 19 1 20
REMARK H PARENT
REMARK Flexibility Score: inf
ROOT
ATOM      1  C   UNL     1      54.182 -43.275 -28.031  1.00  0.00    -0.031 C 
ATOM      2  C   UNL     1      55.134 -42.334 -28.108  1.00  0.00    -0.031 C 
ENDROOT
BRANCH   1   3
ATOM      3  C   UNL     1      53.760 -43.863 -26.713  1.00  0.00     0.027 C 
BRANCH   3   4
ATOM      4  C   UNL     1      52.234 -44.029 -26.647  1.00  0.00     0.004 C 
BRANCH   4   5
ATOM      5  C   UNL     1      51.608 -43.271 -25.465  1.00  0.00     0.000 C 
BRANCH   5   6
ATOM      6  C   UNL     1      51.802 -41.749 -25.568  1.00  0.00     0.000 C 
BRANCH   6   7
ATOM      7  C   UNL     1      52.311 -41.135 -24.245  1.00  0.00     0.000 C 
BRANCH   7   8
ATOM      8  C   UNL     1      53.528 -40.208 -24.427  1.00  0.00     0.006 C 
BRANCH   8   9
ATOM      9  C   UNL     1      54.680 -40.492 -23.452  1.00  0.00     0.053 C 
BRANCH   9  10
ATOM     10  C   UNL     1      55.934 -40.887 -24.171  1.00  0.00     0.041 C 
ATOM     11  O   UNL     1      56.029 -42.029 -24.696  1.00  0.00    -0.550 OA
ATOM     12  O   UNL     1      57.004 -40.005 -24.249  1.00  0.00    -0.550 OA
ENDBRANCH   9  10
ENDBRANCH   8   9
ENDBRANCH   7   8
ENDBRANCH   6   7
ENDBRANCH   5   6
ENDBRANCH   4   5
ENDBRANCH   3   4
ENDBRANCH   1   3
BRANCH   2  13
ATOM     13  C   UNL     1      55.571 -41.762 -29.428  1.00  0.00     0.027 C 
BRANCH  13  14
ATOM     14  C   UNL     1      54.662 -42.248 -30.568  1.00  0.00     0.004 C 
BRANCH  14  15
ATOM     15  C   UNL     1      54.035 -41.089 -31.359  1.00  0.00     0.000 C 
BRANCH  15  16
ATOM     16  C   UNL     1      52.501 -41.091 -31.292  1.00  0.00     0.000 C 
BRANCH  16  17
ATOM     17  C   UNL     1      52.012 -40.620 -29.917  1.00  0.00    -0.000 C 
BRANCH  17  18
ATOM     18  C   UNL     1      50.996 -41.606 -29.326  1.00  0.00    -0.000 C 
BRANCH  18  19
ATOM     19  C   UNL     1      50.933 -42.894 -30.157  1.00  0.00    -0.003 C 
ATOM     20  C   UNL     1      49.489 -43.296 -30.443  1.00  0.00     0.004 C 
ENDBRANCH  18  19
ENDBRANCH  17  18
ENDBRANCH  16  17
ENDBRANCH  15  16
ENDBRANCH  14  15
ENDBRANCH  13  14
ENDBRANCH   2  13
TORSDOF 15
ENDMDL
MODEL 7
REMARK VINA RESULT:    -3.507      2.460      6.445
REMARK INTER + INTRA:          -9.490
REMARK INTER:                  -7.357
REMARK INTRA:                  -2.132
REMARK UNBOUND:                -2.908
REMARK SMILES CCCCCCCCC=CCCCCCCCC(=O)[O-]
REMARK SMILES IDX 10 1 9 2 11 3 12 4 13 5 14 6 15 7 16 8 17 9 18 10 19 11
REMARK SMILES IDX 20 12 8 13 7 14 6 15 5 16 4 17 3 18 2 19 1 20
REMARK H PARENT
REMARK Flexibility Score: inf
ROOT
ATOM      1  C   UNL     1      54.411 -41.593 -28.066  1.00  0.00    -0.031 C 
ATOM      2  C   UNL     1      55.128 -42.456 -28.801  1.00  0.00    -0.031 C 
ENDROOT
BRANCH   1   3
ATOM      3  C   UNL     1      54.379 -41.674 -26.564  1.00  0.00     0.027 C 
BRANCH   3   4
ATOM      4  C   UNL     1      55.581 -42.468 -26.029  1.00  0.00     0.004 C 
BRANCH   4   5
ATOM      5  C   UNL     1      56.120 -41.903 -24.705  1.00  0.00     0.000 C 
BRANCH   5   6
ATOM      6  C   UNL     1      55.225 -40.796 -24.125  1.00  0.00     0.000 C 
BRANCH   6   7
ATOM      7  C   UNL     1      56.049 -39.630 -23.534  1.00  0.00     0.000 C 
BRANCH   7   8
ATOM      8  C   UNL     1      57.347 -39.339 -24.311  1.00  0.00     0.006 C 
BRANCH   8   9
ATOM      9  C   UNL     1      57.212 -38.219 -25.353  1.00  0.00     0.053 C 
BRANCH   9  10
ATOM     10  C   UNL     1      56.678 -38.731 -26.657  1.00  0.00     0.041 C 
ATOM     11  O   UNL     1      57.328 -39.588 -27.313  1.00  0.00    -0.550 OA
ATOM     12  O   UNL     1      55.475 -38.251 -27.157  1.00  0.00    -0.550 OA
ENDBRANCH   9  10
ENDBRANCH   8   9
ENDBRANCH   7   8
ENDBRANCH   6   7
ENDBRANCH   5   6
ENDBRANCH   4   5
ENDBRANCH   3   4
ENDBRANCH   1   3
BRANCH   2  13
ATOM     13  C   UNL     1      55.142 -42.387 -30.303  1.00  0.00     0.027 C 
BRANCH  13  14
ATOM     14  C   UNL     1      55.043 -40.933 -30.790  1.00  0.00     0.004 C 
BRANCH  14  15
ATOM     15  C   UNL     1      54.065 -40.768 -31.963  1.00  0.00     0.000 C 
BRANCH  15  16
ATOM     16  C   UNL     1      52.670 -41.332 -31.653  1.00  0.00     0.000 C 
BRANCH  16  17
ATOM     17  C   UNL     1      51.957 -40.477 -30.598  1.00  0.00    -0.000 C 
BRANCH  17  18
ATOM     18  C   UNL     1      50.823 -41.263 -29.927  1.00  0.00    -0.000 C 
BRANCH  18  19
ATOM     19  C   UNL     1      50.797 -42.717 -30.416  1.00  0.00    -0.003 C 
ATOM     20  C   UNL     1      49.376 -43.271 -30.426  1.00  0.00     0.004 C 
ENDBRANCH  18  19
ENDBRANCH  17  18
ENDBRANCH  16  17
ENDBRANCH  15  16
ENDBRANCH  14  15
ENDBRANCH  13  14
ENDBRANCH   2  13
TORSDOF 15
ENDMDL
MODEL 8
REMARK VINA RESULT:    -3.495      3.024      6.068
REMARK INTER + INTRA:          -9.468
REMARK INTER:                  -6.570
REMARK INTRA:                  -2.898
REMARK UNBOUND:                -2.908
REMARK SMILES CCCCCCCCC=CCCCCCCCC(=O)[O-]
REMARK SMILES IDX 10 1 9 2 11 3 12 4 13 5 14 6 15 7 16 8 17 9 18 10 19 11
REMARK SMILES IDX 20 12 8 13 7 14 6 15 5 16 4 17 3 18 2 19 1 20
REMARK H PARENT
REMARK Flexibility Score: inf
ROOT
ATOM      1  C   UNL     1      52.857 -41.253 -28.105  1.00  0.00    -0.031 C 
ATOM      2  C   UNL     1      52.426 -40.316 -28.962  1.00  0.00    -0.031 C 
ENDROOT
BRANCH   1   3
ATOM      3  C   UNL     1      53.559 -40.888 -26.827  1.00  0.00     0.027 C 
BRANCH   3   4
ATOM      4  C   UNL     1      53.735 -42.118 -25.923  1.00  0.00     0.004 C 
BRANCH   4   5
ATOM      5  C   UNL     1      55.108 -42.787 -26.095  1.00  0.00     0.000 C 
BRANCH   5   6
ATOM      6  C   UNL     1      55.051 -44.031 -26.998  1.00  0.00     0.000 C 
BRANCH   6   7
ATOM      7  C   UNL     1      56.049 -43.943 -28.174  1.00  0.00     0.000 C 
BRANCH   7   8
ATOM      8  C   UNL     1      55.453 -43.291 -29.437  1.00  0.00     0.006 C 
BRANCH   8   9
ATOM      9  C   UNL     1      56.428 -42.366 -30.180  1.00  0.00     0.053 C 
BRANCH   9  10
ATOM     10  C   UNL     1      55.838 -41.009 -30.416  1.00  0.00     0.041 C 
ATOM     11  O   UNL     1      55.273 -40.746 -31.511  1.00  0.00    -0.550 OA
ATOM     12  O   UNL     1      55.926 -40.028 -29.437  1.00  0.00    -0.550 OA
ENDBRANCH   9  10
ENDBRANCH   8   9
ENDBRANCH   7   8
ENDBRANCH   6   7
ENDBRANCH   5   6
ENDBRANCH   4   5
ENDBRANCH   3   4
ENDBRANCH   1   3
BRANCH   2  13
ATOM     13  C   UNL     1      51.742 -40.682 -30.250  1.00  0.00     0.027 C 
BRANCH  13  14
ATOM     14  C   UNL     1      52.064 -42.130 -30.654  1.00  0.00     0.004 C 
BRANCH  14  15
ATOM     15  C   UNL     1      50.800 -42.974 -30.883  1.00  0.00     0.000 C 
BRANCH  15  16
ATOM     16  C   UNL     1      50.509 -43.930 -29.717  1.00  0.00     0.000 C 
BRANCH  16  17
ATOM     17  C   UNL     1      49.304 -43.447 -28.901  1.00  0.00    -0.000 C 
BRANCH  17  18
ATOM     18  C   UNL     1      49.726 -43.038 -27.484  1.00  0.00    -0.000 C 
BRANCH  18  19
ATOM     19  C   UNL     1      49.342 -41.581 -27.195  1.00  0.00    -0.003 C 
ATOM     20  C   UNL     1      48.471 -41.009 -28.309  1.00  0.00     0.004 C 
ENDBRANCH  18  19
ENDBRANCH  17  18
ENDBRANCH  16  17
ENDBRANCH  15  16
ENDBRANCH  14  15
ENDBRANCH  13  14
ENDBRANCH   2  13
TORSDOF 15
ENDMDL
MODEL 9
REMARK VINA RESULT:    -3.453      3.451      6.980
REMARK INTER + INTRA:          -9.389
REMARK INTER:                  -6.972
REMARK INTRA:                  -2.416
REMARK UNBOUND:                -2.908
REMARK SMILES CCCCCCCCC=CCCCCCCCC(=O)[O-]
REMARK SMILES IDX 10 1 9 2 11 3 12 4 13 5 14 6 15 7 16 8 17 9 18 10 19 11
REMARK SMILES IDX 20 12 8 13 7 14 6 15 5 16 4 17 3 18 2 19 1 20
REMARK H PARENT
REMARK Flexibility Score: inf
ROOT
ATOM      1  C   UNL     1      49.959 -43.260 -26.667  1.00  0.00    -0.031 C 
ATOM      2  C   UNL     1      49.559 -42.024 -27.001  1.00  0.00    -0.031 C 
ENDROOT
BRANCH   1   3
ATOM      3  C   UNL     1      50.963 -43.493 -25.573  1.00  0.00     0.027 C 
BRANCH   3   4
ATOM      4  C   UNL     1      50.439 -42.979 -24.223  1.00  0.00     0.004 C 
BRANCH   4   5
ATOM      5  C   UNL     1      51.387 -41.961 -23.569  1.00  0.00     0.000 C 
BRANCH   5   6
ATOM      6  C   UNL     1      52.241 -41.202 -24.598  1.00  0.00     0.000 C 
BRANCH   6   7
ATOM      7  C   UNL     1      53.349 -40.359 -23.927  1.00  0.00     0.000 C 
BRANCH   7   8
ATOM      8  C   UNL     1      54.688 -40.387 -24.688  1.00  0.00     0.006 C 
BRANCH   8   9
ATOM      9  C   UNL     1      55.917 -40.155 -23.797  1.00  0.00     0.053 C 
BRANCH   9  10
ATOM     10  C   UNL     1      55.874 -38.815 -23.126  1.00  0.00     0.041 C 
ATOM     11  O   UNL     1      55.575 -38.729 -21.905  1.00  0.00    -0.550 OA
ATOM     12  O   UNL     1      56.145 -37.661 -23.849  1.00  0.00    -0.550 OA
ENDBRANCH   9  10
ENDBRANCH   8   9
ENDBRANCH   7   8
ENDBRANCH   6   7
ENDBRANCH   5   6
ENDBRANCH   4   5
ENDBRANCH   3   4
ENDBRANCH   1   3
BRANCH   2  13
ATOM     13  C   UNL     1      48.570 -41.790 -28.110  1.00  0.00     0.027 C 
BRANCH  13  14
ATOM     14  C   UNL     1      49.286 -41.578 -29.453  1.00  0.00     0.004 C 
BRANCH  14  15
ATOM     15  C   UNL     1      49.350 -42.861 -30.297  1.00  0.00     0.000 C 
BRANCH  15  16
ATOM     16  C   UNL     1      50.780 -43.402 -30.441  1.00  0.00     0.000 C 
BRANCH  16  17
ATOM     17  C   UNL     1      51.812 -42.289 -30.222  1.00  0.00    -0.000 C 
BRANCH  17  18
ATOM     18  C   UNL     1      52.959 -42.769 -29.325  1.00  0.00    -0.000 C 
BRANCH  18  19
ATOM     19  C   UNL     1      53.163 -41.820 -28.138  1.00  0.00    -0.003 C 
ATOM     20  C   UNL     1      52.629 -40.425 -28.448  1.00  0.00     0.004 C 
ENDBRANCH  18  19
ENDBRANCH  17  18
ENDBRANCH  16  17
ENDBRANCH  15  16
ENDBRANCH  14  15
ENDBRANCH  13  14
ENDBRANCH   2  13
TORSDOF 15
ENDMDL
