MODEL 1
REMARK VINA RESULT:    -5.262      0.000      0.000
REMARK INTER + INTRA:          -6.453
REMARK INTER:                  -6.185
REMARK INTRA:                  -0.268
REMARK UNBOUND:                -0.268
REMARK SMILES O=C([O-])C=Cc1ccc(O)c(O)c1
REMARK SMILES IDX 6 1 13 2 7 3 11 4 8 5 9 6 5 7 4 8 2 9 1 10 3 11 12 12 10 14
REMARK H PARENT 12 13 10 15
REMARK Flexibility Score: inf
ROOT
ATOM      1  C   UNL     1     -36.932  -6.134 -13.859  1.00  0.00    -0.022 A 
ATOM      2  C   UNL     1     -36.307  -7.148 -14.603  1.00  0.00     0.058 A 
ATOM      3  C   UNL     1     -38.321  -6.165 -13.692  1.00  0.00     0.012 A 
ATOM      4  C   UNL     1     -37.061  -8.155 -15.220  1.00  0.00     0.157 A 
ATOM      5  C   UNL     1     -39.082  -7.162 -14.304  1.00  0.00     0.051 A 
ATOM      6  C   UNL     1     -38.470  -8.157 -15.074  1.00  0.00     0.157 A 
ENDROOT
BRANCH   1   7
ATOM      7  C   UNL     1     -36.141  -5.099 -13.162  1.00  0.00     0.010 C 
ATOM      8  C   UNL     1     -35.601  -4.013 -13.736  1.00  0.00     0.025 C 
BRANCH   8   9
ATOM      9  C   UNL     1     -35.842  -3.560 -15.120  1.00  0.00     0.064 C 
ATOM     10  O   UNL     1     -36.823  -2.827 -15.412  1.00  0.00    -0.545 OA
ATOM     11  O   UNL     1     -34.925  -3.892 -16.110  1.00  0.00    -0.545 OA
ENDBRANCH   8   9
ENDBRANCH   1   7
BRANCH   4  12
ATOM     12  O   UNL     1     -36.378  -9.125 -15.955  1.00  0.00    -0.504 OA
ATOM     13  H   UNL     1     -35.474  -8.978 -16.382  1.00  0.00     0.293 HD
ENDBRANCH   4  12
BRANCH   6  14
ATOM     14  O   UNL     1     -39.288  -9.122 -15.666  1.00  0.00    -0.504 OA
ATOM     15  H   UNL     1     -39.306 -10.093 -15.391  1.00  0.00     0.293 HD
ENDBRANCH   6  14
TORSDOF 4
ENDMDL
MODEL 2
REMARK VINA RESULT:    -5.136      0.865      2.141
REMARK INTER + INTRA:          -6.305
REMARK INTER:                  -6.017
REMARK INTRA:                  -0.288
REMARK UNBOUND:                -0.268
REMARK SMILES O=C([O-])C=Cc1ccc(O)c(O)c1
REMARK SMILES IDX 6 1 13 2 7 3 11 4 8 5 9 6 5 7 4 8 2 9 1 10 3 11 12 12 10 14
REMARK H PARENT 12 13 10 15
REMARK Flexibility Score: inf
ROOT
ATOM      1  C   UNL     1     -36.862  -6.283 -13.786  1.00  0.00    -0.022 A 
ATOM      2  C   UNL     1     -38.254  -6.100 -13.749  1.00  0.00     0.058 A 
ATOM      3  C   UNL     1     -36.334  -7.379 -14.476  1.00  0.00     0.012 A 
ATOM      4  C   UNL     1     -39.116  -7.027 -14.347  1.00  0.00     0.157 A 
ATOM      5  C   UNL     1     -37.185  -8.312 -15.074  1.00  0.00     0.051 A 
ATOM      6  C   UNL     1     -38.574  -8.154 -15.012  1.00  0.00     0.157 A 
ENDROOT
BRANCH   1   7
ATOM      7  C   UNL     1     -35.943  -5.283 -13.205  1.00  0.00     0.010 C 
ATOM      8  C   UNL     1     -35.398  -4.249 -13.865  1.00  0.00     0.025 C 
BRANCH   8   9
ATOM      9  C   UNL     1     -35.750  -3.818 -15.233  1.00  0.00     0.064 C 
ATOM     10  O   UNL     1     -35.046  -4.141 -16.226  1.00  0.00    -0.545 OA
ATOM     11  O   UNL     1     -36.921  -3.101 -15.435  1.00  0.00    -0.545 OA
ENDBRANCH   8   9
ENDBRANCH   1   7
BRANCH   4  12
ATOM     12  O   UNL     1     -40.490  -6.792 -14.261  1.00  0.00    -0.504 OA
ATOM     13  H   UNL     1     -40.950  -6.421 -13.442  1.00  0.00     0.293 HD
ENDBRANCH   4  12
BRANCH   6  14
ATOM     14  O   UNL     1     -39.370  -9.125 -15.624  1.00  0.00    -0.504 OA
ATOM     15  H   UNL     1     -39.699  -9.068 -16.576  1.00  0.00     0.293 HD
ENDBRANCH   6  14
TORSDOF 4
ENDMDL
MODEL 3
REMARK VINA RESULT:    -5.095      2.502      3.603
REMARK INTER + INTRA:          -6.256
REMARK INTER:                  -6.037
REMARK INTRA:                  -0.219
REMARK UNBOUND:                -0.268
REMARK SMILES O=C([O-])C=Cc1ccc(O)c(O)c1
REMARK SMILES IDX 6 1 13 2 7 3 11 4 8 5 9 6 5 7 4 8 2 9 1 10 3 11 12 12 10 14
REMARK H PARENT 12 13 10 15
REMARK Flexibility Score: inf
ROOT
ATOM      1  C   UNL     1     -36.992  -6.561 -15.811  1.00  0.00    -0.022 A 
ATOM      2  C   UNL     1     -36.474  -5.847 -14.718  1.00  0.00     0.058 A 
ATOM      3  C   UNL     1     -36.841  -7.951 -15.855  1.00  0.00     0.012 A 
ATOM      4  C   UNL     1     -35.766  -6.503 -13.703  1.00  0.00     0.157 A 
ATOM      5  C   UNL     1     -36.134  -8.615 -14.849  1.00  0.00     0.051 A 
ATOM      6  C   UNL     1     -35.587  -7.906 -13.774  1.00  0.00     0.157 A 
ENDROOT
BRANCH   1   7
ATOM      7  C   UNL     1     -37.786  -5.886 -16.858  1.00  0.00     0.010 C 
ATOM      8  C   UNL     1     -37.289  -5.107 -17.832  1.00  0.00     0.025 C 
BRANCH   8   9
ATOM      9  C   UNL     1     -35.858  -4.924 -18.143  1.00  0.00     0.064 C 
ATOM     10  O   UNL     1     -35.318  -5.500 -19.125  1.00  0.00    -0.545 OA
ATOM     11  O   UNL     1     -35.106  -4.042 -17.378  1.00  0.00    -0.545 OA
ENDBRANCH   8   9
ENDBRANCH   1   7
BRANCH   4  12
ATOM     12  O   UNL     1     -35.266  -5.732 -12.652  1.00  0.00    -0.504 OA
ATOM     13  H   UNL     1     -34.283  -5.584 -12.477  1.00  0.00     0.293 HD
ENDBRANCH   4  12
BRANCH   6  14
ATOM     14  O   UNL     1     -34.885  -8.628 -12.806  1.00  0.00    -0.504 OA
ATOM     15  H   UNL     1     -34.507  -8.221 -11.963  1.00  0.00     0.293 HD
ENDBRANCH   6  14
TORSDOF 4
ENDMDL
MODEL 4
REMARK VINA RESULT:    -5.086      2.152      4.715
REMARK INTER + INTRA:          -6.245
REMARK INTER:                  -6.057
REMARK INTRA:                  -0.188
REMARK UNBOUND:                -0.268
REMARK SMILES O=C([O-])C=Cc1ccc(O)c(O)c1
REMARK SMILES IDX 6 1 13 2 7 3 11 4 8 5 9 6 5 7 4 8 2 9 1 10 3 11 12 12 10 14
REMARK H PARENT 12 13 10 15
REMARK Flexibility Score: inf
ROOT
ATOM      1  C   UNL     1     -37.655  -7.907 -14.954  1.00  0.00    -0.022 A 
ATOM      2  C   UNL     1     -37.925  -7.342 -16.211  1.00  0.00     0.058 A 
ATOM      3  C   UNL     1     -36.698  -7.310 -14.127  1.00  0.00     0.012 A 
ATOM      4  C   UNL     1     -37.212  -6.225 -16.664  1.00  0.00     0.157 A 
ATOM      5  C   UNL     1     -35.979  -6.197 -14.570  1.00  0.00     0.051 A 
ATOM      6  C   UNL     1     -36.219  -5.649 -15.835  1.00  0.00     0.157 A 
ENDROOT
BRANCH   1   7
ATOM      7  C   UNL     1     -38.438  -9.051 -14.446  1.00  0.00     0.010 C 
ATOM      8  C   UNL     1     -39.583  -8.965 -13.750  1.00  0.00     0.025 C 
BRANCH   8   9
ATOM      9  C   UNL     1     -40.359  -7.730 -13.519  1.00  0.00     0.064 C 
ATOM     10  O   UNL     1     -41.519  -7.585 -13.986  1.00  0.00    -0.545 OA
ATOM     11  O   UNL     1     -39.826  -6.738 -12.707  1.00  0.00    -0.545 OA
ENDBRANCH   8   9
ENDBRANCH   1   7
BRANCH   4  12
ATOM     12  O   UNL     1     -37.522  -5.721 -17.929  1.00  0.00    -0.504 OA
ATOM     13  H   UNL     1     -37.199  -6.130 -18.795  1.00  0.00     0.293 HD
ENDBRANCH   4  12
BRANCH   6  14
ATOM     14  O   UNL     1     -35.462  -4.541 -16.221  1.00  0.00    -0.504 OA
ATOM     15  H   UNL     1     -35.026  -4.443 -17.127  1.00  0.00     0.293 HD
ENDBRANCH   6  14
TORSDOF 4
ENDMDL
MODEL 5
REMARK VINA RESULT:    -5.013      2.190      2.496
REMARK INTER + INTRA:          -6.160
REMARK INTER:                  -5.894
REMARK INTRA:                  -0.266
REMARK UNBOUND:                -0.268
REMARK SMILES O=C([O-])C=Cc1ccc(O)c(O)c1
REMARK SMILES IDX 6 1 13 2 7 3 11 4 8 5 9 6 5 7 4 8 2 9 1 10 3 11 12 12 10 14
REMARK H PARENT 12 13 10 15
REMARK Flexibility Score: inf
ROOT
ATOM      1  C   UNL     1     -36.371  -5.439 -16.097  1.00  0.00    -0.022 A 
ATOM      2  C   UNL     1     -35.870  -6.748 -16.009  1.00  0.00     0.058 A 
ATOM      3  C   UNL     1     -37.755  -5.237 -16.134  1.00  0.00     0.012 A 
ATOM      4  C   UNL     1     -36.735  -7.850 -16.012  1.00  0.00     0.157 A 
ATOM      5  C   UNL     1     -38.626  -6.329 -16.140  1.00  0.00     0.051 A 
ATOM      6  C   UNL     1     -38.133  -7.637 -16.086  1.00  0.00     0.157 A 
ENDROOT
BRANCH   1   7
ATOM      7  C   UNL     1     -35.470  -4.270 -16.041  1.00  0.00     0.010 C 
ATOM      8  C   UNL     1     -34.932  -3.650 -17.102  1.00  0.00     0.025 C 
BRANCH   8   9
ATOM      9  C   UNL     1     -35.277  -3.904 -18.515  1.00  0.00     0.064 C 
ATOM     10  O   UNL     1     -36.003  -3.109 -19.169  1.00  0.00    -0.545 OA
ATOM     11  O   UNL     1     -34.730  -5.007 -19.157  1.00  0.00    -0.545 OA
ENDBRANCH   8   9
ENDBRANCH   1   7
BRANCH   4  12
ATOM     12  O   UNL     1     -36.170  -9.124 -15.935  1.00  0.00    -0.504 OA
ATOM     13  H   UNL     1     -36.479  -9.914 -16.484  1.00  0.00     0.293 HD
ENDBRANCH   4  12
BRANCH   6  14
ATOM     14  O   UNL     1     -39.056  -8.685 -16.103  1.00  0.00    -0.504 OA
ATOM     15  H   UNL     1     -39.710  -8.850 -16.855  1.00  0.00     0.293 HD
ENDBRANCH   6  14
TORSDOF 4
ENDMDL
MODEL 6
REMARK VINA RESULT:    -4.984      4.521      6.109
REMARK INTER + INTRA:          -6.126
REMARK INTER:                  -5.867
REMARK INTRA:                  -0.258
REMARK UNBOUND:                -0.268
REMARK SMILES O=C([O-])C=Cc1ccc(O)c(O)c1
REMARK SMILES IDX 6 1 13 2 7 3 11 4 8 5 9 6 5 7 4 8 2 9 1 10 3 11 12 12 10 14
REMARK H PARENT 12 13 10 15
REMARK Flexibility Score: inf
ROOT
ATOM      1  C   UNL     1     -34.834  -4.175 -17.838  1.00  0.00    -0.022 A 
ATOM      2  C   UNL     1     -33.594  -3.543 -18.026  1.00  0.00     0.058 A 
ATOM      3  C   UNL     1     -35.407  -4.886 -18.899  1.00  0.00     0.012 A 
ATOM      4  C   UNL     1     -32.954  -3.572 -19.271  1.00  0.00     0.157 A 
ATOM      5  C   UNL     1     -34.779  -4.919 -20.146  1.00  0.00     0.051 A 
ATOM      6  C   UNL     1     -33.559  -4.263 -20.349  1.00  0.00     0.157 A 
ENDROOT
BRANCH   1   7
ATOM      7  C   UNL     1     -35.490  -4.196 -16.515  1.00  0.00     0.010 C 
ATOM      8  C   UNL     1     -36.183  -3.182 -15.974  1.00  0.00     0.025 C 
BRANCH   8   9
ATOM      9  C   UNL     1     -36.566  -1.934 -16.664  1.00  0.00     0.064 C 
ATOM     10  O   UNL     1     -35.994  -0.841 -16.415  1.00  0.00    -0.545 OA
ATOM     11  O   UNL     1     -37.532  -1.982 -17.661  1.00  0.00    -0.545 OA
ENDBRANCH   8   9
ENDBRANCH   1   7
BRANCH   4  12
ATOM     12  O   UNL     1     -31.730  -2.912 -19.392  1.00  0.00    -0.504 OA
ATOM     13  H   UNL     1     -30.953  -3.257 -19.938  1.00  0.00     0.293 HD
ENDBRANCH   4  12
BRANCH   6  14
ATOM     14  O   UNL     1     -32.987  -4.328 -21.621  1.00  0.00    -0.504 OA
ATOM     15  H   UNL     1     -32.395  -3.609 -22.011  1.00  0.00     0.293 HD
ENDBRANCH   6  14
TORSDOF 4
ENDMDL
MODEL 7
REMARK VINA RESULT:    -4.949      1.501      2.688
REMARK INTER + INTRA:          -6.085
REMARK INTER:                  -5.807
REMARK INTRA:                  -0.278
REMARK UNBOUND:                -0.268
REMARK SMILES O=C([O-])C=Cc1ccc(O)c(O)c1
REMARK SMILES IDX 6 1 13 2 7 3 11 4 8 5 9 6 5 7 4 8 2 9 1 10 3 11 12 12 10 14
REMARK H PARENT 12 13 10 15
REMARK Flexibility Score: inf
ROOT
ATOM      1  C   UNL     1     -38.189  -6.291 -13.696  1.00  0.00    -0.022 A 
ATOM      2  C   UNL     1     -38.911  -7.201 -14.485  1.00  0.00     0.058 A 
ATOM      3  C   UNL     1     -36.790  -6.312 -13.734  1.00  0.00     0.012 A 
ATOM      4  C   UNL     1     -38.249  -8.158 -15.265  1.00  0.00     0.157 A 
ATOM      5  C   UNL     1     -36.120  -7.264 -14.506  1.00  0.00     0.051 A 
ATOM      6  C   UNL     1     -36.833  -8.195 -15.269  1.00  0.00     0.157 A 
ENDROOT
BRANCH   1   7
ATOM      7  C   UNL     1     -38.876  -5.245 -12.912  1.00  0.00     0.010 C 
ATOM      8  C   UNL     1     -39.062  -3.975 -13.303  1.00  0.00     0.025 C 
BRANCH   8   9
ATOM      9  C   UNL     1     -38.776  -3.436 -14.648  1.00  0.00     0.064 C 
ATOM     10  O   UNL     1     -37.669  -2.904 -14.923  1.00  0.00    -0.545 OA
ATOM     11  O   UNL     1     -39.725  -3.585 -15.651  1.00  0.00    -0.545 OA
ENDBRANCH   8   9
ENDBRANCH   1   7
BRANCH   4  12
ATOM     12  O   UNL     1     -39.028  -9.041 -16.016  1.00  0.00    -0.504 OA
ATOM     13  H   UNL     1     -39.763  -9.615 -15.629  1.00  0.00     0.293 HD
ENDBRANCH   4  12
BRANCH   6  14
ATOM     14  O   UNL     1     -36.105  -9.125 -16.013  1.00  0.00    -0.504 OA
ATOM     15  H   UNL     1     -35.908 -10.066 -15.704  1.00  0.00     0.293 HD
ENDBRANCH   6  14
TORSDOF 4
ENDMDL
MODEL 8
REMARK VINA RESULT:    -4.881      2.079      2.645
REMARK INTER + INTRA:          -6.005
REMARK INTER:                  -5.812
REMARK INTRA:                  -0.194
REMARK UNBOUND:                -0.268
REMARK SMILES O=C([O-])C=Cc1ccc(O)c(O)c1
REMARK SMILES IDX 6 1 13 2 7 3 11 4 8 5 9 6 5 7 4 8 2 9 1 10 3 11 12 12 10 14
REMARK H PARENT 12 13 10 15
REMARK Flexibility Score: inf
ROOT
ATOM      1  C   UNL     1     -36.499  -5.841 -14.317  1.00  0.00    -0.022 A 
ATOM      2  C   UNL     1     -37.290  -5.471 -15.417  1.00  0.00     0.058 A 
ATOM      3  C   UNL     1     -36.473  -7.181 -13.913  1.00  0.00     0.012 A 
ATOM      4  C   UNL     1     -38.089  -6.413 -16.076  1.00  0.00     0.157 A 
ATOM      5  C   UNL     1     -37.268  -8.128 -14.562  1.00  0.00     0.051 A 
ATOM      6  C   UNL     1     -38.084  -7.760 -15.637  1.00  0.00     0.157 A 
ENDROOT
BRANCH   1   7
ATOM      7  C   UNL     1     -35.613  -4.866 -13.649  1.00  0.00     0.010 C 
ATOM      8  C   UNL     1     -36.015  -3.882 -12.830  1.00  0.00     0.025 C 
BRANCH   8   9
ATOM      9  C   UNL     1     -37.384  -3.700 -12.308  1.00  0.00     0.064 C 
ATOM     10  O   UNL     1     -37.681  -3.997 -11.120  1.00  0.00    -0.545 OA
ATOM     11  O   UNL     1     -38.348  -3.123 -13.124  1.00  0.00    -0.545 OA
ENDBRANCH   8   9
ENDBRANCH   1   7
BRANCH   4  12
ATOM     12  O   UNL     1     -38.861  -5.975 -17.154  1.00  0.00    -0.504 OA
ATOM     13  H   UNL     1     -39.489  -5.184 -17.115  1.00  0.00     0.293 HD
ENDBRANCH   4  12
BRANCH   6  14
ATOM     14  O   UNL     1     -38.860  -8.752 -16.239  1.00  0.00    -0.504 OA
ATOM     15  H   UNL     1     -39.604  -9.249 -15.770  1.00  0.00     0.293 HD
ENDBRANCH   6  14
TORSDOF 4
ENDMDL
MODEL 9
REMARK VINA RESULT:    -4.867      1.435      4.705
REMARK INTER + INTRA:          -5.989
REMARK INTER:                  -5.766
REMARK INTRA:                  -0.223
REMARK UNBOUND:                -0.268
REMARK SMILES O=C([O-])C=Cc1ccc(O)c(O)c1
REMARK SMILES IDX 6 1 13 2 7 3 11 4 8 5 9 6 5 7 4 8 2 9 1 10 3 11 12 12 10 14
REMARK H PARENT 12 13 10 15
REMARK Flexibility Score: inf
ROOT
ATOM      1  C   UNL     1     -36.010  -7.044 -14.569  1.00  0.00    -0.022 A 
ATOM      2  C   UNL     1     -36.053  -6.717 -15.934  1.00  0.00     0.058 A 
ATOM      3  C   UNL     1     -35.956  -6.016 -13.620  1.00  0.00     0.012 A 
ATOM      4  C   UNL     1     -35.987  -5.383 -16.355  1.00  0.00     0.157 A 
ATOM      5  C   UNL     1     -35.887  -4.683 -14.029  1.00  0.00     0.051 A 
ATOM      6  C   UNL     1     -35.895  -4.351 -15.389  1.00  0.00     0.157 A 
ENDROOT
BRANCH   1   7
ATOM      7  C   UNL     1     -36.132  -8.444 -14.113  1.00  0.00     0.010 C 
ATOM      8  C   UNL     1     -37.282  -9.124 -13.987  1.00  0.00     0.025 C 
BRANCH   8   9
ATOM      9  C   UNL     1     -38.609  -8.667 -14.445  1.00  0.00     0.064 C 
ATOM     10  O   UNL     1     -38.958  -8.759 -15.651  1.00  0.00    -0.545 OA
ATOM     11  O   UNL     1     -39.519  -8.189 -13.510  1.00  0.00    -0.545 OA
ENDBRANCH   8   9
ENDBRANCH   1   7
BRANCH   4  12
ATOM     12  O   UNL     1     -36.021  -5.128 -17.727  1.00  0.00    -0.504 OA
ATOM     13  H   UNL     1     -35.794  -4.236 -18.142  1.00  0.00     0.293 HD
ENDBRANCH   4  12
BRANCH   6  14
ATOM     14  O   UNL     1     -35.817  -3.000 -15.732  1.00  0.00    -0.504 OA
ATOM     15  H   UNL     1     -34.992  -2.432 -15.606  1.00  0.00     0.293 HD
ENDBRANCH   6  14
TORSDOF 4
ENDMDL
