MODEL 1
REMARK VINA RESULT:    -5.615      0.000      0.000
REMARK INTER + INTRA:          -7.346
REMARK INTER:                  -7.913
REMARK INTRA:                   0.567
REMARK UNBOUND:                 0.567
REMARK SMILES CC1=CCC(=C(C)C)C(=O)CC(C)=CCC1
REMARK SMILES IDX 12 1 14 2 13 3 15 4 16 5 2 6 1 7 3 8 11 10 9 11 10 12 5 13
REMARK SMILES IDX 6 14 7 15 8 16 4 17
REMARK H PARENT
REMARK Flexibility Score: 60.00
ROOT
ATOM      1  C   UNL     1      39.409 -13.298   9.225  1.00  0.00    -0.070 C 
ATOM      2  C   UNL     1      39.051 -12.004   9.398  1.00  0.00    -0.027 C 
ATOM      3  C   UNL     1      38.887 -14.023   8.010  1.00  0.00     0.039 C 
ENDROOT
BRANCH   2   4
ATOM      4  C   UNL     1      39.595 -11.093  10.467  1.00  0.00     0.032 C 
BRANCH   4   5
ATOM      5  C   UNL     1      40.263  -9.873   9.822  1.00  0.00     0.034 C 
BRANCH   5   6
ATOM      6  C   UNL     1      41.396 -10.257   8.891  1.00  0.00    -0.077 C 
ATOM      7  C   UNL     1      41.306  -9.859   7.439  1.00  0.00     0.039 C 
ATOM      8  C   UNL     1      42.460 -11.005   9.275  1.00  0.00    -0.023 CG0
ATOM      9  G   UNL     1      42.802 -11.474  10.678  1.00  0.00     0.000 G0
ENDBRANCH   5   6
ENDBRANCH   4   5
ENDBRANCH   2   4
BRANCH   1  10
ATOM     10  C   UNL     1      40.288 -14.056  10.199  1.00  0.00     0.111 C 
BRANCH  10  11
ATOM     11  C   UNL     1      41.752 -13.754   9.989  1.00  0.00     0.163 C 
ATOM     12  O   UNL     1      42.287 -14.209   8.942  1.00  0.00    -0.294 OA
BRANCH  11  13
ATOM     13  C   UNL     1      42.591 -12.973  10.958  1.00  0.00    -0.002 C 
ATOM     14  C   UNL     1      43.000 -13.537  12.135  1.00  0.00    -0.069 C 
ATOM     15  C   UNL     1      43.643 -12.722  13.234  1.00  0.00     0.039 C 
ATOM     16  C   UNL     1      42.877 -15.024  12.383  1.00  0.00     0.039 C 
BRANCH  13  17
ATOM     17  C   UNL     1      42.814 -11.491  10.673  1.00  0.00     0.066 CG0
ATOM     18  G   UNL     1      42.477 -11.014   9.273  1.00  0.00     0.000 G0
ENDBRANCH  13  17
ENDBRANCH  11  13
ENDBRANCH  10  11
ENDBRANCH   1  10
TORSDOF 0
ENDMDL
MODEL 2
REMARK VINA RESULT:    -5.505      1.849      4.509
REMARK INTER + INTRA:          -7.191
REMARK INTER:                  -7.090
REMARK INTRA:                  -0.101
REMARK UNBOUND:                 0.567
REMARK SMILES CC1=CCC(=C(C)C)C(=O)CC(C)=CCC1
REMARK SMILES IDX 12 1 14 2 13 3 15 4 16 5 2 6 1 7 3 8 11 10 9 11 10 12 5 13
REMARK SMILES IDX 6 14 7 15 8 16 4 17
REMARK H PARENT
REMARK Flexibility Score: 60.00
ROOT
ATOM      1  C   UNL     1      41.923 -13.945   9.879  1.00  0.00    -0.070 C 
ATOM      2  C   UNL     1      40.648 -14.328  10.120  1.00  0.00    -0.027 C 
ATOM      3  C   UNL     1      42.990 -14.375  10.853  1.00  0.00     0.039 C 
ENDROOT
BRANCH   2   4
ATOM      4  C   UNL     1      39.489 -14.114   9.182  1.00  0.00     0.032 C 
BRANCH   4   5
ATOM      5  C   UNL     1      38.600 -12.980   9.703  1.00  0.00     0.034 C 
BRANCH   5   6
ATOM      6  C   UNL     1      38.068 -12.100   8.589  1.00  0.00    -0.077 C 
ATOM      7  C   UNL     1      36.813 -12.524   7.869  1.00  0.00     0.039 C 
ATOM      8  C   UNL     1      38.699 -10.982   8.150  1.00  0.00    -0.023 CG0
ATOM      9  G   UNL     1      39.933 -10.326   8.743  1.00  0.00     0.000 G0
ENDBRANCH   5   6
ENDBRANCH   4   5
ENDBRANCH   2   4
BRANCH   1  10
ATOM     10  C   UNL     1      42.326 -13.090   8.693  1.00  0.00     0.111 C 
BRANCH  10  11
ATOM     11  C   UNL     1      42.150 -11.618   8.976  1.00  0.00     0.163 C 
ATOM     12  O   UNL     1      42.764 -11.147   9.972  1.00  0.00    -0.294 OA
BRANCH  11  13
ATOM     13  C   UNL     1      41.277 -10.709   8.160  1.00  0.00    -0.002 C 
ATOM     14  C   UNL     1      41.753 -10.132   7.015  1.00  0.00    -0.069 C 
ATOM     15  C   UNL     1      40.997  -9.039   6.293  1.00  0.00     0.039 C 
ATOM     16  C   UNL     1      43.044 -10.593   6.376  1.00  0.00     0.039 C 
BRANCH  13  17
ATOM     17  C   UNL     1      39.923 -10.312   8.740  1.00  0.00     0.066 CG0
ATOM     18  G   UNL     1      38.705 -10.991   8.140  1.00  0.00     0.000 G0
ENDBRANCH  13  17
ENDBRANCH  11  13
ENDBRANCH  10  11
ENDBRANCH   1  10
TORSDOF 0
ENDMDL
MODEL 3
REMARK VINA RESULT:    -5.505      1.507      4.204
REMARK INTER + INTRA:          -7.190
REMARK INTER:                  -7.443
REMARK INTRA:                   0.253
REMARK UNBOUND:                 0.567
REMARK SMILES CC1=CCC(=C(C)C)C(=O)CC(C)=CCC1
REMARK SMILES IDX 12 1 14 2 13 3 15 4 16 5 2 6 1 7 3 8 11 10 9 11 10 12 5 13
REMARK SMILES IDX 6 14 7 15 8 16 4 17
REMARK H PARENT
REMARK Flexibility Score: 60.00
ROOT
ATOM      1  C   UNL     1      39.289 -12.353   8.929  1.00  0.00    -0.070 C 
ATOM      2  C   UNL     1      39.675 -13.650   8.909  1.00  0.00    -0.027 C 
ATOM      3  C   UNL     1      38.684 -11.773   7.675  1.00  0.00     0.039 C 
ENDROOT
BRANCH   2   4
ATOM      4  C   UNL     1      40.158 -14.425  10.107  1.00  0.00     0.032 C 
BRANCH   4   5
ATOM      5  C   UNL     1      41.632 -14.803   9.923  1.00  0.00     0.034 C 
BRANCH   5   6
ATOM      6  C   UNL     1      42.558 -13.971  10.788  1.00  0.00    -0.077 C 
ATOM      7  C   UNL     1      42.934 -14.492  12.152  1.00  0.00     0.039 C 
ATOM      8  C   UNL     1      43.012 -12.743  10.434  1.00  0.00    -0.023 CG0
ATOM      9  G   UNL     1      42.821 -12.035   9.105  1.00  0.00     0.000 G0
ENDBRANCH   5   6
ENDBRANCH   4   5
ENDBRANCH   2   4
BRANCH   1  10
ATOM     10  C   UNL     1      39.453 -11.452  10.137  1.00  0.00     0.111 C 
BRANCH  10  11
ATOM     11  C   UNL     1      40.816 -10.804  10.174  1.00  0.00     0.163 C 
ATOM     12  O   UNL     1      41.106 -10.135  11.203  1.00  0.00    -0.294 OA
BRANCH  11  13
ATOM     13  C   UNL     1      41.815 -10.896   9.057  1.00  0.00    -0.002 C 
ATOM     14  C   UNL     1      41.704 -10.089   7.958  1.00  0.00    -0.069 C 
ATOM     15  C   UNL     1      42.542 -10.304   6.718  1.00  0.00     0.039 C 
ATOM     16  C   UNL     1      40.771  -8.899   7.943  1.00  0.00     0.039 C 
BRANCH  13  17
ATOM     17  C   UNL     1      42.834 -12.030   9.105  1.00  0.00     0.066 CG0
ATOM     18  G   UNL     1      43.001 -12.733  10.440  1.00  0.00     0.000 G0
ENDBRANCH  13  17
ENDBRANCH  11  13
ENDBRANCH  10  11
ENDBRANCH   1  10
TORSDOF 0
ENDMDL
MODEL 4
REMARK VINA RESULT:    -5.312      2.009      4.997
REMARK INTER + INTRA:          -6.919
REMARK INTER:                  -6.978
REMARK INTRA:                   0.060
REMARK UNBOUND:                 0.567
REMARK SMILES CC1=CCC(=C(C)C)C(=O)CC(C)=CCC1
REMARK SMILES IDX 12 1 14 2 13 3 15 4 16 5 2 6 1 7 3 8 11 10 9 11 10 12 5 13
REMARK SMILES IDX 6 14 7 15 8 16 4 17
REMARK H PARENT
REMARK Flexibility Score: 60.00
ROOT
ATOM      1  C   UNL     1      42.623 -11.211   8.051  1.00  0.00    -0.070 C 
ATOM      2  C   UNL     1      43.603 -12.144   8.076  1.00  0.00    -0.027 C 
ATOM      3  C   UNL     1      42.128 -10.738   6.707  1.00  0.00     0.039 C 
ENDROOT
BRANCH   2   4
ATOM      4  C   UNL     1      44.109 -12.831   9.318  1.00  0.00     0.032 C 
BRANCH   4   5
ATOM      5  C   UNL     1      43.494 -14.230   9.426  1.00  0.00     0.034 C 
BRANCH   5   6
ATOM      6  C   UNL     1      42.424 -14.312  10.498  1.00  0.00    -0.077 C 
ATOM      7  C   UNL     1      42.835 -14.670  11.904  1.00  0.00     0.039 C 
ATOM      8  C   UNL     1      41.100 -14.152  10.249  1.00  0.00    -0.023 CG0
ATOM      9  G   UNL     1      40.450 -13.736   8.942  1.00  0.00     0.000 G0
ENDBRANCH   5   6
ENDBRANCH   4   5
ENDBRANCH   2   4
BRANCH   1  10
ATOM     10  C   UNL     1      42.015 -10.606   9.301  1.00  0.00     0.111 C 
BRANCH  10  11
ATOM     11  C   UNL     1      40.704 -11.261   9.662  1.00  0.00     0.163 C 
ATOM     12  O   UNL     1      40.186 -10.941  10.766  1.00  0.00    -0.294 OA
BRANCH  11  13
ATOM     13  C   UNL     1      40.010 -12.274   8.797  1.00  0.00    -0.002 C 
ATOM     14  C   UNL     1      38.931 -11.916   8.036  1.00  0.00    -0.069 C 
ATOM     15  C   UNL     1      38.068 -12.942   7.336  1.00  0.00     0.039 C 
ATOM     16  C   UNL     1      38.572 -10.465   7.808  1.00  0.00     0.039 C 
BRANCH  13  17
ATOM     17  C   UNL     1      40.429 -13.734   8.936  1.00  0.00     0.066 CG0
ATOM     18  G   UNL     1      41.098 -14.125  10.241  1.00  0.00     0.000 G0
ENDBRANCH  13  17
ENDBRANCH  11  13
ENDBRANCH  10  11
ENDBRANCH   1  10
TORSDOF 0
ENDMDL
MODEL 5
REMARK VINA RESULT:    -5.266      2.622      5.049
REMARK INTER + INTRA:          -6.854
REMARK INTER:                  -6.938
REMARK INTRA:                   0.084
REMARK UNBOUND:                 0.567
REMARK SMILES CC1=CCC(=C(C)C)C(=O)CC(C)=CCC1
REMARK SMILES IDX 12 1 14 2 13 3 15 4 16 5 2 6 1 7 3 8 11 10 9 11 10 12 5 13
REMARK SMILES IDX 6 14 7 15 8 16 4 17
REMARK H PARENT
REMARK Flexibility Score: 60.00
ROOT
ATOM      1  C   UNL     1      40.121 -13.345   9.808  1.00  0.00    -0.070 C 
ATOM      2  C   UNL     1      41.036 -12.384  10.074  1.00  0.00    -0.027 C 
ATOM      3  C   UNL     1      40.580 -14.781   9.808  1.00  0.00     0.039 C 
ENDROOT
BRANCH   2   4
ATOM      4  C   UNL     1      40.723 -10.921  10.259  1.00  0.00     0.032 C 
BRANCH   4   5
ATOM      5  C   UNL     1      41.201 -10.128   9.038  1.00  0.00     0.034 C 
BRANCH   5   6
ATOM      6  C   UNL     1      40.097  -9.289   8.423  1.00  0.00    -0.077 C 
ATOM      7  C   UNL     1      39.901  -7.879   8.918  1.00  0.00     0.039 C 
ATOM      8  C   UNL     1      39.224  -9.761   7.499  1.00  0.00    -0.023 CG0
ATOM      9  G   UNL     1      39.249 -11.113   6.809  1.00  0.00     0.000 G0
ENDBRANCH   5   6
ENDBRANCH   4   5
ENDBRANCH   2   4
BRANCH   1  10
ATOM     10  C   UNL     1      38.668 -13.048   9.492  1.00  0.00     0.111 C 
BRANCH  10  11
ATOM     11  C   UNL     1      38.365 -13.224   8.024  1.00  0.00     0.163 C 
ATOM     12  O   UNL     1      38.353 -14.403   7.578  1.00  0.00    -0.294 OA
BRANCH  11  13
ATOM     13  C   UNL     1      38.105 -12.084   7.082  1.00  0.00    -0.002 C 
ATOM     14  C   UNL     1      36.930 -12.012   6.385  1.00  0.00    -0.069 C 
ATOM     15  C   UNL     1      36.723 -11.018   5.264  1.00  0.00     0.039 C 
ATOM     16  C   UNL     1      35.750 -12.890   6.734  1.00  0.00     0.039 C 
BRANCH  13  17
ATOM     17  C   UNL     1      39.254 -11.123   6.794  1.00  0.00     0.066 CG0
ATOM     18  G   UNL     1      39.202  -9.778   7.496  1.00  0.00     0.000 G0
ENDBRANCH  13  17
ENDBRANCH  11  13
ENDBRANCH  10  11
ENDBRANCH   1  10
TORSDOF 0
ENDMDL
MODEL 6
REMARK VINA RESULT:    -5.258      2.613      5.571
REMARK INTER + INTRA:          -6.843
REMARK INTER:                  -6.680
REMARK INTRA:                  -0.163
REMARK UNBOUND:                 0.567
REMARK SMILES CC1=CCC(=C(C)C)C(=O)CC(C)=CCC1
REMARK SMILES IDX 12 1 14 2 13 3 15 4 16 5 2 6 1 7 3 8 11 10 9 11 10 12 5 13
REMARK SMILES IDX 6 14 7 15 8 16 4 17
REMARK H PARENT
REMARK Flexibility Score: 60.00
ROOT
ATOM      1  C   UNL     1      40.745  -9.681   8.016  1.00  0.00    -0.070 C 
ATOM      2  C   UNL     1      41.486 -10.093   9.072  1.00  0.00    -0.027 C 
ATOM      3  C   UNL     1      40.462  -8.207   7.880  1.00  0.00     0.039 C 
ENDROOT
BRANCH   2   4
ATOM      4  C   UNL     1      41.984 -11.499   9.281  1.00  0.00     0.032 C 
BRANCH   4   5
ATOM      5  C   UNL     1      41.054 -12.244  10.245  1.00  0.00     0.034 C 
BRANCH   5   6
ATOM      6  C   UNL     1      40.740 -13.651   9.778  1.00  0.00    -0.077 C 
ATOM      7  C   UNL     1      41.774 -14.729   9.986  1.00  0.00     0.039 C 
ATOM      8  C   UNL     1      39.606 -13.986   9.114  1.00  0.00    -0.023 CG0
ATOM      9  G   UNL     1      38.404 -13.101   8.837  1.00  0.00     0.000 G0
ENDBRANCH   5   6
ENDBRANCH   4   5
ENDBRANCH   2   4
BRANCH   1  10
ATOM     10  C   UNL     1      40.172 -10.628   6.980  1.00  0.00     0.111 C 
BRANCH  10  11
ATOM     11  C   UNL     1      38.756 -11.034   7.312  1.00  0.00     0.163 C 
ATOM     12  O   UNL     1      37.923 -10.107   7.502  1.00  0.00    -0.294 OA
BRANCH  11  13
ATOM     13  C   UNL     1      38.306 -12.460   7.448  1.00  0.00    -0.002 C 
ATOM     14  C   UNL     1      37.695 -13.098   6.403  1.00  0.00    -0.069 C 
ATOM     15  C   UNL     1      37.024 -14.443   6.568  1.00  0.00     0.039 C 
ATOM     16  C   UNL     1      37.702 -12.514   5.008  1.00  0.00     0.039 C 
BRANCH  13  17
ATOM     17  C   UNL     1      38.387 -13.103   8.828  1.00  0.00     0.066 CG0
ATOM     18  G   UNL     1      39.604 -13.968   9.101  1.00  0.00     0.000 G0
ENDBRANCH  13  17
ENDBRANCH  11  13
ENDBRANCH  10  11
ENDBRANCH   1  10
TORSDOF 0
ENDMDL
MODEL 7
REMARK VINA RESULT:    -5.222      3.604      5.979
REMARK INTER + INTRA:          -6.793
REMARK INTER:                  -6.680
REMARK INTRA:                  -0.113
REMARK UNBOUND:                 0.567
REMARK SMILES CC1=CCC(=C(C)C)C(=O)CC(C)=CCC1
REMARK SMILES IDX 12 1 14 2 13 3 15 4 16 5 2 6 1 7 3 8 11 10 9 11 10 12 5 13
REMARK SMILES IDX 6 14 7 15 8 16 4 17
REMARK H PARENT
REMARK Flexibility Score: 60.00
ROOT
ATOM      1  C   UNL     1      40.049 -10.809  10.001  1.00  0.00    -0.070 C 
ATOM      2  C   UNL     1      39.126 -11.732  10.359  1.00  0.00    -0.027 C 
ATOM      3  C   UNL     1      40.463  -9.785  11.028  1.00  0.00     0.039 C 
ENDROOT
BRANCH   2   4
ATOM      4  C   UNL     1      38.709 -12.908   9.514  1.00  0.00     0.032 C 
BRANCH   4   5
ATOM      5  C   UNL     1      37.516 -12.519   8.633  1.00  0.00     0.034 C 
BRANCH   5   6
ATOM      6  C   UNL     1      37.607 -13.110   7.240  1.00  0.00    -0.077 C 
ATOM      7  C   UNL     1      37.433 -14.599   7.073  1.00  0.00     0.039 C 
ATOM      8  C   UNL     1      37.909 -12.383   6.136  1.00  0.00    -0.023 CG0
ATOM      9  G   UNL     1      38.071 -10.877   6.038  1.00  0.00     0.000 G0
ENDBRANCH   5   6
ENDBRANCH   4   5
ENDBRANCH   2   4
BRANCH   1  10
ATOM     10  C   UNL     1      40.668 -10.741   8.619  1.00  0.00     0.111 C 
BRANCH  10  11
ATOM     11  C   UNL     1      39.846  -9.896   7.676  1.00  0.00     0.163 C 
ATOM     12  O   UNL     1      39.431  -8.788   8.111  1.00  0.00    -0.294 OA
BRANCH  11  13
ATOM     13  C   UNL     1      39.486 -10.314   6.279  1.00  0.00    -0.002 C 
ATOM     14  C   UNL     1      40.335 -10.060   5.237  1.00  0.00    -0.069 C 
ATOM     15  C   UNL     1      39.915 -10.252   3.797  1.00  0.00     0.039 C 
ATOM     16  C   UNL     1      41.763  -9.621   5.471  1.00  0.00     0.039 C 
BRANCH  13  17
ATOM     17  C   UNL     1      38.081 -10.858   6.040  1.00  0.00     0.066 CG0
ATOM     18  G   UNL     1      37.912 -12.363   6.140  1.00  0.00     0.000 G0
ENDBRANCH  13  17
ENDBRANCH  11  13
ENDBRANCH  10  11
ENDBRANCH   1  10
TORSDOF 0
ENDMDL
MODEL 8
REMARK VINA RESULT:    -5.209      2.091      5.133
REMARK INTER + INTRA:          -6.774
REMARK INTER:                  -7.099
REMARK INTRA:                   0.325
REMARK UNBOUND:                 0.567
REMARK SMILES CC1=CCC(=C(C)C)C(=O)CC(C)=CCC1
REMARK SMILES IDX 12 1 14 2 13 3 15 4 16 5 2 6 1 7 3 8 11 10 9 11 10 12 5 13
REMARK SMILES IDX 6 14 7 15 8 16 4 17
REMARK H PARENT
REMARK Flexibility Score: 60.00
ROOT
ATOM      1  C   UNL     1      41.314 -10.677  10.071  1.00  0.00    -0.070 C 
ATOM      2  C   UNL     1      42.451 -11.400   9.946  1.00  0.00    -0.027 C 
ATOM      3  C   UNL     1      41.197  -9.735  11.242  1.00  0.00     0.039 C 
ENDROOT
BRANCH   2   4
ATOM      4  C   UNL     1      42.794 -12.273   8.767  1.00  0.00     0.032 C 
BRANCH   4   5
ATOM      5  C   UNL     1      43.068 -13.704   9.241  1.00  0.00     0.034 C 
BRANCH   5   6
ATOM      6  C   UNL     1      42.054 -14.181  10.261  1.00  0.00    -0.077 C 
ATOM      7  C   UNL     1      42.509 -14.409  11.681  1.00  0.00     0.039 C 
ATOM      8  C   UNL     1      40.768 -14.487   9.955  1.00  0.00    -0.023 CG0
ATOM      9  G   UNL     1      40.065 -14.291   8.624  1.00  0.00     0.000 G0
ENDBRANCH   5   6
ENDBRANCH   4   5
ENDBRANCH   2   4
BRANCH   1  10
ATOM     10  C   UNL     1      40.148 -10.784   9.108  1.00  0.00     0.111 C 
BRANCH  10  11
ATOM     11  C   UNL     1      39.258 -11.960   9.431  1.00  0.00     0.163 C 
ATOM     12  O   UNL     1      38.670 -11.946  10.546  1.00  0.00    -0.294 OA
BRANCH  11  13
ATOM     13  C   UNL     1      39.063 -13.135   8.516  1.00  0.00    -0.002 C 
ATOM     14  C   UNL     1      37.938 -13.235   7.744  1.00  0.00    -0.069 C 
ATOM     15  C   UNL     1      37.593 -14.499   6.991  1.00  0.00     0.039 C 
ATOM     16  C   UNL     1      37.001 -12.062   7.559  1.00  0.00     0.039 C 
BRANCH  13  17
ATOM     17  C   UNL     1      40.058 -14.287   8.614  1.00  0.00     0.066 CG0
ATOM     18  G   UNL     1      40.740 -14.479   9.957  1.00  0.00     0.000 G0
ENDBRANCH  13  17
ENDBRANCH  11  13
ENDBRANCH  10  11
ENDBRANCH   1  10
TORSDOF 0
ENDMDL
MODEL 9
REMARK VINA RESULT:    -5.136      1.740      2.529
REMARK INTER + INTRA:          -6.670
REMARK INTER:                  -6.865
REMARK INTRA:                   0.194
REMARK UNBOUND:                 0.567
REMARK SMILES CC1=CCC(=C(C)C)C(=O)CC(C)=CCC1
REMARK SMILES IDX 12 1 14 2 13 3 15 4 16 5 2 6 1 7 3 8 11 10 9 11 10 12 5 13
REMARK SMILES IDX 6 14 7 15 8 16 4 17
REMARK H PARENT
REMARK Flexibility Score: 60.00
ROOT
ATOM      1  C   UNL     1      39.374 -12.562   9.257  1.00  0.00    -0.070 C 
ATOM      2  C   UNL     1      38.807 -12.231   8.073  1.00  0.00    -0.027 C 
ATOM      3  C   UNL     1      39.523 -14.026   9.586  1.00  0.00     0.039 C 
ENDROOT
BRANCH   2   4
ATOM      4  C   UNL     1      38.714 -10.832   7.522  1.00  0.00     0.032 C 
BRANCH   4   5
ATOM      5  C   UNL     1      39.866 -10.580   6.544  1.00  0.00     0.034 C 
BRANCH   5   6
ATOM      6  C   UNL     1      40.964  -9.727   7.148  1.00  0.00    -0.077 C 
ATOM      7  C   UNL     1      40.835  -8.226   7.079  1.00  0.00     0.039 C 
ATOM      8  C   UNL     1      42.100 -10.237   7.687  1.00  0.00    -0.023 CG0
ATOM      9  G   UNL     1      42.434 -11.699   7.920  1.00  0.00     0.000 G0
ENDBRANCH   5   6
ENDBRANCH   4   5
ENDBRANCH   2   4
BRANCH   1  10
ATOM     10  C   UNL     1      39.845 -11.539  10.271  1.00  0.00     0.111 C 
BRANCH  10  11
ATOM     11  C   UNL     1      41.349 -11.407  10.279  1.00  0.00     0.163 C 
ATOM     12  O   UNL     1      41.847 -10.573  11.082  1.00  0.00    -0.294 OA
BRANCH  11  13
ATOM     13  C   UNL     1      42.261 -12.190   9.379  1.00  0.00    -0.002 C 
ATOM     14  C   UNL     1      43.022 -13.211   9.878  1.00  0.00    -0.069 C 
ATOM     15  C   UNL     1      44.115 -13.867   9.065  1.00  0.00     0.039 C 
ATOM     16  C   UNL     1      42.776 -13.777  11.258  1.00  0.00     0.039 C 
BRANCH  13  17
ATOM     17  C   UNL     1      42.445 -11.694   7.948  1.00  0.00     0.066 CG0
ATOM     18  G   UNL     1      42.101 -10.239   7.687  1.00  0.00     0.000 G0
ENDBRANCH  13  17
ENDBRANCH  11  13
ENDBRANCH  10  11
ENDBRANCH   1  10
TORSDOF 0
ENDMDL
