MODEL 1
REMARK VINA RESULT:    -7.281      0.000      0.000
REMARK INTER + INTRA:         -10.741
REMARK INTER:                  -9.622
REMARK INTRA:                  -1.119
REMARK UNBOUND:                -1.119
REMARK SMILES CC[C@H](C=C[C@H](C)[C@H]1CC[C@H]2[C@@H]3CC=C4C[C@H](O)CC[C@]4(C)[C@@H]3CC[C@@]12C)C(C)C
REMARK SMILES IDX 6 1 7 2 5 3 4 4 3 5 2 6 1 7 28 8 29 9 30 10 8 11 9 12 26 13
REMARK SMILES IDX 10 14 11 15 25 16 27 17 12 18 24 19 23 20 13 21 21 22 14 23
REMARK SMILES IDX 15 24 20 25 22 26 16 27 19 28 17 29 18 30
REMARK H PARENT 18 31
REMARK Flexibility Score: inf
ROOT
ATOM      1  C   UNL     1       3.195  42.328  11.249  1.00  0.00     0.012 C 
ATOM      2  C   UNL     1       4.139  42.783  12.373  1.00  0.00     0.012 C 
ENDROOT
BRANCH   1   3
ATOM      3  C   UNL     1       2.622  40.965  11.587  1.00  0.00    -0.028 C 
ATOM      4  C   UNL     1       2.583  40.473  12.837  1.00  0.00    -0.027 C 
BRANCH   4   5
ATOM      5  C   UNL     1       1.955  39.129  13.151  1.00  0.00     0.014 C 
BRANCH   5   6
ATOM      6  C   UNL     1       0.461  39.321  13.517  1.00  0.00     0.004 C 
ATOM      7  C   UNL     1       0.137  40.637  14.239  1.00  0.00     0.004 C 
ENDBRANCH   5   6
BRANCH   5   8
ATOM      8  C   UNL     1       2.217  38.108  11.996  1.00  0.00    -0.011 C 
ATOM      9  C   UNL     1       3.681  37.626  12.008  1.00  0.00     0.008 C 
ATOM     10  C   UNL     1       1.292  36.882  12.085  1.00  0.00     0.008 C 
ENDBRANCH   5   8
ENDBRANCH   4   5
ENDBRANCH   1   3
BRANCH   1  11
ATOM     11  C   UNL     1       2.068  43.353  10.857  1.00  0.00     0.002 C 
ATOM     12  C   UNL     1       1.650  44.361  11.916  1.00  0.00     0.005 C 
ATOM     13  C   UNL     1       2.235  44.188   9.542  1.00  0.00    -0.026 C 
ATOM     14  C   UNL     1       0.703  45.287  11.174  1.00  0.00     0.005 C 
ATOM     15  C   UNL     1       1.214  45.368   9.716  1.00  0.00    -0.001 C 
ATOM     16  C   UNL     1       3.688  44.704   9.265  1.00  0.00     0.007 C 
ATOM     17  C   UNL     1       1.814  43.296   8.343  1.00  0.00     0.012 C 
ATOM     18  C   UNL     1       1.765  46.788   9.395  1.00  0.00     0.000 C 
ATOM     19  C   UNL     1       4.136  45.996   9.977  1.00  0.00     0.005 C 
ATOM     20  C   UNL     1       3.056  47.096  10.189  1.00  0.00     0.003 C 
ATOM     21  C   UNL     1       1.918  47.051   7.874  1.00  0.00     0.031 C 
ATOM     22  C   UNL     1       3.564  48.557   9.890  1.00  0.00    -0.008 C 
ATOM     23  C   UNL     1       2.957  48.088   7.502  1.00  0.00    -0.027 C 
ATOM     24  C   UNL     1       3.764  48.722   8.384  1.00  0.00    -0.065 C 
ATOM     25  C   UNL     1       4.882  48.852  10.693  1.00  0.00     0.014 C 
ATOM     26  C   UNL     1       2.503  49.599  10.343  1.00  0.00     0.016 C 
ATOM     27  C   UNL     1       4.669  49.823   7.868  1.00  0.00     0.063 C 
ATOM     28  C   UNL     1       5.678  50.056  10.162  1.00  0.00     0.033 C 
ATOM     29  C   UNL     1       5.975  49.911   8.664  1.00  0.00     0.118 C 
BRANCH  29  30
ATOM     30  O   UNL     1       6.755  48.768   8.417  1.00  0.00    -0.393 OA
ATOM     31  H   UNL     1       6.791  48.254   9.267  1.00  0.00     0.210 HD
ENDBRANCH  29  30
ENDBRANCH   1  11
TORSDOF 6
ENDMDL
MODEL 2
REMARK VINA RESULT:    -6.978      1.907      3.866
REMARK INTER + INTRA:         -10.341
REMARK INTER:                  -9.187
REMARK INTRA:                  -1.154
REMARK UNBOUND:                -1.119
REMARK SMILES CC[C@H](C=C[C@H](C)[C@H]1CC[C@H]2[C@@H]3CC=C4C[C@H](O)CC[C@]4(C)[C@@H]3CC[C@@]12C)C(C)C
REMARK SMILES IDX 6 1 7 2 5 3 4 4 3 5 2 6 1 7 28 8 29 9 30 10 8 11 9 12 26 13
REMARK SMILES IDX 10 14 11 15 25 16 27 17 12 18 24 19 23 20 13 21 21 22 14 23
REMARK SMILES IDX 15 24 20 25 22 26 16 27 19 28 17 29 18 30
REMARK H PARENT 18 31
REMARK Flexibility Score: inf
ROOT
ATOM      1  C   UNL     1      -0.094  44.377   8.232  1.00  0.00     0.012 C 
ATOM      2  C   UNL     1      -0.144  43.969   6.751  1.00  0.00     0.012 C 
ENDROOT
BRANCH   1   3
ATOM      3  C   UNL     1       1.289  44.101   8.789  1.00  0.00    -0.028 C 
ATOM      4  C   UNL     1       1.519  43.238   9.793  1.00  0.00    -0.027 C 
BRANCH   4   5
ATOM      5  C   UNL     1       2.920  42.943  10.294  1.00  0.00     0.014 C 
BRANCH   5   6
ATOM      6  C   UNL     1       3.855  44.135   9.964  1.00  0.00     0.004 C 
ATOM      7  C   UNL     1       4.155  45.067  11.147  1.00  0.00     0.004 C 
ENDBRANCH   5   6
BRANCH   5   8
ATOM      8  C   UNL     1       2.897  42.531  11.801  1.00  0.00    -0.011 C 
ATOM      9  C   UNL     1       1.483  42.692  12.395  1.00  0.00     0.008 C 
ATOM     10  C   UNL     1       3.359  41.078  12.012  1.00  0.00     0.008 C 
ENDBRANCH   5   8
ENDBRANCH   4   5
ENDBRANCH   1   3
BRANCH   1  11
ATOM     11  C   UNL     1      -0.566  45.844   8.545  1.00  0.00     0.002 C 
ATOM     12  C   UNL     1      -0.530  46.288  10.000  1.00  0.00     0.005 C 
ATOM     13  C   UNL     1       0.074  47.027   7.742  1.00  0.00    -0.026 C 
ATOM     14  C   UNL     1      -0.865  47.766   9.931  1.00  0.00     0.005 C 
ATOM     15  C   UNL     1      -0.272  48.294   8.603  1.00  0.00    -0.001 C 
ATOM     16  C   UNL     1       1.613  46.896   7.483  1.00  0.00     0.007 C 
ATOM     17  C   UNL     1      -0.632  47.115   6.362  1.00  0.00     0.012 C 
ATOM     18  C   UNL     1       0.909  49.272   8.868  1.00  0.00     0.000 C 
ATOM     19  C   UNL     1       2.568  47.330   8.612  1.00  0.00     0.005 C 
ATOM     20  C   UNL     1       2.130  48.545   9.480  1.00  0.00     0.003 C 
ATOM     21  C   UNL     1       1.280  50.128   7.628  1.00  0.00     0.031 C 
ATOM     22  C   UNL     1       3.292  49.562   9.791  1.00  0.00    -0.008 C 
ATOM     23  C   UNL     1       2.711  50.621   7.592  1.00  0.00    -0.027 C 
ATOM     24  C   UNL     1       3.656  50.316   8.512  1.00  0.00    -0.065 C 
ATOM     25  C   UNL     1       4.528  48.809  10.401  1.00  0.00     0.014 C 
ATOM     26  C   UNL     1       2.824  50.609  10.840  1.00  0.00     0.016 C 
ATOM     27  C   UNL     1       5.011  50.986   8.401  1.00  0.00     0.063 C 
ATOM     28  C   UNL     1       5.838  49.613  10.342  1.00  0.00     0.033 C 
ATOM     29  C   UNL     1       6.139  50.086   8.913  1.00  0.00     0.118 C 
BRANCH  29  30
ATOM     30  O   UNL     1       6.297  48.990   8.048  1.00  0.00    -0.393 OA
ATOM     31  H   UNL     1       5.385  48.695   7.786  1.00  0.00     0.210 HD
ENDBRANCH  29  30
ENDBRANCH   1  11
TORSDOF 6
ENDMDL
MODEL 3
REMARK VINA RESULT:    -6.774      0.782      1.641
REMARK INTER + INTRA:         -10.070
REMARK INTER:                  -8.979
REMARK INTRA:                  -1.091
REMARK UNBOUND:                -1.119
REMARK SMILES CC[C@H](C=C[C@H](C)[C@H]1CC[C@H]2[C@@H]3CC=C4C[C@H](O)CC[C@]4(C)[C@@H]3CC[C@@]12C)C(C)C
REMARK SMILES IDX 6 1 7 2 5 3 4 4 3 5 2 6 1 7 28 8 29 9 30 10 8 11 9 12 26 13
REMARK SMILES IDX 10 14 11 15 25 16 27 17 12 18 24 19 23 20 13 21 21 22 14 23
REMARK SMILES IDX 15 24 20 25 22 26 16 27 19 28 17 29 18 30
REMARK H PARENT 18 31
REMARK Flexibility Score: inf
ROOT
ATOM      1  C   UNL     1       3.210  42.727  10.905  1.00  0.00     0.012 C 
ATOM      2  C   UNL     1       4.194  43.138  12.012  1.00  0.00     0.012 C 
ENDROOT
BRANCH   1   3
ATOM      3  C   UNL     1       2.632  41.360  11.221  1.00  0.00    -0.028 C 
ATOM      4  C   UNL     1       2.421  40.922  12.474  1.00  0.00    -0.027 C 
BRANCH   4   5
ATOM      5  C   UNL     1       1.794  39.571  12.757  1.00  0.00     0.014 C 
BRANCH   5   6
ATOM      6  C   UNL     1       2.900  38.543  13.106  1.00  0.00     0.004 C 
ATOM      7  C   UNL     1       4.325  39.113  13.137  1.00  0.00     0.004 C 
ENDBRANCH   5   6
BRANCH   5   8
ATOM      8  C   UNL     1       0.660  39.697  13.826  1.00  0.00    -0.011 C 
ATOM      9  C   UNL     1       0.278  41.173  14.051  1.00  0.00     0.008 C 
ATOM     10  C   UNL     1      -0.603  38.915  13.425  1.00  0.00     0.008 C 
ENDBRANCH   5   8
ENDBRANCH   4   5
ENDBRANCH   1   3
BRANCH   1  11
ATOM     11  C   UNL     1       2.082  43.774  10.581  1.00  0.00     0.002 C 
ATOM     12  C   UNL     1       1.677  44.725  11.698  1.00  0.00     0.005 C 
ATOM     13  C   UNL     1       2.240  44.680   9.313  1.00  0.00    -0.026 C 
ATOM     14  C   UNL     1       0.726  45.692  11.017  1.00  0.00     0.005 C 
ATOM     15  C   UNL     1       1.224  45.852   9.561  1.00  0.00    -0.001 C 
ATOM     16  C   UNL     1       3.691  45.207   9.051  1.00  0.00     0.007 C 
ATOM     17  C   UNL     1       1.805  43.857   8.070  1.00  0.00     0.012 C 
ATOM     18  C   UNL     1       1.776  47.286   9.314  1.00  0.00     0.000 C 
ATOM     19  C   UNL     1       4.150  46.457   9.829  1.00  0.00     0.005 C 
ATOM     20  C   UNL     1       3.076  47.546  10.111  1.00  0.00     0.003 C 
ATOM     21  C   UNL     1       1.917  47.632   7.808  1.00  0.00     0.031 C 
ATOM     22  C   UNL     1       3.585  49.021   9.889  1.00  0.00    -0.008 C 
ATOM     23  C   UNL     1       2.955  48.685   7.484  1.00  0.00    -0.027 C 
ATOM     24  C   UNL     1       3.772  49.267   8.392  1.00  0.00    -0.065 C 
ATOM     25  C   UNL     1       4.911  49.268  10.694  1.00  0.00     0.014 C 
ATOM     26  C   UNL     1       2.532  50.038  10.408  1.00  0.00     0.016 C 
ATOM     27  C   UNL     1       4.676  50.393   7.928  1.00  0.00     0.063 C 
ATOM     28  C   UNL     1       5.707  50.496  10.223  1.00  0.00     0.033 C 
ATOM     29  C   UNL     1       5.989  50.433   8.716  1.00  0.00     0.118 C 
BRANCH  29  30
ATOM     30  O   UNL     1       6.764  49.304   8.399  1.00  0.00    -0.393 OA
ATOM     31  H   UNL     1       6.237  48.766   7.750  1.00  0.00     0.210 HD
ENDBRANCH  29  30
ENDBRANCH   1  11
TORSDOF 6
ENDMDL
MODEL 4
REMARK VINA RESULT:    -6.353      1.299      2.145
REMARK INTER + INTRA:          -9.514
REMARK INTER:                  -8.976
REMARK INTRA:                  -0.538
REMARK UNBOUND:                -1.119
REMARK SMILES CC[C@H](C=C[C@H](C)[C@H]1CC[C@H]2[C@@H]3CC=C4C[C@H](O)CC[C@]4(C)[C@@H]3CC[C@@]12C)C(C)C
REMARK SMILES IDX 6 1 7 2 5 3 4 4 3 5 2 6 1 7 28 8 29 9 30 10 8 11 9 12 26 13
REMARK SMILES IDX 10 14 11 15 25 16 27 17 12 18 24 19 23 20 13 21 21 22 14 23
REMARK SMILES IDX 15 24 20 25 22 26 16 27 19 28 17 29 18 30
REMARK H PARENT 18 31
REMARK Flexibility Score: inf
ROOT
ATOM      1  C   UNL     1       1.101  43.638  11.976  1.00  0.00     0.012 C 
ATOM      2  C   UNL     1       0.000  43.207  12.960  1.00  0.00     0.012 C 
ENDROOT
BRANCH   1   3
ATOM      3  C   UNL     1       2.006  42.457  11.678  1.00  0.00    -0.028 C 
ATOM      4  C   UNL     1       2.207  41.448  12.542  1.00  0.00    -0.027 C 
BRANCH   4   5
ATOM      5  C   UNL     1       3.077  40.256  12.195  1.00  0.00     0.014 C 
BRANCH   5   6
ATOM      6  C   UNL     1       4.563  40.588  12.487  1.00  0.00     0.004 C 
ATOM      7  C   UNL     1       5.174  39.827  13.672  1.00  0.00     0.004 C 
ENDBRANCH   5   6
BRANCH   5   8
ATOM      8  C   UNL     1       2.550  38.960  12.893  1.00  0.00    -0.011 C 
ATOM      9  C   UNL     1       1.044  39.075  13.201  1.00  0.00     0.008 C 
ATOM     10  C   UNL     1       2.784  37.704  12.036  1.00  0.00     0.008 C 
ENDBRANCH   5   8
ENDBRANCH   4   5
ENDBRANCH   1   3
BRANCH   1  11
ATOM     11  C   UNL     1       0.595  44.331  10.658  1.00  0.00     0.002 C 
ATOM     12  C   UNL     1      -0.345  45.517  10.816  1.00  0.00     0.005 C 
ATOM     13  C   UNL     1       1.651  44.788   9.595  1.00  0.00    -0.026 C 
ATOM     14  C   UNL     1      -0.492  46.048   9.402  1.00  0.00     0.005 C 
ATOM     15  C   UNL     1       0.861  45.802   8.693  1.00  0.00    -0.001 C 
ATOM     16  C   UNL     1       2.956  45.422  10.188  1.00  0.00     0.007 C 
ATOM     17  C   UNL     1       2.067  43.547   8.760  1.00  0.00     0.012 C 
ATOM     18  C   UNL     1       1.588  47.144   8.393  1.00  0.00     0.000 C 
ATOM     19  C   UNL     1       2.912  46.912  10.580  1.00  0.00     0.005 C 
ATOM     20  C   UNL     1       2.047  47.851   9.690  1.00  0.00     0.003 C 
ATOM     21  C   UNL     1       2.730  46.999   7.353  1.00  0.00     0.031 C 
ATOM     22  C   UNL     1       2.730  49.234   9.365  1.00  0.00    -0.008 C 
ATOM     23  C   UNL     1       3.826  48.038   7.451  1.00  0.00    -0.027 C 
ATOM     24  C   UNL     1       3.889  49.006   8.395  1.00  0.00    -0.065 C 
ATOM     25  C   UNL     1       3.202  49.935  10.689  1.00  0.00     0.014 C 
ATOM     26  C   UNL     1       1.715  50.186   8.673  1.00  0.00     0.016 C 
ATOM     27  C   UNL     1       4.987  50.046   8.286  1.00  0.00     0.063 C 
ATOM     28  C   UNL     1       4.235  51.052  10.469  1.00  0.00     0.033 C 
ATOM     29  C   UNL     1       5.439  50.546   9.661  1.00  0.00     0.118 C 
BRANCH  29  30
ATOM     30  O   UNL     1       6.100  49.513  10.345  1.00  0.00    -0.393 OA
ATOM     31  H   UNL     1       6.733  49.098   9.700  1.00  0.00     0.210 HD
ENDBRANCH  29  30
ENDBRANCH   1  11
TORSDOF 6
ENDMDL
MODEL 5
REMARK VINA RESULT:    -5.942      1.606      2.884
REMARK INTER + INTRA:          -8.971
REMARK INTER:                  -8.005
REMARK INTRA:                  -0.966
REMARK UNBOUND:                -1.119
REMARK SMILES CC[C@H](C=C[C@H](C)[C@H]1CC[C@H]2[C@@H]3CC=C4C[C@H](O)CC[C@]4(C)[C@@H]3CC[C@@]12C)C(C)C
REMARK SMILES IDX 6 1 7 2 5 3 4 4 3 5 2 6 1 7 28 8 29 9 30 10 8 11 9 12 26 13
REMARK SMILES IDX 10 14 11 15 25 16 27 17 12 18 24 19 23 20 13 21 21 22 14 23
REMARK SMILES IDX 15 24 20 25 22 26 16 27 19 28 17 29 18 30
REMARK H PARENT 18 31
REMARK Flexibility Score: inf
ROOT
ATOM      1  C   UNL     1       1.285  43.512  12.100  1.00  0.00     0.012 C 
ATOM      2  C   UNL     1      -0.096  43.975  11.609  1.00  0.00     0.012 C 
ENDROOT
BRANCH   1   3
ATOM      3  C   UNL     1       1.157  42.162  12.781  1.00  0.00    -0.028 C 
ATOM      4  C   UNL     1       2.111  41.219  12.729  1.00  0.00    -0.027 C 
BRANCH   4   5
ATOM      5  C   UNL     1       1.976  39.899  13.463  1.00  0.00     0.014 C 
BRANCH   5   6
ATOM      6  C   UNL     1       0.601  39.260  13.143  1.00  0.00     0.004 C 
ATOM      7  C   UNL     1      -0.584  39.853  13.919  1.00  0.00     0.004 C 
ENDBRANCH   5   6
BRANCH   5   8
ATOM      8  C   UNL     1       3.206  38.976  13.180  1.00  0.00    -0.011 C 
ATOM      9  C   UNL     1       2.894  37.977  12.048  1.00  0.00     0.008 C 
ATOM     10  C   UNL     1       4.459  39.781  12.797  1.00  0.00     0.008 C 
ENDBRANCH   5   8
ENDBRANCH   4   5
ENDBRANCH   1   3
BRANCH   1  11
ATOM     11  C   UNL     1       2.423  43.510  11.014  1.00  0.00     0.002 C 
ATOM     12  C   UNL     1       1.988  43.499   9.556  1.00  0.00     0.005 C 
ATOM     13  C   UNL     1       3.543  44.602  11.096  1.00  0.00    -0.026 C 
ATOM     14  C   UNL     1       3.288  43.678   8.794  1.00  0.00     0.005 C 
ATOM     15  C   UNL     1       4.192  44.580   9.666  1.00  0.00    -0.001 C 
ATOM     16  C   UNL     1       3.046  46.033  11.493  1.00  0.00     0.007 C 
ATOM     17  C   UNL     1       4.583  44.152  12.157  1.00  0.00     0.012 C 
ATOM     18  C   UNL     1       4.403  45.971   9.001  1.00  0.00     0.000 C 
ATOM     19  C   UNL     1       2.457  46.921  10.379  1.00  0.00     0.005 C 
ATOM     20  C   UNL     1       3.095  46.795   8.965  1.00  0.00     0.003 C 
ATOM     21  C   UNL     1       5.593  46.761   9.607  1.00  0.00     0.031 C 
ATOM     22  C   UNL     1       3.319  48.174   8.238  1.00  0.00    -0.008 C 
ATOM     23  C   UNL     1       5.501  48.266   9.473  1.00  0.00    -0.027 C 
ATOM     24  C   UNL     1       4.452  48.930   8.932  1.00  0.00    -0.065 C 
ATOM     25  C   UNL     1       1.986  49.005   8.219  1.00  0.00     0.014 C 
ATOM     26  C   UNL     1       3.740  47.942   6.760  1.00  0.00     0.016 C 
ATOM     27  C   UNL     1       4.563  50.432   8.760  1.00  0.00     0.063 C 
ATOM     28  C   UNL     1       2.188  50.501   7.928  1.00  0.00     0.033 C 
ATOM     29  C   UNL     1       3.204  51.125   8.895  1.00  0.00     0.118 C 
BRANCH  29  30
ATOM     30  O   UNL     1       2.755  51.028  10.223  1.00  0.00    -0.393 OA
ATOM     31  H   UNL     1       1.860  50.596  10.194  1.00  0.00     0.210 HD
ENDBRANCH  29  30
ENDBRANCH   1  11
TORSDOF 6
ENDMDL
MODEL 6
REMARK VINA RESULT:    -4.404      2.785      7.786
REMARK INTER + INTRA:          -6.939
REMARK INTER:                  -6.520
REMARK INTRA:                  -0.419
REMARK UNBOUND:                -1.119
REMARK SMILES CC[C@H](C=C[C@H](C)[C@H]1CC[C@H]2[C@@H]3CC=C4C[C@H](O)CC[C@]4(C)[C@@H]3CC[C@@]12C)C(C)C
REMARK SMILES IDX 6 1 7 2 5 3 4 4 3 5 2 6 1 7 28 8 29 9 30 10 8 11 9 12 26 13
REMARK SMILES IDX 10 14 11 15 25 16 27 17 12 18 24 19 23 20 13 21 21 22 14 23
REMARK SMILES IDX 15 24 20 25 22 26 16 27 19 28 17 29 18 30
REMARK H PARENT 18 31
REMARK Flexibility Score: inf
ROOT
ATOM      1  C   UNL     1       1.002  49.433   7.424  1.00  0.00     0.012 C 
ATOM      2  C   UNL     1       0.302  50.731   7.859  1.00  0.00     0.012 C 
ENDROOT
BRANCH   1   3
ATOM      3  C   UNL     1       2.334  49.310   8.138  1.00  0.00    -0.028 C 
ATOM      4  C   UNL     1       3.517  49.365   7.502  1.00  0.00    -0.027 C 
BRANCH   4   5
ATOM      5  C   UNL     1       4.834  49.292   8.250  1.00  0.00     0.014 C 
BRANCH   5   6
ATOM      6  C   UNL     1       5.217  50.699   8.776  1.00  0.00     0.004 C 
ATOM      7  C   UNL     1       6.695  51.075   8.599  1.00  0.00     0.004 C 
ENDBRANCH   5   6
BRANCH   5   8
ATOM      8  C   UNL     1       4.792  48.177   9.345  1.00  0.00    -0.011 C 
ATOM      9  C   UNL     1       6.082  47.333   9.321  1.00  0.00     0.008 C 
ATOM     10  C   UNL     1       4.608  48.758  10.757  1.00  0.00     0.008 C 
ENDBRANCH   5   8
ENDBRANCH   4   5
ENDBRANCH   1   3
BRANCH   1  11
ATOM     11  C   UNL     1       0.142  48.123   7.564  1.00  0.00     0.002 C 
ATOM     12  C   UNL     1       0.491  46.964   6.642  1.00  0.00     0.005 C 
ATOM     13  C   UNL     1      -0.022  47.480   8.983  1.00  0.00    -0.026 C 
ATOM     14  C   UNL     1      -0.382  45.830   7.147  1.00  0.00     0.005 C 
ATOM     15  C   UNL     1      -0.514  46.020   8.677  1.00  0.00    -0.001 C 
ATOM     16  C   UNL     1       1.269  47.491   9.869  1.00  0.00     0.007 C 
ATOM     17  C   UNL     1      -1.125  48.262   9.746  1.00  0.00     0.012 C 
ATOM     18  C   UNL     1       0.224  44.886   9.447  1.00  0.00     0.000 C 
ATOM     19  C   UNL     1       2.306  46.374   9.637  1.00  0.00     0.005 C 
ATOM     20  C   UNL     1       1.757  44.968   9.260  1.00  0.00     0.003 C 
ATOM     21  C   UNL     1      -0.195  44.791  10.938  1.00  0.00     0.031 C 
ATOM     22  C   UNL     1       2.478  43.779  10.001  1.00  0.00    -0.008 C 
ATOM     23  C   UNL     1       0.841  44.182  11.859  1.00  0.00    -0.027 C 
ATOM     24  C   UNL     1       2.079  43.791  11.476  1.00  0.00    -0.065 C 
ATOM     25  C   UNL     1       4.034  43.881   9.812  1.00  0.00     0.014 C 
ATOM     26  C   UNL     1       2.028  42.418   9.401  1.00  0.00     0.016 C 
ATOM     27  C   UNL     1       2.957  43.088  12.492  1.00  0.00     0.063 C 
ATOM     28  C   UNL     1       4.840  43.046  10.821  1.00  0.00     0.033 C 
ATOM     29  C   UNL     1       4.443  43.381  12.266  1.00  0.00     0.118 C 
BRANCH  29  30
ATOM     30  O   UNL     1       4.706  44.731  12.556  1.00  0.00    -0.393 OA
ATOM     31  H   UNL     1       3.851  45.132  12.865  1.00  0.00     0.210 HD
ENDBRANCH  29  30
ENDBRANCH   1  11
TORSDOF 6
ENDMDL
