MODEL 1
REMARK VINA RESULT:    -5.418      0.000      0.000
REMARK INTER + INTRA:          -6.743
REMARK INTER:                  -6.527
REMARK INTRA:                  -0.217
REMARK UNBOUND:                -0.217
REMARK SMILES CCCCc1oc(O)c2ccccc12
REMARK SMILES IDX 4 1 5 2 7 3 6 4 9 5 14 6 10 7 13 8 11 9 12 10 8 11 3 13 2 14
REMARK SMILES IDX 1 15
REMARK H PARENT 8 12
REMARK Flexibility Score: inf
ROOT
ATOM      1  C   UNL     1      27.367 -14.104 -16.133  1.00  0.00     0.076 C 
ENDROOT
BRANCH   1   2
ATOM      2  C   UNL     1      28.223 -15.021 -16.951  1.00  0.00     0.116 A 
ATOM      3  C   UNL     1      28.866 -16.788 -17.982  1.00  0.00     0.290 A 
ATOM      4  O   UNL     1      27.880 -16.252 -17.290  1.00  0.00    -0.430 OA
ATOM      5  C   UNL     1      29.896 -15.884 -18.100  1.00  0.00     0.066 A 
ATOM      6  C   UNL     1      29.490 -14.756 -17.441  1.00  0.00     0.027 A 
ATOM      7  C   UNL     1      31.140 -15.972 -18.721  1.00  0.00     0.016 A 
ATOM      8  C   UNL     1      30.305 -13.627 -17.351  1.00  0.00     0.012 A 
ATOM      9  C   UNL     1      31.985 -14.848 -18.650  1.00  0.00     0.001 A 
ATOM     10  C   UNL     1      31.569 -13.681 -17.968  1.00  0.00     0.001 A 
BRANCH   3  11
ATOM     11  O   UNL     1      28.851 -18.076 -18.503  1.00  0.00    -0.480 OA
ATOM     12  H   UNL     1      29.596 -18.392 -19.111  1.00  0.00     0.297 HD
ENDBRANCH   3  11
ENDBRANCH   1   2
BRANCH   1  13
ATOM     13  C   UNL     1      26.036 -13.837 -16.848  1.00  0.00     0.008 C 
BRANCH  13  14
ATOM     14  C   UNL     1      24.822 -14.257 -16.007  1.00  0.00    -0.003 C 
ATOM     15  C   UNL     1      23.671 -13.253 -16.089  1.00  0.00     0.004 C 
ENDBRANCH  13  14
ENDBRANCH   1  13
TORSDOF 4
ENDMDL
MODEL 2
REMARK VINA RESULT:    -5.303      1.496      4.491
REMARK INTER + INTRA:          -6.605
REMARK INTER:                  -6.220
REMARK INTRA:                  -0.385
REMARK UNBOUND:                -0.217
REMARK SMILES CCCCc1oc(O)c2ccccc12
REMARK SMILES IDX 4 1 5 2 7 3 6 4 9 5 14 6 10 7 13 8 11 9 12 10 8 11 3 13 2 14
REMARK SMILES IDX 1 15
REMARK H PARENT 8 12
REMARK Flexibility Score: inf
ROOT
ATOM      1  C   UNL     1      31.004 -15.346 -15.886  1.00  0.00     0.076 C 
ENDROOT
BRANCH   1   2
ATOM      2  C   UNL     1      29.856 -15.575 -16.820  1.00  0.00     0.116 A 
ATOM      3  C   UNL     1      28.738 -16.329 -18.487  1.00  0.00     0.290 A 
ATOM      4  O   UNL     1      29.902 -16.378 -17.869  1.00  0.00    -0.430 OA
ATOM      5  C   UNL     1      27.897 -15.463 -17.828  1.00  0.00     0.066 A 
ATOM      6  C   UNL     1      28.609 -14.978 -16.764  1.00  0.00     0.027 A 
ATOM      7  C   UNL     1      26.587 -15.067 -18.083  1.00  0.00     0.016 A 
ATOM      8  C   UNL     1      28.059 -14.053 -15.875  1.00  0.00     0.012 A 
ATOM      9  C   UNL     1      26.002 -14.137 -17.203  1.00  0.00     0.001 A 
ATOM     10  C   UNL     1      26.736 -13.632 -16.105  1.00  0.00     0.001 A 
BRANCH   3  11
ATOM     11  O   UNL     1      28.427 -17.049 -19.634  1.00  0.00    -0.480 OA
ATOM     12  H   UNL     1      28.641 -16.673 -20.550  1.00  0.00     0.297 HD
ENDBRANCH   3  11
ENDBRANCH   1   2
BRANCH   1  13
ATOM     13  C   UNL     1      32.087 -14.499 -16.567  1.00  0.00     0.008 C 
BRANCH  13  14
ATOM     14  C   UNL     1      31.503 -13.298 -17.327  1.00  0.00    -0.003 C 
ATOM     15  C   UNL     1      31.733 -13.387 -18.836  1.00  0.00     0.004 C 
ENDBRANCH  13  14
ENDBRANCH   1  13
TORSDOF 4
ENDMDL
MODEL 3
REMARK VINA RESULT:    -5.188      1.005      1.181
REMARK INTER + INTRA:          -6.466
REMARK INTER:                  -6.302
REMARK INTRA:                  -0.165
REMARK UNBOUND:                -0.217
REMARK SMILES CCCCc1oc(O)c2ccccc12
REMARK SMILES IDX 4 1 5 2 7 3 6 4 9 5 14 6 10 7 13 8 11 9 12 10 8 11 3 13 2 14
REMARK SMILES IDX 1 15
REMARK H PARENT 8 12
REMARK Flexibility Score: inf
ROOT
ATOM      1  C   UNL     1      28.525 -13.805 -15.875  1.00  0.00     0.076 C 
ENDROOT
BRANCH   1   2
ATOM      2  C   UNL     1      29.052 -14.815 -16.846  1.00  0.00     0.116 A 
ATOM      3  C   UNL     1      29.264 -16.665 -17.910  1.00  0.00     0.290 A 
ATOM      4  O   UNL     1      28.554 -16.029 -16.998  1.00  0.00    -0.430 OA
ATOM      5  C   UNL     1      30.267 -15.845 -18.372  1.00  0.00     0.066 A 
ATOM      6  C   UNL     1      30.137 -14.664 -17.693  1.00  0.00     0.027 A 
ATOM      7  C   UNL     1      31.271 -16.049 -19.316  1.00  0.00     0.016 A 
ATOM      8  C   UNL     1      31.008 -13.595 -17.908  1.00  0.00     0.012 A 
ATOM      9  C   UNL     1      32.165 -14.989 -19.557  1.00  0.00     0.001 A 
ATOM     10  C   UNL     1      32.034 -13.768 -18.856  1.00  0.00     0.001 A 
BRANCH   3  11
ATOM     11  O   UNL     1      29.023 -17.969 -18.326  1.00  0.00    -0.480 OA
ATOM     12  H   UNL     1      29.793 -18.605 -18.491  1.00  0.00     0.297 HD
ENDBRANCH   3  11
ENDBRANCH   1   2
BRANCH   1  13
ATOM     13  C   UNL     1      26.991 -13.797 -15.892  1.00  0.00     0.008 C 
BRANCH  13  14
ATOM     14  C   UNL     1      26.417 -13.863 -17.315  1.00  0.00    -0.003 C 
ATOM     15  C   UNL     1      25.197 -14.778 -17.417  1.00  0.00     0.004 C 
ENDBRANCH  13  14
ENDBRANCH   1  13
TORSDOF 4
ENDMDL
MODEL 4
REMARK VINA RESULT:    -5.150      1.374      2.110
REMARK INTER + INTRA:          -6.420
REMARK INTER:                  -6.092
REMARK INTRA:                  -0.328
REMARK UNBOUND:                -0.217
REMARK SMILES CCCCc1oc(O)c2ccccc12
REMARK SMILES IDX 4 1 5 2 7 3 6 4 9 5 14 6 10 7 13 8 11 9 12 10 8 11 3 13 2 14
REMARK SMILES IDX 1 15
REMARK H PARENT 8 12
REMARK Flexibility Score: inf
ROOT
ATOM      1  C   UNL     1      28.648 -15.597 -16.686  1.00  0.00     0.076 C 
ENDROOT
BRANCH   1   2
ATOM      2  C   UNL     1      29.767 -15.848 -17.649  1.00  0.00     0.116 A 
ATOM      3  C   UNL     1      31.097 -16.905 -18.956  1.00  0.00     0.290 A 
ATOM      4  O   UNL     1      30.041 -17.029 -18.176  1.00  0.00    -0.430 OA
ATOM      5  C   UNL     1      31.538 -15.602 -18.940  1.00  0.00     0.066 A 
ATOM      6  C   UNL     1      30.692 -14.925 -18.104  1.00  0.00     0.027 A 
ATOM      7  C   UNL     1      32.604 -14.976 -19.581  1.00  0.00     0.016 A 
ATOM      8  C   UNL     1      30.854 -13.563 -17.844  1.00  0.00     0.012 A 
ATOM      9  C   UNL     1      32.793 -13.601 -19.341  1.00  0.00     0.001 A 
ATOM     10  C   UNL     1      31.922 -12.900 -18.476  1.00  0.00     0.001 A 
BRANCH   3  11
ATOM     11  O   UNL     1      31.668 -17.948 -19.675  1.00  0.00    -0.480 OA
ATOM     12  H   UNL     1      31.430 -18.090 -20.650  1.00  0.00     0.297 HD
ENDBRANCH   3  11
ENDBRANCH   1   2
BRANCH   1  13
ATOM     13  C   UNL     1      27.298 -15.931 -17.334  1.00  0.00     0.008 C 
BRANCH  13  14
ATOM     14  C   UNL     1      26.654 -14.713 -18.013  1.00  0.00    -0.003 C 
ATOM     15  C   UNL     1      25.843 -13.856 -17.040  1.00  0.00     0.004 C 
ENDBRANCH  13  14
ENDBRANCH   1  13
TORSDOF 4
ENDMDL
MODEL 5
REMARK VINA RESULT:    -4.636      1.760      2.622
REMARK INTER + INTRA:          -5.801
REMARK INTER:                  -5.621
REMARK INTRA:                  -0.180
REMARK UNBOUND:                -0.217
REMARK SMILES CCCCc1oc(O)c2ccccc12
REMARK SMILES IDX 4 1 5 2 7 3 6 4 9 5 14 6 10 7 13 8 11 9 12 10 8 11 3 13 2 14
REMARK SMILES IDX 1 15
REMARK H PARENT 8 12
REMARK Flexibility Score: inf
ROOT
ATOM      1  C   UNL     1      26.360 -15.063 -16.574  1.00  0.00     0.076 C 
ENDROOT
BRANCH   1   2
ATOM      2  C   UNL     1      27.823 -14.766 -16.696  1.00  0.00     0.116 A 
ATOM      3  C   UNL     1      29.706 -13.780 -16.415  1.00  0.00     0.290 A 
ATOM      4  O   UNL     1      28.434 -13.775 -16.069  1.00  0.00    -0.430 OA
ATOM      5  C   UNL     1      29.943 -14.804 -17.303  1.00  0.00     0.066 A 
ATOM      6  C   UNL     1      28.742 -15.434 -17.486  1.00  0.00     0.027 A 
ATOM      7  C   UNL     1      31.102 -15.216 -17.957  1.00  0.00     0.016 A 
ATOM      8  C   UNL     1      28.611 -16.527 -18.344  1.00  0.00     0.012 A 
ATOM      9  C   UNL     1      31.004 -16.317 -18.828  1.00  0.00     0.001 A 
ATOM     10  C   UNL     1      29.763 -16.969 -19.020  1.00  0.00     0.001 A 
BRANCH   3  11
ATOM     11  O   UNL     1      30.651 -12.875 -15.947  1.00  0.00    -0.480 OA
ATOM     12  H   UNL     1      30.434 -12.264 -15.169  1.00  0.00     0.297 HD
ENDBRANCH   3  11
ENDBRANCH   1   2
BRANCH   1  13
ATOM     13  C   UNL     1      25.597 -13.812 -16.120  1.00  0.00     0.008 C 
BRANCH  13  14
ATOM     14  C   UNL     1      24.196 -13.719 -16.744  1.00  0.00    -0.003 C 
ATOM     15  C   UNL     1      23.215 -12.929 -15.876  1.00  0.00     0.004 C 
ENDBRANCH  13  14
ENDBRANCH   1  13
TORSDOF 4
ENDMDL
MODEL 6
REMARK VINA RESULT:    -4.342      1.976      5.444
REMARK INTER + INTRA:          -5.448
REMARK INTER:                  -5.160
REMARK INTRA:                  -0.288
REMARK UNBOUND:                -0.217
REMARK SMILES CCCCc1oc(O)c2ccccc12
REMARK SMILES IDX 4 1 5 2 7 3 6 4 9 5 14 6 10 7 13 8 11 9 12 10 8 11 3 13 2 14
REMARK SMILES IDX 1 15
REMARK H PARENT 8 12
REMARK Flexibility Score: inf
ROOT
ATOM      1  C   UNL     1      29.608 -16.925 -18.530  1.00  0.00     0.076 C 
ENDROOT
BRANCH   1   2
ATOM      2  C   UNL     1      29.335 -15.705 -17.706  1.00  0.00     0.116 A 
ATOM      3  C   UNL     1      29.694 -13.925 -16.565  1.00  0.00     0.290 A 
ATOM      4  O   UNL     1      30.269 -14.871 -17.282  1.00  0.00    -0.430 OA
ATOM      5  C   UNL     1      28.337 -14.144 -16.509  1.00  0.00     0.066 A 
ATOM      6  C   UNL     1      28.105 -15.281 -17.234  1.00  0.00     0.027 A 
ATOM      7  C   UNL     1      27.310 -13.445 -15.880  1.00  0.00     0.016 A 
ATOM      8  C   UNL     1      26.820 -15.807 -17.381  1.00  0.00     0.012 A 
ATOM      9  C   UNL     1      26.002 -13.948 -16.011  1.00  0.00     0.001 A 
ATOM     10  C   UNL     1      25.759 -15.124 -16.758  1.00  0.00     0.001 A 
BRANCH   3  11
ATOM     11  O   UNL     1      30.374 -12.875 -15.960  1.00  0.00    -0.480 OA
ATOM     12  H   UNL     1      30.959 -13.042 -15.150  1.00  0.00     0.297 HD
ENDBRANCH   3  11
ENDBRANCH   1   2
BRANCH   1  13
ATOM     13  C   UNL     1      31.119 -17.163 -18.648  1.00  0.00     0.008 C 
BRANCH  13  14
ATOM     14  C   UNL     1      31.589 -18.377 -17.832  1.00  0.00    -0.003 C 
ATOM     15  C   UNL     1      32.257 -17.979 -16.515  1.00  0.00     0.004 C 
ENDBRANCH  13  14
ENDBRANCH   1  13
TORSDOF 4
ENDMDL
MODEL 7
REMARK VINA RESULT:    -3.897      2.197      3.257
REMARK INTER + INTRA:          -4.911
REMARK INTER:                  -4.702
REMARK INTRA:                  -0.209
REMARK UNBOUND:                -0.217
REMARK SMILES CCCCc1oc(O)c2ccccc12
REMARK SMILES IDX 4 1 5 2 7 3 6 4 9 5 14 6 10 7 13 8 11 9 12 10 8 11 3 13 2 14
REMARK SMILES IDX 1 15
REMARK H PARENT 8 12
REMARK Flexibility Score: inf
ROOT
ATOM      1  C   UNL     1      28.141 -16.268 -18.055  1.00  0.00     0.076 C 
ENDROOT
BRANCH   1   2
ATOM      2  C   UNL     1      29.577 -15.900 -17.848  1.00  0.00     0.116 A 
ATOM      3  C   UNL     1      31.317 -14.694 -17.508  1.00  0.00     0.290 A 
ATOM      4  O   UNL     1      30.002 -14.671 -17.615  1.00  0.00    -0.430 OA
ATOM      5  C   UNL     1      31.775 -15.979 -17.680  1.00  0.00     0.066 A 
ATOM      6  C   UNL     1      30.667 -16.752 -17.900  1.00  0.00     0.027 A 
ATOM      7  C   UNL     1      33.061 -16.515 -17.667  1.00  0.00     0.016 A 
ATOM      8  C   UNL     1      30.765 -18.125 -18.128  1.00  0.00     0.012 A 
ATOM      9  C   UNL     1      33.193 -17.899 -17.891  1.00  0.00     0.001 A 
ATOM     10  C   UNL     1      32.050 -18.699 -18.121  1.00  0.00     0.001 A 
BRANCH   3  11
ATOM     11  O   UNL     1      32.104 -13.576 -17.261  1.00  0.00    -0.480 OA
ATOM     12  H   UNL     1      31.698 -12.742 -16.854  1.00  0.00     0.297 HD
ENDBRANCH   3  11
ENDBRANCH   1   2
BRANCH   1  13
ATOM     13  C   UNL     1      27.244 -15.496 -17.078  1.00  0.00     0.008 C 
BRANCH  13  14
ATOM     14  C   UNL     1      26.485 -14.347 -17.759  1.00  0.00    -0.003 C 
ATOM     15  C   UNL     1      25.300 -13.851 -16.929  1.00  0.00     0.004 C 
ENDBRANCH  13  14
ENDBRANCH   1  13
TORSDOF 4
ENDMDL
MODEL 8
REMARK VINA RESULT:    -3.808      2.183      3.317
REMARK INTER + INTRA:          -4.804
REMARK INTER:                  -4.313
REMARK INTRA:                  -0.490
REMARK UNBOUND:                -0.217
REMARK SMILES CCCCc1oc(O)c2ccccc12
REMARK SMILES IDX 4 1 5 2 7 3 6 4 9 5 14 6 10 7 13 8 11 9 12 10 8 11 3 13 2 14
REMARK SMILES IDX 1 15
REMARK H PARENT 8 12
REMARK Flexibility Score: inf
ROOT
ATOM      1  C   UNL     1      28.949 -16.625 -18.603  1.00  0.00     0.076 C 
ENDROOT
BRANCH   1   2
ATOM      2  C   UNL     1      30.384 -16.772 -18.203  1.00  0.00     0.116 A 
ATOM      3  C   UNL     1      32.131 -17.530 -17.218  1.00  0.00     0.290 A 
ATOM      4  O   UNL     1      30.832 -17.699 -17.375  1.00  0.00    -0.430 OA
ATOM      5  C   UNL     1      32.554 -16.454 -17.962  1.00  0.00     0.066 A 
ATOM      6  C   UNL     1      31.440 -15.965 -18.591  1.00  0.00     0.027 A 
ATOM      7  C   UNL     1      33.809 -15.873 -18.125  1.00  0.00     0.016 A 
ATOM      8  C   UNL     1      31.501 -14.852 -19.430  1.00  0.00     0.012 A 
ATOM      9  C   UNL     1      33.905 -14.750 -18.968  1.00  0.00     0.001 A 
ATOM     10  C   UNL     1      32.756 -14.242 -19.616  1.00  0.00     0.001 A 
BRANCH   3  11
ATOM     11  O   UNL     1      32.935 -18.328 -16.413  1.00  0.00    -0.480 OA
ATOM     12  H   UNL     1      32.666 -19.283 -16.206  1.00  0.00     0.297 HD
ENDBRANCH   3  11
ENDBRANCH   1   2
BRANCH   1  13
ATOM     13  C   UNL     1      28.102 -16.177 -17.405  1.00  0.00     0.008 C 
BRANCH  13  14
ATOM     14  C   UNL     1      27.882 -14.657 -17.375  1.00  0.00    -0.003 C 
ATOM     15  C   UNL     1      28.871 -13.936 -16.458  1.00  0.00     0.004 C 
ENDBRANCH  13  14
ENDBRANCH   1  13
TORSDOF 4
ENDMDL
