MODEL 1
REMARK VINA RESULT:    -3.776      0.000      0.000
REMARK INTER + INTRA:          -6.617
REMARK INTER:                  -5.763
REMARK INTRA:                  -0.855
REMARK UNBOUND:                -0.855
REMARK SMILES CCCCCCCCCCC(=O)[O-]
REMARK SMILES IDX 7 1 8 2 9 3 10 4 11 5 12 6 13 7 6 8 5 9 4 10 3 11 2 12 1 13
REMARK H PARENT
REMARK Flexibility Score: inf
ROOT
ATOM      1  C   UNL     1      -2.711  16.837  -5.629  1.00  0.00     0.000 C 
ENDROOT
BRANCH   1   2
ATOM      2  C   UNL     1      -2.678  15.384  -6.125  1.00  0.00     0.000 C 
BRANCH   2   3
ATOM      3  C   UNL     1      -3.230  14.392  -5.087  1.00  0.00     0.006 C 
BRANCH   3   4
ATOM      4  C   UNL     1      -3.123  12.937  -5.561  1.00  0.00     0.053 C 
BRANCH   4   5
ATOM      5  C   UNL     1      -2.162  12.151  -4.722  1.00  0.00     0.041 C 
ATOM      6  O   UNL     1      -2.497  11.029  -4.258  1.00  0.00    -0.550 OA
ATOM      7  O   UNL     1      -0.910  12.673  -4.424  1.00  0.00    -0.550 OA
ENDBRANCH   4   5
ENDBRANCH   3   4
ENDBRANCH   2   3
ENDBRANCH   1   2
BRANCH   1   8
ATOM      8  C   UNL     1      -1.335  17.520  -5.713  1.00  0.00     0.000 C 
BRANCH   8   9
ATOM      9  C   UNL     1      -0.208  16.542  -6.092  1.00  0.00    -0.000 C 
BRANCH   9  10
ATOM     10  C   UNL     1       0.592  15.978  -4.900  1.00  0.00    -0.000 C 
BRANCH  10  11
ATOM     11  C   UNL     1       0.296  16.640  -3.542  1.00  0.00    -0.000 C 
BRANCH  11  12
ATOM     12  C   UNL     1      -0.579  15.767  -2.632  1.00  0.00    -0.003 C 
ATOM     13  C   UNL     1      -0.248  16.001  -1.162  1.00  0.00     0.004 C 
ENDBRANCH  11  12
ENDBRANCH  10  11
ENDBRANCH   9  10
ENDBRANCH   8   9
ENDBRANCH   1   8
TORSDOF 9
ENDMDL
MODEL 2
REMARK VINA RESULT:    -3.534      2.059      4.257
REMARK INTER + INTRA:          -6.247
REMARK INTER:                  -5.359
REMARK INTRA:                  -0.888
REMARK UNBOUND:                -0.855
REMARK SMILES CCCCCCCCCCC(=O)[O-]
REMARK SMILES IDX 7 1 8 2 9 3 10 4 11 5 12 6 13 7 6 8 5 9 4 10 3 11 2 12 1 13
REMARK H PARENT
REMARK Flexibility Score: inf
ROOT
ATOM      1  C   UNL     1      -1.130  18.150  -5.431  1.00  0.00     0.000 C 
ENDROOT
BRANCH   1   2
ATOM      2  C   UNL     1       0.041  17.158  -5.343  1.00  0.00     0.000 C 
BRANCH   2   3
ATOM      3  C   UNL     1       0.486  16.896  -3.895  1.00  0.00     0.006 C 
BRANCH   3   4
ATOM      4  C   UNL     1      -0.113  15.603  -3.329  1.00  0.00     0.053 C 
BRANCH   4   5
ATOM      5  C   UNL     1      -0.848  15.849  -2.046  1.00  0.00     0.041 C 
ATOM      6  O   UNL     1      -2.100  15.986  -2.049  1.00  0.00    -0.550 OA
ATOM      7  O   UNL     1      -0.146  15.961  -0.853  1.00  0.00    -0.550 OA
ENDBRANCH   4   5
ENDBRANCH   3   4
ENDBRANCH   2   3
ENDBRANCH   1   2
BRANCH   1   8
ATOM      8  C   UNL     1      -2.499  17.449  -5.399  1.00  0.00     0.000 C 
BRANCH   8   9
ATOM      9  C   UNL     1      -2.490  16.092  -6.125  1.00  0.00    -0.000 C 
BRANCH   9  10
ATOM     10  C   UNL     1      -3.085  14.919  -5.320  1.00  0.00    -0.000 C 
BRANCH  10  11
ATOM     11  C   UNL     1      -2.706  13.517  -5.831  1.00  0.00    -0.000 C 
BRANCH  11  12
ATOM     12  C   UNL     1      -1.994  12.668  -4.768  1.00  0.00    -0.003 C 
ATOM     13  C   UNL     1      -2.711  11.339  -4.555  1.00  0.00     0.004 C 
ENDBRANCH  11  12
ENDBRANCH  10  11
ENDBRANCH   9  10
ENDBRANCH   8   9
ENDBRANCH   1   8
TORSDOF 9
ENDMDL
MODEL 3
REMARK VINA RESULT:    -3.387      1.736      3.431
REMARK INTER + INTRA:          -6.024
REMARK INTER:                  -5.370
REMARK INTRA:                  -0.654
REMARK UNBOUND:                -0.855
REMARK SMILES CCCCCCCCCCC(=O)[O-]
REMARK SMILES IDX 7 1 8 2 9 3 10 4 11 5 12 6 13 7 6 8 5 9 4 10 3 11 2 12 1 13
REMARK H PARENT
REMARK Flexibility Score: inf
ROOT
ATOM      1  C   UNL     1      -0.220  15.820  -3.520  1.00  0.00     0.000 C 
ENDROOT
BRANCH   1   2
ATOM      2  C   UNL     1      -0.494  14.602  -4.416  1.00  0.00     0.000 C 
BRANCH   2   3
ATOM      3  C   UNL     1      -1.042  14.996  -5.798  1.00  0.00     0.006 C 
BRANCH   3   4
ATOM      4  C   UNL     1      -2.550  14.744  -5.917  1.00  0.00     0.053 C 
BRANCH   4   5
ATOM      5  C   UNL     1      -3.000  13.639  -5.011  1.00  0.00     0.041 C 
ATOM      6  O   UNL     1      -3.725  13.893  -4.013  1.00  0.00    -0.550 OA
ATOM      7  O   UNL     1      -2.589  12.334  -5.248  1.00  0.00    -0.550 OA
ENDBRANCH   4   5
ENDBRANCH   3   4
ENDBRANCH   2   3
ENDBRANCH   1   2
BRANCH   1   8
ATOM      8  C   UNL     1       0.685  16.861  -4.201  1.00  0.00     0.000 C 
BRANCH   8   9
ATOM      9  C   UNL     1      -0.022  18.211  -4.421  1.00  0.00    -0.000 C 
BRANCH   9  10
ATOM     10  C   UNL     1      -0.339  18.549  -5.892  1.00  0.00    -0.000 C 
BRANCH  10  11
ATOM     11  C   UNL     1      -1.690  19.248  -6.125  1.00  0.00    -0.000 C 
BRANCH  11  12
ATOM     12  C   UNL     1      -2.882  18.284  -6.044  1.00  0.00    -0.003 C 
ATOM     13  C   UNL     1      -4.178  19.034  -5.755  1.00  0.00     0.004 C 
ENDBRANCH  11  12
ENDBRANCH  10  11
ENDBRANCH   9  10
ENDBRANCH   8   9
ENDBRANCH   1   8
TORSDOF 9
ENDMDL
MODEL 4
REMARK VINA RESULT:    -3.353      1.248      1.972
REMARK INTER + INTRA:          -5.971
REMARK INTER:                  -5.149
REMARK INTRA:                  -0.822
REMARK UNBOUND:                -0.855
REMARK SMILES CCCCCCCCCCC(=O)[O-]
REMARK SMILES IDX 7 1 8 2 9 3 10 4 11 5 12 6 13 7 6 8 5 9 4 10 3 11 2 12 1 13
REMARK H PARENT
REMARK Flexibility Score: inf
ROOT
ATOM      1  C   UNL     1      -2.168  14.757  -6.125  1.00  0.00     0.000 C 
ENDROOT
BRANCH   1   2
ATOM      2  C   UNL     1      -3.050  13.558  -5.744  1.00  0.00     0.000 C 
BRANCH   2   3
ATOM      3  C   UNL     1      -2.636  12.921  -4.406  1.00  0.00     0.006 C 
BRANCH   3   4
ATOM      4  C   UNL     1      -1.563  11.840  -4.586  1.00  0.00     0.053 C 
BRANCH   4   5
ATOM      5  C   UNL     1      -0.238  12.279  -4.044  1.00  0.00     0.041 C 
ATOM      6  O   UNL     1       0.301  13.337  -4.466  1.00  0.00    -0.550 OA
ATOM      7  O   UNL     1       0.420  11.503  -3.099  1.00  0.00    -0.550 OA
ENDBRANCH   4   5
ENDBRANCH   3   4
ENDBRANCH   2   3
ENDBRANCH   1   2
BRANCH   1   8
ATOM      8  C   UNL     1      -2.925  16.094  -6.044  1.00  0.00     0.000 C 
BRANCH   8   9
ATOM      9  C   UNL     1      -2.119  17.191  -5.324  1.00  0.00    -0.000 C 
BRANCH   9  10
ATOM     10  C   UNL     1      -0.631  16.857  -5.090  1.00  0.00    -0.000 C 
BRANCH  10  11
ATOM     11  C   UNL     1      -0.181  16.880  -3.618  1.00  0.00    -0.000 C 
BRANCH  11  12
ATOM     12  C   UNL     1      -1.015  15.951  -2.725  1.00  0.00    -0.003 C 
ATOM     13  C   UNL     1      -0.506  15.967  -1.287  1.00  0.00     0.004 C 
ENDBRANCH  11  12
ENDBRANCH  10  11
ENDBRANCH   9  10
ENDBRANCH   8   9
ENDBRANCH   1   8
TORSDOF 9
ENDMDL
MODEL 5
REMARK VINA RESULT:    -3.322      3.152      5.399
REMARK INTER + INTRA:          -5.925
REMARK INTER:                  -5.062
REMARK INTRA:                  -0.862
REMARK UNBOUND:                -0.855
REMARK SMILES CCCCCCCCCCC(=O)[O-]
REMARK SMILES IDX 7 1 8 2 9 3 10 4 11 5 12 6 13 7 6 8 5 9 4 10 3 11 2 12 1 13
REMARK H PARENT
REMARK Flexibility Score: inf
ROOT
ATOM      1  C   UNL     1      -0.297  15.795  -3.579  1.00  0.00     0.000 C 
ENDROOT
BRANCH   1   2
ATOM      2  C   UNL     1       0.346  14.920  -4.666  1.00  0.00     0.000 C 
BRANCH   2   3
ATOM      3  C   UNL     1       1.335  15.703  -5.547  1.00  0.00     0.006 C 
BRANCH   3   4
ATOM      4  C   UNL     1       1.362  17.197  -5.202  1.00  0.00     0.053 C 
BRANCH   4   5
ATOM      5  C   UNL     1       2.763  17.701  -5.031  1.00  0.00     0.041 C 
ATOM      6  O   UNL     1       3.637  16.970  -4.494  1.00  0.00    -0.550 OA
ATOM      7  O   UNL     1       3.093  18.989  -5.431  1.00  0.00    -0.550 OA
ENDBRANCH   4   5
ENDBRANCH   3   4
ENDBRANCH   2   3
ENDBRANCH   1   2
BRANCH   1   8
ATOM      8  C   UNL     1      -1.824  15.898  -3.731  1.00  0.00     0.000 C 
BRANCH   8   9
ATOM      9  C   UNL     1      -2.256  16.249  -5.167  1.00  0.00    -0.000 C 
BRANCH   9  10
ATOM     10  C   UNL     1      -3.025  15.134  -5.906  1.00  0.00    -0.000 C 
BRANCH  10  11
ATOM     11  C   UNL     1      -3.396  13.914  -5.044  1.00  0.00    -0.000 C 
BRANCH  11  12
ATOM     12  C   UNL     1      -2.893  12.591  -5.637  1.00  0.00    -0.003 C 
ATOM     13  C   UNL     1      -2.486  11.615  -4.538  1.00  0.00     0.004 C 
ENDBRANCH  11  12
ENDBRANCH  10  11
ENDBRANCH   9  10
ENDBRANCH   8   9
ENDBRANCH   1   8
TORSDOF 9
ENDMDL
MODEL 6
REMARK VINA RESULT:    -3.225      1.532      2.558
REMARK INTER + INTRA:          -5.777
REMARK INTER:                  -4.966
REMARK INTRA:                  -0.811
REMARK UNBOUND:                -0.855
REMARK SMILES CCCCCCCCCCC(=O)[O-]
REMARK SMILES IDX 7 1 8 2 9 3 10 4 11 5 12 6 13 7 6 8 5 9 4 10 3 11 2 12 1 13
REMARK H PARENT
REMARK Flexibility Score: inf
ROOT
ATOM      1  C   UNL     1      -1.576  15.845  -3.638  1.00  0.00     0.000 C 
ENDROOT
BRANCH   1   2
ATOM      2  C   UNL     1      -2.217  15.963  -5.029  1.00  0.00     0.000 C 
BRANCH   2   3
ATOM      3  C   UNL     1      -2.220  14.630  -5.795  1.00  0.00     0.006 C 
BRANCH   3   4
ATOM      4  C   UNL     1      -3.183  13.608  -5.176  1.00  0.00     0.053 C 
BRANCH   4   5
ATOM      5  C   UNL     1      -2.465  12.372  -4.727  1.00  0.00     0.041 C 
ATOM      6  O   UNL     1      -3.102  11.302  -4.538  1.00  0.00    -0.550 OA
ATOM      7  O   UNL     1      -1.099  12.412  -4.482  1.00  0.00    -0.550 OA
ENDBRANCH   4   5
ENDBRANCH   3   4
ENDBRANCH   2   3
ENDBRANCH   1   2
BRANCH   1   8
ATOM      8  C   UNL     1      -0.214  16.556  -3.554  1.00  0.00     0.000 C 
BRANCH   8   9
ATOM      9  C   UNL     1      -0.075  17.698  -4.577  1.00  0.00    -0.000 C 
BRANCH   9  10
ATOM     10  C   UNL     1       0.990  17.469  -5.668  1.00  0.00    -0.000 C 
BRANCH  10  11
ATOM     11  C   UNL     1       1.602  16.057  -5.698  1.00  0.00    -0.000 C 
BRANCH  11  12
ATOM     12  C   UNL     1       3.135  16.070  -5.628  1.00  0.00    -0.003 C 
ATOM     13  C   UNL     1       3.643  17.328  -4.931  1.00  0.00     0.004 C 
ENDBRANCH  11  12
ENDBRANCH  10  11
ENDBRANCH   9  10
ENDBRANCH   8   9
ENDBRANCH   1   8
TORSDOF 9
ENDMDL
MODEL 7
REMARK VINA RESULT:    -3.175      5.800      7.330
REMARK INTER + INTRA:          -5.700
REMARK INTER:                  -5.446
REMARK INTRA:                  -0.253
REMARK UNBOUND:                -0.855
REMARK SMILES CCCCCCCCCCC(=O)[O-]
REMARK SMILES IDX 7 1 8 2 9 3 10 4 11 5 12 6 13 7 6 8 5 9 4 10 3 11 2 12 1 13
REMARK H PARENT
REMARK Flexibility Score: inf
ROOT
ATOM      1  C   UNL     1       0.663  10.628  -1.753  1.00  0.00     0.000 C 
ENDROOT
BRANCH   1   2
ATOM      2  C   UNL     1       1.675   9.597  -1.233  1.00  0.00     0.000 C 
BRANCH   2   3
ATOM      3  C   UNL     1       1.316   9.070   0.167  1.00  0.00     0.006 C 
BRANCH   3   4
ATOM      4  C   UNL     1       1.574   7.564   0.302  1.00  0.00     0.053 C 
BRANCH   4   5
ATOM      5  C   UNL     1       2.814   7.284   1.095  1.00  0.00     0.041 C 
ATOM      6  O   UNL     1       3.741   8.136   1.144  1.00  0.00    -0.550 OA
ATOM      7  O   UNL     1       2.962   6.068   1.750  1.00  0.00    -0.550 OA
ENDBRANCH   4   5
ENDBRANCH   3   4
ENDBRANCH   2   3
ENDBRANCH   1   2
BRANCH   1   8
ATOM      8  C   UNL     1       1.099  11.263  -3.085  1.00  0.00     0.000 C 
BRANCH   8   9
ATOM      9  C   UNL     1      -0.061  11.956  -3.822  1.00  0.00    -0.000 C 
BRANCH   9  10
ATOM     10  C   UNL     1       0.205  13.421  -4.223  1.00  0.00    -0.000 C 
BRANCH  10  11
ATOM     11  C   UNL     1      -1.012  14.176  -4.788  1.00  0.00    -0.000 C 
BRANCH  11  12
ATOM     12  C   UNL     1      -2.256  13.286  -4.918  1.00  0.00    -0.003 C 
ATOM     13  C   UNL     1      -3.491  14.115  -5.257  1.00  0.00     0.004 C 
ENDBRANCH  11  12
ENDBRANCH  10  11
ENDBRANCH   9  10
ENDBRANCH   8   9
ENDBRANCH   1   8
TORSDOF 9
ENDMDL
MODEL 8
REMARK VINA RESULT:    -3.098      5.304      6.839
REMARK INTER + INTRA:          -5.583
REMARK INTER:                  -5.285
REMARK INTRA:                  -0.298
REMARK UNBOUND:                -0.855
REMARK SMILES CCCCCCCCCCC(=O)[O-]
REMARK SMILES IDX 7 1 8 2 9 3 10 4 11 5 12 6 13 7 6 8 5 9 4 10 3 11 2 12 1 13
REMARK H PARENT
REMARK Flexibility Score: inf
ROOT
ATOM      1  C   UNL     1       0.724  11.111  -2.789  1.00  0.00     0.000 C 
ENDROOT
BRANCH   1   2
ATOM      2  C   UNL     1       0.629  12.198  -3.870  1.00  0.00     0.000 C 
BRANCH   2   3
ATOM      3  C   UNL     1      -0.824  12.515  -4.263  1.00  0.00     0.006 C 
BRANCH   3   4
ATOM      4  C   UNL     1      -1.011  13.987  -4.652  1.00  0.00     0.053 C 
BRANCH   4   5
ATOM      5  C   UNL     1      -2.443  14.299  -4.964  1.00  0.00     0.041 C 
ATOM      6  O   UNL     1      -3.369  13.689  -4.367  1.00  0.00    -0.550 OA
ATOM      7  O   UNL     1      -2.754  15.238  -5.939  1.00  0.00    -0.550 OA
ENDBRANCH   4   5
ENDBRANCH   3   4
ENDBRANCH   2   3
ENDBRANCH   1   2
BRANCH   1   8
ATOM      8  C   UNL     1       2.018  10.285  -2.896  1.00  0.00     0.000 C 
BRANCH   8   9
ATOM      9  C   UNL     1       2.359   9.542  -1.592  1.00  0.00    -0.000 C 
BRANCH   9  10
ATOM     10  C   UNL     1       1.188   9.398  -0.599  1.00  0.00    -0.000 C 
BRANCH  10  11
ATOM     11  C   UNL     1       1.252   8.158   0.311  1.00  0.00    -0.000 C 
BRANCH  11  12
ATOM     12  C   UNL     1       2.689   7.755   0.668  1.00  0.00    -0.003 C 
ATOM     13  C   UNL     1       2.705   6.606   1.671  1.00  0.00     0.004 C 
ENDBRANCH  11  12
ENDBRANCH  10  11
ENDBRANCH   9  10
ENDBRANCH   8   9
ENDBRANCH   1   8
TORSDOF 9
ENDMDL
