MODEL 1
REMARK VINA RESULT:    -4.868      0.000      0.000
REMARK INTER + INTRA:          -7.093
REMARK INTER:                  -6.860
REMARK INTRA:                  -0.233
REMARK UNBOUND:                -0.233
REMARK SMILES CCCCCCCCC(=O)[O-]
REMARK SMILES IDX 6 1 7 2 8 3 9 4 10 5 11 6 5 7 4 8 3 9 2 10 1 11
REMARK H PARENT
REMARK Flexibility Score: inf
ROOT
ATOM      1  C   UNL     1      13.047   4.064  55.466  1.00  0.00     0.000 C 
ENDROOT
BRANCH   1   2
ATOM      2  C   UNL     1      11.640   3.482  55.713  1.00  0.00     0.006 C 
BRANCH   2   3
ATOM      3  C   UNL     1      10.605   3.909  54.659  1.00  0.00     0.053 C 
BRANCH   3   4
ATOM      4  C   UNL     1       9.947   5.210  55.002  1.00  0.00     0.041 C 
ATOM      5  O   UNL     1       9.292   5.325  56.071  1.00  0.00    -0.550 OA
ATOM      6  O   UNL     1      10.081   6.302  54.155  1.00  0.00    -0.550 OA
ENDBRANCH   3   4
ENDBRANCH   2   3
ENDBRANCH   1   2
BRANCH   1   7
ATOM      7  C   UNL     1      14.152   3.236  56.146  1.00  0.00     0.000 C 
BRANCH   7   8
ATOM      8  C   UNL     1      15.554   3.538  55.588  1.00  0.00    -0.000 C 
BRANCH   8   9
ATOM      9  C   UNL     1      16.456   2.305  55.384  1.00  0.00    -0.000 C 
BRANCH   9  10
ATOM     10  C   UNL     1      16.260   1.178  56.413  1.00  0.00    -0.003 C 
ATOM     11  C   UNL     1      16.494  -0.213  55.825  1.00  0.00     0.004 C 
ENDBRANCH   9  10
ENDBRANCH   8   9
ENDBRANCH   7   8
ENDBRANCH   1   7
TORSDOF 7
ENDMDL
MODEL 2
REMARK VINA RESULT:    -4.731      3.175      5.507
REMARK INTER + INTRA:          -6.900
REMARK INTER:                  -6.150
REMARK INTRA:                  -0.750
REMARK UNBOUND:                -0.233
REMARK SMILES CCCCCCCCC(=O)[O-]
REMARK SMILES IDX 6 1 7 2 8 3 9 4 10 5 11 6 5 7 4 8 3 9 2 10 1 11
REMARK H PARENT
REMARK Flexibility Score: inf
ROOT
ATOM      1  C   UNL     1      11.902   4.142  53.011  1.00  0.00     0.000 C 
ENDROOT
BRANCH   1   2
ATOM      2  C   UNL     1      11.485   3.654  54.414  1.00  0.00     0.006 C 
BRANCH   2   3
ATOM      3  C   UNL     1      12.607   3.759  55.460  1.00  0.00     0.053 C 
BRANCH   3   4
ATOM      4  C   UNL     1      12.145   3.376  56.831  1.00  0.00     0.041 C 
ATOM      5  O   UNL     1      12.459   2.257  57.316  1.00  0.00    -0.550 OA
ATOM      6  O   UNL     1      11.390   4.265  57.585  1.00  0.00    -0.550 OA
ENDBRANCH   3   4
ENDBRANCH   2   3
ENDBRANCH   1   2
BRANCH   1   7
ATOM      7  C   UNL     1      12.510   5.556  53.039  1.00  0.00     0.000 C 
BRANCH   7   8
ATOM      8  C   UNL     1      11.457   6.663  52.859  1.00  0.00    -0.000 C 
BRANCH   8   9
ATOM      9  C   UNL     1      11.456   7.750  53.953  1.00  0.00    -0.000 C 
BRANCH   9  10
ATOM     10  C   UNL     1      11.010   7.270  55.345  1.00  0.00    -0.003 C 
ATOM     11  C   UNL     1       9.596   6.690  55.350  1.00  0.00     0.004 C 
ENDBRANCH   9  10
ENDBRANCH   8   9
ENDBRANCH   7   8
ENDBRANCH   1   7
TORSDOF 7
ENDMDL
MODEL 3
REMARK VINA RESULT:    -4.708      2.971      4.570
REMARK INTER + INTRA:          -6.867
REMARK INTER:                  -6.066
REMARK INTRA:                  -0.802
REMARK UNBOUND:                -0.233
REMARK SMILES CCCCCCCCC(=O)[O-]
REMARK SMILES IDX 6 1 7 2 8 3 9 4 10 5 11 6 5 7 4 8 3 9 2 10 1 11
REMARK H PARENT
REMARK Flexibility Score: inf
ROOT
ATOM      1  C   UNL     1       9.646   6.429  55.208  1.00  0.00     0.000 C 
ENDROOT
BRANCH   1   2
ATOM      2  C   UNL     1      11.061   7.037  55.303  1.00  0.00     0.006 C 
BRANCH   2   3
ATOM      3  C   UNL     1      11.474   7.829  54.052  1.00  0.00     0.053 C 
BRANCH   3   4
ATOM      4  C   UNL     1      11.280   7.044  52.791  1.00  0.00     0.041 C 
ATOM      5  O   UNL     1      12.003   6.042  52.552  1.00  0.00    -0.550 OA
ATOM      6  O   UNL     1      10.282   7.402  51.895  1.00  0.00    -0.550 OA
ENDBRANCH   3   4
ENDBRANCH   2   3
ENDBRANCH   1   2
BRANCH   1   7
ATOM      7  C   UNL     1       9.558   5.042  55.869  1.00  0.00     0.000 C 
BRANCH   7   8
ATOM      8  C   UNL     1       9.555   3.892  54.846  1.00  0.00    -0.000 C 
BRANCH   8   9
ATOM      9  C   UNL     1      10.948   3.349  54.468  1.00  0.00    -0.000 C 
BRANCH   9  10
ATOM     10  C   UNL     1      11.999   3.420  55.589  1.00  0.00    -0.003 C 
ATOM     11  C   UNL     1      13.305   4.073  55.139  1.00  0.00     0.004 C 
ENDBRANCH   9  10
ENDBRANCH   8   9
ENDBRANCH   7   8
ENDBRANCH   1   7
TORSDOF 7
ENDMDL
MODEL 4
REMARK VINA RESULT:    -4.615      3.236      5.280
REMARK INTER + INTRA:          -6.736
REMARK INTER:                  -5.972
REMARK INTRA:                  -0.764
REMARK UNBOUND:                -0.233
REMARK SMILES CCCCCCCCC(=O)[O-]
REMARK SMILES IDX 6 1 7 2 8 3 9 4 10 5 11 6 5 7 4 8 3 9 2 10 1 11
REMARK H PARENT
REMARK Flexibility Score: inf
ROOT
ATOM      1  C   UNL     1       9.596   5.210  55.978  1.00  0.00     0.000 C 
ENDROOT
BRANCH   1   2
ATOM      2  C   UNL     1      10.997   4.998  56.588  1.00  0.00     0.006 C 
BRANCH   2   3
ATOM      3  C   UNL     1      11.473   3.537  56.542  1.00  0.00     0.053 C 
BRANCH   3   4
ATOM      4  C   UNL     1      12.965   3.422  56.583  1.00  0.00     0.041 C 
ATOM      5  O   UNL     1      13.683   4.338  56.102  1.00  0.00    -0.550 OA
ATOM      6  O   UNL     1      13.562   2.317  57.175  1.00  0.00    -0.550 OA
ENDBRANCH   3   4
ENDBRANCH   2   3
ENDBRANCH   1   2
BRANCH   1   7
ATOM      7  C   UNL     1       9.538   6.439  55.055  1.00  0.00     0.000 C 
BRANCH   7   8
ATOM      8  C   UNL     1      10.928   6.900  54.584  1.00  0.00    -0.000 C 
BRANCH   8   9
ATOM      9  C   UNL     1      11.238   6.632  53.097  1.00  0.00    -0.000 C 
BRANCH   9  10
ATOM     10  C   UNL     1      12.390   5.644  52.841  1.00  0.00    -0.003 C 
ATOM     11  C   UNL     1      11.967   4.184  52.996  1.00  0.00     0.004 C 
ENDBRANCH   9  10
ENDBRANCH   8   9
ENDBRANCH   7   8
ENDBRANCH   1   7
TORSDOF 7
ENDMDL
MODEL 5
REMARK VINA RESULT:    -4.608      3.185      5.650
REMARK INTER + INTRA:          -6.727
REMARK INTER:                  -6.056
REMARK INTRA:                  -0.671
REMARK UNBOUND:                -0.233
REMARK SMILES CCCCCCCCC(=O)[O-]
REMARK SMILES IDX 6 1 7 2 8 3 9 4 10 5 11 6 5 7 4 8 3 9 2 10 1 11
REMARK H PARENT
REMARK Flexibility Score: inf
ROOT
ATOM      1  C   UNL     1       9.621   4.145  55.173  1.00  0.00     0.000 C 
ENDROOT
BRANCH   1   2
ATOM      2  C   UNL     1      11.047   3.558  55.131  1.00  0.00     0.006 C 
BRANCH   2   3
ATOM      3  C   UNL     1      11.944   4.041  56.282  1.00  0.00     0.053 C 
BRANCH   3   4
ATOM      4  C   UNL     1      13.291   3.387  56.267  1.00  0.00     0.041 C 
ATOM      5  O   UNL     1      13.528   2.410  57.025  1.00  0.00    -0.550 OA
ATOM      6  O   UNL     1      14.275   3.839  55.398  1.00  0.00    -0.550 OA
ENDBRANCH   3   4
ENDBRANCH   2   3
ENDBRANCH   1   2
BRANCH   1   7
ATOM      7  C   UNL     1       9.553   5.468  55.955  1.00  0.00     0.000 C 
BRANCH   7   8
ATOM      8  C   UNL     1       9.537   6.704  55.038  1.00  0.00    -0.000 C 
BRANCH   8   9
ATOM      9  C   UNL     1      10.926   7.225  54.617  1.00  0.00    -0.000 C 
BRANCH   9  10
ATOM     10  C   UNL     1      11.234   7.114  53.114  1.00  0.00    -0.003 C 
ATOM     11  C   UNL     1      12.230   6.002  52.790  1.00  0.00     0.004 C 
ENDBRANCH   9  10
ENDBRANCH   8   9
ENDBRANCH   7   8
ENDBRANCH   1   7
TORSDOF 7
ENDMDL
MODEL 6
REMARK VINA RESULT:    -4.600      3.322      6.206
REMARK INTER + INTRA:          -6.716
REMARK INTER:                  -6.110
REMARK INTRA:                  -0.606
REMARK UNBOUND:                -0.233
REMARK SMILES CCCCCCCCC(=O)[O-]
REMARK SMILES IDX 6 1 7 2 8 3 9 4 10 5 11 6 5 7 4 8 3 9 2 10 1 11
REMARK H PARENT
REMARK Flexibility Score: inf
ROOT
ATOM      1  C   UNL     1      10.474   4.395  55.787  1.00  0.00     0.000 C 
ENDROOT
BRANCH   1   2
ATOM      2  C   UNL     1      11.924   4.867  56.018  1.00  0.00     0.006 C 
BRANCH   2   3
ATOM      3  C   UNL     1      12.895   4.439  54.905  1.00  0.00     0.053 C 
BRANCH   3   4
ATOM      4  C   UNL     1      12.386   4.786  53.541  1.00  0.00     0.041 C 
ATOM      5  O   UNL     1      12.449   5.973  53.125  1.00  0.00    -0.550 OA
ATOM      6  O   UNL     1      11.867   3.795  52.718  1.00  0.00    -0.550 OA
ENDBRANCH   3   4
ENDBRANCH   2   3
ENDBRANCH   1   2
BRANCH   1   7
ATOM      7  C   UNL     1       9.446   5.510  56.047  1.00  0.00     0.000 C 
BRANCH   7   8
ATOM      8  C   UNL     1       9.407   6.561  54.924  1.00  0.00    -0.000 C 
BRANCH   8   9
ATOM      9  C   UNL     1       8.880   7.948  55.344  1.00  0.00    -0.000 C 
BRANCH   9  10
ATOM     10  C   UNL     1       9.938   9.065  55.367  1.00  0.00    -0.003 C 
ATOM     11  C   UNL     1      11.368   8.533  55.290  1.00  0.00     0.004 C 
ENDBRANCH   9  10
ENDBRANCH   8   9
ENDBRANCH   7   8
ENDBRANCH   1   7
TORSDOF 7
ENDMDL
MODEL 7
REMARK VINA RESULT:    -4.598      3.888      6.340
REMARK INTER + INTRA:          -6.713
REMARK INTER:                  -6.110
REMARK INTRA:                  -0.603
REMARK UNBOUND:                -0.233
REMARK SMILES CCCCCCCCC(=O)[O-]
REMARK SMILES IDX 6 1 7 2 8 3 9 4 10 5 11 6 5 7 4 8 3 9 2 10 1 11
REMARK H PARENT
REMARK Flexibility Score: inf
ROOT
ATOM      1  C   UNL     1      11.718   6.442  52.843  1.00  0.00     0.000 C 
ENDROOT
BRANCH   1   2
ATOM      2  C   UNL     1      12.493   5.219  53.375  1.00  0.00     0.006 C 
BRANCH   2   3
ATOM      3  C   UNL     1      11.726   3.895  53.229  1.00  0.00     0.053 C 
BRANCH   3   4
ATOM      4  C   UNL     1      11.024   3.502  54.492  1.00  0.00     0.041 C 
ATOM      5  O   UNL     1      11.678   3.337  55.554  1.00  0.00    -0.550 OA
ATOM      6  O   UNL     1       9.644   3.344  54.501  1.00  0.00    -0.550 OA
ENDBRANCH   3   4
ENDBRANCH   2   3
ENDBRANCH   1   2
BRANCH   1   7
ATOM      7  C   UNL     1      11.646   7.584  53.872  1.00  0.00     0.000 C 
BRANCH   7   8
ATOM      8  C   UNL     1      11.072   7.133  55.226  1.00  0.00    -0.000 C 
BRANCH   8   9
ATOM      9  C   UNL     1       9.544   6.927  55.253  1.00  0.00    -0.000 C 
BRANCH   9  10
ATOM     10  C   UNL     1       8.714   8.222  55.266  1.00  0.00    -0.003 C 
ATOM     11  C   UNL     1       7.979   8.470  53.949  1.00  0.00     0.004 C 
ENDBRANCH   9  10
ENDBRANCH   8   9
ENDBRANCH   7   8
ENDBRANCH   1   7
TORSDOF 7
ENDMDL
MODEL 8
REMARK VINA RESULT:    -4.587      3.422      6.527
REMARK INTER + INTRA:          -6.697
REMARK INTER:                  -6.052
REMARK INTRA:                  -0.645
REMARK UNBOUND:                -0.233
REMARK SMILES CCCCCCCCC(=O)[O-]
REMARK SMILES IDX 6 1 7 2 8 3 9 4 10 5 11 6 5 7 4 8 3 9 2 10 1 11
REMARK H PARENT
REMARK Flexibility Score: inf
ROOT
ATOM      1  C   UNL     1      11.297   6.682  52.830  1.00  0.00     0.000 C 
ENDROOT
BRANCH   1   2
ATOM      2  C   UNL     1      12.385   5.598  52.689  1.00  0.00     0.006 C 
BRANCH   2   3
ATOM      3  C   UNL     1      11.956   4.223  53.227  1.00  0.00     0.053 C 
BRANCH   3   4
ATOM      4  C   UNL     1      12.284   4.050  54.677  1.00  0.00     0.041 C 
ATOM      5  O   UNL     1      11.362   3.908  55.522  1.00  0.00    -0.550 OA
ATOM      6  O   UNL     1      13.609   4.019  55.092  1.00  0.00    -0.550 OA
ENDBRANCH   3   4
ENDBRANCH   2   3
ENDBRANCH   1   2
BRANCH   1   7
ATOM      7  C   UNL     1      11.670   7.757  53.865  1.00  0.00     0.000 C 
BRANCH   7   8
ATOM      8  C   UNL     1      11.067   7.485  55.254  1.00  0.00    -0.000 C 
BRANCH   8   9
ATOM      9  C   UNL     1       9.572   7.107  55.256  1.00  0.00    -0.000 C 
BRANCH   9  10
ATOM     10  C   UNL     1       8.600   8.299  55.220  1.00  0.00    -0.003 C 
ATOM     11  C   UNL     1       7.996   8.533  53.836  1.00  0.00     0.004 C 
ENDBRANCH   9  10
ENDBRANCH   8   9
ENDBRANCH   7   8
ENDBRANCH   1   7
TORSDOF 7
ENDMDL
MODEL 9
REMARK VINA RESULT:    -4.584      3.760      4.791
REMARK INTER + INTRA:          -6.693
REMARK INTER:                  -6.055
REMARK INTRA:                  -0.638
REMARK UNBOUND:                -0.233
REMARK SMILES CCCCCCCCC(=O)[O-]
REMARK SMILES IDX 6 1 7 2 8 3 9 4 10 5 11 6 5 7 4 8 3 9 2 10 1 11
REMARK H PARENT
REMARK Flexibility Score: inf
ROOT
ATOM      1  C   UNL     1       9.540   5.330  55.944  1.00  0.00     0.000 C 
ENDROOT
BRANCH   1   2
ATOM      2  C   UNL     1       9.485   6.829  55.586  1.00  0.00     0.006 C 
BRANCH   2   3
ATOM      3  C   UNL     1       9.119   7.097  54.117  1.00  0.00     0.053 C 
BRANCH   3   4
ATOM      4  C   UNL     1       8.163   8.239  53.968  1.00  0.00     0.041 C 
ATOM      5  O   UNL     1       7.670   8.509  52.841  1.00  0.00    -0.550 OA
ATOM      6  O   UNL     1       7.795   8.989  55.077  1.00  0.00    -0.550 OA
ENDBRANCH   3   4
ENDBRANCH   2   3
ENDBRANCH   1   2
BRANCH   1   7
ATOM      7  C   UNL     1      10.949   4.879  56.369  1.00  0.00     0.000 C 
BRANCH   7   8
ATOM      8  C   UNL     1      11.453   3.663  55.572  1.00  0.00    -0.000 C 
BRANCH   8   9
ATOM      9  C   UNL     1      11.019   3.625  54.093  1.00  0.00    -0.000 C 
BRANCH   9  10
ATOM     10  C   UNL     1      12.109   4.030  53.085  1.00  0.00    -0.003 C 
ATOM     11  C   UNL     1      12.168   5.538  52.846  1.00  0.00     0.004 C 
ENDBRANCH   9  10
ENDBRANCH   8   9
ENDBRANCH   7   8
ENDBRANCH   1   7
TORSDOF 7
ENDMDL
