MODEL 1
REMARK VINA RESULT:    -6.630      0.000      0.000
REMARK INTER + INTRA:          -7.018
REMARK INTER:                  -7.018
REMARK INTRA:                   0.000
REMARK UNBOUND:                 0.000
REMARK SMILES Cc1cc(O)c(C)c(C)c1O
REMARK SMILES IDX 1 1 2 2 3 3 4 4 6 5 8 6 10 7 9 8 7 9 11 10 5 12
REMARK H PARENT 11 11 5 13
REMARK Flexibility Score: inf
ROOT
ATOM      1  C   UNL     1      25.717  37.642  26.987  1.00  0.00     0.048 C 
ATOM      2  C   UNL     1      27.199  37.550  27.235  1.00  0.00    -0.005 A 
ATOM      3  C   UNL     1      27.899  38.669  27.695  1.00  0.00     0.053 A 
ATOM      4  C   UNL     1      29.277  38.620  27.897  1.00  0.00     0.119 A 
ATOM      5  C   UNL     1      29.993  37.430  27.621  1.00  0.00    -0.003 A 
ATOM      6  C   UNL     1      29.272  36.253  27.274  1.00  0.00    -0.002 A 
ATOM      7  C   UNL     1      27.880  36.343  27.012  1.00  0.00     0.121 A 
ATOM      8  C   UNL     1      29.969  34.916  27.165  1.00  0.00     0.049 C 
ATOM      9  C   UNL     1      31.502  37.425  27.716  1.00  0.00     0.049 C 
ENDROOT
BRANCH   7  10
ATOM     10  O   UNL     1      27.151  35.255  26.521  1.00  0.00    -0.507 OA
ATOM     11  H   UNL     1      26.218  35.016  26.833  1.00  0.00     0.293 HD
ENDBRANCH   7  10
BRANCH   4  12
ATOM     12  O   UNL     1      29.900  39.772  28.386  1.00  0.00    -0.508 OA
ATOM     13  H   UNL     1      30.902  39.902  28.405  1.00  0.00     0.293 HD
ENDBRANCH   4  12
TORSDOF 2
ENDMDL
MODEL 2
REMARK VINA RESULT:    -6.597      2.186      2.881
REMARK INTER + INTRA:          -6.982
REMARK INTER:                  -6.982
REMARK INTRA:                   0.000
REMARK UNBOUND:                 0.000
REMARK SMILES Cc1cc(O)c(C)c(C)c1O
REMARK SMILES IDX 1 1 2 2 3 3 4 4 6 5 8 6 10 7 9 8 7 9 11 10 5 12
REMARK H PARENT 11 11 5 13
REMARK Flexibility Score: inf
ROOT
ATOM      1  C   UNL     1      25.967  37.992  26.930  1.00  0.00     0.048 C 
ATOM      2  C   UNL     1      27.462  38.164  26.911  1.00  0.00    -0.005 A 
ATOM      3  C   UNL     1      28.182  37.882  25.747  1.00  0.00     0.053 A 
ATOM      4  C   UNL     1      29.570  37.999  25.716  1.00  0.00     0.119 A 
ATOM      5  C   UNL     1      30.275  38.392  26.878  1.00  0.00    -0.003 A 
ATOM      6  C   UNL     1      29.542  38.800  28.028  1.00  0.00    -0.002 A 
ATOM      7  C   UNL     1      28.137  38.613  28.058  1.00  0.00     0.121 A 
ATOM      8  C   UNL     1      30.241  39.415  29.220  1.00  0.00     0.049 C 
ATOM      9  C   UNL     1      31.788  38.388  26.874  1.00  0.00     0.049 C 
ENDROOT
BRANCH   7  10
ATOM     10  O   UNL     1      27.386  38.853  29.214  1.00  0.00    -0.507 OA
ATOM     11  H   UNL     1      26.832  39.687  29.362  1.00  0.00     0.293 HD
ENDBRANCH   7  10
BRANCH   4  12
ATOM     12  O   UNL     1      30.214  37.728  24.505  1.00  0.00    -0.508 OA
ATOM     13  H   UNL     1      30.774  38.405  24.005  1.00  0.00     0.293 HD
ENDBRANCH   4  12
TORSDOF 2
ENDMDL
MODEL 3
REMARK VINA RESULT:    -6.467      2.153      2.248
REMARK INTER + INTRA:          -6.845
REMARK INTER:                  -6.845
REMARK INTRA:                   0.000
REMARK UNBOUND:                 0.000
REMARK SMILES Cc1cc(O)c(C)c(C)c1O
REMARK SMILES IDX 1 1 2 2 3 3 4 4 6 5 8 6 10 7 9 8 7 9 11 10 5 12
REMARK H PARENT 11 11 5 13
REMARK Flexibility Score: inf
ROOT
ATOM      1  C   UNL     1      25.309  37.641  26.972  1.00  0.00     0.048 C 
ATOM      2  C   UNL     1      26.737  37.982  27.304  1.00  0.00    -0.005 A 
ATOM      3  C   UNL     1      27.149  38.034  28.639  1.00  0.00     0.053 A 
ATOM      4  C   UNL     1      28.456  38.383  28.973  1.00  0.00     0.119 A 
ATOM      5  C   UNL     1      29.386  38.707  27.957  1.00  0.00    -0.003 A 
ATOM      6  C   UNL     1      29.011  38.536  26.595  1.00  0.00    -0.002 A 
ATOM      7  C   UNL     1      27.659  38.242  26.279  1.00  0.00     0.121 A 
ATOM      8  C   UNL     1      30.026  38.677  25.483  1.00  0.00     0.049 C 
ATOM      9  C   UNL     1      30.761  39.212  28.333  1.00  0.00     0.049 C 
ENDROOT
BRANCH   7  10
ATOM     10  O   UNL     1      27.201  38.213  24.957  1.00  0.00    -0.507 OA
ATOM     11  H   UNL     1      27.644  38.715  24.197  1.00  0.00     0.293 HD
ENDBRANCH   7  10
BRANCH   4  12
ATOM     12  O   UNL     1      28.798  38.383  30.329  1.00  0.00    -0.508 OA
ATOM     13  H   UNL     1      28.738  37.566  30.922  1.00  0.00     0.293 HD
ENDBRANCH   4  12
TORSDOF 2
ENDMDL
MODEL 4
REMARK VINA RESULT:    -6.461      2.396      3.729
REMARK INTER + INTRA:          -6.839
REMARK INTER:                  -6.839
REMARK INTRA:                   0.000
REMARK UNBOUND:                 0.000
REMARK SMILES Cc1cc(O)c(C)c(C)c1O
REMARK SMILES IDX 1 1 2 2 3 3 4 4 6 5 8 6 10 7 9 8 7 9 11 10 5 12
REMARK H PARENT 11 11 5 13
REMARK Flexibility Score: inf
ROOT
ATOM      1  C   UNL     1      30.146  38.981  30.440  1.00  0.00     0.048 C 
ATOM      2  C   UNL     1      29.795  38.763  28.993  1.00  0.00    -0.005 A 
ATOM      3  C   UNL     1      30.802  38.473  28.067  1.00  0.00     0.053 A 
ATOM      4  C   UNL     1      30.506  38.303  26.716  1.00  0.00     0.119 A 
ATOM      5  C   UNL     1      29.173  38.437  26.259  1.00  0.00    -0.003 A 
ATOM      6  C   UNL     1      28.128  38.606  27.210  1.00  0.00    -0.002 A 
ATOM      7  C   UNL     1      28.459  38.841  28.570  1.00  0.00     0.121 A 
ATOM      8  C   UNL     1      26.676  38.555  26.791  1.00  0.00     0.049 C 
ATOM      9  C   UNL     1      28.881  38.382  24.776  1.00  0.00     0.049 C 
ENDROOT
BRANCH   7  10
ATOM     10  O   UNL     1      27.483  39.165  29.519  1.00  0.00    -0.507 OA
ATOM     11  H   UNL     1      27.283  38.599  30.334  1.00  0.00     0.293 HD
ENDBRANCH   7  10
BRANCH   4  12
ATOM     12  O   UNL     1      31.564  37.987  25.858  1.00  0.00    -0.508 OA
ATOM     13  H   UNL     1      31.614  37.131  25.323  1.00  0.00     0.293 HD
ENDBRANCH   4  12
TORSDOF 2
ENDMDL
MODEL 5
REMARK VINA RESULT:    -6.385      2.258      2.851
REMARK INTER + INTRA:          -6.758
REMARK INTER:                  -6.758
REMARK INTRA:                   0.000
REMARK UNBOUND:                 0.000
REMARK SMILES Cc1cc(O)c(C)c(C)c1O
REMARK SMILES IDX 1 1 2 2 3 3 4 4 6 5 8 6 10 7 9 8 7 9 11 10 5 12
REMARK H PARENT 11 11 5 13
REMARK Flexibility Score: inf
ROOT
ATOM      1  C   UNL     1      25.822  37.619  26.982  1.00  0.00     0.048 C 
ATOM      2  C   UNL     1      27.295  37.495  26.700  1.00  0.00    -0.005 A 
ATOM      3  C   UNL     1      28.056  36.539  27.378  1.00  0.00     0.053 A 
ATOM      4  C   UNL     1      29.429  36.430  27.161  1.00  0.00     0.119 A 
ATOM      5  C   UNL     1      30.076  37.303  26.254  1.00  0.00    -0.003 A 
ATOM      6  C   UNL     1      29.289  38.192  25.469  1.00  0.00    -0.002 A 
ATOM      7  C   UNL     1      27.906  38.331  25.752  1.00  0.00     0.121 A 
ATOM      8  C   UNL     1      29.909  38.999  24.350  1.00  0.00     0.049 C 
ATOM      9  C   UNL     1      31.582  37.265  26.123  1.00  0.00     0.049 C 
ENDROOT
BRANCH   7  10
ATOM     10  O   UNL     1      27.117  39.297  25.118  1.00  0.00    -0.507 OA
ATOM     11  H   UNL     1      27.484  40.158  24.733  1.00  0.00     0.293 HD
ENDBRANCH   7  10
BRANCH   4  12
ATOM     12  O   UNL     1      30.115  35.430  27.857  1.00  0.00    -0.508 OA
ATOM     13  H   UNL     1      30.806  35.617  28.570  1.00  0.00     0.293 HD
ENDBRANCH   4  12
TORSDOF 2
ENDMDL
MODEL 6
REMARK VINA RESULT:    -6.318      1.345      2.925
REMARK INTER + INTRA:          -6.688
REMARK INTER:                  -6.688
REMARK INTRA:                   0.000
REMARK UNBOUND:                 0.000
REMARK SMILES Cc1cc(O)c(C)c(C)c1O
REMARK SMILES IDX 1 1 2 2 3 3 4 4 6 5 8 6 10 7 9 8 7 9 11 10 5 12
REMARK H PARENT 11 11 5 13
REMARK Flexibility Score: inf
ROOT
ATOM      1  C   UNL     1      25.919  37.411  27.060  1.00  0.00     0.048 C 
ATOM      2  C   UNL     1      27.414  37.308  27.190  1.00  0.00    -0.005 A 
ATOM      3  C   UNL     1      28.101  36.276  26.544  1.00  0.00     0.053 A 
ATOM      4  C   UNL     1      29.481  36.138  26.679  1.00  0.00     0.119 A 
ATOM      5  C   UNL     1      30.208  37.039  27.493  1.00  0.00    -0.003 A 
ATOM      6  C   UNL     1      29.537  38.163  28.051  1.00  0.00    -0.002 A 
ATOM      7  C   UNL     1      28.125  38.248  27.954  1.00  0.00     0.121 A 
ATOM      8  C   UNL     1      30.306  39.257  28.758  1.00  0.00     0.049 C 
ATOM      9  C   UNL     1      31.681  36.804  27.740  1.00  0.00     0.049 C 
ENDROOT
BRANCH   7  10
ATOM     10  O   UNL     1      27.399  39.247  28.613  1.00  0.00    -0.507 OA
ATOM     11  H   UNL     1      26.394  39.227  28.728  1.00  0.00     0.293 HD
ENDBRANCH   7  10
BRANCH   4  12
ATOM     12  O   UNL     1      30.098  35.098  25.977  1.00  0.00    -0.508 OA
ATOM     13  H   UNL     1      31.097  35.027  25.845  1.00  0.00     0.293 HD
ENDBRANCH   4  12
TORSDOF 2
ENDMDL
MODEL 7
REMARK VINA RESULT:    -6.228      1.105      3.008
REMARK INTER + INTRA:          -6.592
REMARK INTER:                  -6.592
REMARK INTRA:                   0.000
REMARK UNBOUND:                 0.000
REMARK SMILES Cc1cc(O)c(C)c(C)c1O
REMARK SMILES IDX 1 1 2 2 3 3 4 4 6 5 8 6 10 7 9 8 7 9 11 10 5 12
REMARK H PARENT 11 11 5 13
REMARK Flexibility Score: inf
ROOT
ATOM      1  C   UNL     1      29.939  33.871  26.218  1.00  0.00     0.048 C 
ATOM      2  C   UNL     1      29.612  35.236  26.761  1.00  0.00    -0.005 A 
ATOM      3  C   UNL     1      30.642  36.135  27.050  1.00  0.00     0.053 A 
ATOM      4  C   UNL     1      30.367  37.392  27.588  1.00  0.00     0.119 A 
ATOM      5  C   UNL     1      29.030  37.767  27.865  1.00  0.00    -0.003 A 
ATOM      6  C   UNL     1      27.971  36.909  27.458  1.00  0.00    -0.002 A 
ATOM      7  C   UNL     1      28.276  35.612  26.972  1.00  0.00     0.121 A 
ATOM      8  C   UNL     1      26.528  37.353  27.550  1.00  0.00     0.049 C 
ATOM      9  C   UNL     1      28.751  39.076  28.570  1.00  0.00     0.049 C 
ENDROOT
BRANCH   7  10
ATOM     10  O   UNL     1      27.276  34.671  26.702  1.00  0.00    -0.507 OA
ATOM     11  H   UNL     1      26.532  34.441  27.348  1.00  0.00     0.293 HD
ENDBRANCH   7  10
BRANCH   4  12
ATOM     12  O   UNL     1      31.449  38.245  27.822  1.00  0.00    -0.508 OA
ATOM     13  H   UNL     1      31.501  39.192  27.472  1.00  0.00     0.293 HD
ENDBRANCH   4  12
TORSDOF 2
ENDMDL
MODEL 8
REMARK VINA RESULT:    -6.199      1.678      2.449
REMARK INTER + INTRA:          -6.561
REMARK INTER:                  -6.561
REMARK INTRA:                   0.000
REMARK UNBOUND:                 0.000
REMARK SMILES Cc1cc(O)c(C)c(C)c1O
REMARK SMILES IDX 1 1 2 2 3 3 4 4 6 5 8 6 10 7 9 8 7 9 11 10 5 12
REMARK H PARENT 11 11 5 13
REMARK Flexibility Score: inf
ROOT
ATOM      1  C   UNL     1      27.756  34.996  26.251  1.00  0.00     0.048 C 
ATOM      2  C   UNL     1      28.433  36.130  26.973  1.00  0.00    -0.005 A 
ATOM      3  C   UNL     1      27.698  36.939  27.845  1.00  0.00     0.053 A 
ATOM      4  C   UNL     1      28.294  38.017  28.497  1.00  0.00     0.119 A 
ATOM      5  C   UNL     1      29.658  38.318  28.269  1.00  0.00    -0.003 A 
ATOM      6  C   UNL     1      30.442  37.428  27.483  1.00  0.00    -0.002 A 
ATOM      7  C   UNL     1      29.801  36.375  26.779  1.00  0.00     0.121 A 
ATOM      8  C   UNL     1      31.941  37.596  27.375  1.00  0.00     0.049 C 
ATOM      9  C   UNL     1      30.261  39.565  28.875  1.00  0.00     0.049 C 
ENDROOT
BRANCH   7  10
ATOM     10  O   UNL     1      30.495  35.565  25.874  1.00  0.00    -0.507 OA
ATOM     11  H   UNL     1      30.053  35.066  25.112  1.00  0.00     0.293 HD
ENDBRANCH   7  10
BRANCH   4  12
ATOM     12  O   UNL     1      27.500  38.760  29.375  1.00  0.00    -0.508 OA
ATOM     13  H   UNL     1      26.933  39.547  29.089  1.00  0.00     0.293 HD
ENDBRANCH   4  12
TORSDOF 2
ENDMDL
MODEL 9
REMARK VINA RESULT:    -6.111      2.257      3.249
REMARK INTER + INTRA:          -6.468
REMARK INTER:                  -6.468
REMARK INTRA:                   0.000
REMARK UNBOUND:                 0.000
REMARK SMILES Cc1cc(O)c(C)c(C)c1O
REMARK SMILES IDX 1 1 2 2 3 3 4 4 6 5 8 6 10 7 9 8 7 9 11 10 5 12
REMARK H PARENT 11 11 5 13
REMARK Flexibility Score: inf
ROOT
ATOM      1  C   UNL     1      27.816  38.511  29.629  1.00  0.00     0.048 C 
ATOM      2  C   UNL     1      28.441  38.528  28.260  1.00  0.00    -0.005 A 
ATOM      3  C   UNL     1      27.656  38.810  27.139  1.00  0.00     0.053 A 
ATOM      4  C   UNL     1      28.205  38.796  25.857  1.00  0.00     0.119 A 
ATOM      5  C   UNL     1      29.571  38.476  25.674  1.00  0.00    -0.003 A 
ATOM      6  C   UNL     1      30.404  38.311  26.817  1.00  0.00    -0.002 A 
ATOM      7  C   UNL     1      29.812  38.267  28.106  1.00  0.00     0.121 A 
ATOM      8  C   UNL     1      31.902  38.167  26.676  1.00  0.00     0.049 C 
ATOM      9  C   UNL     1      30.126  38.333  24.275  1.00  0.00     0.049 C 
ENDROOT
BRANCH   7  10
ATOM     10  O   UNL     1      30.558  37.956  29.248  1.00  0.00    -0.507 OA
ATOM     11  H   UNL     1      30.421  37.118  29.798  1.00  0.00     0.293 HD
ENDBRANCH   7  10
BRANCH   4  12
ATOM     12  O   UNL     1      27.361  39.117  24.790  1.00  0.00    -0.508 OA
ATOM     13  H   UNL     1      26.760  39.930  24.777  1.00  0.00     0.293 HD
ENDBRANCH   4  12
TORSDOF 2
ENDMDL
