MODEL 1
REMARK VINA RESULT:    -4.314      0.000      0.000
REMARK INTER + INTRA:          -4.566
REMARK INTER:                  -4.566
REMARK INTRA:                   0.000
REMARK UNBOUND:                 0.000
REMARK SMILES O=c1ccc2cc(O)c(O)cc2o1
REMARK SMILES IDX 4 1 3 2 2 3 1 4 13 5 12 6 11 7 9 8 7 9 6 10 5 11 8 12 10 14
REMARK H PARENT 8 13 10 15
REMARK Flexibility Score: inf
ROOT
ATOM      1  C   UNL     1      73.059  38.357  21.263  1.00  0.00     0.019 A 
ATOM      2  C   UNL     1      72.664  37.457  20.273  1.00  0.00     0.094 A 
ATOM      3  C   UNL     1      73.270  37.527  19.014  1.00  0.00     0.336 A 
ATOM      4  O   UNL     1      72.927  36.725  18.106  1.00  0.00    -0.246 OA
ATOM      5  O   UNL     1      74.208  38.439  18.767  1.00  0.00    -0.423 OA
ATOM      6  C   UNL     1      74.614  39.314  19.683  1.00  0.00     0.142 A 
ATOM      7  C   UNL     1      75.605  40.249  19.367  1.00  0.00     0.098 A 
ATOM      8  C   UNL     1      76.036  41.173  20.324  1.00  0.00     0.161 A 
ATOM      9  C   UNL     1      75.473  41.164  21.614  1.00  0.00     0.158 A 
ATOM     10  C   UNL     1      74.479  40.228  21.936  1.00  0.00     0.062 A 
ATOM     11  C   UNL     1      74.047  39.303  20.976  1.00  0.00     0.022 A 
ENDROOT
BRANCH   9  12
ATOM     12  O   UNL     1      75.903  42.084  22.569  1.00  0.00    -0.504 OA
ATOM     13  H   UNL     1      75.628  43.059  22.528  1.00  0.00     0.293 HD
ENDBRANCH   9  12
BRANCH   8  14
ATOM     14  O   UNL     1      77.026  42.093  19.978  1.00  0.00    -0.504 OA
ATOM     15  H   UNL     1      78.011  41.862  20.013  1.00  0.00     0.293 HD
ENDBRANCH   8  14
TORSDOF 2
ENDMDL
MODEL 2
REMARK VINA RESULT:    -4.171      1.772      2.870
REMARK INTER + INTRA:          -4.415
REMARK INTER:                  -4.415
REMARK INTRA:                   0.000
REMARK UNBOUND:                 0.000
REMARK SMILES O=c1ccc2cc(O)c(O)cc2o1
REMARK SMILES IDX 4 1 3 2 2 3 1 4 13 5 12 6 11 7 9 8 7 9 6 10 5 11 8 12 10 14
REMARK H PARENT 8 13 10 15
REMARK Flexibility Score: inf
ROOT
ATOM      1  C   UNL     1      75.154  39.084  19.150  1.00  0.00     0.019 A 
ATOM      2  C   UNL     1      74.776  38.002  18.355  1.00  0.00     0.094 A 
ATOM      3  C   UNL     1      73.536  37.396  18.581  1.00  0.00     0.336 A 
ATOM      4  O   UNL     1      73.177  36.417  17.875  1.00  0.00    -0.246 OA
ATOM      5  O   UNL     1      72.730  37.846  19.540  1.00  0.00    -0.423 OA
ATOM      6  C   UNL     1      73.051  38.875  20.320  1.00  0.00     0.142 A 
ATOM      7  C   UNL     1      72.164  39.305  21.311  1.00  0.00     0.098 A 
ATOM      8  C   UNL     1      72.494  40.386  22.136  1.00  0.00     0.161 A 
ATOM      9  C   UNL     1      73.725  41.048  21.967  1.00  0.00     0.158 A 
ATOM     10  C   UNL     1      74.618  40.619  20.974  1.00  0.00     0.062 A 
ATOM     11  C   UNL     1      74.287  39.536  20.150  1.00  0.00     0.022 A 
ENDROOT
BRANCH   9  12
ATOM     12  O   UNL     1      74.056  42.125  22.788  1.00  0.00    -0.504 OA
ATOM     13  H   UNL     1      73.702  42.200  23.735  1.00  0.00     0.293 HD
ENDBRANCH   9  12
BRANCH   8  14
ATOM     14  O   UNL     1      71.588  40.791  23.116  1.00  0.00    -0.504 OA
ATOM     15  H   UNL     1      70.739  40.275  23.310  1.00  0.00     0.293 HD
ENDBRANCH   8  14
TORSDOF 2
ENDMDL
MODEL 3
REMARK VINA RESULT:    -4.094      2.870      4.557
REMARK INTER + INTRA:          -4.333
REMARK INTER:                  -4.333
REMARK INTRA:                   0.000
REMARK UNBOUND:                 0.000
REMARK SMILES O=c1ccc2cc(O)c(O)cc2o1
REMARK SMILES IDX 4 1 3 2 2 3 1 4 13 5 12 6 11 7 9 8 7 9 6 10 5 11 8 12 10 14
REMARK H PARENT 8 13 10 15
REMARK Flexibility Score: inf
ROOT
ATOM      1  C   UNL     1      75.833  41.190  18.566  1.00  0.00     0.019 A 
ATOM      2  C   UNL     1      77.022  41.540  17.926  1.00  0.00     0.094 A 
ATOM      3  C   UNL     1      78.156  41.807  18.701  1.00  0.00     0.336 A 
ATOM      4  O   UNL     1      79.239  42.125  18.142  1.00  0.00    -0.246 OA
ATOM      5  O   UNL     1      78.100  41.727  20.028  1.00  0.00    -0.423 OA
ATOM      6  C   UNL     1      76.987  41.395  20.678  1.00  0.00     0.142 A 
ATOM      7  C   UNL     1      76.987  41.326  22.074  1.00  0.00     0.098 A 
ATOM      8  C   UNL     1      75.820  40.980  22.765  1.00  0.00     0.161 A 
ATOM      9  C   UNL     1      74.639  40.698  22.054  1.00  0.00     0.158 A 
ATOM     10  C   UNL     1      74.635  40.766  20.652  1.00  0.00     0.062 A 
ATOM     11  C   UNL     1      75.803  41.114  19.962  1.00  0.00     0.022 A 
ENDROOT
BRANCH   9  12
ATOM     12  O   UNL     1      73.477  40.352  22.741  1.00  0.00    -0.504 OA
ATOM     13  H   UNL     1      73.468  40.244  23.748  1.00  0.00     0.293 HD
ENDBRANCH   9  12
BRANCH   8  14
ATOM     14  O   UNL     1      75.852  40.920  24.159  1.00  0.00    -0.504 OA
ATOM     15  H   UNL     1      75.072  41.224  24.729  1.00  0.00     0.293 HD
ENDBRANCH   8  14
TORSDOF 2
ENDMDL
MODEL 4
REMARK VINA RESULT:    -4.067      1.069      2.283
REMARK INTER + INTRA:          -4.305
REMARK INTER:                  -4.305
REMARK INTRA:                   0.000
REMARK UNBOUND:                 0.000
REMARK SMILES O=c1ccc2cc(O)c(O)cc2o1
REMARK SMILES IDX 4 1 3 2 2 3 1 4 13 5 12 6 11 7 9 8 7 9 6 10 5 11 8 12 10 14
REMARK H PARENT 8 13 10 15
REMARK Flexibility Score: inf
ROOT
ATOM      1  C   UNL     1      75.097  38.695  18.139  1.00  0.00     0.019 A 
ATOM      2  C   UNL     1      74.213  37.648  17.880  1.00  0.00     0.094 A 
ATOM      3  C   UNL     1      73.281  37.291  18.861  1.00  0.00     0.336 A 
ATOM      4  O   UNL     1      72.474  36.347  18.647  1.00  0.00    -0.246 OA
ATOM      5  O   UNL     1      73.240  37.941  20.021  1.00  0.00    -0.423 OA
ATOM      6  C   UNL     1      74.064  38.946  20.307  1.00  0.00     0.142 A 
ATOM      7  C   UNL     1      73.974  39.593  21.543  1.00  0.00     0.098 A 
ATOM      8  C   UNL     1      74.838  40.650  21.853  1.00  0.00     0.161 A 
ATOM      9  C   UNL     1      75.802  41.067  20.916  1.00  0.00     0.158 A 
ATOM     10  C   UNL     1      75.895  40.420  19.675  1.00  0.00     0.062 A 
ATOM     11  C   UNL     1      75.031  39.361  19.367  1.00  0.00     0.022 A 
ENDROOT
BRANCH   9  12
ATOM     12  O   UNL     1      76.662  42.119  21.222  1.00  0.00    -0.504 OA
ATOM     13  H   UNL     1      76.348  42.926  21.749  1.00  0.00     0.293 HD
ENDBRANCH   9  12
BRANCH   8  14
ATOM     14  O   UNL     1      74.724  41.276  23.094  1.00  0.00    -0.504 OA
ATOM     15  H   UNL     1      73.828  41.551  23.478  1.00  0.00     0.293 HD
ENDBRANCH   8  14
TORSDOF 2
ENDMDL
MODEL 5
REMARK VINA RESULT:    -3.926      2.100      3.090
REMARK INTER + INTRA:          -4.155
REMARK INTER:                  -4.155
REMARK INTRA:                   0.000
REMARK UNBOUND:                 0.000
REMARK SMILES O=c1ccc2cc(O)c(O)cc2o1
REMARK SMILES IDX 4 1 3 2 2 3 1 4 13 5 12 6 11 7 9 8 7 9 6 10 5 11 8 12 10 14
REMARK H PARENT 8 13 10 15
REMARK Flexibility Score: inf
ROOT
ATOM      1  C   UNL     1      75.822  41.342  18.744  1.00  0.00     0.019 A 
ATOM      2  C   UNL     1      74.804  40.760  17.988  1.00  0.00     0.094 A 
ATOM      3  C   UNL     1      73.809  40.026  18.643  1.00  0.00     0.336 A 
ATOM      4  O   UNL     1      72.882  39.492  17.979  1.00  0.00    -0.246 OA
ATOM      5  O   UNL     1      73.835  39.887  19.966  1.00  0.00    -0.423 OA
ATOM      6  C   UNL     1      74.786  40.426  20.724  1.00  0.00     0.142 A 
ATOM      7  C   UNL     1      74.762  40.247  22.111  1.00  0.00     0.098 A 
ATOM      8  C   UNL     1      75.760  40.810  22.915  1.00  0.00     0.161 A 
ATOM      9  C   UNL     1      76.794  41.562  22.327  1.00  0.00     0.158 A 
ATOM     10  C   UNL     1      76.822  41.745  20.937  1.00  0.00     0.062 A 
ATOM     11  C   UNL     1      75.823  41.179  20.133  1.00  0.00     0.022 A 
ENDROOT
BRANCH   9  12
ATOM     12  O   UNL     1      77.788  42.124  23.127  1.00  0.00    -0.504 OA
ATOM     13  H   UNL     1      78.661  42.456  22.733  1.00  0.00     0.293 HD
ENDBRANCH   9  12
BRANCH   8  14
ATOM     14  O   UNL     1      75.707  40.613  24.295  1.00  0.00    -0.504 OA
ATOM     15  H   UNL     1      74.832  40.483  24.787  1.00  0.00     0.293 HD
ENDBRANCH   8  14
TORSDOF 2
ENDMDL
MODEL 6
REMARK VINA RESULT:    -3.891      1.718      4.514
REMARK INTER + INTRA:          -4.119
REMARK INTER:                  -4.119
REMARK INTRA:                   0.000
REMARK UNBOUND:                 0.000
REMARK SMILES O=c1ccc2cc(O)c(O)cc2o1
REMARK SMILES IDX 4 1 3 2 2 3 1 4 13 5 12 6 11 7 9 8 7 9 6 10 5 11 8 12 10 14
REMARK H PARENT 8 13 10 15
REMARK Flexibility Score: inf
ROOT
ATOM      1  C   UNL     1      75.746  41.011  20.806  1.00  0.00     0.019 A 
ATOM      2  C   UNL     1      76.672  41.757  20.077  1.00  0.00     0.094 A 
ATOM      3  C   UNL     1      76.864  41.463  18.723  1.00  0.00     0.336 A 
ATOM      4  O   UNL     1      77.696  42.124  18.048  1.00  0.00    -0.246 OA
ATOM      5  O   UNL     1      76.172  40.486  18.141  1.00  0.00    -0.423 OA
ATOM      6  C   UNL     1      75.279  39.752  18.799  1.00  0.00     0.142 A 
ATOM      7  C   UNL     1      74.581  38.739  18.135  1.00  0.00     0.098 A 
ATOM      8  C   UNL     1      73.641  37.961  18.820  1.00  0.00     0.161 A 
ATOM      9  C   UNL     1      73.393  38.198  20.185  1.00  0.00     0.158 A 
ATOM     10  C   UNL     1      74.091  39.214  20.855  1.00  0.00     0.062 A 
ATOM     11  C   UNL     1      75.033  39.991  20.168  1.00  0.00     0.022 A 
ENDROOT
BRANCH   9  12
ATOM     12  O   UNL     1      72.457  37.425  20.869  1.00  0.00    -0.504 OA
ATOM     13  H   UNL     1      72.594  36.431  21.015  1.00  0.00     0.293 HD
ENDBRANCH   9  12
BRANCH   8  14
ATOM     14  O   UNL     1      72.960  36.957  18.130  1.00  0.00    -0.504 OA
ATOM     15  H   UNL     1      72.939  35.999  18.456  1.00  0.00     0.293 HD
ENDBRANCH   8  14
TORSDOF 2
ENDMDL
MODEL 7
REMARK VINA RESULT:    -3.884      1.165      5.020
REMARK INTER + INTRA:          -4.111
REMARK INTER:                  -4.111
REMARK INTRA:                   0.000
REMARK UNBOUND:                 0.000
REMARK SMILES O=c1ccc2cc(O)c(O)cc2o1
REMARK SMILES IDX 4 1 3 2 2 3 1 4 13 5 12 6 11 7 9 8 7 9 6 10 5 11 8 12 10 14
REMARK H PARENT 8 13 10 15
REMARK Flexibility Score: inf
ROOT
ATOM      1  C   UNL     1      76.077  40.834  19.445  1.00  0.00     0.019 A 
ATOM      2  C   UNL     1      76.554  41.587  20.518  1.00  0.00     0.094 A 
ATOM      3  C   UNL     1      76.091  41.300  21.807  1.00  0.00     0.336 A 
ATOM      4  O   UNL     1      76.509  41.969  22.788  1.00  0.00    -0.246 OA
ATOM      5  O   UNL     1      75.210  40.322  22.004  1.00  0.00    -0.423 OA
ATOM      6  C   UNL     1      74.731  39.579  21.010  1.00  0.00     0.142 A 
ATOM      7  C   UNL     1      73.807  38.564  21.277  1.00  0.00     0.098 A 
ATOM      8  C   UNL     1      73.298  37.779  20.237  1.00  0.00     0.161 A 
ATOM      9  C   UNL     1      73.717  38.009  18.913  1.00  0.00     0.158 A 
ATOM     10  C   UNL     1      74.643  39.026  18.640  1.00  0.00     0.062 A 
ATOM     11  C   UNL     1      75.152  39.812  19.683  1.00  0.00     0.022 A 
ENDROOT
BRANCH   9  12
ATOM     12  O   UNL     1      73.210  37.228  17.876  1.00  0.00    -0.504 OA
ATOM     13  H   UNL     1      72.989  37.626  16.970  1.00  0.00     0.293 HD
ENDBRANCH   9  12
BRANCH   8  14
ATOM     14  O   UNL     1      72.377  36.775  20.536  1.00  0.00    -0.504 OA
ATOM     15  H   UNL     1      72.455  36.204  21.369  1.00  0.00     0.293 HD
ENDBRANCH   8  14
TORSDOF 2
ENDMDL
MODEL 8
REMARK VINA RESULT:    -3.843      3.929      4.214
REMARK INTER + INTRA:          -4.067
REMARK INTER:                  -4.067
REMARK INTRA:                   0.000
REMARK UNBOUND:                 0.000
REMARK SMILES O=c1ccc2cc(O)c(O)cc2o1
REMARK SMILES IDX 4 1 3 2 2 3 1 4 13 5 12 6 11 7 9 8 7 9 6 10 5 11 8 12 10 14
REMARK H PARENT 8 13 10 15
REMARK Flexibility Score: inf
ROOT
ATOM      1  C   UNL     1      69.457  40.481  21.638  1.00  0.00     0.019 A 
ATOM      2  C   UNL     1      68.589  41.026  20.692  1.00  0.00     0.094 A 
ATOM      3  C   UNL     1      69.124  41.624  19.546  1.00  0.00     0.336 A 
ATOM      4  O   UNL     1      68.357  42.122  18.681  1.00  0.00    -0.246 OA
ATOM      5  O   UNL     1      70.441  41.671  19.363  1.00  0.00    -0.423 OA
ATOM      6  C   UNL     1      71.304  41.162  20.239  1.00  0.00     0.142 A 
ATOM      7  C   UNL     1      72.678  41.240  19.993  1.00  0.00     0.098 A 
ATOM      8  C   UNL     1      73.592  40.709  20.911  1.00  0.00     0.161 A 
ATOM      9  C   UNL     1      73.128  40.092  22.087  1.00  0.00     0.158 A 
ATOM     10  C   UNL     1      71.750  40.011  22.337  1.00  0.00     0.062 A 
ATOM     11  C   UNL     1      70.837  40.544  21.419  1.00  0.00     0.022 A 
ENDROOT
BRANCH   9  12
ATOM     12  O   UNL     1      74.037  39.562  23.001  1.00  0.00    -0.504 OA
ATOM     13  H   UNL     1      74.520  40.149  23.671  1.00  0.00     0.293 HD
ENDBRANCH   9  12
BRANCH   8  14
ATOM     14  O   UNL     1      74.957  40.803  20.637  1.00  0.00    -0.504 OA
ATOM     15  H   UNL     1      75.307  41.201  19.774  1.00  0.00     0.293 HD
ENDBRANCH   8  14
TORSDOF 2
ENDMDL
MODEL 9
REMARK VINA RESULT:    -3.808      4.067      4.653
REMARK INTER + INTRA:          -4.030
REMARK INTER:                  -4.030
REMARK INTRA:                   0.000
REMARK UNBOUND:                 0.000
REMARK SMILES O=c1ccc2cc(O)c(O)cc2o1
REMARK SMILES IDX 4 1 3 2 2 3 1 4 13 5 12 6 11 7 9 8 7 9 6 10 5 11 8 12 10 14
REMARK H PARENT 8 13 10 15
REMARK Flexibility Score: inf
ROOT
ATOM      1  C   UNL     1      70.764  41.903  19.242  1.00  0.00     0.019 A 
ATOM      2  C   UNL     1      69.382  41.870  19.434  1.00  0.00     0.094 A 
ATOM      3  C   UNL     1      68.872  41.257  20.583  1.00  0.00     0.336 A 
ATOM      4  O   UNL     1      67.628  41.216  20.774  1.00  0.00    -0.246 OA
ATOM      5  O   UNL     1      69.693  40.713  21.478  1.00  0.00    -0.423 OA
ATOM      6  C   UNL     1      71.016  40.723  21.334  1.00  0.00     0.142 A 
ATOM      7  C   UNL     1      71.830  40.137  22.308  1.00  0.00     0.098 A 
ATOM      8  C   UNL     1      73.222  40.142  22.163  1.00  0.00     0.161 A 
ATOM      9  C   UNL     1      73.809  40.741  21.033  1.00  0.00     0.158 A 
ATOM     10  C   UNL     1      72.996  41.331  20.054  1.00  0.00     0.062 A 
ATOM     11  C   UNL     1      71.603  41.324  20.199  1.00  0.00     0.022 A 
ENDROOT
BRANCH   9  12
ATOM     12  O   UNL     1      75.195  40.748  20.889  1.00  0.00    -0.504 OA
ATOM     13  H   UNL     1      75.638  41.047  20.027  1.00  0.00     0.293 HD
ENDBRANCH   9  12
BRANCH   8  14
ATOM     14  O   UNL     1      74.007  39.548  23.152  1.00  0.00    -0.504 OA
ATOM     15  H   UNL     1      74.918  39.910  23.405  1.00  0.00     0.293 HD
ENDBRANCH   8  14
TORSDOF 2
ENDMDL
