MODEL 1
REMARK VINA RESULT:    -3.547      0.000      0.000
REMARK INTER + INTRA:         -12.162
REMARK INTER:                  -8.108
REMARK INTRA:                  -4.054
REMARK UNBOUND:                -4.054
REMARK SMILES CCCCCCCCCCCCCCCCCCCCCCCC(=O)[O-]
REMARK SMILES IDX 13 1 14 2 15 3 16 4 17 5 18 6 19 7 20 8 21 9 22 10 23 11
REMARK SMILES IDX 24 12 25 13 26 14 12 15 11 16 10 17 9 18 8 19 7 20 6 21 5 22
REMARK SMILES IDX 4 23 3 24 2 25 1 26
REMARK H PARENT
REMARK Flexibility Score: inf
ROOT
ATOM      1  C   UNL     1      -1.183  -8.955  35.850  1.00  0.00     0.000 C 
ENDROOT
BRANCH   1   2
ATOM      2  C   UNL     1      -1.841  -7.575  35.667  1.00  0.00     0.000 C 
BRANCH   2   3
ATOM      3  C   UNL     1      -2.507  -7.401  34.288  1.00  0.00     0.000 C 
BRANCH   3   4
ATOM      4  C   UNL     1      -2.095  -6.124  33.536  1.00  0.00     0.000 C 
BRANCH   4   5
ATOM      5  C   UNL     1      -3.174  -5.604  32.576  1.00  0.00     0.000 C 
BRANCH   5   6
ATOM      6  C   UNL     1      -4.426  -5.155  33.344  1.00  0.00     0.000 C 
BRANCH   6   7
ATOM      7  C   UNL     1      -4.091  -4.056  34.365  1.00  0.00     0.000 C 
BRANCH   7   8
ATOM      8  C   UNL     1      -4.618  -4.377  35.773  1.00  0.00     0.000 C 
BRANCH   8   9
ATOM      9  C   UNL     1      -5.495  -5.636  35.812  1.00  0.00     0.000 C 
BRANCH   9  10
ATOM     10  C   UNL     1      -5.065  -6.563  36.960  1.00  0.00     0.006 C 
BRANCH  10  11
ATOM     11  C   UNL     1      -6.191  -7.504  37.407  1.00  0.00     0.053 C 
BRANCH  11  12
ATOM     12  C   UNL     1      -7.025  -6.906  38.500  1.00  0.00     0.041 C 
ATOM     13  O   UNL     1      -6.935  -7.343  39.679  1.00  0.00    -0.550 OA
ATOM     14  O   UNL     1      -7.873  -5.839  38.224  1.00  0.00    -0.550 OA
ENDBRANCH  11  12
ENDBRANCH  10  11
ENDBRANCH   9  10
ENDBRANCH   8   9
ENDBRANCH   7   8
ENDBRANCH   6   7
ENDBRANCH   5   6
ENDBRANCH   4   5
ENDBRANCH   3   4
ENDBRANCH   2   3
ENDBRANCH   1   2
BRANCH   1  15
ATOM     15  C   UNL     1      -2.232 -10.027  36.179  1.00  0.00     0.000 C 
BRANCH  15  16
ATOM     16  C   UNL     1      -1.804 -10.956  37.327  1.00  0.00     0.000 C 
BRANCH  16  17
ATOM     17  C   UNL     1      -0.323 -10.789  37.712  1.00  0.00     0.000 C 
BRANCH  17  18
ATOM     18  C   UNL     1      -0.147 -10.289  39.162  1.00  0.00    -0.000 C 
BRANCH  18  19
ATOM     19  C   UNL     1      -0.181  -8.754  39.285  1.00  0.00    -0.000 C 
BRANCH  19  20
ATOM     20  C   UNL     1      -1.349  -8.207  40.122  1.00  0.00    -0.000 C 
BRANCH  20  21
ATOM     21  C   UNL     1      -2.650  -8.082  39.316  1.00  0.00    -0.000 C 
BRANCH  21  22
ATOM     22  C   UNL     1      -3.786  -8.868  39.991  1.00  0.00    -0.000 C 
BRANCH  22  23
ATOM     23  C   UNL     1      -3.295  -9.746  41.153  1.00  0.00    -0.000 C 
BRANCH  23  24
ATOM     24  C   UNL     1      -3.444 -11.250  40.866  1.00  0.00    -0.000 C 
BRANCH  24  25
ATOM     25  C   UNL     1      -2.300 -12.078  41.481  1.00  0.00    -0.003 C 
ATOM     26  C   UNL     1      -1.450 -11.271  42.461  1.00  0.00     0.004 C 
ENDBRANCH  24  25
ENDBRANCH  23  24
ENDBRANCH  22  23
ENDBRANCH  21  22
ENDBRANCH  20  21
ENDBRANCH  19  20
ENDBRANCH  18  19
ENDBRANCH  17  18
ENDBRANCH  16  17
ENDBRANCH  15  16
ENDBRANCH   1  15
TORSDOF 22
ENDMDL
MODEL 2
REMARK VINA RESULT:    -3.492      2.960      4.190
REMARK INTER + INTRA:         -12.037
REMARK INTER:                  -8.297
REMARK INTRA:                  -3.740
REMARK UNBOUND:                -4.054
REMARK SMILES CCCCCCCCCCCCCCCCCCCCCCCC(=O)[O-]
REMARK SMILES IDX 13 1 14 2 15 3 16 4 17 5 18 6 19 7 20 8 21 9 22 10 23 11
REMARK SMILES IDX 24 12 25 13 26 14 12 15 11 16 10 17 9 18 8 19 7 20 6 21 5 22
REMARK SMILES IDX 4 23 3 24 2 25 1 26
REMARK H PARENT
REMARK Flexibility Score: inf
ROOT
ATOM      1  C   UNL     1      -0.125  -9.385  36.644  1.00  0.00     0.000 C 
ENDROOT
BRANCH   1   2
ATOM      2  C   UNL     1      -1.068  -8.621  35.697  1.00  0.00     0.000 C 
BRANCH   2   3
ATOM      3  C   UNL     1      -1.647  -7.339  36.326  1.00  0.00     0.000 C 
BRANCH   3   4
ATOM      4  C   UNL     1      -3.167  -7.372  36.562  1.00  0.00     0.000 C 
BRANCH   4   5
ATOM      5  C   UNL     1      -3.760  -6.004  36.930  1.00  0.00     0.000 C 
BRANCH   5   6
ATOM      6  C   UNL     1      -5.085  -5.760  36.195  1.00  0.00     0.000 C 
BRANCH   6   7
ATOM      7  C   UNL     1      -5.176  -4.317  35.673  1.00  0.00     0.000 C 
BRANCH   7   8
ATOM      8  C   UNL     1      -4.104  -4.003  34.616  1.00  0.00     0.000 C 
BRANCH   8   9
ATOM      9  C   UNL     1      -4.084  -5.015  33.463  1.00  0.00     0.000 C 
BRANCH   9  10
ATOM     10  C   UNL     1      -2.683  -5.627  33.302  1.00  0.00     0.006 C 
BRANCH  10  11
ATOM     11  C   UNL     1      -2.702  -6.929  32.491  1.00  0.00     0.053 C 
BRANCH  11  12
ATOM     12  C   UNL     1      -2.324  -6.707  31.058  1.00  0.00     0.041 C 
ATOM     13  O   UNL     1      -1.206  -7.098  30.627  1.00  0.00    -0.550 OA
ATOM     14  O   UNL     1      -3.223  -6.102  30.186  1.00  0.00    -0.550 OA
ENDBRANCH  11  12
ENDBRANCH  10  11
ENDBRANCH   9  10
ENDBRANCH   8   9
ENDBRANCH   7   8
ENDBRANCH   6   7
ENDBRANCH   5   6
ENDBRANCH   4   5
ENDBRANCH   3   4
ENDBRANCH   2   3
ENDBRANCH   1   2
BRANCH   1  15
ATOM     15  C   UNL     1      -0.889 -10.450  37.444  1.00  0.00     0.000 C 
BRANCH  15  16
ATOM     16  C   UNL     1      -0.742 -10.282  38.965  1.00  0.00     0.000 C 
BRANCH  16  17
ATOM     17  C   UNL     1      -0.329  -8.856  39.372  1.00  0.00     0.000 C 
BRANCH  17  18
ATOM     18  C   UNL     1      -1.510  -8.046  39.947  1.00  0.00    -0.000 C 
BRANCH  18  19
ATOM     19  C   UNL     1      -2.725  -8.918  40.316  1.00  0.00    -0.000 C 
BRANCH  19  20
ATOM     20  C   UNL     1      -4.060  -8.437  39.726  1.00  0.00    -0.000 C 
BRANCH  20  21
ATOM     21  C   UNL     1      -5.077  -9.574  39.553  1.00  0.00    -0.000 C 
BRANCH  21  22
ATOM     22  C   UNL     1      -4.366 -10.897  39.225  1.00  0.00    -0.000 C 
BRANCH  22  23
ATOM     23  C   UNL     1      -4.487 -11.934  40.354  1.00  0.00    -0.000 C 
BRANCH  23  24
ATOM     24  C   UNL     1      -3.130 -12.538  40.755  1.00  0.00    -0.000 C 
BRANCH  24  25
ATOM     25  C   UNL     1      -2.743 -12.193  42.204  1.00  0.00    -0.003 C 
ATOM     26  C   UNL     1      -1.281 -11.769  42.338  1.00  0.00     0.004 C 
ENDBRANCH  24  25
ENDBRANCH  23  24
ENDBRANCH  22  23
ENDBRANCH  21  22
ENDBRANCH  20  21
ENDBRANCH  19  20
ENDBRANCH  18  19
ENDBRANCH  17  18
ENDBRANCH  16  17
ENDBRANCH  15  16
ENDBRANCH   1  15
TORSDOF 22
ENDMDL
MODEL 3
REMARK VINA RESULT:    -3.480      2.559      4.566
REMARK INTER + INTRA:         -12.010
REMARK INTER:                  -8.155
REMARK INTRA:                  -3.855
REMARK UNBOUND:                -4.054
REMARK SMILES CCCCCCCCCCCCCCCCCCCCCCCC(=O)[O-]
REMARK SMILES IDX 13 1 14 2 15 3 16 4 17 5 18 6 19 7 20 8 21 9 22 10 23 11
REMARK SMILES IDX 24 12 25 13 26 14 12 15 11 16 10 17 9 18 8 19 7 20 6 21 5 22
REMARK SMILES IDX 4 23 3 24 2 25 1 26
REMARK H PARENT
REMARK Flexibility Score: inf
ROOT
ATOM      1  C   UNL     1      -0.193 -10.317  39.357  1.00  0.00     0.000 C 
ENDROOT
BRANCH   1   2
ATOM      2  C   UNL     1      -0.260 -10.780  37.890  1.00  0.00     0.000 C 
BRANCH   2   3
ATOM      3  C   UNL     1      -0.543  -9.629  36.905  1.00  0.00     0.000 C 
BRANCH   3   4
ATOM      4  C   UNL     1      -1.908  -9.711  36.201  1.00  0.00     0.000 C 
BRANCH   4   5
ATOM      5  C   UNL     1      -2.495  -8.339  35.842  1.00  0.00     0.000 C 
BRANCH   5   6
ATOM      6  C   UNL     1      -2.066  -7.271  36.859  1.00  0.00     0.000 C 
BRANCH   6   7
ATOM      7  C   UNL     1      -3.216  -6.299  37.168  1.00  0.00     0.000 C 
BRANCH   7   8
ATOM      8  C   UNL     1      -4.182  -6.132  35.984  1.00  0.00     0.000 C 
BRANCH   8   9
ATOM      9  C   UNL     1      -4.740  -4.707  35.863  1.00  0.00     0.000 C 
BRANCH   9  10
ATOM     10  C   UNL     1      -4.414  -4.110  34.485  1.00  0.00     0.006 C 
BRANCH  10  11
ATOM     11  C   UNL     1      -3.298  -4.876  33.764  1.00  0.00     0.053 C 
BRANCH  11  12
ATOM     12  C   UNL     1      -3.780  -5.516  32.497  1.00  0.00     0.041 C 
ATOM     13  O   UNL     1      -2.955  -5.984  31.667  1.00  0.00    -0.550 OA
ATOM     14  O   UNL     1      -5.145  -5.632  32.251  1.00  0.00    -0.550 OA
ENDBRANCH  11  12
ENDBRANCH  10  11
ENDBRANCH   9  10
ENDBRANCH   8   9
ENDBRANCH   7   8
ENDBRANCH   6   7
ENDBRANCH   5   6
ENDBRANCH   4   5
ENDBRANCH   3   4
ENDBRANCH   2   3
ENDBRANCH   1   2
BRANCH   1  15
ATOM     15  C   UNL     1      -0.251  -8.786  39.454  1.00  0.00     0.000 C 
BRANCH  15  16
ATOM     16  C   UNL     1      -1.388  -8.283  40.359  1.00  0.00     0.000 C 
BRANCH  16  17
ATOM     17  C   UNL     1      -2.515  -9.317  40.533  1.00  0.00     0.000 C 
BRANCH  17  18
ATOM     18  C   UNL     1      -3.738  -9.005  39.643  1.00  0.00    -0.000 C 
BRANCH  18  19
ATOM     19  C   UNL     1      -4.394 -10.265  39.048  1.00  0.00    -0.000 C 
BRANCH  19  20
ATOM     20  C   UNL     1      -3.564 -11.550  39.200  1.00  0.00    -0.000 C 
BRANCH  20  21
ATOM     21  C   UNL     1      -4.309 -12.650  39.971  1.00  0.00    -0.000 C 
BRANCH  21  22
ATOM     22  C   UNL     1      -3.855 -12.690  41.439  1.00  0.00    -0.000 C 
BRANCH  22  23
ATOM     23  C   UNL     1      -4.982 -13.107  42.400  1.00  0.00    -0.000 C 
BRANCH  23  24
ATOM     24  C   UNL     1      -5.387 -11.979  43.365  1.00  0.00    -0.000 C 
BRANCH  24  25
ATOM     25  C   UNL     1      -4.796 -10.619  42.954  1.00  0.00    -0.003 C 
ATOM     26  C   UNL     1      -5.871  -9.579  42.642  1.00  0.00     0.004 C 
ENDBRANCH  24  25
ENDBRANCH  23  24
ENDBRANCH  22  23
ENDBRANCH  21  22
ENDBRANCH  20  21
ENDBRANCH  19  20
ENDBRANCH  18  19
ENDBRANCH  17  18
ENDBRANCH  16  17
ENDBRANCH  15  16
ENDBRANCH   1  15
TORSDOF 22
ENDMDL
MODEL 4
REMARK VINA RESULT:    -3.463      2.194      5.959
REMARK INTER + INTRA:         -11.970
REMARK INTER:                  -7.528
REMARK INTRA:                  -4.442
REMARK UNBOUND:                -4.054
REMARK SMILES CCCCCCCCCCCCCCCCCCCCCCCC(=O)[O-]
REMARK SMILES IDX 13 1 14 2 15 3 16 4 17 5 18 6 19 7 20 8 21 9 22 10 23 11
REMARK SMILES IDX 24 12 25 13 26 14 12 15 11 16 10 17 9 18 8 19 7 20 6 21 5 22
REMARK SMILES IDX 4 23 3 24 2 25 1 26
REMARK H PARENT
REMARK Flexibility Score: inf
ROOT
ATOM      1  C   UNL     1      -3.246 -12.686  41.016  1.00  0.00     0.000 C 
ENDROOT
BRANCH   1   2
ATOM      2  C   UNL     1      -4.708 -12.637  41.493  1.00  0.00     0.000 C 
BRANCH   2   3
ATOM      3  C   UNL     1      -4.867 -12.012  42.893  1.00  0.00     0.000 C 
BRANCH   3   4
ATOM      4  C   UNL     1      -5.704 -10.721  42.925  1.00  0.00     0.000 C 
BRANCH   4   5
ATOM      5  C   UNL     1      -4.990  -9.513  42.302  1.00  0.00     0.000 C 
BRANCH   5   6
ATOM      6  C   UNL     1      -5.739  -9.009  41.060  1.00  0.00     0.000 C 
BRANCH   6   7
ATOM      7  C   UNL     1      -4.983  -9.366  39.769  1.00  0.00     0.000 C 
BRANCH   7   8
ATOM      8  C   UNL     1      -4.552  -8.123  38.974  1.00  0.00     0.000 C 
BRANCH   8   9
ATOM      9  C   UNL     1      -5.189  -8.052  37.580  1.00  0.00     0.000 C 
BRANCH   9  10
ATOM     10  C   UNL     1      -5.410  -6.592  37.156  1.00  0.00     0.006 C 
BRANCH  10  11
ATOM     11  C   UNL     1      -4.093  -5.850  36.898  1.00  0.00     0.053 C 
BRANCH  11  12
ATOM     12  C   UNL     1      -3.983  -5.372  35.481  1.00  0.00     0.041 C 
ATOM     13  O   UNL     1      -4.459  -4.253  35.150  1.00  0.00    -0.550 OA
ATOM     14  O   UNL     1      -3.320  -6.145  34.534  1.00  0.00    -0.550 OA
ENDBRANCH  11  12
ENDBRANCH  10  11
ENDBRANCH   9  10
ENDBRANCH   8   9
ENDBRANCH   7   8
ENDBRANCH   6   7
ENDBRANCH   5   6
ENDBRANCH   4   5
ENDBRANCH   3   4
ENDBRANCH   2   3
ENDBRANCH   1   2
BRANCH   1  15
ATOM     15  C   UNL     1      -2.276 -12.635  42.206  1.00  0.00     0.000 C 
BRANCH  15  16
ATOM     16  C   UNL     1      -1.246 -11.498  42.096  1.00  0.00     0.000 C 
BRANCH  16  17
ATOM     17  C   UNL     1      -1.416 -10.659  40.817  1.00  0.00     0.000 C 
BRANCH  17  18
ATOM     18  C   UNL     1      -1.744  -9.182  41.124  1.00  0.00    -0.000 C 
BRANCH  18  19
ATOM     19  C   UNL     1      -1.070  -8.194  40.153  1.00  0.00    -0.000 C 
BRANCH  19  20
ATOM     20  C   UNL     1      -0.738  -8.783  38.772  1.00  0.00    -0.000 C 
BRANCH  20  21
ATOM     21  C   UNL     1      -1.117  -7.842  37.620  1.00  0.00    -0.000 C 
BRANCH  21  22
ATOM     22  C   UNL     1      -1.706  -8.632  36.440  1.00  0.00    -0.000 C 
BRANCH  22  23
ATOM     23  C   UNL     1      -1.649 -10.154  36.657  1.00  0.00    -0.000 C 
BRANCH  23  24
ATOM     24  C   UNL     1      -3.009 -10.838  36.434  1.00  0.00    -0.000 C 
BRANCH  24  25
ATOM     25  C   UNL     1      -3.317 -11.889  37.516  1.00  0.00    -0.003 C 
ATOM     26  C   UNL     1      -4.795 -12.274  37.560  1.00  0.00     0.004 C 
ENDBRANCH  24  25
ENDBRANCH  23  24
ENDBRANCH  22  23
ENDBRANCH  21  22
ENDBRANCH  20  21
ENDBRANCH  19  20
ENDBRANCH  18  19
ENDBRANCH  17  18
ENDBRANCH  16  17
ENDBRANCH  15  16
ENDBRANCH   1  15
TORSDOF 22
ENDMDL
MODEL 5
REMARK VINA RESULT:    -3.457      1.914      3.969
REMARK INTER + INTRA:         -11.957
REMARK INTER:                  -6.899
REMARK INTRA:                  -5.058
REMARK UNBOUND:                -4.054
REMARK SMILES CCCCCCCCCCCCCCCCCCCCCCCC(=O)[O-]
REMARK SMILES IDX 13 1 14 2 15 3 16 4 17 5 18 6 19 7 20 8 21 9 22 10 23 11
REMARK SMILES IDX 24 12 25 13 26 14 12 15 11 16 10 17 9 18 8 19 7 20 6 21 5 22
REMARK SMILES IDX 4 23 3 24 2 25 1 26
REMARK H PARENT
REMARK Flexibility Score: inf
ROOT
ATOM      1  C   UNL     1      -0.672  -8.686  39.112  1.00  0.00     0.000 C 
ENDROOT
BRANCH   1   2
ATOM      2  C   UNL     1      -1.020  -7.810  37.894  1.00  0.00     0.000 C 
BRANCH   2   3
ATOM      3  C   UNL     1      -1.077  -8.604  36.575  1.00  0.00     0.000 C 
BRANCH   3   4
ATOM      4  C   UNL     1      -1.142 -10.131  36.750  1.00  0.00     0.000 C 
BRANCH   4   5
ATOM      5  C   UNL     1      -2.101 -10.820  35.768  1.00  0.00     0.000 C 
BRANCH   5   6
ATOM      6  C   UNL     1      -2.744  -9.800  34.817  1.00  0.00     0.000 C 
BRANCH   6   7
ATOM      7  C   UNL     1      -4.269  -9.750  35.002  1.00  0.00     0.000 C 
BRANCH   7   8
ATOM      8  C   UNL     1      -4.814  -8.312  35.028  1.00  0.00     0.000 C 
BRANCH   8   9
ATOM      9  C   UNL     1      -3.823  -7.285  34.462  1.00  0.00     0.000 C 
BRANCH   9  10
ATOM     10  C   UNL     1      -3.498  -6.209  35.511  1.00  0.00     0.006 C 
BRANCH  10  11
ATOM     11  C   UNL     1      -4.676  -5.935  36.454  1.00  0.00     0.053 C 
BRANCH  11  12
ATOM     12  C   UNL     1      -5.369  -4.645  36.130  1.00  0.00     0.041 C 
ATOM     13  O   UNL     1      -5.066  -4.005  35.088  1.00  0.00    -0.550 OA
ATOM     14  O   UNL     1      -6.379  -4.170  36.960  1.00  0.00    -0.550 OA
ENDBRANCH  11  12
ENDBRANCH  10  11
ENDBRANCH   9  10
ENDBRANCH   8   9
ENDBRANCH   7   8
ENDBRANCH   6   7
ENDBRANCH   5   6
ENDBRANCH   4   5
ENDBRANCH   3   4
ENDBRANCH   2   3
ENDBRANCH   1   2
BRANCH   1  15
ATOM     15  C   UNL     1      -1.360  -8.163  40.382  1.00  0.00     0.000 C 
BRANCH  15  16
ATOM     16  C   UNL     1      -1.765  -9.285  41.352  1.00  0.00     0.000 C 
BRANCH  16  17
ATOM     17  C   UNL     1      -1.423 -10.688  40.820  1.00  0.00     0.000 C 
BRANCH  17  18
ATOM     18  C   UNL     1      -2.299 -11.786  41.460  1.00  0.00    -0.000 C 
BRANCH  18  19
ATOM     19  C   UNL     1      -3.356 -12.360  40.497  1.00  0.00    -0.000 C 
BRANCH  19  20
ATOM     20  C   UNL     1      -3.354 -11.727  39.096  1.00  0.00    -0.000 C 
BRANCH  20  21
ATOM     21  C   UNL     1      -4.644 -10.952  38.794  1.00  0.00    -0.000 C 
BRANCH  21  22
ATOM     22  C   UNL     1      -4.355  -9.451  38.636  1.00  0.00    -0.000 C 
BRANCH  22  23
ATOM     23  C   UNL     1      -4.979  -8.604  39.758  1.00  0.00    -0.000 C 
BRANCH  23  24
ATOM     24  C   UNL     1      -5.779  -9.448  40.766  1.00  0.00    -0.000 C 
BRANCH  24  25
ATOM     25  C   UNL     1      -5.286  -9.252  42.211  1.00  0.00    -0.003 C 
ATOM     26  C   UNL     1      -5.369 -10.533  43.040  1.00  0.00     0.004 C 
ENDBRANCH  24  25
ENDBRANCH  23  24
ENDBRANCH  22  23
ENDBRANCH  21  22
ENDBRANCH  20  21
ENDBRANCH  19  20
ENDBRANCH  18  19
ENDBRANCH  17  18
ENDBRANCH  16  17
ENDBRANCH  15  16
ENDBRANCH   1  15
TORSDOF 22
ENDMDL
MODEL 6
REMARK VINA RESULT:    -3.383      2.636      4.859
REMARK INTER + INTRA:         -11.789
REMARK INTER:                  -8.204
REMARK INTRA:                  -3.584
REMARK UNBOUND:                -4.054
REMARK SMILES CCCCCCCCCCCCCCCCCCCCCCCC(=O)[O-]
REMARK SMILES IDX 13 1 14 2 15 3 16 4 17 5 18 6 19 7 20 8 21 9 22 10 23 11
REMARK SMILES IDX 24 12 25 13 26 14 12 15 11 16 10 17 9 18 8 19 7 20 6 21 5 22
REMARK SMILES IDX 4 23 3 24 2 25 1 26
REMARK H PARENT
REMARK Flexibility Score: inf
ROOT
ATOM      1  C   UNL     1      -1.358  -8.267  39.885  1.00  0.00     0.000 C 
ENDROOT
BRANCH   1   2
ATOM      2  C   UNL     1      -0.214  -9.078  39.249  1.00  0.00     0.000 C 
BRANCH   2   3
ATOM      3  C   UNL     1      -0.216  -9.019  37.709  1.00  0.00     0.000 C 
BRANCH   3   4
ATOM      4  C   UNL     1      -0.897  -7.773  37.117  1.00  0.00     0.000 C 
BRANCH   4   5
ATOM      5  C   UNL     1      -1.771  -8.077  35.891  1.00  0.00     0.000 C 
BRANCH   5   6
ATOM      6  C   UNL     1      -3.194  -7.534  36.080  1.00  0.00     0.000 C 
BRANCH   6   7
ATOM      7  C   UNL     1      -3.251  -6.498  37.214  1.00  0.00     0.000 C 
BRANCH   7   8
ATOM      8  C   UNL     1      -4.170  -5.310  36.884  1.00  0.00     0.000 C 
BRANCH   8   9
ATOM      9  C   UNL     1      -5.219  -5.643  35.813  1.00  0.00     0.000 C 
BRANCH   9  10
ATOM     10  C   UNL     1      -5.244  -4.561  34.722  1.00  0.00     0.006 C 
BRANCH  10  11
ATOM     11  C   UNL     1      -3.839  -4.202  34.221  1.00  0.00     0.053 C 
BRANCH  11  12
ATOM     12  C   UNL     1      -3.325  -5.197  33.224  1.00  0.00     0.041 C 
ATOM     13  O   UNL     1      -2.152  -5.648  33.323  1.00  0.00    -0.550 OA
ATOM     14  O   UNL     1      -4.155  -5.657  32.208  1.00  0.00    -0.550 OA
ENDBRANCH  11  12
ENDBRANCH  10  11
ENDBRANCH   9  10
ENDBRANCH   8   9
ENDBRANCH   7   8
ENDBRANCH   6   7
ENDBRANCH   5   6
ENDBRANCH   4   5
ENDBRANCH   3   4
ENDBRANCH   2   3
ENDBRANCH   1   2
BRANCH   1  15
ATOM     15  C   UNL     1      -2.328  -9.185  40.644  1.00  0.00     0.000 C 
BRANCH  15  16
ATOM     16  C   UNL     1      -1.616 -10.149  41.607  1.00  0.00     0.000 C 
BRANCH  16  17
ATOM     17  C   UNL     1      -2.506 -11.327  42.042  1.00  0.00     0.000 C 
BRANCH  17  18
ATOM     18  C   UNL     1      -3.886 -11.304  41.350  1.00  0.00    -0.000 C 
BRANCH  18  19
ATOM     19  C   UNL     1      -5.046 -11.679  42.292  1.00  0.00    -0.000 C 
BRANCH  19  20
ATOM     20  C   UNL     1      -5.650 -10.494  43.064  1.00  0.00    -0.000 C 
BRANCH  20  21
ATOM     21  C   UNL     1      -5.542  -9.169  42.295  1.00  0.00    -0.000 C 
BRANCH  21  22
ATOM     22  C   UNL     1      -6.912  -8.746  41.741  1.00  0.00    -0.000 C 
BRANCH  22  23
ATOM     23  C   UNL     1      -6.948  -8.714  40.204  1.00  0.00    -0.000 C 
BRANCH  23  24
ATOM     24  C   UNL     1      -5.576  -8.398  39.584  1.00  0.00    -0.000 C 
BRANCH  24  25
ATOM     25  C   UNL     1      -5.229  -9.347  38.423  1.00  0.00    -0.003 C 
ATOM     26  C   UNL     1      -6.406  -9.574  37.475  1.00  0.00     0.004 C 
ENDBRANCH  24  25
ENDBRANCH  23  24
ENDBRANCH  22  23
ENDBRANCH  21  22
ENDBRANCH  20  21
ENDBRANCH  19  20
ENDBRANCH  18  19
ENDBRANCH  17  18
ENDBRANCH  16  17
ENDBRANCH  15  16
ENDBRANCH   1  15
TORSDOF 22
ENDMDL
MODEL 7
REMARK VINA RESULT:    -3.375      2.846      6.079
REMARK INTER + INTRA:         -11.769
REMARK INTER:                  -8.051
REMARK INTRA:                  -3.718
REMARK UNBOUND:                -4.054
REMARK SMILES CCCCCCCCCCCCCCCCCCCCCCCC(=O)[O-]
REMARK SMILES IDX 13 1 14 2 15 3 16 4 17 5 18 6 19 7 20 8 21 9 22 10 23 11
REMARK SMILES IDX 24 12 25 13 26 14 12 15 11 16 10 17 9 18 8 19 7 20 6 21 5 22
REMARK SMILES IDX 4 23 3 24 2 25 1 26
REMARK H PARENT
REMARK Flexibility Score: inf
ROOT
ATOM      1  C   UNL     1      -2.507 -12.741  41.677  1.00  0.00     0.000 C 
ENDROOT
BRANCH   1   2
ATOM      2  C   UNL     1      -1.386 -11.734  41.993  1.00  0.00     0.000 C 
BRANCH   2   3
ATOM      3  C   UNL     1      -1.136 -10.729  40.852  1.00  0.00     0.000 C 
BRANCH   3   4
ATOM      4  C   UNL     1      -1.767  -9.343  41.071  1.00  0.00     0.000 C 
BRANCH   4   5
ATOM      5  C   UNL     1      -1.257  -8.276  40.092  1.00  0.00     0.000 C 
BRANCH   5   6
ATOM      6  C   UNL     1      -2.394  -7.752  39.204  1.00  0.00     0.000 C 
BRANCH   6   7
ATOM      7  C   UNL     1      -2.316  -8.347  37.788  1.00  0.00     0.000 C 
BRANCH   7   8
ATOM      8  C   UNL     1      -3.655  -8.263  37.037  1.00  0.00     0.000 C 
BRANCH   8   9
ATOM      9  C   UNL     1      -4.441  -6.982  37.353  1.00  0.00     0.000 C 
BRANCH   9  10
ATOM     10  C   UNL     1      -3.949  -5.815  36.483  1.00  0.00     0.006 C 
BRANCH  10  11
ATOM     11  C   UNL     1      -3.986  -6.144  34.985  1.00  0.00     0.053 C 
BRANCH  11  12
ATOM     12  C   UNL     1      -3.677  -4.947  34.138  1.00  0.00     0.041 C 
ATOM     13  O   UNL     1      -3.223  -5.094  32.971  1.00  0.00    -0.550 OA
ATOM     14  O   UNL     1      -3.928  -3.667  34.621  1.00  0.00    -0.550 OA
ENDBRANCH  11  12
ENDBRANCH  10  11
ENDBRANCH   9  10
ENDBRANCH   8   9
ENDBRANCH   7   8
ENDBRANCH   6   7
ENDBRANCH   5   6
ENDBRANCH   4   5
ENDBRANCH   3   4
ENDBRANCH   2   3
ENDBRANCH   1   2
BRANCH   1  15
ATOM     15  C   UNL     1      -2.452 -13.944  42.629  1.00  0.00     0.000 C 
BRANCH  15  16
ATOM     16  C   UNL     1      -3.706 -14.831  42.551  1.00  0.00     0.000 C 
BRANCH  16  17
ATOM     17  C   UNL     1      -4.947 -14.166  43.172  1.00  0.00     0.000 C 
BRANCH  17  18
ATOM     18  C   UNL     1      -5.917 -13.621  42.102  1.00  0.00    -0.000 C 
BRANCH  18  19
ATOM     19  C   UNL     1      -6.562 -12.278  42.493  1.00  0.00    -0.000 C 
BRANCH  19  20
ATOM     20  C   UNL     1      -5.768 -11.465  43.528  1.00  0.00    -0.000 C 
BRANCH  20  21
ATOM     21  C   UNL     1      -4.852 -10.415  42.882  1.00  0.00    -0.000 C 
BRANCH  21  22
ATOM     22  C   UNL     1      -5.677  -9.268  42.278  1.00  0.00    -0.000 C 
BRANCH  22  23
ATOM     23  C   UNL     1      -5.388  -9.050  40.784  1.00  0.00    -0.000 C 
BRANCH  23  24
ATOM     24  C   UNL     1      -6.503  -9.594  39.875  1.00  0.00    -0.000 C 
BRANCH  24  25
ATOM     25  C   UNL     1      -6.023 -10.766  39.000  1.00  0.00    -0.003 C 
ATOM     26  C   UNL     1      -4.551 -11.107  39.228  1.00  0.00     0.004 C 
ENDBRANCH  24  25
ENDBRANCH  23  24
ENDBRANCH  22  23
ENDBRANCH  21  22
ENDBRANCH  20  21
ENDBRANCH  19  20
ENDBRANCH  18  19
ENDBRANCH  17  18
ENDBRANCH  16  17
ENDBRANCH  15  16
ENDBRANCH   1  15
TORSDOF 22
ENDMDL
MODEL 8
REMARK VINA RESULT:    -3.356      1.828      6.465
REMARK INTER + INTRA:         -11.727
REMARK INTER:                  -7.781
REMARK INTRA:                  -3.946
REMARK UNBOUND:                -4.054
REMARK SMILES CCCCCCCCCCCCCCCCCCCCCCCC(=O)[O-]
REMARK SMILES IDX 13 1 14 2 15 3 16 4 17 5 18 6 19 7 20 8 21 9 22 10 23 11
REMARK SMILES IDX 24 12 25 13 26 14 12 15 11 16 10 17 9 18 8 19 7 20 6 21 5 22
REMARK SMILES IDX 4 23 3 24 2 25 1 26
REMARK H PARENT
REMARK Flexibility Score: inf
ROOT
ATOM      1  C   UNL     1      -5.909  -6.163  36.604  1.00  0.00     0.000 C 
ENDROOT
BRANCH   1   2
ATOM      2  C   UNL     1      -4.736  -7.153  36.717  1.00  0.00     0.000 C 
BRANCH   2   3
ATOM      3  C   UNL     1      -3.424  -6.486  37.175  1.00  0.00     0.000 C 
BRANCH   3   4
ATOM      4  C   UNL     1      -2.470  -7.414  37.947  1.00  0.00     0.000 C 
BRANCH   4   5
ATOM      5  C   UNL     1      -1.054  -7.465  37.357  1.00  0.00     0.000 C 
BRANCH   5   6
ATOM      6  C   UNL     1      -0.270  -8.666  37.905  1.00  0.00     0.000 C 
BRANCH   6   7
ATOM      7  C   UNL     1      -0.682  -8.988  39.350  1.00  0.00     0.000 C 
BRANCH   7   8
ATOM      8  C   UNL     1      -0.466 -10.467  39.711  1.00  0.00     0.000 C 
BRANCH   8   9
ATOM      9  C   UNL     1      -1.455 -10.976  40.769  1.00  0.00     0.000 C 
BRANCH   9  10
ATOM     10  C   UNL     1      -2.440  -9.867  41.170  1.00  0.00     0.006 C 
BRANCH  10  11
ATOM     11  C   UNL     1      -3.903 -10.282  40.970  1.00  0.00     0.053 C 
BRANCH  11  12
ATOM     12  C   UNL     1      -4.747  -9.970  42.169  1.00  0.00     0.041 C 
ATOM     13  O   UNL     1      -5.482  -8.946  42.179  1.00  0.00    -0.550 OA
ATOM     14  O   UNL     1      -4.753 -10.832  43.260  1.00  0.00    -0.550 OA
ENDBRANCH  11  12
ENDBRANCH  10  11
ENDBRANCH   9  10
ENDBRANCH   8   9
ENDBRANCH   7   8
ENDBRANCH   6   7
ENDBRANCH   5   6
ENDBRANCH   4   5
ENDBRANCH   3   4
ENDBRANCH   2   3
ENDBRANCH   1   2
BRANCH   1  15
ATOM     15  C   UNL     1      -5.403  -4.733  36.362  1.00  0.00     0.000 C 
BRANCH  15  16
ATOM     16  C   UNL     1      -5.354  -4.356  34.872  1.00  0.00     0.000 C 
BRANCH  16  17
ATOM     17  C   UNL     1      -3.950  -3.931  34.408  1.00  0.00     0.000 C 
BRANCH  17  18
ATOM     18  C   UNL     1      -3.223  -5.053  33.635  1.00  0.00    -0.000 C 
BRANCH  18  19
ATOM     19  C   UNL     1      -4.179  -5.957  32.834  1.00  0.00    -0.000 C 
BRANCH  19  20
ATOM     20  C   UNL     1      -4.010  -7.462  33.104  1.00  0.00    -0.000 C 
BRANCH  20  21
ATOM     21  C   UNL     1      -2.561  -7.937  32.928  1.00  0.00    -0.000 C 
BRANCH  21  22
ATOM     22  C   UNL     1      -1.985  -8.438  34.263  1.00  0.00    -0.000 C 
BRANCH  22  23
ATOM     23  C   UNL     1      -2.249  -9.934  34.501  1.00  0.00    -0.000 C 
BRANCH  23  24
ATOM     24  C   UNL     1      -3.371 -10.185  35.522  1.00  0.00    -0.000 C 
BRANCH  24  25
ATOM     25  C   UNL     1      -2.874 -10.958  36.758  1.00  0.00    -0.003 C 
ATOM     26  C   UNL     1      -1.667 -11.844  36.452  1.00  0.00     0.004 C 
ENDBRANCH  24  25
ENDBRANCH  23  24
ENDBRANCH  22  23
ENDBRANCH  21  22
ENDBRANCH  20  21
ENDBRANCH  19  20
ENDBRANCH  18  19
ENDBRANCH  17  18
ENDBRANCH  16  17
ENDBRANCH  15  16
ENDBRANCH   1  15
TORSDOF 22
ENDMDL
MODEL 9
REMARK VINA RESULT:    -3.348      2.671      3.882
REMARK INTER + INTRA:         -11.709
REMARK INTER:                  -7.799
REMARK INTRA:                  -3.910
REMARK UNBOUND:                -4.054
REMARK SMILES CCCCCCCCCCCCCCCCCCCCCCCC(=O)[O-]
REMARK SMILES IDX 13 1 14 2 15 3 16 4 17 5 18 6 19 7 20 8 21 9 22 10 23 11
REMARK SMILES IDX 24 12 25 13 26 14 12 15 11 16 10 17 9 18 8 19 7 20 6 21 5 22
REMARK SMILES IDX 4 23 3 24 2 25 1 26
REMARK H PARENT
REMARK Flexibility Score: inf
ROOT
ATOM      1  C   UNL     1      -2.296  -8.349  36.086  1.00  0.00     0.000 C 
ENDROOT
BRANCH   1   2
ATOM      2  C   UNL     1      -1.990  -7.000  36.762  1.00  0.00     0.000 C 
BRANCH   2   3
ATOM      3  C   UNL     1      -3.253  -6.277  37.269  1.00  0.00     0.000 C 
BRANCH   3   4
ATOM      4  C   UNL     1      -4.567  -6.766  36.634  1.00  0.00     0.000 C 
BRANCH   4   5
ATOM      5  C   UNL     1      -5.537  -5.628  36.283  1.00  0.00     0.000 C 
BRANCH   5   6
ATOM      6  C   UNL     1      -4.811  -4.491  35.550  1.00  0.00     0.000 C 
BRANCH   6   7
ATOM      7  C   UNL     1      -5.180  -4.464  34.058  1.00  0.00     0.000 C 
BRANCH   7   8
ATOM      8  C   UNL     1      -4.300  -5.401  33.214  1.00  0.00     0.000 C 
BRANCH   8   9
ATOM      9  C   UNL     1      -2.808  -5.297  33.562  1.00  0.00     0.000 C 
BRANCH   9  10
ATOM     10  C   UNL     1      -2.018  -6.448  32.920  1.00  0.00     0.006 C 
BRANCH  10  11
ATOM     11  C   UNL     1      -2.729  -7.034  31.693  1.00  0.00     0.053 C 
BRANCH  11  12
ATOM     12  C   UNL     1      -2.889  -8.521  31.791  1.00  0.00     0.041 C 
ATOM     13  O   UNL     1      -3.987  -9.063  31.494  1.00  0.00    -0.550 OA
ATOM     14  O   UNL     1      -1.811  -9.314  32.173  1.00  0.00    -0.550 OA
ENDBRANCH  11  12
ENDBRANCH  10  11
ENDBRANCH   9  10
ENDBRANCH   8   9
ENDBRANCH   7   8
ENDBRANCH   6   7
ENDBRANCH   5   6
ENDBRANCH   4   5
ENDBRANCH   3   4
ENDBRANCH   2   3
ENDBRANCH   1   2
BRANCH   1  15
ATOM     15  C   UNL     1      -1.006  -9.031  35.608  1.00  0.00     0.000 C 
BRANCH  15  16
ATOM     16  C   UNL     1       0.047  -9.174  36.719  1.00  0.00     0.000 C 
BRANCH  16  17
ATOM     17  C   UNL     1      -0.018 -10.536  37.434  1.00  0.00     0.000 C 
BRANCH  17  18
ATOM     18  C   UNL     1      -0.231 -10.389  38.955  1.00  0.00    -0.000 C 
BRANCH  18  19
ATOM     19  C   UNL     1      -0.283  -8.922  39.424  1.00  0.00    -0.000 C 
BRANCH  19  20
ATOM     20  C   UNL     1      -1.620  -8.502  40.057  1.00  0.00    -0.000 C 
BRANCH  20  21
ATOM     21  C   UNL     1      -2.813  -9.296  39.506  1.00  0.00    -0.000 C 
BRANCH  21  22
ATOM     22  C   UNL     1      -4.118  -8.869  40.196  1.00  0.00    -0.000 C 
BRANCH  22  23
ATOM     23  C   UNL     1      -4.456  -9.736  41.420  1.00  0.00    -0.000 C 
BRANCH  23  24
ATOM     24  C   UNL     1      -3.792 -11.123  41.367  1.00  0.00    -0.000 C 
BRANCH  24  25
ATOM     25  C   UNL     1      -2.851 -11.366  42.561  1.00  0.00    -0.003 C 
ATOM     26  C   UNL     1      -1.471 -11.861  42.132  1.00  0.00     0.004 C 
ENDBRANCH  24  25
ENDBRANCH  23  24
ENDBRANCH  22  23
ENDBRANCH  21  22
ENDBRANCH  20  21
ENDBRANCH  19  20
ENDBRANCH  18  19
ENDBRANCH  17  18
ENDBRANCH  16  17
ENDBRANCH  15  16
ENDBRANCH   1  15
TORSDOF 22
ENDMDL
