MODEL 1
REMARK VINA RESULT:    -8.181      0.000      0.000
REMARK INTER + INTRA:         -11.834
REMARK INTER:                 -11.290
REMARK INTRA:                  -0.544
REMARK UNBOUND:                -0.544
REMARK SMILES CC[C@H](CC[C@H](C)[C@@H]1CC[C@@H]2C3=CC[C@H]4C[C@@H](O)CC[C@]4(C)[C@@H]3CC[C@]21C)C(C)C
REMARK SMILES IDX 5 1 4 2 3 3 2 4 1 5 28 6 29 7 30 8 6 9 7 10 8 11 9 12 26 13
REMARK SMILES IDX 10 14 11 15 25 16 27 17 12 18 24 19 23 20 13 21 21 22 14 23
REMARK SMILES IDX 15 24 20 25 22 26 16 27 19 28 17 29 18 30
REMARK H PARENT 18 31
REMARK Flexibility Score: inf
ROOT
ATOM      1  C   UNL     1     133.692 129.341 135.515  1.00  0.00     0.004 C 
ENDROOT
BRANCH   1   2
ATOM      2  C   UNL     1     135.213 129.192 135.278  1.00  0.00     0.004 C 
BRANCH   2   3
ATOM      3  C   UNL     1     135.697 127.733 135.516  1.00  0.00    -0.009 C 
BRANCH   3   4
ATOM      4  C   UNL     1     135.142 127.085 136.820  1.00  0.00     0.000 C 
ATOM      5  C   UNL     1     136.182 126.440 137.751  1.00  0.00     0.004 C 
ENDBRANCH   3   4
BRANCH   3   6
ATOM      6  C   UNL     1     135.563 126.797 134.265  1.00  0.00    -0.014 C 
ATOM      7  C   UNL     1     135.726 127.518 132.916  1.00  0.00     0.007 C 
ATOM      8  C   UNL     1     136.512 125.583 134.336  1.00  0.00     0.007 C 
ENDBRANCH   3   6
ENDBRANCH   2   3
ENDBRANCH   1   2
BRANCH   1   9
ATOM      9  C   UNL     1     133.216 130.775 135.887  1.00  0.00    -0.011 C 
ATOM     10  C   UNL     1     134.333 131.795 135.595  1.00  0.00     0.008 C 
BRANCH   9  11
ATOM     11  C   UNL     1     132.670 130.885 137.357  1.00  0.00    -0.002 C 
ATOM     12  C   UNL     1     132.236 132.333 137.727  1.00  0.00     0.005 C 
ATOM     13  C   UNL     1     133.613 130.467 138.529  1.00  0.00    -0.023 C 
ATOM     14  C   UNL     1     132.569 132.548 139.208  1.00  0.00     0.009 C 
ATOM     15  C   UNL     1     132.897 131.149 139.706  1.00  0.00     0.021 C 
ATOM     16  C   UNL     1     133.664 128.943 138.840  1.00  0.00     0.008 C 
ATOM     17  C   UNL     1     135.056 131.016 138.316  1.00  0.00     0.012 C 
ATOM     18  C   UNL     1     133.637 130.915 141.001  1.00  0.00    -0.067 C 
ATOM     19  C   UNL     1     134.340 128.640 140.208  1.00  0.00     0.009 C 
ATOM     20  C   UNL     1     133.716 129.439 141.393  1.00  0.00     0.021 C 
ATOM     21  C   UNL     1     134.353 131.884 141.617  1.00  0.00    -0.027 C 
ATOM     22  C   UNL     1     134.379 129.215 142.808  1.00  0.00    -0.023 C 
ATOM     23  C   UNL     1     135.218 131.636 142.819  1.00  0.00     0.031 C 
ATOM     24  C   UNL     1     135.620 130.157 142.947  1.00  0.00     0.002 C 
ATOM     25  C   UNL     1     134.850 127.740 143.004  1.00  0.00     0.010 C 
ATOM     26  C   UNL     1     133.292 129.532 143.882  1.00  0.00     0.012 C 
ATOM     27  C   UNL     1     136.406 129.931 144.259  1.00  0.00     0.036 C 
ATOM     28  C   UNL     1     135.595 127.517 144.327  1.00  0.00     0.032 C 
ATOM     29  C   UNL     1     136.810 128.453 144.435  1.00  0.00     0.114 C 
BRANCH  29  30
ATOM     30  O   UNL     1     137.465 128.260 145.664  1.00  0.00    -0.393 OA
ATOM     31  H   UNL     1     137.714 129.156 146.011  1.00  0.00     0.210 HD
ENDBRANCH  29  30
ENDBRANCH   9  11
ENDBRANCH   1   9
TORSDOF 7
ENDMDL
MODEL 2
REMARK VINA RESULT:    -7.000      1.872      2.500
REMARK INTER + INTRA:         -10.204
REMARK INTER:                  -9.520
REMARK INTRA:                  -0.684
REMARK UNBOUND:                -0.544
REMARK SMILES CC[C@H](CC[C@H](C)[C@@H]1CC[C@@H]2C3=CC[C@H]4C[C@@H](O)CC[C@]4(C)[C@@H]3CC[C@]21C)C(C)C
REMARK SMILES IDX 5 1 4 2 3 3 2 4 1 5 28 6 29 7 30 8 6 9 7 10 8 11 9 12 26 13
REMARK SMILES IDX 10 14 11 15 25 16 27 17 12 18 24 19 23 20 13 21 21 22 14 23
REMARK SMILES IDX 15 24 20 25 22 26 16 27 19 28 17 29 18 30
REMARK H PARENT 18 31
REMARK Flexibility Score: inf
ROOT
ATOM      1  C   UNL     1     135.302 130.259 135.636  1.00  0.00     0.004 C 
ENDROOT
BRANCH   1   2
ATOM      2  C   UNL     1     135.935 129.527 134.429  1.00  0.00     0.004 C 
BRANCH   2   3
ATOM      3  C   UNL     1     136.514 128.140 134.830  1.00  0.00    -0.009 C 
BRANCH   3   4
ATOM      4  C   UNL     1     137.166 128.110 136.245  1.00  0.00     0.000 C 
ATOM      5  C   UNL     1     137.365 126.718 136.869  1.00  0.00     0.004 C 
ENDBRANCH   3   4
BRANCH   3   6
ATOM      6  C   UNL     1     135.538 126.938 134.582  1.00  0.00    -0.014 C 
ATOM      7  C   UNL     1     134.363 127.262 133.646  1.00  0.00     0.007 C 
ATOM      8  C   UNL     1     136.276 125.676 134.092  1.00  0.00     0.007 C 
ENDBRANCH   3   6
ENDBRANCH   2   3
ENDBRANCH   1   2
BRANCH   1   9
ATOM      9  C   UNL     1     133.801 130.634 135.471  1.00  0.00    -0.011 C 
ATOM     10  C   UNL     1     133.645 132.163 135.375  1.00  0.00     0.008 C 
BRANCH   9  11
ATOM     11  C   UNL     1     132.879 130.003 136.578  1.00  0.00    -0.002 C 
ATOM     12  C   UNL     1     131.977 131.060 137.278  1.00  0.00     0.005 C 
ATOM     13  C   UNL     1     133.559 129.248 137.764  1.00  0.00    -0.023 C 
ATOM     14  C   UNL     1     131.835 130.643 138.747  1.00  0.00     0.009 C 
ATOM     15  C   UNL     1     132.397 129.230 138.771  1.00  0.00     0.021 C 
ATOM     16  C   UNL     1     133.950 127.769 137.483  1.00  0.00     0.008 C 
ATOM     17  C   UNL     1     134.794 130.034 138.300  1.00  0.00     0.012 C 
ATOM     18  C   UNL     1     132.806 128.556 140.058  1.00  0.00    -0.067 C 
ATOM     19  C   UNL     1     134.299 126.991 138.784  1.00  0.00     0.009 C 
ATOM     20  C   UNL     1     133.188 127.086 139.874  1.00  0.00     0.021 C 
ATOM     21  C   UNL     1     133.035 129.242 141.202  1.00  0.00    -0.027 C 
ATOM     22  C   UNL     1     133.491 126.356 141.241  1.00  0.00    -0.023 C 
ATOM     23  C   UNL     1     133.587 128.614 142.448  1.00  0.00     0.031 C 
ATOM     24  C   UNL     1     134.337 127.304 142.152  1.00  0.00     0.002 C 
ATOM     25  C   UNL     1     134.287 125.029 141.029  1.00  0.00     0.010 C 
ATOM     26  C   UNL     1     132.117 126.007 141.892  1.00  0.00     0.012 C 
ATOM     27  C   UNL     1     134.782 126.636 143.473  1.00  0.00     0.036 C 
ATOM     28  C   UNL     1     134.689 124.352 142.347  1.00  0.00     0.032 C 
ATOM     29  C   UNL     1     135.521 125.306 143.219  1.00  0.00     0.114 C 
BRANCH  29  30
ATOM     30  O   UNL     1     135.857 124.685 144.435  1.00  0.00    -0.393 OA
ATOM     31  H   UNL     1     135.873 125.389 145.133  1.00  0.00     0.210 HD
ENDBRANCH  29  30
ENDBRANCH   9  11
ENDBRANCH   1   9
TORSDOF 7
ENDMDL
MODEL 3
REMARK VINA RESULT:    -6.901      2.817      7.677
REMARK INTER + INTRA:         -10.067
REMARK INTER:                  -8.341
REMARK INTRA:                  -1.726
REMARK UNBOUND:                -0.544
REMARK SMILES CC[C@H](CC[C@H](C)[C@@H]1CC[C@@H]2C3=CC[C@H]4C[C@@H](O)CC[C@]4(C)[C@@H]3CC[C@]21C)C(C)C
REMARK SMILES IDX 5 1 4 2 3 3 2 4 1 5 28 6 29 7 30 8 6 9 7 10 8 11 9 12 26 13
REMARK SMILES IDX 10 14 11 15 25 16 27 17 12 18 24 19 23 20 13 21 21 22 14 23
REMARK SMILES IDX 15 24 20 25 22 26 16 27 19 28 17 29 18 30
REMARK H PARENT 18 31
REMARK Flexibility Score: inf
ROOT
ATOM      1  C   UNL     1     133.865 133.994 141.753  1.00  0.00     0.004 C 
ENDROOT
BRANCH   1   2
ATOM      2  C   UNL     1     134.598 133.863 143.108  1.00  0.00     0.004 C 
BRANCH   2   3
ATOM      3  C   UNL     1     134.017 132.706 143.972  1.00  0.00    -0.009 C 
BRANCH   3   4
ATOM      4  C   UNL     1     132.558 132.951 144.461  1.00  0.00     0.000 C 
ATOM      5  C   UNL     1     132.250 134.361 144.994  1.00  0.00     0.004 C 
ENDBRANCH   3   4
BRANCH   3   6
ATOM      6  C   UNL     1     134.223 131.278 143.359  1.00  0.00    -0.014 C 
ATOM      7  C   UNL     1     135.686 130.808 143.332  1.00  0.00     0.007 C 
ATOM      8  C   UNL     1     133.336 130.215 144.039  1.00  0.00     0.007 C 
ENDBRANCH   3   6
ENDBRANCH   2   3
ENDBRANCH   1   2
BRANCH   1   9
ATOM      9  C   UNL     1     134.656 133.472 140.519  1.00  0.00    -0.011 C 
ATOM     10  C   UNL     1     135.368 134.641 139.812  1.00  0.00     0.008 C 
BRANCH   9  11
ATOM     11  C   UNL     1     133.777 132.619 139.534  1.00  0.00    -0.002 C 
ATOM     12  C   UNL     1     132.535 131.992 140.231  1.00  0.00     0.005 C 
ATOM     13  C   UNL     1     134.445 131.410 138.805  1.00  0.00    -0.023 C 
ATOM     14  C   UNL     1     132.289 130.622 139.587  1.00  0.00     0.009 C 
ATOM     15  C   UNL     1     133.192 130.637 138.363  1.00  0.00     0.021 C 
ATOM     16  C   UNL     1     135.248 131.761 137.519  1.00  0.00     0.008 C 
ATOM     17  C   UNL     1     135.336 130.584 139.781  1.00  0.00     0.012 C 
ATOM     18  C   UNL     1     133.565 129.370 137.632  1.00  0.00    -0.067 C 
ATOM     19  C   UNL     1     135.590 130.502 136.672  1.00  0.00     0.009 C 
ATOM     20  C   UNL     1     134.342 129.627 136.339  1.00  0.00     0.021 C 
ATOM     21  C   UNL     1     133.431 128.142 138.184  1.00  0.00    -0.027 C 
ATOM     22  C   UNL     1     134.618 128.307 135.518  1.00  0.00    -0.023 C 
ATOM     23  C   UNL     1     133.936 126.885 137.537  1.00  0.00     0.031 C 
ATOM     24  C   UNL     1     135.039 127.168 136.503  1.00  0.00     0.002 C 
ATOM     25  C   UNL     1     135.756 128.502 134.467  1.00  0.00     0.010 C 
ATOM     26  C   UNL     1     133.301 127.953 134.758  1.00  0.00     0.012 C 
ATOM     27  C   UNL     1     135.440 125.862 135.781  1.00  0.00     0.036 C 
ATOM     28  C   UNL     1     136.120 127.207 133.727  1.00  0.00     0.032 C 
ATOM     29  C   UNL     1     136.532 126.108 134.720  1.00  0.00     0.114 C 
BRANCH  29  30
ATOM     30  O   UNL     1     136.833 124.919 134.032  1.00  0.00    -0.393 OA
ATOM     31  H   UNL     1     136.441 124.996 133.124  1.00  0.00     0.210 HD
ENDBRANCH  29  30
ENDBRANCH   9  11
ENDBRANCH   1   9
TORSDOF 7
ENDMDL
MODEL 4
REMARK VINA RESULT:    -6.835      3.063      7.939
REMARK INTER + INTRA:          -9.975
REMARK INTER:                  -8.849
REMARK INTRA:                  -1.126
REMARK UNBOUND:                -0.544
REMARK SMILES CC[C@H](CC[C@H](C)[C@@H]1CC[C@@H]2C3=CC[C@H]4C[C@@H](O)CC[C@]4(C)[C@@H]3CC[C@]21C)C(C)C
REMARK SMILES IDX 5 1 4 2 3 3 2 4 1 5 28 6 29 7 30 8 6 9 7 10 8 11 9 12 26 13
REMARK SMILES IDX 10 14 11 15 25 16 27 17 12 18 24 19 23 20 13 21 21 22 14 23
REMARK SMILES IDX 15 24 20 25 22 26 16 27 19 28 17 29 18 30
REMARK H PARENT 18 31
REMARK Flexibility Score: inf
ROOT
ATOM      1  C   UNL     1     133.668 134.146 141.226  1.00  0.00     0.004 C 
ENDROOT
BRANCH   1   2
ATOM      2  C   UNL     1     134.244 134.340 142.648  1.00  0.00     0.004 C 
BRANCH   2   3
ATOM      3  C   UNL     1     133.179 134.066 143.749  1.00  0.00    -0.009 C 
BRANCH   3   4
ATOM      4  C   UNL     1     133.089 132.573 144.187  1.00  0.00     0.000 C 
ATOM      5  C   UNL     1     134.377 131.746 144.042  1.00  0.00     0.004 C 
ENDBRANCH   3   4
BRANCH   3   6
ATOM      6  C   UNL     1     133.238 135.056 144.964  1.00  0.00    -0.014 C 
ATOM      7  C   UNL     1     134.338 136.125 144.854  1.00  0.00     0.007 C 
ATOM      8  C   UNL     1     131.875 135.722 145.243  1.00  0.00     0.007 C 
ENDBRANCH   3   6
ENDBRANCH   2   3
ENDBRANCH   1   2
BRANCH   1   9
ATOM      9  C   UNL     1     134.657 133.544 140.187  1.00  0.00    -0.011 C 
ATOM     10  C   UNL     1     135.525 134.659 139.575  1.00  0.00     0.008 C 
BRANCH   9  11
ATOM     11  C   UNL     1     133.948 132.664 139.093  1.00  0.00    -0.002 C 
ATOM     12  C   UNL     1     132.477 132.318 139.466  1.00  0.00     0.005 C 
ATOM     13  C   UNL     1     134.578 131.281 138.736  1.00  0.00    -0.023 C 
ATOM     14  C   UNL     1     132.190 130.906 138.941  1.00  0.00     0.009 C 
ATOM     15  C   UNL     1     133.380 130.613 138.040  1.00  0.00     0.021 C 
ATOM     16  C   UNL     1     135.746 131.320 137.708  1.00  0.00     0.008 C 
ATOM     17  C   UNL     1     135.021 130.513 140.018  1.00  0.00     0.012 C 
ATOM     18  C   UNL     1     133.722 129.209 137.601  1.00  0.00    -0.067 C 
ATOM     19  C   UNL     1     136.090 129.910 137.149  1.00  0.00     0.009 C 
ATOM     20  C   UNL     1     134.852 129.158 136.570  1.00  0.00     0.021 C 
ATOM     21  C   UNL     1     133.241 128.111 138.228  1.00  0.00    -0.027 C 
ATOM     22  C   UNL     1     135.116 127.701 136.024  1.00  0.00    -0.023 C 
ATOM     23  C   UNL     1     133.686 126.714 137.906  1.00  0.00     0.031 C 
ATOM     24  C   UNL     1     135.059 126.688 137.213  1.00  0.00     0.002 C 
ATOM     25  C   UNL     1     136.512 127.582 135.335  1.00  0.00     0.010 C 
ATOM     26  C   UNL     1     134.015 127.401 134.959  1.00  0.00     0.012 C 
ATOM     27  C   UNL     1     135.418 125.244 136.795  1.00  0.00     0.036 C 
ATOM     28  C   UNL     1     136.842 126.151 134.888  1.00  0.00     0.032 C 
ATOM     29  C   UNL     1     136.781 125.179 136.078  1.00  0.00     0.114 C 
BRANCH  29  30
ATOM     30  O   UNL     1     137.055 123.868 135.649  1.00  0.00    -0.393 OA
ATOM     31  H   UNL     1     136.362 123.623 134.984  1.00  0.00     0.210 HD
ENDBRANCH  29  30
ENDBRANCH   9  11
ENDBRANCH   1   9
TORSDOF 7
ENDMDL
MODEL 5
REMARK VINA RESULT:    -6.707      2.797      7.951
REMARK INTER + INTRA:          -9.799
REMARK INTER:                  -9.290
REMARK INTRA:                  -0.509
REMARK UNBOUND:                -0.544
REMARK SMILES CC[C@H](CC[C@H](C)[C@@H]1CC[C@@H]2C3=CC[C@H]4C[C@@H](O)CC[C@]4(C)[C@@H]3CC[C@]21C)C(C)C
REMARK SMILES IDX 5 1 4 2 3 3 2 4 1 5 28 6 29 7 30 8 6 9 7 10 8 11 9 12 26 13
REMARK SMILES IDX 10 14 11 15 25 16 27 17 12 18 24 19 23 20 13 21 21 22 14 23
REMARK SMILES IDX 15 24 20 25 22 26 16 27 19 28 17 29 18 30
REMARK H PARENT 18 31
REMARK Flexibility Score: inf
ROOT
ATOM      1  C   UNL     1     135.477 126.416 142.651  1.00  0.00     0.004 C 
ENDROOT
BRANCH   1   2
ATOM      2  C   UNL     1     135.623 126.655 144.172  1.00  0.00     0.004 C 
BRANCH   2   3
ATOM      3  C   UNL     1     135.770 128.166 144.511  1.00  0.00    -0.009 C 
BRANCH   3   4
ATOM      4  C   UNL     1     137.222 128.595 144.883  1.00  0.00     0.000 C 
ATOM      5  C   UNL     1     138.278 127.477 144.885  1.00  0.00     0.004 C 
ENDBRANCH   3   4
BRANCH   3   6
ATOM      6  C   UNL     1     135.099 129.129 143.470  1.00  0.00    -0.014 C 
ATOM      7  C   UNL     1     133.603 129.383 143.720  1.00  0.00     0.007 C 
ATOM      8  C   UNL     1     135.851 130.469 143.342  1.00  0.00     0.007 C 
ENDBRANCH   3   6
ENDBRANCH   2   3
ENDBRANCH   1   2
BRANCH   1   9
ATOM      9  C   UNL     1     134.308 125.476 142.238  1.00  0.00    -0.011 C 
ATOM     10  C   UNL     1     134.633 124.023 142.630  1.00  0.00     0.008 C 
BRANCH   9  11
ATOM     11  C   UNL     1     133.905 125.615 140.724  1.00  0.00    -0.002 C 
ATOM     12  C   UNL     1     134.278 124.356 139.888  1.00  0.00     0.005 C 
ATOM     13  C   UNL     1     134.509 126.799 139.905  1.00  0.00    -0.023 C 
ATOM     14  C   UNL     1     134.685 124.837 138.490  1.00  0.00     0.009 C 
ATOM     15  C   UNL     1     134.252 126.295 138.476  1.00  0.00     0.021 C 
ATOM     16  C   UNL     1     133.773 128.162 140.053  1.00  0.00     0.008 C 
ATOM     17  C   UNL     1     136.028 126.978 140.206  1.00  0.00     0.012 C 
ATOM     18  C   UNL     1     134.777 127.273 137.453  1.00  0.00    -0.067 C 
ATOM     19  C   UNL     1     134.208 129.191 138.970  1.00  0.00     0.009 C 
ATOM     20  C   UNL     1     134.090 128.639 137.515  1.00  0.00     0.021 C 
ATOM     21  C   UNL     1     135.893 127.039 136.724  1.00  0.00    -0.027 C 
ATOM     22  C   UNL     1     134.556 129.612 136.363  1.00  0.00    -0.023 C 
ATOM     23  C   UNL     1     136.517 128.058 135.815  1.00  0.00     0.031 C 
ATOM     24  C   UNL     1     136.104 129.493 136.184  1.00  0.00     0.002 C 
ATOM     25  C   UNL     1     134.204 131.100 136.680  1.00  0.00     0.010 C 
ATOM     26  C   UNL     1     133.793 129.191 135.068  1.00  0.00     0.012 C 
ATOM     27  C   UNL     1     136.673 130.492 135.151  1.00  0.00     0.036 C 
ATOM     28  C   UNL     1     134.739 132.082 135.628  1.00  0.00     0.032 C 
ATOM     29  C   UNL     1     136.263 131.943 135.476  1.00  0.00     0.114 C 
BRANCH  29  30
ATOM     30  O   UNL     1     136.735 132.826 134.488  1.00  0.00    -0.393 OA
ATOM     31  H   UNL     1     136.097 133.583 134.438  1.00  0.00     0.210 HD
ENDBRANCH  29  30
ENDBRANCH   9  11
ENDBRANCH   1   9
TORSDOF 7
ENDMDL
MODEL 6
REMARK VINA RESULT:    -6.625      2.341      4.188
REMARK INTER + INTRA:          -9.686
REMARK INTER:                  -9.459
REMARK INTRA:                  -0.227
REMARK UNBOUND:                -0.544
REMARK SMILES CC[C@H](CC[C@H](C)[C@@H]1CC[C@@H]2C3=CC[C@H]4C[C@@H](O)CC[C@]4(C)[C@@H]3CC[C@]21C)C(C)C
REMARK SMILES IDX 5 1 4 2 3 3 2 4 1 5 28 6 29 7 30 8 6 9 7 10 8 11 9 12 26 13
REMARK SMILES IDX 10 14 11 15 25 16 27 17 12 18 24 19 23 20 13 21 21 22 14 23
REMARK SMILES IDX 15 24 20 25 22 26 16 27 19 28 17 29 18 30
REMARK H PARENT 18 31
REMARK Flexibility Score: inf
ROOT
ATOM      1  C   UNL     1     132.802 127.147 136.270  1.00  0.00     0.004 C 
ENDROOT
BRANCH   1   2
ATOM      2  C   UNL     1     133.873 128.228 135.997  1.00  0.00     0.004 C 
BRANCH   2   3
ATOM      3  C   UNL     1     134.963 127.728 135.006  1.00  0.00    -0.009 C 
BRANCH   3   4
ATOM      4  C   UNL     1     135.940 128.842 134.523  1.00  0.00     0.000 C 
ATOM      5  C   UNL     1     135.923 130.152 135.327  1.00  0.00     0.004 C 
ENDBRANCH   3   4
BRANCH   3   6
ATOM      6  C   UNL     1     135.704 126.424 135.466  1.00  0.00    -0.014 C 
ATOM      7  C   UNL     1     136.477 125.709 134.345  1.00  0.00     0.007 C 
ATOM      8  C   UNL     1     136.629 126.672 136.675  1.00  0.00     0.007 C 
ENDBRANCH   3   6
ENDBRANCH   2   3
ENDBRANCH   1   2
BRANCH   1   9
ATOM      9  C   UNL     1     132.318 127.052 137.746  1.00  0.00    -0.011 C 
ATOM     10  C   UNL     1     130.989 127.811 137.917  1.00  0.00     0.008 C 
BRANCH   9  11
ATOM     11  C   UNL     1     133.407 127.503 138.786  1.00  0.00    -0.002 C 
ATOM     12  C   UNL     1     133.753 126.386 139.813  1.00  0.00     0.005 C 
ATOM     13  C   UNL     1     133.105 128.749 139.678  1.00  0.00    -0.023 C 
ATOM     14  C   UNL     1     134.042 127.069 141.156  1.00  0.00     0.009 C 
ATOM     15  C   UNL     1     134.147 128.542 140.790  1.00  0.00     0.021 C 
ATOM     16  C   UNL     1     133.398 130.130 139.024  1.00  0.00     0.008 C 
ATOM     17  C   UNL     1     131.645 128.715 140.221  1.00  0.00     0.012 C 
ATOM     18  C   UNL     1     134.053 129.631 141.831  1.00  0.00    -0.067 C 
ATOM     19  C   UNL     1     133.402 131.289 140.062  1.00  0.00     0.009 C 
ATOM     20  C   UNL     1     134.348 131.025 141.275  1.00  0.00     0.021 C 
ATOM     21  C   UNL     1     133.534 129.420 143.063  1.00  0.00    -0.027 C 
ATOM     22  C   UNL     1     134.372 132.138 142.393  1.00  0.00    -0.023 C 
ATOM     23  C   UNL     1     133.292 130.519 144.057  1.00  0.00     0.031 C 
ATOM     24  C   UNL     1     133.187 131.897 143.384  1.00  0.00     0.002 C 
ATOM     25  C   UNL     1     134.233 133.572 141.790  1.00  0.00     0.010 C 
ATOM     26  C   UNL     1     135.753 132.039 143.113  1.00  0.00     0.012 C 
ATOM     27  C   UNL     1     133.058 133.004 144.454  1.00  0.00     0.036 C 
ATOM     28  C   UNL     1     134.146 134.669 142.861  1.00  0.00     0.032 C 
ATOM     29  C   UNL     1     132.971 134.406 143.817  1.00  0.00     0.114 C 
BRANCH  29  30
ATOM     30  O   UNL     1     132.921 135.401 144.810  1.00  0.00    -0.393 OA
ATOM     31  H   UNL     1     131.964 135.569 145.012  1.00  0.00     0.210 HD
ENDBRANCH  29  30
ENDBRANCH   9  11
ENDBRANCH   1   9
TORSDOF 7
ENDMDL
MODEL 7
REMARK VINA RESULT:    -6.404      2.718      7.433
REMARK INTER + INTRA:          -9.381
REMARK INTER:                  -9.140
REMARK INTRA:                  -0.241
REMARK UNBOUND:                -0.544
REMARK SMILES CC[C@H](CC[C@H](C)[C@@H]1CC[C@@H]2C3=CC[C@H]4C[C@@H](O)CC[C@]4(C)[C@@H]3CC[C@]21C)C(C)C
REMARK SMILES IDX 5 1 4 2 3 3 2 4 1 5 28 6 29 7 30 8 6 9 7 10 8 11 9 12 26 13
REMARK SMILES IDX 10 14 11 15 25 16 27 17 12 18 24 19 23 20 13 21 21 22 14 23
REMARK SMILES IDX 15 24 20 25 22 26 16 27 19 28 17 29 18 30
REMARK H PARENT 18 31
REMARK Flexibility Score: inf
ROOT
ATOM      1  C   UNL     1     131.653 130.829 141.510  1.00  0.00     0.004 C 
ENDROOT
BRANCH   1   2
ATOM      2  C   UNL     1     133.124 130.743 141.979  1.00  0.00     0.004 C 
BRANCH   2   3
ATOM      3  C   UNL     1     133.447 131.800 143.074  1.00  0.00    -0.009 C 
BRANCH   3   4
ATOM      4  C   UNL     1     134.497 131.325 144.123  1.00  0.00     0.000 C 
ATOM      5  C   UNL     1     135.384 130.140 143.705  1.00  0.00     0.004 C 
ENDBRANCH   3   4
BRANCH   3   6
ATOM      6  C   UNL     1     133.747 133.235 142.518  1.00  0.00    -0.014 C 
ATOM      7  C   UNL     1     134.227 134.236 143.581  1.00  0.00     0.007 C 
ATOM      8  C   UNL     1     134.730 133.209 141.330  1.00  0.00     0.007 C 
ENDBRANCH   3   6
ENDBRANCH   2   3
ENDBRANCH   1   2
BRANCH   1   9
ATOM      9  C   UNL     1     131.454 130.958 139.972  1.00  0.00    -0.011 C 
ATOM     10  C   UNL     1     130.515 129.848 139.465  1.00  0.00     0.008 C 
BRANCH   9  11
ATOM     11  C   UNL     1     132.808 131.013 139.174  1.00  0.00    -0.002 C 
ATOM     12  C   UNL     1     132.819 132.130 138.092  1.00  0.00     0.005 C 
ATOM     13  C   UNL     1     133.259 129.735 138.397  1.00  0.00    -0.023 C 
ATOM     14  C   UNL     1     133.629 131.607 136.899  1.00  0.00     0.009 C 
ATOM     15  C   UNL     1     134.296 130.354 137.445  1.00  0.00     0.021 C 
ATOM     16  C   UNL     1     133.995 128.658 139.244  1.00  0.00     0.008 C 
ATOM     17  C   UNL     1     132.065 129.088 137.632  1.00  0.00     0.012 C 
ATOM     18  C   UNL     1     134.890 129.306 136.535  1.00  0.00    -0.067 C 
ATOM     19  C   UNL     1     134.705 127.592 138.361  1.00  0.00     0.009 C 
ATOM     20  C   UNL     1     135.653 128.215 137.289  1.00  0.00     0.021 C 
ATOM     21  C   UNL     1     134.578 129.218 135.221  1.00  0.00    -0.027 C 
ATOM     22  C   UNL     1     136.375 127.195 136.325  1.00  0.00    -0.023 C 
ATOM     23  C   UNL     1     135.036 128.096 134.336  1.00  0.00     0.031 C 
ATOM     24  C   UNL     1     135.418 126.842 135.140  1.00  0.00     0.002 C 
ATOM     25  C   UNL     1     136.765 125.874 137.060  1.00  0.00     0.010 C 
ATOM     26  C   UNL     1     137.683 127.883 135.823  1.00  0.00     0.012 C 
ATOM     27  C   UNL     1     135.995 125.761 134.198  1.00  0.00     0.036 C 
ATOM     28  C   UNL     1     137.374 124.821 136.124  1.00  0.00     0.032 C 
ATOM     29  C   UNL     1     136.410 124.493 134.972  1.00  0.00     0.114 C 
BRANCH  29  30
ATOM     30  O   UNL     1     136.992 123.550 134.105  1.00  0.00    -0.393 OA
ATOM     31  H   UNL     1     137.715 124.012 133.607  1.00  0.00     0.210 HD
ENDBRANCH  29  30
ENDBRANCH   9  11
ENDBRANCH   1   9
TORSDOF 7
ENDMDL
MODEL 8
REMARK VINA RESULT:    -6.290      2.085      3.154
REMARK INTER + INTRA:          -9.223
REMARK INTER:                  -8.705
REMARK INTRA:                  -0.518
REMARK UNBOUND:                -0.544
REMARK SMILES CC[C@H](CC[C@H](C)[C@@H]1CC[C@@H]2C3=CC[C@H]4C[C@@H](O)CC[C@]4(C)[C@@H]3CC[C@]21C)C(C)C
REMARK SMILES IDX 5 1 4 2 3 3 2 4 1 5 28 6 29 7 30 8 6 9 7 10 8 11 9 12 26 13
REMARK SMILES IDX 10 14 11 15 25 16 27 17 12 18 24 19 23 20 13 21 21 22 14 23
REMARK SMILES IDX 15 24 20 25 22 26 16 27 19 28 17 29 18 30
REMARK H PARENT 18 31
REMARK Flexibility Score: inf
ROOT
ATOM      1  C   UNL     1     135.537 128.034 134.014  1.00  0.00     0.004 C 
ENDROOT
BRANCH   1   2
ATOM      2  C   UNL     1     134.881 126.872 134.797  1.00  0.00     0.004 C 
BRANCH   2   3
ATOM      3  C   UNL     1     135.828 126.302 135.892  1.00  0.00    -0.009 C 
BRANCH   3   4
ATOM      4  C   UNL     1     135.085 125.662 137.103  1.00  0.00     0.000 C 
ATOM      5  C   UNL     1     135.442 126.222 138.489  1.00  0.00     0.004 C 
ENDBRANCH   3   4
BRANCH   3   6
ATOM      6  C   UNL     1     136.984 125.398 135.338  1.00  0.00    -0.014 C 
ATOM      7  C   UNL     1     138.390 125.994 135.512  1.00  0.00     0.007 C 
ATOM      8  C   UNL     1     136.937 123.969 135.916  1.00  0.00     0.007 C 
ENDBRANCH   3   6
ENDBRANCH   2   3
ENDBRANCH   1   2
BRANCH   1   9
ATOM      9  C   UNL     1     135.541 129.407 134.747  1.00  0.00    -0.011 C 
ATOM     10  C   UNL     1     136.875 129.606 135.490  1.00  0.00     0.008 C 
BRANCH   9  11
ATOM     11  C   UNL     1     134.295 129.615 135.682  1.00  0.00    -0.002 C 
ATOM     12  C   UNL     1     133.178 130.464 135.009  1.00  0.00     0.005 C 
ATOM     13  C   UNL     1     134.514 130.314 137.061  1.00  0.00    -0.023 C 
ATOM     14  C   UNL     1     132.522 131.313 136.104  1.00  0.00     0.009 C 
ATOM     15  C   UNL     1     133.067 130.715 137.392  1.00  0.00     0.021 C 
ATOM     16  C   UNL     1     135.012 129.391 138.210  1.00  0.00     0.008 C 
ATOM     17  C   UNL     1     135.454 131.550 136.925  1.00  0.00     0.012 C 
ATOM     18  C   UNL     1     132.996 131.452 138.707  1.00  0.00    -0.067 C 
ATOM     19  C   UNL     1     134.883 130.062 139.608  1.00  0.00     0.009 C 
ATOM     20  C   UNL     1     133.450 130.606 139.898  1.00  0.00     0.021 C 
ATOM     21  C   UNL     1     132.779 132.785 138.786  1.00  0.00    -0.027 C 
ATOM     22  C   UNL     1     133.253 131.341 141.282  1.00  0.00    -0.023 C 
ATOM     23  C   UNL     1     132.856 133.562 140.069  1.00  0.00     0.031 C 
ATOM     24  C   UNL     1     133.690 132.835 141.136  1.00  0.00     0.002 C 
ATOM     25  C   UNL     1     134.099 130.682 142.417  1.00  0.00     0.010 C 
ATOM     26  C   UNL     1     131.743 131.217 141.658  1.00  0.00     0.012 C 
ATOM     27  C   UNL     1     133.639 133.612 142.471  1.00  0.00     0.036 C 
ATOM     28  C   UNL     1     134.011 131.439 143.749  1.00  0.00     0.032 C 
ATOM     29  C   UNL     1     134.449 132.903 143.576  1.00  0.00     0.114 C 
BRANCH  29  30
ATOM     30  O   UNL     1     134.335 133.592 144.796  1.00  0.00    -0.393 OA
ATOM     31  H   UNL     1     133.373 133.608 145.038  1.00  0.00     0.210 HD
ENDBRANCH  29  30
ENDBRANCH   9  11
ENDBRANCH   1   9
TORSDOF 7
ENDMDL
MODEL 9
REMARK VINA RESULT:    -6.058      2.976      6.158
REMARK INTER + INTRA:          -8.903
REMARK INTER:                  -8.233
REMARK INTRA:                  -0.670
REMARK UNBOUND:                -0.544
REMARK SMILES CC[C@H](CC[C@H](C)[C@@H]1CC[C@@H]2C3=CC[C@H]4C[C@@H](O)CC[C@]4(C)[C@@H]3CC[C@]21C)C(C)C
REMARK SMILES IDX 5 1 4 2 3 3 2 4 1 5 28 6 29 7 30 8 6 9 7 10 8 11 9 12 26 13
REMARK SMILES IDX 10 14 11 15 25 16 27 17 12 18 24 19 23 20 13 21 21 22 14 23
REMARK SMILES IDX 15 24 20 25 22 26 16 27 19 28 17 29 18 30
REMARK H PARENT 18 31
REMARK Flexibility Score: inf
ROOT
ATOM      1  C   UNL     1     133.006 133.438 140.141  1.00  0.00     0.004 C 
ENDROOT
BRANCH   1   2
ATOM      2  C   UNL     1     134.414 133.767 140.689  1.00  0.00     0.004 C 
BRANCH   2   3
ATOM      3  C   UNL     1     134.513 133.518 142.222  1.00  0.00    -0.009 C 
BRANCH   3   4
ATOM      4  C   UNL     1     133.801 134.601 143.087  1.00  0.00     0.000 C 
ATOM      5  C   UNL     1     134.502 134.987 144.400  1.00  0.00     0.004 C 
ENDBRANCH   3   4
BRANCH   3   6
ATOM      6  C   UNL     1     134.158 132.055 142.662  1.00  0.00    -0.014 C 
ATOM      7  C   UNL     1     135.349 131.257 143.216  1.00  0.00     0.007 C 
ATOM      8  C   UNL     1     132.980 132.013 143.656  1.00  0.00     0.007 C 
ENDBRANCH   3   6
ENDBRANCH   2   3
ENDBRANCH   1   2
BRANCH   1   9
ATOM      9  C   UNL     1     132.897 133.375 138.590  1.00  0.00    -0.011 C 
ATOM     10  C   UNL     1     131.617 134.090 138.119  1.00  0.00     0.008 C 
BRANCH   9  11
ATOM     11  C   UNL     1     133.016 131.915 138.018  1.00  0.00    -0.002 C 
ATOM     12  C   UNL     1     131.847 131.552 137.057  1.00  0.00     0.005 C 
ATOM     13  C   UNL     1     133.050 130.726 139.030  1.00  0.00    -0.023 C 
ATOM     14  C   UNL     1     131.532 130.065 137.258  1.00  0.00     0.009 C 
ATOM     15  C   UNL     1     132.703 129.562 138.087  1.00  0.00     0.021 C 
ATOM     16  C   UNL     1     134.441 130.416 139.655  1.00  0.00     0.008 C 
ATOM     17  C   UNL     1     131.989 130.912 140.156  1.00  0.00     0.012 C 
ATOM     18  C   UNL     1     132.645 128.254 138.839  1.00  0.00    -0.067 C 
ATOM     19  C   UNL     1     134.473 129.036 140.373  1.00  0.00     0.009 C 
ATOM     20  C   UNL     1     133.983 127.861 139.470  1.00  0.00     0.021 C 
ATOM     21  C   UNL     1     131.481 127.624 139.119  1.00  0.00    -0.027 C 
ATOM     22  C   UNL     1     133.946 126.435 140.145  1.00  0.00    -0.023 C 
ATOM     23  C   UNL     1     131.389 126.407 139.994  1.00  0.00     0.031 C 
ATOM     24  C   UNL     1     132.602 126.272 140.929  1.00  0.00     0.002 C 
ATOM     25  C   UNL     1     135.130 126.231 141.142  1.00  0.00     0.010 C 
ATOM     26  C   UNL     1     134.077 125.381 139.002  1.00  0.00     0.012 C 
ATOM     27  C   UNL     1     132.520 124.947 141.719  1.00  0.00     0.036 C 
ATOM     28  C   UNL     1     135.061 124.895 141.893  1.00  0.00     0.032 C 
ATOM     29  C   UNL     1     133.732 124.764 142.655  1.00  0.00     0.114 C 
BRANCH  29  30
ATOM     30  O   UNL     1     133.669 123.524 143.314  1.00  0.00    -0.393 OA
ATOM     31  H   UNL     1     133.018 122.960 142.822  1.00  0.00     0.210 HD
ENDBRANCH  29  30
ENDBRANCH   9  11
ENDBRANCH   1   9
TORSDOF 7
ENDMDL
