MODEL 1
REMARK VINA RESULT:    15.957      0.000      0.000
REMARK INTER + INTRA:          23.418
REMARK INTER:                  22.486
REMARK INTRA:                   0.932
REMARK UNBOUND:                 0.932
REMARK SMILES CC1=CCC(=C(C)C)C(=O)CC(C)=CCC1
REMARK SMILES IDX 12 1 14 2 13 3 15 4 16 5 2 6 1 7 3 8 11 10 9 11 10 12 5 13
REMARK SMILES IDX 6 14 7 15 8 16 4 17
REMARK H PARENT
REMARK Flexibility Score: 60.00
ROOT
ATOM      1  C   UNL     1      20.698  16.558 -11.651  1.00  0.00    -0.070 C 
ATOM      2  C   UNL     1      20.686  15.520 -12.515  1.00  0.00    -0.027 C 
ATOM      3  C   UNL     1      21.812  17.568 -11.776  1.00  0.00     0.039 C 
ENDROOT
BRANCH   2   4
ATOM      4  C   UNL     1      19.714  14.361 -12.489  1.00  0.00     0.032 C 
BRANCH   4   5
ATOM      5  C   UNL     1      18.632  14.398 -13.590  1.00  0.00     0.034 C 
BRANCH   5   6
ATOM      6  C   UNL     1      17.357  15.096 -13.151  1.00  0.00    -0.077 C 
ATOM      7  C   UNL     1      16.163  14.235 -12.824  1.00  0.00     0.039 C 
ATOM      8  C   UNL     1      17.201  16.442 -13.102  1.00  0.00    -0.023 CG0
ATOM      9  G   UNL     1      18.259  17.495 -13.368  1.00  0.00     0.000 G0
ENDBRANCH   5   6
ENDBRANCH   4   5
ENDBRANCH   2   4
BRANCH   1  10
ATOM     10  C   UNL     1      19.708  16.707 -10.514  1.00  0.00     0.111 C 
BRANCH  10  11
ATOM     11  C   UNL     1      18.629  17.705 -10.842  1.00  0.00     0.163 C 
ATOM     12  O   UNL     1      17.750  17.937  -9.968  1.00  0.00    -0.294 OA
BRANCH  11  13
ATOM     13  C   UNL     1      18.533  18.374 -12.174  1.00  0.00    -0.002 C 
ATOM     14  C   UNL     1      18.611  19.735 -12.280  1.00  0.00    -0.069 C 
ATOM     15  C   UNL     1      18.952  20.597 -11.084  1.00  0.00     0.039 C 
ATOM     16  C   UNL     1      18.361  20.451 -13.589  1.00  0.00     0.039 C 
BRANCH  13  17
ATOM     17  C   UNL     1      18.253  17.488 -13.378  1.00  0.00     0.066 CG0
ATOM     18  G   UNL     1      17.199  16.438 -13.088  1.00  0.00     0.000 G0
ENDBRANCH  13  17
ENDBRANCH  11  13
ENDBRANCH  10  11
ENDBRANCH   1  10
TORSDOF 0
ENDMDL
MODEL 2
REMARK VINA RESULT:    16.397      1.406      4.526
REMARK INTER + INTRA:          24.038
REMARK INTER:                  22.462
REMARK INTRA:                   1.576
REMARK UNBOUND:                 0.932
REMARK SMILES CC1=CCC(=C(C)C)C(=O)CC(C)=CCC1
REMARK SMILES IDX 12 1 14 2 13 3 15 4 16 5 2 6 1 7 3 8 11 10 9 11 10 12 5 13
REMARK SMILES IDX 6 14 7 15 8 16 4 17
REMARK H PARENT
REMARK Flexibility Score: 60.00
ROOT
ATOM      1  C   UNL     1      18.267  19.828 -12.381  1.00  0.00    -0.070 C 
ATOM      2  C   UNL     1      19.394  20.429 -12.823  1.00  0.00    -0.027 C 
ATOM      3  C   UNL     1      17.017  19.974 -13.213  1.00  0.00     0.039 C 
ENDROOT
BRANCH   2   4
ATOM      4  C   UNL     1      20.714  20.479 -12.087  1.00  0.00     0.032 C 
BRANCH   4   5
ATOM      5  C   UNL     1      21.754  19.435 -12.550  1.00  0.00     0.034 C 
BRANCH   5   6
ATOM      6  C   UNL     1      21.678  18.132 -11.776  1.00  0.00    -0.077 C 
ATOM      7  C   UNL     1      22.734  17.875 -10.730  1.00  0.00     0.039 C 
ATOM      8  C   UNL     1      20.768  17.155 -12.011  1.00  0.00    -0.023 CG0
ATOM      9  G   UNL     1      19.613  17.199 -12.992  1.00  0.00     0.000 G0
ENDBRANCH   5   6
ENDBRANCH   4   5
ENDBRANCH   2   4
BRANCH   1  10
ATOM     10  C   UNL     1      18.177  19.097 -11.057  1.00  0.00     0.111 C 
BRANCH  10  11
ATOM     11  C   UNL     1      17.809  17.649 -11.243  1.00  0.00     0.163 C 
ATOM     12  O   UNL     1      17.130  17.089 -10.340  1.00  0.00    -0.294 OA
BRANCH  11  13
ATOM     13  C   UNL     1      18.268  16.850 -12.418  1.00  0.00    -0.002 C 
ATOM     14  C   UNL     1      17.527  15.797 -12.879  1.00  0.00    -0.069 C 
ATOM     15  C   UNL     1      16.152  15.501 -12.323  1.00  0.00     0.039 C 
ATOM     16  C   UNL     1      18.039  14.872 -13.962  1.00  0.00     0.039 C 
BRANCH  13  17
ATOM     17  C   UNL     1      19.625  17.199 -13.009  1.00  0.00     0.066 CG0
ATOM     18  G   UNL     1      20.733  17.152 -11.975  1.00  0.00     0.000 G0
ENDBRANCH  13  17
ENDBRANCH  11  13
ENDBRANCH  10  11
ENDBRANCH   1  10
TORSDOF 0
ENDMDL
MODEL 3
REMARK VINA RESULT:    16.991      1.569      3.605
REMARK INTER + INTRA:          24.876
REMARK INTER:                  24.620
REMARK INTRA:                   0.256
REMARK UNBOUND:                 0.932
REMARK SMILES CC1=CCC(=C(C)C)C(=O)CC(C)=CCC1
REMARK SMILES IDX 12 1 14 2 13 3 15 4 16 5 2 6 1 7 3 8 11 10 9 11 10 12 5 13
REMARK SMILES IDX 6 14 7 15 8 16 4 17
REMARK H PARENT
REMARK Flexibility Score: 60.00
ROOT
ATOM      1  C   UNL     1      18.131  15.047 -13.227  1.00  0.00    -0.070 C 
ATOM      2  C   UNL     1      19.172  14.256 -12.884  1.00  0.00    -0.027 C 
ATOM      3  C   UNL     1      16.794  14.389 -13.462  1.00  0.00     0.039 C 
ENDROOT
BRANCH   2   4
ATOM      4  C   UNL     1      20.603  14.711 -12.701  1.00  0.00     0.032 C 
BRANCH   4   5
ATOM      5  C   UNL     1      20.867  15.517 -11.411  1.00  0.00     0.034 C 
BRANCH   5   6
ATOM      6  C   UNL     1      21.622  16.810 -11.658  1.00  0.00    -0.077 C 
ATOM      7  C   UNL     1      23.019  16.711 -12.217  1.00  0.00     0.039 C 
ATOM      8  C   UNL     1      21.151  18.042 -11.343  1.00  0.00    -0.023 CG0
ATOM      9  G   UNL     1      19.781  18.383 -10.792  1.00  0.00     0.000 G0
ENDBRANCH   5   6
ENDBRANCH   4   5
ENDBRANCH   2   4
BRANCH   1  10
ATOM     10  C   UNL     1      18.262  16.536 -13.472  1.00  0.00     0.111 C 
BRANCH  10  11
ATOM     11  C   UNL     1      17.952  17.334 -12.233  1.00  0.00     0.163 C 
ATOM     12  O   UNL     1      16.968  16.978 -11.530  1.00  0.00    -0.294 OA
BRANCH  11  13
ATOM     13  C   UNL     1      18.725  18.552 -11.850  1.00  0.00    -0.002 C 
ATOM     14  C   UNL     1      18.530  19.738 -12.504  1.00  0.00    -0.069 C 
ATOM     15  C   UNL     1      17.424  19.899 -13.524  1.00  0.00     0.039 C 
ATOM     16  C   UNL     1      19.405  20.945 -12.249  1.00  0.00     0.039 C 
BRANCH  13  17
ATOM     17  C   UNL     1      19.792  18.391 -10.779  1.00  0.00     0.066 CG0
ATOM     18  G   UNL     1      21.147  18.042 -11.362  1.00  0.00     0.000 G0
ENDBRANCH  13  17
ENDBRANCH  11  13
ENDBRANCH  10  11
ENDBRANCH   1  10
TORSDOF 0
ENDMDL
MODEL 4
REMARK VINA RESULT:    17.012      1.617      4.233
REMARK INTER + INTRA:          24.906
REMARK INTER:                  24.384
REMARK INTRA:                   0.522
REMARK UNBOUND:                 0.932
REMARK SMILES CC1=CCC(=C(C)C)C(=O)CC(C)=CCC1
REMARK SMILES IDX 12 1 14 2 13 3 15 4 16 5 2 6 1 7 3 8 11 10 9 11 10 12 5 13
REMARK SMILES IDX 6 14 7 15 8 16 4 17
REMARK H PARENT
REMARK Flexibility Score: 60.00
ROOT
ATOM      1  C   UNL     1      21.908  18.405 -11.838  1.00  0.00    -0.070 C 
ATOM      2  C   UNL     1      21.668  19.727 -11.696  1.00  0.00    -0.027 C 
ATOM      3  C   UNL     1      23.039  17.804 -11.041  1.00  0.00     0.039 C 
ENDROOT
BRANCH   2   4
ATOM      4  C   UNL     1      20.648  20.528 -12.475  1.00  0.00     0.032 C 
BRANCH   4   5
ATOM      5  C   UNL     1      19.259  20.632 -11.808  1.00  0.00     0.034 C 
BRANCH   5   6
ATOM      6  C   UNL     1      18.151  20.004 -12.634  1.00  0.00    -0.077 C 
ATOM      7  C   UNL     1      17.494  20.857 -13.689  1.00  0.00     0.039 C 
ATOM      8  C   UNL     1      17.668  18.752 -12.438  1.00  0.00    -0.023 CG0
ATOM      9  G   UNL     1      18.180  17.718 -11.455  1.00  0.00     0.000 G0
ENDBRANCH   5   6
ENDBRANCH   4   5
ENDBRANCH   2   4
BRANCH   1  10
ATOM     10  C   UNL     1      21.161  17.524 -12.818  1.00  0.00     0.111 C 
BRANCH  10  11
ATOM     11  C   UNL     1      20.320  16.494 -12.112  1.00  0.00     0.163 C 
ATOM     12  O   UNL     1      20.910  15.541 -11.534  1.00  0.00    -0.294 OA
BRANCH  11  13
ATOM     13  C   UNL     1      18.827  16.530 -12.128  1.00  0.00    -0.002 C 
ATOM     14  C   UNL     1      18.112  15.575 -12.796  1.00  0.00    -0.069 C 
ATOM     15  C   UNL     1      18.792  14.369 -13.406  1.00  0.00     0.039 C 
ATOM     16  C   UNL     1      16.612  15.671 -12.964  1.00  0.00     0.039 C 
BRANCH  13  17
ATOM     17  C   UNL     1      18.154  17.715 -11.455  1.00  0.00     0.066 CG0
ATOM     18  G   UNL     1      17.663  18.743 -12.456  1.00  0.00     0.000 G0
ENDBRANCH  13  17
ENDBRANCH  11  13
ENDBRANCH  10  11
ENDBRANCH   1  10
TORSDOF 0
ENDMDL
MODEL 5
REMARK VINA RESULT:    17.991      1.484      3.151
REMARK INTER + INTRA:          26.284
REMARK INTER:                  24.049
REMARK INTRA:                   2.235
REMARK UNBOUND:                 0.932
REMARK SMILES CC1=CCC(=C(C)C)C(=O)CC(C)=CCC1
REMARK SMILES IDX 12 1 14 2 13 3 15 4 16 5 2 6 1 7 3 8 11 10 9 11 10 12 5 13
REMARK SMILES IDX 6 14 7 15 8 16 4 17
REMARK H PARENT
REMARK Flexibility Score: 60.00
ROOT
ATOM      1  C   UNL     1      16.288  15.459 -12.499  1.00  0.00    -0.070 C 
ATOM      2  C   UNL     1      16.682  14.262 -12.988  1.00  0.00    -0.027 C 
ATOM      3  C   UNL     1      15.025  15.503 -11.676  1.00  0.00     0.039 C 
ENDROOT
BRANCH   2   4
ATOM      4  C   UNL     1      17.859  14.028 -13.909  1.00  0.00     0.032 C 
BRANCH   4   5
ATOM      5  C   UNL     1      18.983  15.080 -13.802  1.00  0.00     0.034 C 
BRANCH   5   6
ATOM      6  C   UNL     1      19.877  14.880 -12.592  1.00  0.00    -0.077 C 
ATOM      7  C   UNL     1      20.080  13.470 -12.096  1.00  0.00     0.039 C 
ATOM      8  C   UNL     1      20.446  15.888 -11.886  1.00  0.00    -0.023 CG0
ATOM      9  G   UNL     1      20.394  17.369 -12.205  1.00  0.00     0.000 G0
ENDBRANCH   5   6
ENDBRANCH   4   5
ENDBRANCH   2   4
BRANCH   1  10
ATOM     10  C   UNL     1      16.997  16.760 -12.813  1.00  0.00     0.111 C 
BRANCH  10  11
ATOM     11  C   UNL     1      17.892  17.192 -11.681  1.00  0.00     0.163 C 
ATOM     12  O   UNL     1      17.578  16.845 -10.511  1.00  0.00    -0.294 OA
BRANCH  11  13
ATOM     13  C   UNL     1      19.089  18.060 -11.893  1.00  0.00    -0.002 C 
ATOM     14  C   UNL     1      18.979  19.423 -11.858  1.00  0.00    -0.069 C 
ATOM     15  C   UNL     1      17.686  20.095 -11.452  1.00  0.00     0.039 C 
ATOM     16  C   UNL     1      20.135  20.328 -12.223  1.00  0.00     0.039 C 
BRANCH  13  17
ATOM     17  C   UNL     1      20.398  17.367 -12.238  1.00  0.00     0.066 CG0
ATOM     18  G   UNL     1      20.394  15.902 -11.849  1.00  0.00     0.000 G0
ENDBRANCH  13  17
ENDBRANCH  11  13
ENDBRANCH  10  11
ENDBRANCH   1  10
TORSDOF 0
ENDMDL
MODEL 6
REMARK VINA RESULT:    18.235      1.722      2.961
REMARK INTER + INTRA:          26.629
REMARK INTER:                  25.877
REMARK INTRA:                   0.752
REMARK UNBOUND:                 0.932
REMARK SMILES CC1=CCC(=C(C)C)C(=O)CC(C)=CCC1
REMARK SMILES IDX 12 1 14 2 13 3 15 4 16 5 2 6 1 7 3 8 11 10 9 11 10 12 5 13
REMARK SMILES IDX 6 14 7 15 8 16 4 17
REMARK H PARENT
REMARK Flexibility Score: 60.00
ROOT
ATOM      1  C   UNL     1      15.902  15.975 -10.022  1.00  0.00    -0.070 C 
ATOM      2  C   UNL     1      15.632  15.147 -11.056  1.00  0.00    -0.027 C 
ATOM      3  C   UNL     1      15.599  15.483  -8.629  1.00  0.00     0.039 C 
ENDROOT
BRANCH   2   4
ATOM      4  C   UNL     1      15.775  15.491 -12.523  1.00  0.00     0.032 C 
BRANCH   4   5
ATOM      5  C   UNL     1      16.606  14.485 -13.346  1.00  0.00     0.034 C 
BRANCH   5   6
ATOM      6  C   UNL     1      18.101  14.612 -13.114  1.00  0.00    -0.077 C 
ATOM      7  C   UNL     1      18.887  13.344 -12.897  1.00  0.00     0.039 C 
ATOM      8  C   UNL     1      18.761  15.792 -13.019  1.00  0.00    -0.023 CG0
ATOM      9  G   UNL     1      18.185  17.180 -13.217  1.00  0.00     0.000 G0
ENDBRANCH   5   6
ENDBRANCH   4   5
ENDBRANCH   2   4
BRANCH   1  10
ATOM     10  C   UNL     1      16.404  17.392 -10.200  1.00  0.00     0.111 C 
BRANCH  10  11
ATOM     11  C   UNL     1      17.828  17.421 -10.688  1.00  0.00     0.163 C 
ATOM     12  O   UNL     1      18.720  16.926  -9.947  1.00  0.00    -0.294 OA
BRANCH  11  13
ATOM     13  C   UNL     1      18.221  18.065 -11.977  1.00  0.00    -0.002 C 
ATOM     14  C   UNL     1      18.516  19.400 -12.031  1.00  0.00    -0.069 C 
ATOM     15  C   UNL     1      18.608  20.234 -10.772  1.00  0.00     0.039 C 
ATOM     16  C   UNL     1      18.761  20.113 -13.342  1.00  0.00     0.039 C 
BRANCH  13  17
ATOM     17  C   UNL     1      18.185  17.199 -13.226  1.00  0.00     0.066 CG0
ATOM     18  G   UNL     1      18.764  15.818 -12.987  1.00  0.00     0.000 G0
ENDBRANCH  13  17
ENDBRANCH  11  13
ENDBRANCH  10  11
ENDBRANCH   1  10
TORSDOF 0
ENDMDL
MODEL 7
REMARK VINA RESULT:    18.877      1.219      3.999
REMARK INTER + INTRA:          27.533
REMARK INTER:                  26.532
REMARK INTRA:                   1.001
REMARK UNBOUND:                 0.932
REMARK SMILES CC1=CCC(=C(C)C)C(=O)CC(C)=CCC1
REMARK SMILES IDX 12 1 14 2 13 3 15 4 16 5 2 6 1 7 3 8 11 10 9 11 10 12 5 13
REMARK SMILES IDX 6 14 7 15 8 16 4 17
REMARK H PARENT
REMARK Flexibility Score: 60.00
ROOT
ATOM      1  C   UNL     1      20.671  17.006 -11.353  1.00  0.00    -0.070 C 
ATOM      2  C   UNL     1      21.570  17.893 -11.834  1.00  0.00    -0.027 C 
ATOM      3  C   UNL     1      20.842  15.555 -11.729  1.00  0.00     0.039 C 
ENDROOT
BRANCH   2   4
ATOM      4  C   UNL     1      21.514  19.394 -11.650  1.00  0.00     0.032 C 
BRANCH   4   5
ATOM      5  C   UNL     1      20.801  20.159 -12.785  1.00  0.00     0.034 C 
BRANCH   5   6
ATOM      6  C   UNL     1      19.328  20.399 -12.511  1.00  0.00    -0.077 C 
ATOM      7  C   UNL     1      18.948  21.650 -11.760  1.00  0.00     0.039 C 
ATOM      8  C   UNL     1      18.339  19.529 -12.834  1.00  0.00    -0.023 CG0
ATOM      9  G   UNL     1      18.480  18.229 -13.600  1.00  0.00     0.000 G0
ENDBRANCH   5   6
ENDBRANCH   4   5
ENDBRANCH   2   4
BRANCH   1  10
ATOM     10  C   UNL     1      19.460  17.407 -10.537  1.00  0.00     0.111 C 
BRANCH  10  11
ATOM     11  C   UNL     1      18.176  17.147 -11.281  1.00  0.00     0.163 C 
ATOM     12  O   UNL     1      17.120  17.002 -10.608  1.00  0.00    -0.294 OA
BRANCH  11  13
ATOM     13  C   UNL     1      18.127  16.994 -12.765  1.00  0.00    -0.002 C 
ATOM     14  C   UNL     1      17.847  15.782 -13.334  1.00  0.00    -0.069 C 
ATOM     15  C   UNL     1      17.427  14.598 -12.491  1.00  0.00     0.039 C 
ATOM     16  C   UNL     1      17.944  15.558 -14.827  1.00  0.00     0.039 C 
BRANCH  13  17
ATOM     17  C   UNL     1      18.490  18.210 -13.602  1.00  0.00     0.066 CG0
ATOM     18  G   UNL     1      18.354  19.505 -12.826  1.00  0.00     0.000 G0
ENDBRANCH  13  17
ENDBRANCH  11  13
ENDBRANCH  10  11
ENDBRANCH   1  10
TORSDOF 0
ENDMDL
