MODEL 1
REMARK VINA RESULT:    83.170      0.000      0.000
REMARK INTER + INTRA:          90.048
REMARK INTER:                  90.463
REMARK INTRA:                  -0.415
REMARK UNBOUND:                -0.415
REMARK SMILES C=C(C)[C@H]1CC[C@]2(C)CC[C@@]3(C)[C@@H](CC[C@@H]4[C@]5(C)CC[C@H](O)C(C)(C)[C@H]5CC[C@]43C)[C@H]12
REMARK SMILES IDX 4 1 5 2 6 3 7 4 31 5 13 6 14 7 15 8 16 9 17 10 19 11 20 12
REMARK SMILES IDX 21 13 23 14 26 15 27 16 28 17 29 18 11 19 10 20 9 21 12 22
REMARK SMILES IDX 30 23 24 24 25 25 18 26 8 27 2 28 3 29 1 30 22 31
REMARK H PARENT 22 32
REMARK Flexibility Score: inf
ROOT
ATOM      1  C   UNL     1     -28.206  22.238   5.971  1.00  0.00     0.018 C 
ATOM      2  C   UNL     1     -27.364  21.647   7.106  1.00  0.00     0.009 C 
ATOM      3  C   UNL     1     -27.956  22.205   8.383  1.00  0.00     0.008 C 
ATOM      4  C   UNL     1     -28.431  23.623   8.034  1.00  0.00    -0.029 C 
ATOM      5  C   UNL     1     -28.954  23.490   6.558  1.00  0.00     0.006 C 
ATOM      6  C   UNL     1     -30.493  23.291   6.509  1.00  0.00    -0.000 C 
ATOM      7  C   UNL     1     -31.107  23.048   5.108  1.00  0.00     0.005 C 
ATOM      8  C   UNL     1     -32.517  22.405   5.241  1.00  0.00     0.005 C 
ATOM      9  C   UNL     1     -33.245  22.800   6.569  1.00  0.00     0.002 C 
ATOM     10  C   UNL     1     -34.776  22.326   6.776  1.00  0.00    -0.026 C 
ATOM     11  C   UNL     1     -35.306  21.338   5.673  1.00  0.00     0.010 C 
ATOM     12  C   UNL     1     -36.135  22.022   4.584  1.00  0.00     0.033 C 
ATOM     13  C   UNL     1     -37.433  22.659   5.158  1.00  0.00     0.120 C 
ATOM     14  C   UNL     1     -37.252  23.346   6.584  1.00  0.00    -0.006 C 
ATOM     15  C   UNL     1     -35.712  23.592   6.839  1.00  0.00     0.003 C 
ATOM     16  C   UNL     1     -35.321  24.557   7.986  1.00  0.00     0.005 C 
ATOM     17  C   UNL     1     -33.784  24.703   8.182  1.00  0.00     0.008 C 
ATOM     18  C   UNL     1     -32.897  24.300   6.950  1.00  0.00    -0.024 C 
ATOM     19  C   UNL     1     -31.295  24.400   7.294  1.00  0.00    -0.024 C 
ATOM     20  C   UNL     1     -30.963  24.096   8.786  1.00  0.00     0.008 C 
ATOM     21  C   UNL     1     -29.452  24.131   9.125  1.00  0.00     0.007 C 
ATOM     22  C   UNL     1     -30.754  25.842   6.992  1.00  0.00     0.012 C 
ATOM     23  C   UNL     1     -33.281  25.262   5.744  1.00  0.00     0.012 C 
ATOM     24  C   UNL     1     -38.009  24.705   6.630  1.00  0.00     0.014 C 
ATOM     25  C   UNL     1     -37.912  22.457   7.668  1.00  0.00     0.014 C 
ATOM     26  C   UNL     1     -34.824  21.523   8.123  1.00  0.00     0.012 C 
ATOM     27  C   UNL     1     -27.202  24.573   8.053  1.00  0.00     0.011 C 
ENDROOT
BRANCH   1  28
ATOM     28  C   UNL     1     -27.364  22.465   4.713  1.00  0.00    -0.077 C 
ATOM     29  C   UNL     1     -27.575  21.680   3.440  1.00  0.00     0.039 C 
ATOM     30  C   UNL     1     -26.362  23.361   4.763  1.00  0.00     0.008 C 
ENDBRANCH   1  28
BRANCH  13  31
ATOM     31  O   UNL     1     -37.977  23.534   4.198  1.00  0.00    -0.393 OA
ATOM     32  H   UNL     1     -37.434  23.452   3.371  1.00  0.00     0.210 HD
ENDBRANCH  13  31
TORSDOF 2
ENDMDL
MODEL 2
REMARK VINA RESULT:    83.481      2.488      7.636
REMARK INTER + INTRA:          90.387
REMARK INTER:                  90.862
REMARK INTRA:                  -0.476
REMARK UNBOUND:                -0.415
REMARK SMILES C=C(C)[C@H]1CC[C@]2(C)CC[C@@]3(C)[C@@H](CC[C@@H]4[C@]5(C)CC[C@H](O)C(C)(C)[C@H]5CC[C@]43C)[C@H]12
REMARK SMILES IDX 4 1 5 2 6 3 7 4 31 5 13 6 14 7 15 8 16 9 17 10 19 11 20 12
REMARK SMILES IDX 21 13 23 14 26 15 27 16 28 17 29 18 11 19 10 20 9 21 12 22
REMARK SMILES IDX 30 23 24 24 25 25 18 26 8 27 2 28 3 29 1 30 22 31
REMARK H PARENT 22 32
REMARK Flexibility Score: inf
ROOT
ATOM      1  C   UNL     1     -36.556  21.944   5.174  1.00  0.00     0.018 C 
ATOM      2  C   UNL     1     -37.594  22.969   4.708  1.00  0.00     0.009 C 
ATOM      3  C   UNL     1     -37.333  24.214   5.530  1.00  0.00     0.008 C 
ATOM      4  C   UNL     1     -36.871  23.712   6.906  1.00  0.00    -0.029 C 
ATOM      5  C   UNL     1     -36.028  22.430   6.573  1.00  0.00     0.006 C 
ATOM      6  C   UNL     1     -34.507  22.740   6.515  1.00  0.00    -0.000 C 
ATOM      7  C   UNL     1     -33.585  21.569   6.097  1.00  0.00     0.005 C 
ATOM      8  C   UNL     1     -32.206  22.111   5.623  1.00  0.00     0.005 C 
ATOM      9  C   UNL     1     -31.815  23.464   6.305  1.00  0.00     0.002 C 
ATOM     10  C   UNL     1     -30.344  24.070   6.021  1.00  0.00    -0.026 C 
ATOM     11  C   UNL     1     -29.528  23.307   4.914  1.00  0.00     0.010 C 
ATOM     12  C   UNL     1     -28.517  22.306   5.478  1.00  0.00     0.033 C 
ATOM     13  C   UNL     1     -27.417  23.008   6.323  1.00  0.00     0.120 C 
ATOM     14  C   UNL     1     -27.948  24.210   7.224  1.00  0.00    -0.006 C 
ATOM     15  C   UNL     1     -29.517  24.089   7.362  1.00  0.00     0.003 C 
ATOM     16  C   UNL     1     -30.206  24.927   8.468  1.00  0.00     0.005 C 
ATOM     17  C   UNL     1     -31.753  24.767   8.498  1.00  0.00     0.008 C 
ATOM     18  C   UNL     1     -32.321  23.475   7.808  1.00  0.00    -0.024 C 
ATOM     19  C   UNL     1     -33.963  23.454   7.814  1.00  0.00    -0.024 C 
ATOM     20  C   UNL     1     -34.600  24.874   7.738  1.00  0.00     0.008 C 
ATOM     21  C   UNL     1     -36.148  24.877   7.687  1.00  0.00     0.007 C 
ATOM     22  C   UNL     1     -34.502  22.781   9.125  1.00  0.00     0.012 C 
ATOM     23  C   UNL     1     -31.733  22.218   8.582  1.00  0.00     0.012 C 
ATOM     24  C   UNL     1     -27.296  24.157   8.636  1.00  0.00     0.014 C 
ATOM     25  C   UNL     1     -27.496  25.555   6.599  1.00  0.00     0.014 C 
ATOM     26  C   UNL     1     -30.552  25.523   5.467  1.00  0.00     0.012 C 
ATOM     27  C   UNL     1     -38.124  23.297   7.724  1.00  0.00     0.011 C 
ENDROOT
BRANCH   1  28
ATOM     28  C   UNL     1     -37.108  20.518   5.102  1.00  0.00    -0.077 C 
ATOM     29  C   UNL     1     -37.796  19.973   3.873  1.00  0.00     0.039 C 
ATOM     30  C   UNL     1     -37.025  19.741   6.197  1.00  0.00     0.008 C 
ENDBRANCH   1  28
BRANCH  13  31
ATOM     31  O   UNL     1     -26.722  22.036   7.069  1.00  0.00    -0.393 OA
ATOM     32  H   UNL     1     -26.761  22.303   8.025  1.00  0.00     0.210 HD
ENDBRANCH  13  31
TORSDOF 2
ENDMDL
