MODEL 1
REMARK VINA RESULT:     1.622      0.000      0.000
REMARK INTER + INTRA:           5.360
REMARK INTER:                   2.286
REMARK INTRA:                   3.074
REMARK UNBOUND:                 3.074
REMARK SMILES CC1=CCC(=C(C)C)C(=O)CC(C)=CCC1
REMARK SMILES IDX 12 1 14 2 13 3 15 4 16 5 2 6 1 7 3 8 11 10 9 11 10 12 5 13
REMARK SMILES IDX 6 14 7 15 8 16 4 17
REMARK H PARENT
REMARK Flexibility Score: 60.00
ROOT
ATOM      1  C   UNL     1      26.887  26.075  26.336  1.00  0.00    -0.070 C 
ATOM      2  C   UNL     1      27.770  25.763  25.360  1.00  0.00    -0.027 C 
ATOM      3  C   UNL     1      26.489  27.520  26.498  1.00  0.00     0.039 C 
ENDROOT
BRANCH   2   4
ATOM      4  C   UNL     1      28.162  24.361  24.965  1.00  0.00     0.032 C 
BRANCH   4   5
ATOM      5  C   UNL     1      27.185  23.355  25.582  1.00  0.00     0.034 C 
BRANCH   5   6
ATOM      6  C   UNL     1      26.001  23.068  24.682  1.00  0.00    -0.077 C 
ATOM      7  C   UNL     1      26.222  23.021  23.190  1.00  0.00     0.039 C 
ATOM      8  C   UNL     1      24.731  22.923  25.135  1.00  0.00    -0.023 CG0
ATOM      9  G   UNL     1      24.268  22.872  26.581  1.00  0.00     0.000 G0
ENDBRANCH   5   6
ENDBRANCH   4   5
ENDBRANCH   2   4
BRANCH   1  10
ATOM     10  C   UNL     1      26.294  25.050  27.283  1.00  0.00     0.111 C 
BRANCH  10  11
ATOM     11  C   UNL     1      24.809  25.249  27.472  1.00  0.00     0.163 C 
ATOM     12  O   UNL     1      24.431  26.368  27.912  1.00  0.00    -0.294 OA
BRANCH  11  13
ATOM     13  C   UNL     1      23.784  24.191  27.187  1.00  0.00    -0.002 C 
ATOM     14  C   UNL     1      22.492  24.340  27.618  1.00  0.00    -0.069 C 
ATOM     15  C   UNL     1      21.492  23.208  27.559  1.00  0.00     0.039 C 
ATOM     16  C   UNL     1      21.980  25.666  28.131  1.00  0.00     0.039 C 
BRANCH  13  17
ATOM     17  C   UNL     1      24.264  22.879  26.574  1.00  0.00     0.066 CG0
ATOM     18  G   UNL     1      24.729  22.939  25.130  1.00  0.00     0.000 G0
ENDBRANCH  13  17
ENDBRANCH  11  13
ENDBRANCH  10  11
ENDBRANCH   1  10
TORSDOF 0
ENDMDL
MODEL 2
REMARK VINA RESULT:     1.844      1.931      4.141
REMARK INTER + INTRA:           5.672
REMARK INTER:                   2.936
REMARK INTRA:                   2.736
REMARK UNBOUND:                 3.074
REMARK SMILES CC1=CCC(=C(C)C)C(=O)CC(C)=CCC1
REMARK SMILES IDX 12 1 14 2 13 3 15 4 16 5 2 6 1 7 3 8 11 10 9 11 10 12 5 13
REMARK SMILES IDX 6 14 7 15 8 16 4 17
REMARK H PARENT
REMARK Flexibility Score: 60.00
ROOT
ATOM      1  C   UNL     1      26.894  27.771  26.061  1.00  0.00    -0.070 C 
ATOM      2  C   UNL     1      25.894  28.304  26.802  1.00  0.00    -0.027 C 
ATOM      3  C   UNL     1      27.384  28.550  24.868  1.00  0.00     0.039 C 
ENDROOT
BRANCH   2   4
ATOM      4  C   UNL     1      25.387  27.736  28.103  1.00  0.00     0.032 C 
BRANCH   4   5
ATOM      5  C   UNL     1      23.870  27.933  28.200  1.00  0.00     0.034 C 
BRANCH   5   6
ATOM      6  C   UNL     1      23.107  26.631  28.061  1.00  0.00    -0.077 C 
ATOM      7  C   UNL     1      21.601  26.664  28.144  1.00  0.00     0.039 C 
ATOM      8  C   UNL     1      23.705  25.420  27.938  1.00  0.00    -0.023 CG0
ATOM      9  G   UNL     1      25.188  25.135  27.775  1.00  0.00     0.000 G0
ENDBRANCH   5   6
ENDBRANCH   4   5
ENDBRANCH   2   4
BRANCH   1  10
ATOM     10  C   UNL     1      27.529  26.428  26.361  1.00  0.00     0.111 C 
BRANCH  10  11
ATOM     11  C   UNL     1      26.754  25.288  25.747  1.00  0.00     0.163 C 
ATOM     12  O   UNL     1      27.043  24.970  24.561  1.00  0.00    -0.294 OA
BRANCH  11  13
ATOM     13  C   UNL     1      25.662  24.543  26.458  1.00  0.00    -0.002 C 
ATOM     14  C   UNL     1      25.017  23.502  25.845  1.00  0.00    -0.069 C 
ATOM     15  C   UNL     1      23.768  22.881  26.426  1.00  0.00     0.039 C 
ATOM     16  C   UNL     1      25.551  22.881  24.575  1.00  0.00     0.039 C 
BRANCH  13  17
ATOM     17  C   UNL     1      25.176  25.096  27.794  1.00  0.00     0.066 CG0
ATOM     18  G   UNL     1      23.695  25.418  27.893  1.00  0.00     0.000 G0
ENDBRANCH  13  17
ENDBRANCH  11  13
ENDBRANCH  10  11
ENDBRANCH   1  10
TORSDOF 0
ENDMDL
MODEL 3
REMARK VINA RESULT:     2.034      1.457      1.967
REMARK INTER + INTRA:           5.940
REMARK INTER:                   3.945
REMARK INTRA:                   1.996
REMARK UNBOUND:                 3.074
REMARK SMILES CC1=CCC(=C(C)C)C(=O)CC(C)=CCC1
REMARK SMILES IDX 12 1 14 2 13 3 15 4 16 5 2 6 1 7 3 8 11 10 9 11 10 12 5 13
REMARK SMILES IDX 6 14 7 15 8 16 4 17
REMARK H PARENT
REMARK Flexibility Score: 60.00
ROOT
ATOM      1  C   UNL     1      27.360  27.773  25.759  1.00  0.00    -0.070 C 
ATOM      2  C   UNL     1      28.200  26.861  25.217  1.00  0.00    -0.027 C 
ATOM      3  C   UNL     1      26.861  28.889  24.877  1.00  0.00     0.039 C 
ENDROOT
BRANCH   2   4
ATOM      4  C   UNL     1      28.675  25.607  25.907  1.00  0.00     0.032 C 
BRANCH   4   5
ATOM      5  C   UNL     1      28.582  24.417  24.946  1.00  0.00     0.034 C 
BRANCH   5   6
ATOM      6  C   UNL     1      27.151  24.054  24.609  1.00  0.00    -0.077 C 
ATOM      7  C   UNL     1      26.852  23.476  23.248  1.00  0.00     0.039 C 
ATOM      8  C   UNL     1      26.103  24.286  25.438  1.00  0.00    -0.023 CG0
ATOM      9  G   UNL     1      26.152  24.799  26.867  1.00  0.00     0.000 G0
ENDBRANCH   5   6
ENDBRANCH   4   5
ENDBRANCH   2   4
BRANCH   1  10
ATOM     10  C   UNL     1      26.914  27.740  27.207  1.00  0.00     0.111 C 
BRANCH  10  11
ATOM     11  C   UNL     1      25.491  27.257  27.347  1.00  0.00     0.163 C 
ATOM     12  O   UNL     1      24.606  28.130  27.552  1.00  0.00    -0.294 OA
BRANCH  11  13
ATOM     13  C   UNL     1      25.090  25.812  27.279  1.00  0.00    -0.002 C 
ATOM     14  C   UNL     1      23.860  25.410  27.727  1.00  0.00    -0.069 C 
ATOM     15  C   UNL     1      23.506  23.949  27.892  1.00  0.00     0.039 C 
ATOM     16  C   UNL     1      22.767  26.407  28.033  1.00  0.00     0.039 C 
BRANCH  13  17
ATOM     17  C   UNL     1      26.153  24.796  26.873  1.00  0.00     0.066 CG0
ATOM     18  G   UNL     1      26.103  24.304  25.437  1.00  0.00     0.000 G0
ENDBRANCH  13  17
ENDBRANCH  11  13
ENDBRANCH  10  11
ENDBRANCH   1  10
TORSDOF 0
ENDMDL
MODEL 4
REMARK VINA RESULT:     3.135      2.041      4.405
REMARK INTER + INTRA:           7.492
REMARK INTER:                   7.108
REMARK INTRA:                   0.384
REMARK UNBOUND:                 3.074
REMARK SMILES CC1=CCC(=C(C)C)C(=O)CC(C)=CCC1
REMARK SMILES IDX 12 1 14 2 13 3 15 4 16 5 2 6 1 7 3 8 11 10 9 11 10 12 5 13
REMARK SMILES IDX 6 14 7 15 8 16 4 17
REMARK H PARENT
REMARK Flexibility Score: 60.00
ROOT
ATOM      1  C   UNL     1      25.891  24.206  27.460  1.00  0.00    -0.070 C 
ATOM      2  C   UNL     1      26.080  23.170  26.610  1.00  0.00    -0.027 C 
ATOM      3  C   UNL     1      24.597  24.264  28.232  1.00  0.00     0.039 C 
ENDROOT
BRANCH   2   4
ATOM      4  C   UNL     1      27.365  22.879  25.876  1.00  0.00     0.032 C 
BRANCH   4   5
ATOM      5  C   UNL     1      27.111  22.876  24.365  1.00  0.00     0.034 C 
BRANCH   5   6
ATOM      6  C   UNL     1      26.144  23.960  23.937  1.00  0.00    -0.077 C 
ATOM      7  C   UNL     1      24.776  23.557  23.446  1.00  0.00     0.039 C 
ATOM      8  C   UNL     1      26.462  25.278  23.901  1.00  0.00    -0.023 CG0
ATOM      9  G   UNL     1      27.741  25.932  24.394  1.00  0.00     0.000 G0
ENDBRANCH   5   6
ENDBRANCH   4   5
ENDBRANCH   2   4
BRANCH   1  10
ATOM     10  C   UNL     1      26.903  25.317  27.659  1.00  0.00     0.111 C 
BRANCH  10  11
ATOM     11  C   UNL     1      26.686  26.458  26.695  1.00  0.00     0.163 C 
ATOM     12  O   UNL     1      25.610  27.106  26.804  1.00  0.00    -0.294 OA
BRANCH  11  13
ATOM     13  C   UNL     1      27.660  26.836  25.618  1.00  0.00    -0.002 C 
ATOM     14  C   UNL     1      28.319  28.035  25.666  1.00  0.00    -0.069 C 
ATOM     15  C   UNL     1      29.124  28.554  24.496  1.00  0.00     0.039 C 
ATOM     16  C   UNL     1      28.318  28.887  26.914  1.00  0.00     0.039 C 
BRANCH  13  17
ATOM     17  C   UNL     1      27.752  25.934  24.391  1.00  0.00     0.066 CG0
ATOM     18  G   UNL     1      26.455  25.301  23.919  1.00  0.00     0.000 G0
ENDBRANCH  13  17
ENDBRANCH  11  13
ENDBRANCH  10  11
ENDBRANCH   1  10
TORSDOF 0
ENDMDL
MODEL 5
REMARK VINA RESULT:     3.144      1.913      3.976
REMARK INTER + INTRA:           7.504
REMARK INTER:                   4.600
REMARK INTRA:                   2.904
REMARK UNBOUND:                 3.074
REMARK SMILES CC1=CCC(=C(C)C)C(=O)CC(C)=CCC1
REMARK SMILES IDX 12 1 14 2 13 3 15 4 16 5 2 6 1 7 3 8 11 10 9 11 10 12 5 13
REMARK SMILES IDX 6 14 7 15 8 16 4 17
REMARK H PARENT
REMARK Flexibility Score: 60.00
ROOT
ATOM      1  C   UNL     1      28.112  26.973  25.796  1.00  0.00    -0.070 C 
ATOM      2  C   UNL     1      26.929  27.224  26.404  1.00  0.00    -0.027 C 
ATOM      3  C   UNL     1      28.724  28.066  24.958  1.00  0.00     0.039 C 
ENDROOT
BRANCH   2   4
ATOM      4  C   UNL     1      26.252  26.305  27.390  1.00  0.00     0.032 C 
BRANCH   4   5
ATOM      5  C   UNL     1      24.829  25.991  26.916  1.00  0.00     0.034 C 
BRANCH   5   6
ATOM      6  C   UNL     1      24.418  24.565  27.222  1.00  0.00    -0.077 C 
ATOM      7  C   UNL     1      22.994  24.298  27.641  1.00  0.00     0.039 C 
ATOM      8  C   UNL     1      25.279  23.517  27.213  1.00  0.00    -0.023 CG0
ATOM      9  G   UNL     1      26.733  23.521  26.775  1.00  0.00     0.000 G0
ENDBRANCH   5   6
ENDBRANCH   4   5
ENDBRANCH   2   4
BRANCH   1  10
ATOM     10  C   UNL     1      28.838  25.647  25.900  1.00  0.00     0.111 C 
BRANCH  10  11
ATOM     11  C   UNL     1      28.252  24.609  24.974  1.00  0.00     0.163 C 
ATOM     12  O   UNL     1      28.823  24.441  23.863  1.00  0.00    -0.294 OA
BRANCH  11  13
ATOM     13  C   UNL     1      27.031  23.798  25.298  1.00  0.00    -0.002 C 
ATOM     14  C   UNL     1      26.123  23.487  24.320  1.00  0.00    -0.069 C 
ATOM     15  C   UNL     1      24.777  22.879  24.641  1.00  0.00     0.039 C 
ATOM     16  C   UNL     1      26.440  23.689  22.856  1.00  0.00     0.039 C 
BRANCH  13  17
ATOM     17  C   UNL     1      26.744  23.494  26.765  1.00  0.00     0.066 CG0
ATOM     18  G   UNL     1      25.288  23.539  27.192  1.00  0.00     0.000 G0
ENDBRANCH  13  17
ENDBRANCH  11  13
ENDBRANCH  10  11
ENDBRANCH   1  10
TORSDOF 0
ENDMDL
