MODEL 1
REMARK VINA RESULT:    23.617      0.000      0.000
REMARK INTER + INTRA:          24.307
REMARK INTER:                  24.307
REMARK INTRA:                   0.000
REMARK UNBOUND:                 0.000
REMARK SMILES C[C@@H]1CC[C@@]2(OC1)O[C@@H]1C[C@@H]3[C@@H]4CC=C5C[C@@H](O)CC[C@]5(C)[C@@H]4CC[C@@]3(C)[C@@H]1[C@H]2C
REMARK SMILES IDX 1 1 2 2 3 3 4 4 5 5 29 6 28 7 9 8 8 9 10 10 11 11 26 12
REMARK SMILES IDX 25 13 24 14 23 15 12 16 13 17 14 18 15 19 21 20 20 21 19 22
REMARK SMILES IDX 17 23 16 24 22 25 27 26 30 27 6 28 7 29 18 30
REMARK H PARENT 18 31
REMARK Flexibility Score: inf
ROOT
ATOM      1  C   UNL     1      -7.593  -2.733  -4.838  1.00  0.00     0.010 C 
ATOM      2  C   UNL     1      -7.840  -1.369  -4.186  1.00  0.00     0.012 C 
ATOM      3  C   UNL     1      -9.306  -0.948  -4.334  1.00  0.00     0.011 C 
ATOM      4  C   UNL     1      -9.497   0.460  -3.775  1.00  0.00     0.066 C 
ATOM      5  C   UNL     1      -8.481   1.448  -4.427  1.00  0.00     0.171 C 
ATOM      6  C   UNL     1      -8.577   2.898  -3.869  1.00  0.00     0.052 C 
ATOM      7  C   UNL     1      -9.389   3.647  -4.931  1.00  0.00     0.033 C 
ATOM      8  C   UNL     1      -9.673   2.573  -5.988  1.00  0.00     0.126 C 
ATOM      9  O   UNL     1      -8.739   1.536  -5.819  1.00  0.00    -0.346 OA
ATOM     10  C   UNL     1      -9.549   3.238  -7.371  1.00  0.00     0.037 C 
ATOM     11  C   UNL     1      -9.568   4.716  -7.020  1.00  0.00     0.002 C 
ATOM     12  C   UNL     1      -8.743   4.837  -5.724  1.00  0.00    -0.024 C 
ATOM     13  C   UNL     1      -8.955   6.242  -5.077  1.00  0.00     0.008 C 
ATOM     14  C   UNL     1      -9.732   7.260  -5.949  1.00  0.00     0.005 C 
ATOM     15  C   UNL     1      -9.459   7.231  -7.499  1.00  0.00     0.003 C 
ATOM     16  C   UNL     1      -9.358   5.788  -8.112  1.00  0.00     0.000 C 
ATOM     17  C   UNL     1      -8.179   5.558  -9.066  1.00  0.00     0.031 C 
ATOM     18  C   UNL     1      -7.936   6.747  -9.941  1.00  0.00    -0.027 C 
ATOM     19  C   UNL     1      -7.977   8.010  -9.467  1.00  0.00    -0.065 C 
ATOM     20  C   UNL     1      -8.439   8.324  -8.040  1.00  0.00    -0.008 C 
ATOM     21  C   UNL     1      -7.147   8.443  -7.184  1.00  0.00     0.014 C 
ATOM     22  C   UNL     1      -6.102   9.424  -7.777  1.00  0.00     0.033 C 
ATOM     23  C   UNL     1      -5.793   9.142  -9.268  1.00  0.00     0.118 C 
ATOM     24  C   UNL     1      -7.068   9.024 -10.125  1.00  0.00     0.063 C 
ATOM     25  C   UNL     1      -9.187   9.695  -8.036  1.00  0.00     0.016 C 
ATOM     26  C   UNL     1      -7.215   4.614  -5.943  1.00  0.00     0.012 C 
ATOM     27  C   UNL     1      -9.184   3.048  -2.463  1.00  0.00     0.014 C 
ATOM     28  O   UNL     1      -7.152   0.979  -4.206  1.00  0.00    -0.349 OA
ATOM     29  C   UNL     1      -6.929  -0.290  -4.801  1.00  0.00     0.167 C 
ENDROOT
BRANCH  23  30
ATOM     30  O   UNL     1      -4.935  10.125  -9.789  1.00  0.00    -0.393 OA
ATOM     31  H   UNL     1      -5.063  10.952  -9.254  1.00  0.00     0.210 HD
ENDBRANCH  23  30
TORSDOF 1
ENDMDL
MODEL 2
REMARK VINA RESULT:    25.930     18.039     19.754
REMARK INTER + INTRA:          26.688
REMARK INTER:                  26.688
REMARK INTRA:                   0.000
REMARK UNBOUND:                 0.000
REMARK SMILES C[C@@H]1CC[C@@]2(OC1)O[C@@H]1C[C@@H]3[C@@H]4CC=C5C[C@@H](O)CC[C@]5(C)[C@@H]4CC[C@@]3(C)[C@@H]1[C@H]2C
REMARK SMILES IDX 1 1 2 2 3 3 4 4 5 5 29 6 28 7 9 8 8 9 10 10 11 11 26 12
REMARK SMILES IDX 25 13 24 14 23 15 12 16 13 17 14 18 15 19 21 20 20 21 19 22
REMARK SMILES IDX 17 23 16 24 22 25 27 26 30 27 6 28 7 29 18 30
REMARK H PARENT 18 31
REMARK Flexibility Score: inf
ROOT
ATOM      1  C   UNL     1       4.148   7.021   9.682  1.00  0.00     0.010 C 
ATOM      2  C   UNL     1       5.542   7.347   9.138  1.00  0.00     0.012 C 
ATOM      3  C   UNL     1       5.696   8.851   8.891  1.00  0.00     0.011 C 
ATOM      4  C   UNL     1       7.051   9.132   8.246  1.00  0.00     0.066 C 
ATOM      5  C   UNL     1       7.241   8.253   6.971  1.00  0.00     0.171 C 
ATOM      6  C   UNL     1       8.625   8.444   6.283  1.00  0.00     0.052 C 
ATOM      7  C   UNL     1       8.327   9.387   5.113  1.00  0.00     0.033 C 
ATOM      8  C   UNL     1       6.819   9.641   5.232  1.00  0.00     0.126 C 
ATOM      9  O   UNL     1       6.262   8.608   6.006  1.00  0.00    -0.346 OA
ATOM     10  C   UNL     1       6.239   9.667   3.806  1.00  0.00     0.037 C 
ATOM     11  C   UNL     1       7.489   9.796   2.952  1.00  0.00     0.002 C 
ATOM     12  C   UNL     1       8.543   8.903   3.636  1.00  0.00    -0.024 C 
ATOM     13  C   UNL     1       9.961   9.199   3.054  1.00  0.00     0.008 C 
ATOM     14  C   UNL     1       9.985  10.119   1.808  1.00  0.00     0.005 C 
ATOM     15  C   UNL     1       8.818   9.945   0.766  1.00  0.00     0.003 C 
ATOM     16  C   UNL     1       7.397   9.755   1.411  1.00  0.00     0.000 C 
ATOM     17  C   UNL     1       6.549   8.624   0.815  1.00  0.00     0.031 C 
ATOM     18  C   UNL     1       6.698   8.546  -0.672  1.00  0.00    -0.027 C 
ATOM     19  C   UNL     1       7.895   8.670  -1.283  1.00  0.00    -0.065 C 
ATOM     20  C   UNL     1       9.159   9.065  -0.512  1.00  0.00    -0.008 C 
ATOM     21  C   UNL     1       9.892   7.736  -0.173  1.00  0.00     0.014 C 
ATOM     22  C   UNL     1      10.120   6.825  -1.406  1.00  0.00     0.033 C 
ATOM     23  C   UNL     1       8.828   6.588  -2.226  1.00  0.00     0.118 C 
ATOM     24  C   UNL     1       8.096   7.901  -2.569  1.00  0.00     0.063 C 
ATOM     25  C   UNL     1      10.071   9.932  -1.439  1.00  0.00     0.016 C 
ATOM     26  C   UNL     1       8.249   7.379   3.486  1.00  0.00     0.012 C 
ATOM     27  C   UNL     1       9.762   8.969   7.176  1.00  0.00     0.014 C 
ATOM     28  O   UNL     1       7.108   6.876   7.317  1.00  0.00    -0.349 OA
ATOM     29  C   UNL     1       5.818   6.578   7.831  1.00  0.00     0.167 C 
ENDROOT
BRANCH  23  30
ATOM     30  O   UNL     1       9.109   5.858  -3.392  1.00  0.00    -0.393 OA
ATOM     31  H   UNL     1       9.504   4.989  -3.117  1.00  0.00     0.210 HD
ENDBRANCH  23  30
TORSDOF 1
ENDMDL
