MODEL 1
REMARK VINA RESULT:     2.923      0.000      0.000
REMARK INTER + INTRA:           3.933
REMARK INTER:                   4.034
REMARK INTRA:                  -0.101
REMARK UNBOUND:                -0.101
REMARK SMILES O=C([O-])[C@H]1O[C@@H](Oc2cc3oc(-c4ccccc4)cc(=O)c3c(O)c2O)[C@@H](O)[C@@H](O)[C@@H]1O
REMARK SMILES IDX 7 1 6 2 4 3 31 4 5 5 29 6 27 7 2 8 1 9 3 10 32 11 30 13
REMARK SMILES IDX 28 15 8 17 25 18 9 19 23 20 10 21 22 22 11 23 20 24 12 25
REMARK SMILES IDX 19 26 21 27 26 28 24 30 13 32 14 33 18 34 15 35 17 36 16 37
REMARK H PARENT 32 12 30 14 28 16 26 29 24 31
REMARK Flexibility Score: inf
ROOT
ATOM      1  O   UNL     1      -9.319  -6.581  -7.176  1.00  0.00    -0.458 OA
ENDROOT
BRANCH   1   2
ATOM      2  C   UNL     1      -8.957  -6.918  -8.523  1.00  0.00     0.339 C 
ATOM      3  C   UNL     1      -6.646  -7.302  -8.057  1.00  0.00     0.199 C 
ATOM      4  C   UNL     1      -6.211  -6.024  -8.825  1.00  0.00     0.180 C 
ATOM      5  O   UNL     1      -7.875  -7.842  -8.531  1.00  0.00    -0.328 OA
ATOM      6  C   UNL     1      -7.342  -4.985  -8.881  1.00  0.00     0.181 C 
ATOM      7  C   UNL     1      -8.632  -5.668  -9.371  1.00  0.00     0.214 C 
BRANCH   3   8
ATOM      8  C   UNL     1      -6.628  -7.181  -6.553  1.00  0.00     0.073 C 
ATOM      9  O   UNL     1      -6.374  -6.084  -5.989  1.00  0.00    -0.547 OA
ATOM     10  O   UNL     1      -6.796  -8.319  -5.773  1.00  0.00    -0.547 OA
ENDBRANCH   3   8
BRANCH   4  11
ATOM     11  O   UNL     1      -5.840  -6.392 -10.132  1.00  0.00    -0.387 OA
ATOM     12  H   UNL     1      -5.906  -7.381 -10.184  1.00  0.00     0.211 HD
ENDBRANCH   4  11
BRANCH   6  13
ATOM     13  O   UNL     1      -7.522  -4.419  -7.606  1.00  0.00    -0.387 OA
ATOM     14  H   UNL     1      -6.862  -4.843  -6.998  1.00  0.00     0.211 HD
ENDBRANCH   6  13
BRANCH   7  15
ATOM     15  O   UNL     1      -9.713  -4.772  -9.440  1.00  0.00    -0.384 OA
ATOM     16  H   UNL     1      -9.703  -4.204  -8.628  1.00  0.00     0.211 HD
ENDBRANCH   7  15
ENDBRANCH   1   2
BRANCH   1  17
ATOM     17  C   UNL     1     -10.515  -5.970  -6.747  1.00  0.00     0.172 A 
ATOM     18  C   UNL     1     -10.472  -4.619  -6.355  1.00  0.00     0.201 A 
ATOM     19  C   UNL     1     -11.741  -6.659  -6.694  1.00  0.00     0.098 A 
ATOM     20  C   UNL     1     -11.635  -3.966  -5.903  1.00  0.00     0.176 A 
ATOM     21  C   UNL     1     -12.900  -6.021  -6.252  1.00  0.00     0.146 A 
ATOM     22  C   UNL     1     -12.860  -4.668  -5.849  1.00  0.00     0.111 A 
ATOM     23  O   UNL     1     -14.039  -6.705  -6.215  1.00  0.00    -0.456 OA
ATOM     24  C   UNL     1     -14.068  -4.080  -5.417  1.00  0.00     0.197 A 
ATOM     25  C   UNL     1     -15.193  -6.184  -5.805  1.00  0.00     0.138 A 
ATOM     26  C   UNL     1     -15.237  -4.842  -5.396  1.00  0.00     0.100 A 
ATOM     27  O   UNL     1     -14.119  -2.875  -5.049  1.00  0.00    -0.289 OA
BRANCH  18  28
ATOM     28  O   UNL     1      -9.275  -3.903  -6.416  1.00  0.00    -0.502 OA
ATOM     29  H   UNL     1      -8.716  -3.846  -7.257  1.00  0.00     0.293 HD
ENDBRANCH  18  28
BRANCH  20  30
ATOM     30  O   UNL     1     -11.572  -2.626  -5.512  1.00  0.00    -0.504 OA
ATOM     31  H   UNL     1     -10.787  -2.028  -5.738  1.00  0.00     0.293 HD
ENDBRANCH  20  30
BRANCH  25  32
ATOM     32  C   UNL     1     -16.405  -7.043  -5.807  1.00  0.00     0.017 A 
ATOM     33  C   UNL     1     -16.392  -8.343  -6.353  1.00  0.00     0.012 A 
ATOM     34  C   UNL     1     -17.609  -6.542  -5.277  1.00  0.00     0.012 A 
ATOM     35  C   UNL     1     -17.552  -9.123  -6.348  1.00  0.00     0.001 A 
ATOM     36  C   UNL     1     -18.765  -7.328  -5.274  1.00  0.00     0.001 A 
ATOM     37  C   UNL     1     -18.737  -8.619  -5.807  1.00  0.00     0.000 A 
ENDBRANCH  25  32
ENDBRANCH   1  17
TORSDOF 9
ENDMDL
MODEL 2
REMARK VINA RESULT:     5.372      0.713      2.336
REMARK INTER + INTRA:           7.313
REMARK INTER:                   6.597
REMARK INTRA:                   0.716
REMARK UNBOUND:                -0.101
REMARK SMILES O=C([O-])[C@H]1O[C@@H](Oc2cc3oc(-c4ccccc4)cc(=O)c3c(O)c2O)[C@@H](O)[C@@H](O)[C@@H]1O
REMARK SMILES IDX 7 1 6 2 4 3 31 4 5 5 29 6 27 7 2 8 1 9 3 10 32 11 30 13
REMARK SMILES IDX 28 15 8 17 25 18 9 19 23 20 10 21 22 22 11 23 20 24 12 25
REMARK SMILES IDX 19 26 21 27 26 28 24 30 13 32 14 33 18 34 15 35 17 36 16 37
REMARK H PARENT 32 12 30 14 28 16 26 29 24 31
REMARK Flexibility Score: inf
ROOT
ATOM      1  O   UNL     1      -9.500  -6.415  -7.069  1.00  0.00    -0.458 OA
ENDROOT
BRANCH   1   2
ATOM      2  C   UNL     1      -8.182  -5.895  -6.842  1.00  0.00     0.339 C 
ATOM      3  C   UNL     1      -7.893  -5.016  -9.044  1.00  0.00     0.199 C 
ATOM      4  C   UNL     1      -6.829  -6.088  -9.405  1.00  0.00     0.180 C 
ATOM      5  O   UNL     1      -7.957  -4.744  -7.648  1.00  0.00    -0.328 OA
ATOM      6  C   UNL     1      -6.995  -7.356  -8.553  1.00  0.00     0.181 C 
ATOM      7  C   UNL     1      -7.086  -6.960  -7.068  1.00  0.00     0.214 C 
BRANCH   3   8
ATOM      8  C   UNL     1      -9.263  -5.250  -9.633  1.00  0.00     0.073 C 
ATOM      9  O   UNL     1      -9.454  -6.134 -10.510  1.00  0.00    -0.547 OA
ATOM     10  O   UNL     1     -10.314  -4.412  -9.278  1.00  0.00    -0.547 OA
ENDBRANCH   3   8
BRANCH   4  11
ATOM     11  O   UNL     1      -5.551  -5.539  -9.195  1.00  0.00    -0.387 OA
ATOM     12  H   UNL     1      -5.294  -5.753  -8.260  1.00  0.00     0.211 HD
ENDBRANCH   4  11
BRANCH   6  13
ATOM     13  O   UNL     1      -8.147  -8.050  -8.964  1.00  0.00    -0.387 OA
ATOM     14  H   UNL     1      -8.911  -7.692  -8.442  1.00  0.00     0.211 HD
ENDBRANCH   6  13
BRANCH   7  15
ATOM     15  O   UNL     1      -7.245  -8.078  -6.229  1.00  0.00    -0.384 OA
ATOM     16  H   UNL     1      -7.275  -7.764  -5.290  1.00  0.00     0.211 HD
ENDBRANCH   7  15
ENDBRANCH   1   2
BRANCH   1  17
ATOM     17  C   UNL     1     -10.721  -5.839  -6.662  1.00  0.00     0.172 A 
ATOM     18  C   UNL     1     -10.730  -4.479  -6.299  1.00  0.00     0.201 A 
ATOM     19  C   UNL     1     -11.921  -6.571  -6.603  1.00  0.00     0.098 A 
ATOM     20  C   UNL     1     -11.919  -3.860  -5.869  1.00  0.00     0.176 A 
ATOM     21  C   UNL     1     -13.106  -5.966  -6.182  1.00  0.00     0.146 A 
ATOM     22  C   UNL     1     -13.118  -4.604  -5.808  1.00  0.00     0.111 A 
ATOM     23  O   UNL     1     -14.220  -6.691  -6.138  1.00  0.00    -0.456 OA
ATOM     24  C   UNL     1     -14.350  -4.052  -5.397  1.00  0.00     0.197 A 
ATOM     25  C   UNL     1     -15.395  -6.204  -5.747  1.00  0.00     0.138 A 
ATOM     26  C   UNL     1     -15.491  -4.855  -5.368  1.00  0.00     0.100 A 
ATOM     27  O   UNL     1     -14.448  -2.842  -5.056  1.00  0.00    -0.289 OA
BRANCH  18  28
ATOM     28  O   UNL     1      -9.559  -3.722  -6.366  1.00  0.00    -0.502 OA
ATOM     29  H   UNL     1      -8.677  -4.109  -6.675  1.00  0.00     0.293 HD
ENDBRANCH  18  28
BRANCH  20  30
ATOM     30  O   UNL     1     -11.908  -2.510  -5.506  1.00  0.00    -0.504 OA
ATOM     31  H   UNL     1     -11.796  -2.204  -4.547  1.00  0.00     0.293 HD
ENDBRANCH  20  30
BRANCH  25  32
ATOM     32  C   UNL     1     -16.574  -7.106  -5.739  1.00  0.00     0.017 A 
ATOM     33  C   UNL     1     -16.601  -8.300  -6.488  1.00  0.00     0.012 A 
ATOM     34  C   UNL     1     -17.712  -6.751  -4.989  1.00  0.00     0.012 A 
ATOM     35  C   UNL     1     -17.730  -9.124  -6.467  1.00  0.00     0.001 A 
ATOM     36  C   UNL     1     -18.838  -7.580  -4.971  1.00  0.00     0.001 A 
ATOM     37  C   UNL     1     -18.846  -8.767  -5.707  1.00  0.00     0.000 A 
ENDBRANCH  25  32
ENDBRANCH   1  17
TORSDOF 9
ENDMDL
