MODEL 1
REMARK VINA RESULT:    -7.128      0.000      0.000
REMARK INTER + INTRA:          -9.064
REMARK INTER:                  -9.003
REMARK INTRA:                  -0.061
REMARK UNBOUND:                -0.061
REMARK SMILES Oc1ccc(CCc2cc(O)cc(O)c2)cc1
REMARK SMILES IDX 6 1 5 2 4 3 3 4 2 5 16 6 17 7 1 8 7 10 8 11 15 12 9 13 13 14
REMARK SMILES IDX 10 15 12 16 14 17 11 19
REMARK H PARENT 1 9 14 18 11 20
REMARK Flexibility Score: inf
ROOT
ATOM      1  C   UNL     1      23.793   3.827 102.926  1.00  0.00     0.040 C 
ENDROOT
BRANCH   1   2
ATOM      2  C   UNL     1      23.146   4.742 101.921  1.00  0.00    -0.047 A 
ATOM      3  C   UNL     1      23.854   5.837 101.402  1.00  0.00     0.007 A 
ATOM      4  C   UNL     1      23.242   6.707 100.494  1.00  0.00     0.046 A 
ATOM      5  C   UNL     1      21.913   6.496 100.105  1.00  0.00     0.115 A 
ATOM      6  C   UNL     1      21.809   4.543 101.538  1.00  0.00     0.007 A 
ATOM      7  C   UNL     1      21.199   5.414 100.631  1.00  0.00     0.046 A 
BRANCH   5   8
ATOM      8  O   UNL     1      21.292   7.355  99.201  1.00  0.00    -0.508 OA
ATOM      9  H   UNL     1      21.179   7.105  98.225  1.00  0.00     0.293 HD
ENDBRANCH   5   8
ENDBRANCH   1   2
BRANCH   1  10
ATOM     10  C   UNL     1      22.843   2.689 103.308  1.00  0.00     0.040 C 
BRANCH  10  11
ATOM     11  C   UNL     1      21.851   3.153 104.341  1.00  0.00    -0.040 A 
ATOM     12  C   UNL     1      20.756   2.342 104.685  1.00  0.00     0.050 A 
ATOM     13  C   UNL     1      22.044   4.372 105.011  1.00  0.00     0.050 A 
ATOM     14  C   UNL     1      19.851   2.756 105.668  1.00  0.00     0.119 A 
ATOM     15  C   UNL     1      21.138   4.788 105.997  1.00  0.00     0.119 A 
ATOM     16  C   UNL     1      20.042   3.981 106.320  1.00  0.00     0.092 A 
BRANCH  14  17
ATOM     17  O   UNL     1      18.767   1.942 105.989  1.00  0.00    -0.508 OA
ATOM     18  H   UNL     1      18.887   0.958 106.198  1.00  0.00     0.293 HD
ENDBRANCH  14  17
BRANCH  15  19
ATOM     19  O   UNL     1      21.318   6.000 106.660  1.00  0.00    -0.508 OA
ATOM     20  H   UNL     1      21.147   6.090 107.654  1.00  0.00     0.293 HD
ENDBRANCH  15  19
ENDBRANCH  10  11
ENDBRANCH   1  10
TORSDOF 6
ENDMDL
MODEL 2
REMARK VINA RESULT:    -7.128      0.071      2.035
REMARK INTER + INTRA:          -9.064
REMARK INTER:                  -8.927
REMARK INTRA:                  -0.137
REMARK UNBOUND:                -0.061
REMARK SMILES Oc1ccc(CCc2cc(O)cc(O)c2)cc1
REMARK SMILES IDX 6 1 5 2 4 3 3 4 2 5 16 6 17 7 1 8 7 10 8 11 15 12 9 13 13 14
REMARK SMILES IDX 10 15 12 16 14 17 11 19
REMARK H PARENT 1 9 14 18 11 20
REMARK Flexibility Score: inf
ROOT
ATOM      1  C   UNL     1      23.755   3.771 102.930  1.00  0.00     0.040 C 
ENDROOT
BRANCH   1   2
ATOM      2  C   UNL     1      23.126   4.701 101.927  1.00  0.00    -0.047 A 
ATOM      3  C   UNL     1      23.846   5.800 101.432  1.00  0.00     0.007 A 
ATOM      4  C   UNL     1      23.250   6.683 100.526  1.00  0.00     0.046 A 
ATOM      5  C   UNL     1      21.926   6.482 100.115  1.00  0.00     0.115 A 
ATOM      6  C   UNL     1      21.794   4.512 101.523  1.00  0.00     0.007 A 
ATOM      7  C   UNL     1      21.201   5.396 100.618  1.00  0.00     0.046 A 
BRANCH   5   8
ATOM      8  O   UNL     1      21.321   7.354  99.213  1.00  0.00    -0.508 OA
ATOM      9  H   UNL     1      21.554   8.340  99.193  1.00  0.00     0.293 HD
ENDBRANCH   5   8
ENDBRANCH   1   2
BRANCH   1  10
ATOM     10  C   UNL     1      22.779   2.657 103.317  1.00  0.00     0.040 C 
BRANCH  10  11
ATOM     11  C   UNL     1      21.832   3.131 104.387  1.00  0.00    -0.040 A 
ATOM     12  C   UNL     1      22.051   4.359 105.032  1.00  0.00     0.050 A 
ATOM     13  C   UNL     1      20.691   2.378 104.706  1.00  0.00     0.050 A 
ATOM     14  C   UNL     1      21.154   4.818 106.003  1.00  0.00     0.119 A 
ATOM     15  C   UNL     1      19.791   2.835 105.678  1.00  0.00     0.119 A 
ATOM     16  C   UNL     1      20.026   4.052 106.326  1.00  0.00     0.092 A 
BRANCH  14  17
ATOM     17  O   UNL     1      21.393   6.034 106.638  1.00  0.00    -0.508 OA
ATOM     18  H   UNL     1      22.319   6.292 106.957  1.00  0.00     0.293 HD
ENDBRANCH  14  17
BRANCH  15  19
ATOM     19  O   UNL     1      18.660   2.090 106.006  1.00  0.00    -0.508 OA
ATOM     20  H   UNL     1      18.286   2.082 106.947  1.00  0.00     0.293 HD
ENDBRANCH  15  19
ENDBRANCH  10  11
ENDBRANCH   1  10
TORSDOF 6
ENDMDL
MODEL 3
REMARK VINA RESULT:    -6.828      1.188      5.554
REMARK INTER + INTRA:          -8.685
REMARK INTER:                  -8.631
REMARK INTRA:                  -0.054
REMARK UNBOUND:                -0.061
REMARK SMILES Oc1ccc(CCc2cc(O)cc(O)c2)cc1
REMARK SMILES IDX 6 1 5 2 4 3 3 4 2 5 16 6 17 7 1 8 7 10 8 11 15 12 9 13 13 14
REMARK SMILES IDX 10 15 12 16 14 17 11 19
REMARK H PARENT 1 9 14 18 11 20
REMARK Flexibility Score: inf
ROOT
ATOM      1  C   UNL     1      22.822   2.671 103.299  1.00  0.00     0.040 C 
ENDROOT
BRANCH   1   2
ATOM      2  C   UNL     1      21.880   3.226 104.333  1.00  0.00    -0.047 A 
ATOM      3  C   UNL     1      20.782   2.468 104.771  1.00  0.00     0.007 A 
ATOM      4  C   UNL     1      19.888   2.997 105.707  1.00  0.00     0.046 A 
ATOM      5  C   UNL     1      20.076   4.293 106.205  1.00  0.00     0.115 A 
ATOM      6  C   UNL     1      22.056   4.530 104.826  1.00  0.00     0.007 A 
ATOM      7  C   UNL     1      21.161   5.057 105.760  1.00  0.00     0.046 A 
BRANCH   5   8
ATOM      8  O   UNL     1      19.193   4.832 107.138  1.00  0.00    -0.508 OA
ATOM      9  H   UNL     1      18.238   4.502 107.214  1.00  0.00     0.293 HD
ENDBRANCH   5   8
ENDBRANCH   1   2
BRANCH   1  10
ATOM     10  C   UNL     1      23.833   3.735 102.864  1.00  0.00     0.040 C 
BRANCH  10  11
ATOM     11  C   UNL     1      23.215   4.673 101.862  1.00  0.00    -0.040 A 
ATOM     12  C   UNL     1      21.931   4.417 101.352  1.00  0.00     0.050 A 
ATOM     13  C   UNL     1      23.892   5.840 101.473  1.00  0.00     0.050 A 
ATOM     14  C   UNL     1      21.341   5.304 100.445  1.00  0.00     0.119 A 
ATOM     15  C   UNL     1      23.302   6.730 100.565  1.00  0.00     0.119 A 
ATOM     16  C   UNL     1      22.030   6.458 100.051  1.00  0.00     0.092 A 
BRANCH  14  17
ATOM     17  O   UNL     1      20.070   5.030  99.945  1.00  0.00    -0.508 OA
ATOM     18  H   UNL     1      19.337   4.659 100.537  1.00  0.00     0.293 HD
ENDBRANCH  14  17
BRANCH  15  19
ATOM     19  O   UNL     1      23.971   7.886 100.168  1.00  0.00    -0.508 OA
ATOM     20  H   UNL     1      23.658   8.433  99.376  1.00  0.00     0.293 HD
ENDBRANCH  15  19
ENDBRANCH  10  11
ENDBRANCH   1  10
TORSDOF 6
ENDMDL
MODEL 4
REMARK VINA RESULT:    -6.777      1.187      5.928
REMARK INTER + INTRA:          -8.621
REMARK INTER:                  -8.584
REMARK INTRA:                  -0.037
REMARK UNBOUND:                -0.061
REMARK SMILES Oc1ccc(CCc2cc(O)cc(O)c2)cc1
REMARK SMILES IDX 6 1 5 2 4 3 3 4 2 5 16 6 17 7 1 8 7 10 8 11 15 12 9 13 13 14
REMARK SMILES IDX 10 15 12 16 14 17 11 19
REMARK H PARENT 1 9 14 18 11 20
REMARK Flexibility Score: inf
ROOT
ATOM      1  C   UNL     1      22.680   2.628 103.309  1.00  0.00     0.040 C 
ENDROOT
BRANCH   1   2
ATOM      2  C   UNL     1      21.771   3.211 104.359  1.00  0.00    -0.047 A 
ATOM      3  C   UNL     1      20.663   2.482 104.819  1.00  0.00     0.007 A 
ATOM      4  C   UNL     1      19.800   3.036 105.769  1.00  0.00     0.046 A 
ATOM      5  C   UNL     1      20.030   4.328 106.260  1.00  0.00     0.115 A 
ATOM      6  C   UNL     1      21.989   4.511 104.843  1.00  0.00     0.007 A 
ATOM      7  C   UNL     1      21.125   5.063 105.792  1.00  0.00     0.046 A 
BRANCH   5   8
ATOM      8  O   UNL     1      19.178   4.891 107.206  1.00  0.00    -0.508 OA
ATOM      9  H   UNL     1      18.674   5.751 107.020  1.00  0.00     0.293 HD
ENDBRANCH   5   8
ENDBRANCH   1   2
BRANCH   1  10
ATOM     10  C   UNL     1      23.748   3.645 102.898  1.00  0.00     0.040 C 
BRANCH  10  11
ATOM     11  C   UNL     1      23.190   4.625 101.900  1.00  0.00    -0.040 A 
ATOM     12  C   UNL     1      23.978   5.693 101.441  1.00  0.00     0.050 A 
ATOM     13  C   UNL     1      21.899   4.445 101.377  1.00  0.00     0.050 A 
ATOM     14  C   UNL     1      23.473   6.586 100.490  1.00  0.00     0.119 A 
ATOM     15  C   UNL     1      21.392   5.338 100.424  1.00  0.00     0.119 A 
ATOM     16  C   UNL     1      22.179   6.408  99.985  1.00  0.00     0.092 A 
BRANCH  14  17
ATOM     17  O   UNL     1      24.267   7.644 100.053  1.00  0.00    -0.508 OA
ATOM     18  H   UNL     1      24.957   7.521  99.321  1.00  0.00     0.293 HD
ENDBRANCH  14  17
BRANCH  15  19
ATOM     19  O   UNL     1      20.109   5.171  99.906  1.00  0.00    -0.508 OA
ATOM     20  H   UNL     1      19.763   4.259  99.634  1.00  0.00     0.293 HD
ENDBRANCH  15  19
ENDBRANCH  10  11
ENDBRANCH   1  10
TORSDOF 6
ENDMDL
MODEL 5
REMARK VINA RESULT:    -6.624      4.252      5.737
REMARK INTER + INTRA:          -8.427
REMARK INTER:                  -7.882
REMARK INTRA:                  -0.546
REMARK UNBOUND:                -0.061
REMARK SMILES Oc1ccc(CCc2cc(O)cc(O)c2)cc1
REMARK SMILES IDX 6 1 5 2 4 3 3 4 2 5 16 6 17 7 1 8 7 10 8 11 15 12 9 13 13 14
REMARK SMILES IDX 10 15 12 16 14 17 11 19
REMARK H PARENT 1 9 14 18 11 20
REMARK Flexibility Score: inf
ROOT
ATOM      1  C   UNL     1      24.285   3.765 103.128  1.00  0.00     0.040 C 
ENDROOT
BRANCH   1   2
ATOM      2  C   UNL     1      23.600   4.714 102.181  1.00  0.00    -0.047 A 
ATOM      3  C   UNL     1      24.349   5.657 101.460  1.00  0.00     0.007 A 
ATOM      4  C   UNL     1      23.710   6.561 100.605  1.00  0.00     0.046 A 
ATOM      5  C   UNL     1      22.315   6.537 100.472  1.00  0.00     0.115 A 
ATOM      6  C   UNL     1      22.201   4.703 102.055  1.00  0.00     0.007 A 
ATOM      7  C   UNL     1      21.564   5.608 101.201  1.00  0.00     0.046 A 
BRANCH   5   8
ATOM      8  O   UNL     1      21.666   7.431  99.624  1.00  0.00    -0.508 OA
ATOM      9  H   UNL     1      22.110   7.780  98.783  1.00  0.00     0.293 HD
ENDBRANCH   5   8
ENDBRANCH   1   2
BRANCH   1  10
ATOM     10  C   UNL     1      25.617   4.349 103.606  1.00  0.00     0.040 C 
BRANCH  10  11
ATOM     11  C   UNL     1      26.748   3.401 103.305  1.00  0.00    -0.040 A 
ATOM     12  C   UNL     1      26.628   2.465 102.265  1.00  0.00     0.050 A 
ATOM     13  C   UNL     1      27.952   3.485 104.023  1.00  0.00     0.050 A 
ATOM     14  C   UNL     1      27.690   1.605 101.962  1.00  0.00     0.119 A 
ATOM     15  C   UNL     1      29.016   2.625 103.721  1.00  0.00     0.119 A 
ATOM     16  C   UNL     1      28.882   1.686 102.693  1.00  0.00     0.092 A 
BRANCH  14  17
ATOM     17  O   UNL     1      27.549   0.678 100.932  1.00  0.00    -0.508 OA
ATOM     18  H   UNL     1      27.265  -0.277 101.115  1.00  0.00     0.293 HD
ENDBRANCH  14  17
BRANCH  15  19
ATOM     19  O   UNL     1      30.211   2.697 104.434  1.00  0.00    -0.508 OA
ATOM     20  H   UNL     1      31.078   2.337 104.053  1.00  0.00     0.293 HD
ENDBRANCH  15  19
ENDBRANCH  10  11
ENDBRANCH   1  10
TORSDOF 6
ENDMDL
MODEL 6
REMARK VINA RESULT:    -6.583      4.238      6.093
REMARK INTER + INTRA:          -8.376
REMARK INTER:                  -7.836
REMARK INTRA:                  -0.540
REMARK UNBOUND:                -0.061
REMARK SMILES Oc1ccc(CCc2cc(O)cc(O)c2)cc1
REMARK SMILES IDX 6 1 5 2 4 3 3 4 2 5 16 6 17 7 1 8 7 10 8 11 15 12 9 13 13 14
REMARK SMILES IDX 10 15 12 16 14 17 11 19
REMARK H PARENT 1 9 14 18 11 20
REMARK Flexibility Score: inf
ROOT
ATOM      1  C   UNL     1      24.283   3.754 103.063  1.00  0.00     0.040 C 
ENDROOT
BRANCH   1   2
ATOM      2  C   UNL     1      23.565   4.733 102.172  1.00  0.00    -0.047 A 
ATOM      3  C   UNL     1      22.170   4.672 102.032  1.00  0.00     0.007 A 
ATOM      4  C   UNL     1      21.507   5.559 101.178  1.00  0.00     0.046 A 
ATOM      5  C   UNL     1      22.234   6.509 100.448  1.00  0.00     0.115 A 
ATOM      6  C   UNL     1      24.291   5.677 101.427  1.00  0.00     0.007 A 
ATOM      7  C   UNL     1      23.627   6.563 100.574  1.00  0.00     0.046 A 
BRANCH   5   8
ATOM      8  O   UNL     1      21.586   7.398  99.595  1.00  0.00    -0.508 OA
ATOM      9  H   UNL     1      20.763   7.911  99.890  1.00  0.00     0.293 HD
ENDBRANCH   5   8
ENDBRANCH   1   2
BRANCH   1  10
ATOM     10  C   UNL     1      25.611   4.340 103.547  1.00  0.00     0.040 C 
BRANCH  10  11
ATOM     11  C   UNL     1      26.748   3.406 103.231  1.00  0.00    -0.040 A 
ATOM     12  C   UNL     1      27.917   3.424 104.011  1.00  0.00     0.050 A 
ATOM     13  C   UNL     1      26.627   2.469 102.192  1.00  0.00     0.050 A 
ATOM     14  C   UNL     1      28.962   2.535 103.739  1.00  0.00     0.119 A 
ATOM     15  C   UNL     1      27.673   1.577 101.919  1.00  0.00     0.119 A 
ATOM     16  C   UNL     1      28.838   1.614 102.690  1.00  0.00     0.092 A 
BRANCH  14  17
ATOM     17  O   UNL     1      30.116   2.574 104.518  1.00  0.00    -0.508 OA
ATOM     18  H   UNL     1      30.589   3.446 104.720  1.00  0.00     0.293 HD
ENDBRANCH  14  17
BRANCH  15  19
ATOM     19  O   UNL     1      27.563   0.650 100.884  1.00  0.00    -0.508 OA
ATOM     20  H   UNL     1      26.918  -0.128 100.937  1.00  0.00     0.293 HD
ENDBRANCH  15  19
ENDBRANCH  10  11
ENDBRANCH   1  10
TORSDOF 6
ENDMDL
MODEL 7
REMARK VINA RESULT:    -6.562      4.032      6.158
REMARK INTER + INTRA:          -8.349
REMARK INTER:                  -7.804
REMARK INTRA:                  -0.545
REMARK UNBOUND:                -0.061
REMARK SMILES Oc1ccc(CCc2cc(O)cc(O)c2)cc1
REMARK SMILES IDX 6 1 5 2 4 3 3 4 2 5 16 6 17 7 1 8 7 10 8 11 15 12 9 13 13 14
REMARK SMILES IDX 10 15 12 16 14 17 11 19
REMARK H PARENT 1 9 14 18 11 20
REMARK Flexibility Score: inf
ROOT
ATOM      1  C   UNL     1      22.725   2.104 102.985  1.00  0.00     0.040 C 
ENDROOT
BRANCH   1   2
ATOM      2  C   UNL     1      21.779   2.754 103.960  1.00  0.00    -0.047 A 
ATOM      3  C   UNL     1      21.853   4.134 104.204  1.00  0.00     0.007 A 
ATOM      4  C   UNL     1      20.997   4.733 105.133  1.00  0.00     0.046 A 
ATOM      5  C   UNL     1      20.066   3.955 105.835  1.00  0.00     0.115 A 
ATOM      6  C   UNL     1      20.854   1.977 104.676  1.00  0.00     0.007 A 
ATOM      7  C   UNL     1      20.000   2.577 105.605  1.00  0.00     0.046 A 
BRANCH   5   8
ATOM      8  O   UNL     1      19.208   4.539 106.763  1.00  0.00    -0.508 OA
ATOM      9  H   UNL     1      18.328   4.105 107.018  1.00  0.00     0.293 HD
ENDBRANCH   5   8
ENDBRANCH   1   2
BRANCH   1  10
ATOM     10  C   UNL     1      22.096   0.844 102.383  1.00  0.00     0.040 C 
BRANCH  10  11
ATOM     11  C   UNL     1      22.981  -0.351 102.615  1.00  0.00    -0.040 A 
ATOM     12  C   UNL     1      22.848  -1.496 101.812  1.00  0.00     0.050 A 
ATOM     13  C   UNL     1      23.985  -0.310 103.596  1.00  0.00     0.050 A 
ATOM     14  C   UNL     1      23.691  -2.596 102.004  1.00  0.00     0.119 A 
ATOM     15  C   UNL     1      24.830  -1.411 103.790  1.00  0.00     0.119 A 
ATOM     16  C   UNL     1      24.679  -2.552 102.995  1.00  0.00     0.092 A 
BRANCH  14  17
ATOM     17  O   UNL     1      23.538  -3.725 101.203  1.00  0.00    -0.508 OA
ATOM     18  H   UNL     1      24.293  -4.067 100.620  1.00  0.00     0.293 HD
ENDBRANCH  14  17
BRANCH  15  19
ATOM     19  O   UNL     1      25.823  -1.380 104.767  1.00  0.00    -0.508 OA
ATOM     20  H   UNL     1      26.059  -2.203 105.308  1.00  0.00     0.293 HD
ENDBRANCH  15  19
ENDBRANCH  10  11
ENDBRANCH   1  10
TORSDOF 6
ENDMDL
MODEL 8
REMARK VINA RESULT:    -6.546      4.056      6.536
REMARK INTER + INTRA:          -8.329
REMARK INTER:                  -7.786
REMARK INTRA:                  -0.543
REMARK UNBOUND:                -0.061
REMARK SMILES Oc1ccc(CCc2cc(O)cc(O)c2)cc1
REMARK SMILES IDX 6 1 5 2 4 3 3 4 2 5 16 6 17 7 1 8 7 10 8 11 15 12 9 13 13 14
REMARK SMILES IDX 10 15 12 16 14 17 11 19
REMARK H PARENT 1 9 14 18 11 20
REMARK Flexibility Score: inf
ROOT
ATOM      1  C   UNL     1      22.668   2.071 102.980  1.00  0.00     0.040 C 
ENDROOT
BRANCH   1   2
ATOM      2  C   UNL     1      21.762   2.701 104.003  1.00  0.00    -0.047 A 
ATOM      3  C   UNL     1      20.809   1.923 104.680  1.00  0.00     0.007 A 
ATOM      4  C   UNL     1      19.945   2.514 105.606  1.00  0.00     0.046 A 
ATOM      5  C   UNL     1      20.017   3.891 105.857  1.00  0.00     0.115 A 
ATOM      6  C   UNL     1      21.821   4.083 104.248  1.00  0.00     0.007 A 
ATOM      7  C   UNL     1      20.956   4.672 105.174  1.00  0.00     0.046 A 
BRANCH   5   8
ATOM      8  O   UNL     1      19.162   4.492 106.777  1.00  0.00    -0.508 OA
ATOM      9  H   UNL     1      18.314   4.033 107.091  1.00  0.00     0.293 HD
ENDBRANCH   5   8
ENDBRANCH   1   2
BRANCH   1  10
ATOM     10  C   UNL     1      22.053   0.779 102.438  1.00  0.00     0.040 C 
BRANCH  10  11
ATOM     11  C   UNL     1      23.009  -0.372 102.602  1.00  0.00    -0.040 A 
ATOM     12  C   UNL     1      24.003  -0.329 103.594  1.00  0.00     0.050 A 
ATOM     13  C   UNL     1      22.877  -1.521 101.806  1.00  0.00     0.050 A 
ATOM     14  C   UNL     1      24.873  -1.411 103.771  1.00  0.00     0.119 A 
ATOM     15  C   UNL     1      23.747  -2.606 101.983  1.00  0.00     0.119 A 
ATOM     16  C   UNL     1      24.744  -2.547 102.962  1.00  0.00     0.092 A 
BRANCH  14  17
ATOM     17  O   UNL     1      25.857  -1.347 104.753  1.00  0.00    -0.508 OA
ATOM     18  H   UNL     1      26.617  -0.678 104.699  1.00  0.00     0.293 HD
ENDBRANCH  14  17
BRANCH  15  19
ATOM     19  O   UNL     1      23.628  -3.747 101.191  1.00  0.00    -0.508 OA
ATOM     20  H   UNL     1      24.423  -4.346 101.002  1.00  0.00     0.293 HD
ENDBRANCH  15  19
ENDBRANCH  10  11
ENDBRANCH   1  10
TORSDOF 6
ENDMDL
MODEL 9
REMARK VINA RESULT:    -6.346      3.093      6.391
REMARK INTER + INTRA:          -8.077
REMARK INTER:                  -7.475
REMARK INTRA:                  -0.602
REMARK UNBOUND:                -0.061
REMARK SMILES Oc1ccc(CCc2cc(O)cc(O)c2)cc1
REMARK SMILES IDX 6 1 5 2 4 3 3 4 2 5 16 6 17 7 1 8 7 10 8 11 15 12 9 13 13 14
REMARK SMILES IDX 10 15 12 16 14 17 11 19
REMARK H PARENT 1 9 14 18 11 20
REMARK Flexibility Score: inf
ROOT
ATOM      1  C   UNL     1      22.124   2.291 103.284  1.00  0.00     0.040 C 
ENDROOT
BRANCH   1   2
ATOM      2  C   UNL     1      22.877   1.069 102.831  1.00  0.00    -0.047 A 
ATOM      3  C   UNL     1      22.198   0.006 102.214  1.00  0.00     0.007 A 
ATOM      4  C   UNL     1      22.892  -1.143 101.823  1.00  0.00     0.046 A 
ATOM      5  C   UNL     1      24.270  -1.245 102.056  1.00  0.00     0.115 A 
ATOM      6  C   UNL     1      24.256   0.956 103.074  1.00  0.00     0.007 A 
ATOM      7  C   UNL     1      24.948  -0.194 102.683  1.00  0.00     0.046 A 
BRANCH   5   8
ATOM      8  O   UNL     1      24.973  -2.384 101.671  1.00  0.00    -0.508 OA
ATOM      9  H   UNL     1      25.470  -2.953 102.347  1.00  0.00     0.293 HD
ENDBRANCH   5   8
ENDBRANCH   1   2
BRANCH   1  10
ATOM     10  C   UNL     1      23.052   3.507 103.336  1.00  0.00     0.040 C 
BRANCH  10  11
ATOM     11  C   UNL     1      22.768   4.439 102.188  1.00  0.00    -0.040 A 
ATOM     12  C   UNL     1      23.774   5.293 101.706  1.00  0.00     0.050 A 
ATOM     13  C   UNL     1      21.516   4.419 101.553  1.00  0.00     0.050 A 
ATOM     14  C   UNL     1      23.523   6.136 100.617  1.00  0.00     0.119 A 
ATOM     15  C   UNL     1      21.264   5.263 100.462  1.00  0.00     0.119 A 
ATOM     16  C   UNL     1      22.266   6.121 100.000  1.00  0.00     0.092 A 
BRANCH  14  17
ATOM     17  O   UNL     1      24.530   6.982 100.159  1.00  0.00    -0.508 OA
ATOM     18  H   UNL     1      24.394   7.577  99.350  1.00  0.00     0.293 HD
ENDBRANCH  14  17
BRANCH  15  19
ATOM     19  O   UNL     1      20.021   5.255  99.832  1.00  0.00    -0.508 OA
ATOM     20  H   UNL     1      19.841   5.819  99.010  1.00  0.00     0.293 HD
ENDBRANCH  15  19
ENDBRANCH  10  11
ENDBRANCH   1  10
TORSDOF 6
ENDMDL
