MODEL 1
REMARK VINA RESULT:    -4.351      0.000      0.000
REMARK INTER + INTRA:          -4.478
REMARK INTER:                  -4.478
REMARK INTRA:                   0.000
REMARK UNBOUND:                 0.000
REMARK SMILES O=c1ccc2ccc(O)cc2o1
REMARK SMILES IDX 6 1 7 2 8 3 10 4 11 5 5 6 4 7 3 8 2 9 1 10 12 11 9 12
REMARK H PARENT 9 13
REMARK Flexibility Score: inf
ROOT
ATOM      1  C   UNL     1      14.768  17.595  31.344  1.00  0.00     0.016 A 
ATOM      2  C   UNL     1      16.093  17.418  30.932  1.00  0.00     0.047 A 
ATOM      3  C   UNL     1      16.426  16.393  30.038  1.00  0.00     0.119 A 
ATOM      4  C   UNL     1      15.427  15.537  29.553  1.00  0.00     0.094 A 
ATOM      5  C   UNL     1      14.098  15.705  29.960  1.00  0.00     0.142 A 
ATOM      6  C   UNL     1      13.767  16.741  30.861  1.00  0.00     0.018 A 
ATOM      7  C   UNL     1      12.431  16.885  31.249  1.00  0.00     0.019 A 
ATOM      8  C   UNL     1      11.473  16.010  30.739  1.00  0.00     0.094 A 
ATOM      9  C   UNL     1      11.874  15.007  29.849  1.00  0.00     0.336 A 
ATOM     10  O   UNL     1      11.023  14.208  29.379  1.00  0.00    -0.246 OA
ATOM     11  O   UNL     1      13.152  14.892  29.497  1.00  0.00    -0.423 OA
ENDROOT
BRANCH   3  12
ATOM     12  O   UNL     1      17.751  16.233  29.641  1.00  0.00    -0.508 OA
ATOM     13  H   UNL     1      17.991  15.770  28.772  1.00  0.00     0.293 HD
ENDBRANCH   3  12
TORSDOF 1
ENDMDL
MODEL 2
REMARK VINA RESULT:    -4.331      2.555      3.374
REMARK INTER + INTRA:          -4.458
REMARK INTER:                  -4.458
REMARK INTRA:                   0.000
REMARK UNBOUND:                 0.000
REMARK SMILES O=c1ccc2ccc(O)cc2o1
REMARK SMILES IDX 6 1 7 2 8 3 10 4 11 5 5 6 4 7 3 8 2 9 1 10 12 11 9 12
REMARK H PARENT 9 13
REMARK Flexibility Score: inf
ROOT
ATOM      1  C   UNL     1      16.635  18.355  31.759  1.00  0.00     0.016 A 
ATOM      2  C   UNL     1      16.717  18.160  30.376  1.00  0.00     0.047 A 
ATOM      3  C   UNL     1      15.685  17.508  29.690  1.00  0.00     0.119 A 
ATOM      4  C   UNL     1      14.562  17.046  30.393  1.00  0.00     0.094 A 
ATOM      5  C   UNL     1      14.471  17.235  31.777  1.00  0.00     0.142 A 
ATOM      6  C   UNL     1      15.515  17.894  32.464  1.00  0.00     0.018 A 
ATOM      7  C   UNL     1      15.396  18.069  33.846  1.00  0.00     0.019 A 
ATOM      8  C   UNL     1      14.261  17.593  34.500  1.00  0.00     0.094 A 
ATOM      9  C   UNL     1      13.267  16.950  33.754  1.00  0.00     0.336 A 
ATOM     10  O   UNL     1      12.235  16.513  34.328  1.00  0.00    -0.246 OA
ATOM     11  O   UNL     1      13.405  16.796  32.440  1.00  0.00    -0.423 OA
ENDROOT
BRANCH   3  12
ATOM     12  O   UNL     1      15.785  17.323  28.314  1.00  0.00    -0.508 OA
ATOM     13  H   UNL     1      16.627  16.952  27.889  1.00  0.00     0.293 HD
ENDBRANCH   3  12
TORSDOF 1
ENDMDL
MODEL 3
REMARK VINA RESULT:    -4.324      1.596      4.760
REMARK INTER + INTRA:          -4.450
REMARK INTER:                  -4.450
REMARK INTRA:                   0.000
REMARK UNBOUND:                 0.000
REMARK SMILES O=c1ccc2ccc(O)cc2o1
REMARK SMILES IDX 6 1 7 2 8 3 10 4 11 5 5 6 4 7 3 8 2 9 1 10 12 11 9 12
REMARK H PARENT 9 13
REMARK Flexibility Score: inf
ROOT
ATOM      1  C   UNL     1      14.394  16.975  31.694  1.00  0.00     0.016 A 
ATOM      2  C   UNL     1      13.773  16.016  30.885  1.00  0.00     0.047 A 
ATOM      3  C   UNL     1      14.325  15.672  29.645  1.00  0.00     0.119 A 
ATOM      4  C   UNL     1      15.505  16.292  29.209  1.00  0.00     0.094 A 
ATOM      5  C   UNL     1      16.133  17.252  30.010  1.00  0.00     0.142 A 
ATOM      6  C   UNL     1      15.573  17.596  31.260  1.00  0.00     0.018 A 
ATOM      7  C   UNL     1      16.222  18.560  32.039  1.00  0.00     0.019 A 
ATOM      8  C   UNL     1      17.393  19.147  31.563  1.00  0.00     0.094 A 
ATOM      9  C   UNL     1      17.890  18.757  30.315  1.00  0.00     0.336 A 
ATOM     10  O   UNL     1      18.946  19.276  29.869  1.00  0.00    -0.246 OA
ATOM     11  O   UNL     1      17.253  17.838  29.594  1.00  0.00    -0.423 OA
ENDROOT
BRANCH   3  12
ATOM     12  O   UNL     1      13.693  14.715  28.855  1.00  0.00    -0.508 OA
ATOM     13  H   UNL     1      12.965  14.968  28.198  1.00  0.00     0.293 HD
ENDBRANCH   3  12
TORSDOF 1
ENDMDL
MODEL 4
REMARK VINA RESULT:    -4.270      1.330      1.511
REMARK INTER + INTRA:          -4.394
REMARK INTER:                  -4.394
REMARK INTRA:                   0.000
REMARK UNBOUND:                 0.000
REMARK SMILES O=c1ccc2ccc(O)cc2o1
REMARK SMILES IDX 6 1 7 2 8 3 10 4 11 5 5 6 4 7 3 8 2 9 1 10 12 11 9 12
REMARK H PARENT 9 13
REMARK Flexibility Score: inf
ROOT
ATOM      1  C   UNL     1      15.529  17.669  32.203  1.00  0.00     0.016 A 
ATOM      2  C   UNL     1      16.469  17.839  31.180  1.00  0.00     0.047 A 
ATOM      3  C   UNL     1      16.170  17.443  29.871  1.00  0.00     0.119 A 
ATOM      4  C   UNL     1      14.923  16.871  29.582  1.00  0.00     0.094 A 
ATOM      5  C   UNL     1      13.977  16.695  30.598  1.00  0.00     0.142 A 
ATOM      6  C   UNL     1      14.282  17.097  31.917  1.00  0.00     0.018 A 
ATOM      7  C   UNL     1      13.317  16.909  32.911  1.00  0.00     0.019 A 
ATOM      8  C   UNL     1      12.091  16.337  32.574  1.00  0.00     0.094 A 
ATOM      9  C   UNL     1      11.858  15.963  31.246  1.00  0.00     0.336 A 
ATOM     10  O   UNL     1      10.757  15.445  30.923  1.00  0.00    -0.246 OA
ATOM     11  O   UNL     1      12.794  16.153  30.319  1.00  0.00    -0.423 OA
ENDROOT
BRANCH   3  12
ATOM     12  O   UNL     1      17.118  17.621  28.867  1.00  0.00    -0.508 OA
ATOM     13  H   UNL     1      16.878  17.519  27.888  1.00  0.00     0.293 HD
ENDBRANCH   3  12
TORSDOF 1
ENDMDL
MODEL 5
REMARK VINA RESULT:    -4.248      2.860      4.637
REMARK INTER + INTRA:          -4.372
REMARK INTER:                  -4.372
REMARK INTRA:                   0.000
REMARK UNBOUND:                 0.000
REMARK SMILES O=c1ccc2ccc(O)cc2o1
REMARK SMILES IDX 6 1 7 2 8 3 10 4 11 5 5 6 4 7 3 8 2 9 1 10 12 11 9 12
REMARK H PARENT 9 13
REMARK Flexibility Score: inf
ROOT
ATOM      1  C   UNL     1      14.014  16.511  31.348  1.00  0.00     0.016 A 
ATOM      2  C   UNL     1      14.440  16.537  30.015  1.00  0.00     0.047 A 
ATOM      3  C   UNL     1      15.537  17.321  29.639  1.00  0.00     0.119 A 
ATOM      4  C   UNL     1      16.213  18.086  30.601  1.00  0.00     0.094 A 
ATOM      5  C   UNL     1      15.794  18.067  31.936  1.00  0.00     0.142 A 
ATOM      6  C   UNL     1      14.687  17.274  32.312  1.00  0.00     0.018 A 
ATOM      7  C   UNL     1      14.291  17.275  33.653  1.00  0.00     0.019 A 
ATOM      8  C   UNL     1      14.995  18.051  34.573  1.00  0.00     0.094 A 
ATOM      9  C   UNL     1      16.083  18.811  34.128  1.00  0.00     0.336 A 
ATOM     10  O   UNL     1      16.730  19.518  34.944  1.00  0.00    -0.246 OA
ATOM     11  O   UNL     1      16.438  18.793  32.846  1.00  0.00    -0.423 OA
ENDROOT
BRANCH   3  12
ATOM     12  O   UNL     1      15.946  17.334  28.308  1.00  0.00    -0.508 OA
ATOM     13  H   UNL     1      15.812  18.149  27.720  1.00  0.00     0.293 HD
ENDBRANCH   3  12
TORSDOF 1
ENDMDL
MODEL 6
REMARK VINA RESULT:    -4.158      2.241      2.897
REMARK INTER + INTRA:          -4.280
REMARK INTER:                  -4.280
REMARK INTRA:                   0.000
REMARK UNBOUND:                 0.000
REMARK SMILES O=c1ccc2ccc(O)cc2o1
REMARK SMILES IDX 6 1 7 2 8 3 10 4 11 5 5 6 4 7 3 8 2 9 1 10 12 11 9 12
REMARK H PARENT 9 13
REMARK Flexibility Score: inf
ROOT
ATOM      1  C   UNL     1      13.610  14.713  29.608  1.00  0.00     0.016 A 
ATOM      2  C   UNL     1      14.646  15.395  28.960  1.00  0.00     0.047 A 
ATOM      3  C   UNL     1      15.018  16.679  29.379  1.00  0.00     0.119 A 
ATOM      4  C   UNL     1      14.349  17.285  30.452  1.00  0.00     0.094 A 
ATOM      5  C   UNL     1      13.311  16.611  31.106  1.00  0.00     0.142 A 
ATOM      6  C   UNL     1      12.940  15.316  30.681  1.00  0.00     0.018 A 
ATOM      7  C   UNL     1      11.900  14.666  31.353  1.00  0.00     0.019 A 
ATOM      8  C   UNL     1      11.265  15.310  32.415  1.00  0.00     0.094 A 
ATOM      9  C   UNL     1      11.687  16.593  32.781  1.00  0.00     0.336 A 
ATOM     10  O   UNL     1      11.126  17.190  33.737  1.00  0.00    -0.246 OA
ATOM     11  O   UNL     1      12.679  17.188  32.124  1.00  0.00    -0.423 OA
ENDROOT
BRANCH   3  12
ATOM     12  O   UNL     1      16.051  17.342  28.722  1.00  0.00    -0.508 OA
ATOM     13  H   UNL     1      16.917  17.574  29.195  1.00  0.00     0.293 HD
ENDBRANCH   3  12
TORSDOF 1
ENDMDL
MODEL 7
REMARK VINA RESULT:    -4.056      1.654      2.523
REMARK INTER + INTRA:          -4.174
REMARK INTER:                  -4.174
REMARK INTRA:                   0.000
REMARK UNBOUND:                 0.000
REMARK SMILES O=c1ccc2ccc(O)cc2o1
REMARK SMILES IDX 6 1 7 2 8 3 10 4 11 5 5 6 4 7 3 8 2 9 1 10 12 11 9 12
REMARK H PARENT 9 13
REMARK Flexibility Score: inf
ROOT
ATOM      1  C   UNL     1      14.350  15.283  29.162  1.00  0.00     0.016 A 
ATOM      2  C   UNL     1      15.222  16.246  29.682  1.00  0.00     0.047 A 
ATOM      3  C   UNL     1      14.797  17.113  30.695  1.00  0.00     0.119 A 
ATOM      4  C   UNL     1      13.488  17.019  31.191  1.00  0.00     0.094 A 
ATOM      5  C   UNL     1      12.608  16.060  30.678  1.00  0.00     0.142 A 
ATOM      6  C   UNL     1      13.042  15.187  29.656  1.00  0.00     0.018 A 
ATOM      7  C   UNL     1      12.141  14.238  29.162  1.00  0.00     0.019 A 
ATOM      8  C   UNL     1      10.851  14.183  29.689  1.00  0.00     0.094 A 
ATOM      9  C   UNL     1      10.491  15.080  30.700  1.00  0.00     0.336 A 
ATOM     10  O   UNL     1       9.331  15.045  31.187  1.00  0.00    -0.246 OA
ATOM     11  O   UNL     1      11.368  15.973  31.152  1.00  0.00    -0.423 OA
ENDROOT
BRANCH   3  12
ATOM     12  O   UNL     1      15.679  18.065  31.199  1.00  0.00    -0.508 OA
ATOM     13  H   UNL     1      16.677  18.005  31.029  1.00  0.00     0.293 HD
ENDBRANCH   3  12
TORSDOF 1
ENDMDL
MODEL 8
REMARK VINA RESULT:    -4.029      1.609      4.748
REMARK INTER + INTRA:          -4.146
REMARK INTER:                  -4.146
REMARK INTRA:                   0.000
REMARK UNBOUND:                 0.000
REMARK SMILES O=c1ccc2ccc(O)cc2o1
REMARK SMILES IDX 6 1 7 2 8 3 10 4 11 5 5 6 4 7 3 8 2 9 1 10 12 11 9 12
REMARK H PARENT 9 13
REMARK Flexibility Score: inf
ROOT
ATOM      1  C   UNL     1      13.132  14.670  29.327  1.00  0.00     0.016 A 
ATOM      2  C   UNL     1      11.830  14.575  29.829  1.00  0.00     0.047 A 
ATOM      3  C   UNL     1      11.382  15.471  30.807  1.00  0.00     0.119 A 
ATOM      4  C   UNL     1      12.243  16.468  31.288  1.00  0.00     0.094 A 
ATOM      5  C   UNL     1      13.547  16.571  30.792  1.00  0.00     0.142 A 
ATOM      6  C   UNL     1      13.995  15.665  29.805  1.00  0.00     0.018 A 
ATOM      7  C   UNL     1      15.303  15.792  29.328  1.00  0.00     0.019 A 
ATOM      8  C   UNL     1      16.121  16.801  29.836  1.00  0.00     0.094 A 
ATOM      9  C   UNL     1      15.610  17.662  30.813  1.00  0.00     0.336 A 
ATOM     10  O   UNL     1      16.333  18.578  31.284  1.00  0.00    -0.246 OA
ATOM     11  O   UNL     1      14.361  17.519  31.250  1.00  0.00    -0.423 OA
ENDROOT
BRANCH   3  12
ATOM     12  O   UNL     1      10.082  15.360  31.295  1.00  0.00    -0.508 OA
ATOM     13  H   UNL     1       9.362  16.025  31.038  1.00  0.00     0.293 HD
ENDBRANCH   3  12
TORSDOF 1
ENDMDL
MODEL 9
REMARK VINA RESULT:    -3.996      2.557      4.894
REMARK INTER + INTRA:          -4.113
REMARK INTER:                  -4.113
REMARK INTRA:                   0.000
REMARK UNBOUND:                 0.000
REMARK SMILES O=c1ccc2ccc(O)cc2o1
REMARK SMILES IDX 6 1 7 2 8 3 10 4 11 5 5 6 4 7 3 8 2 9 1 10 12 11 9 12
REMARK H PARENT 9 13
REMARK Flexibility Score: inf
ROOT
ATOM      1  C   UNL     1      12.747  16.958  30.920  1.00  0.00     0.016 A 
ATOM      2  C   UNL     1      12.029  16.780  32.108  1.00  0.00     0.047 A 
ATOM      3  C   UNL     1      12.690  16.791  33.342  1.00  0.00     0.119 A 
ATOM      4  C   UNL     1      14.078  16.981  33.390  1.00  0.00     0.094 A 
ATOM      5  C   UNL     1      14.805  17.160  32.207  1.00  0.00     0.142 A 
ATOM      6  C   UNL     1      14.134  17.148  30.964  1.00  0.00     0.018 A 
ATOM      7  C   UNL     1      14.886  17.330  29.799  1.00  0.00     0.019 A 
ATOM      8  C   UNL     1      16.265  17.516  29.898  1.00  0.00     0.094 A 
ATOM      9  C   UNL     1      16.861  17.516  31.163  1.00  0.00     0.336 A 
ATOM     10  O   UNL     1      18.104  17.683  31.272  1.00  0.00    -0.246 OA
ATOM     11  O   UNL     1      16.122  17.341  32.256  1.00  0.00    -0.423 OA
ENDROOT
BRANCH   3  12
ATOM     12  O   UNL     1      11.958  16.612  34.513  1.00  0.00    -0.508 OA
ATOM     13  H   UNL     1      12.184  17.118  35.362  1.00  0.00     0.293 HD
ENDBRANCH   3  12
TORSDOF 1
ENDMDL
