MODEL 1
REMARK VINA RESULT:    -7.975      0.000      0.000
REMARK INTER + INTRA:          -8.691
REMARK INTER:                  -8.441
REMARK INTRA:                  -0.250
REMARK UNBOUND:                -0.250
REMARK SMILES O=c1cc(-c2ccccc2)oc2ccccc12
REMARK SMILES IDX 4 1 3 2 2 3 1 4 17 5 16 6 15 7 14 8 13 9 12 10 11 11 5 12
REMARK SMILES IDX 8 13 7 14 9 15 6 16 10 17
REMARK H PARENT
REMARK Flexibility Score: inf
ROOT
ATOM      1  C   UNL     1      11.142  42.832  17.142  1.00  0.00     0.138 A 
ATOM      2  C   UNL     1      12.176  43.789  17.223  1.00  0.00     0.100 A 
ATOM      3  C   UNL     1      11.854  45.145  17.302  1.00  0.00     0.193 A 
ATOM      4  O   UNL     1      12.778  46.000  17.375  1.00  0.00    -0.289 OA
ATOM      5  C   UNL     1      10.507  45.536  17.301  1.00  0.00     0.065 A 
ATOM      6  C   UNL     1      10.115  46.885  17.378  1.00  0.00     0.016 A 
ATOM      7  C   UNL     1       8.757  47.220  17.373  1.00  0.00     0.001 A 
ATOM      8  C   UNL     1       7.786  46.217  17.291  1.00  0.00     0.004 A 
ATOM      9  C   UNL     1       8.167  44.875  17.213  1.00  0.00     0.048 A 
ATOM     10  C   UNL     1       9.523  44.529  17.218  1.00  0.00     0.138 A 
ATOM     11  O   UNL     1       9.876  43.250  17.144  1.00  0.00    -0.456 OA
ENDROOT
BRANCH   1  12
ATOM     12  C   UNL     1      11.400  41.361  17.054  1.00  0.00     0.017 A 
ATOM     13  C   UNL     1      11.959  38.596  16.950  1.00  0.00     0.000 A 
ATOM     14  C   UNL     1      10.907  39.124  16.203  1.00  0.00     0.001 A 
ATOM     15  C   UNL     1      12.734  39.436  17.750  1.00  0.00     0.001 A 
ATOM     16  C   UNL     1      10.625  40.493  16.250  1.00  0.00     0.012 A 
ATOM     17  C   UNL     1      12.459  40.806  17.803  1.00  0.00     0.012 A 
ENDBRANCH   1  12
TORSDOF 1
ENDMDL
MODEL 2
REMARK VINA RESULT:    -7.664      1.259      5.839
REMARK INTER + INTRA:          -8.362
REMARK INTER:                  -8.106
REMARK INTRA:                  -0.255
REMARK UNBOUND:                -0.250
REMARK SMILES O=c1cc(-c2ccccc2)oc2ccccc12
REMARK SMILES IDX 4 1 3 2 2 3 1 4 17 5 16 6 15 7 14 8 13 9 12 10 11 11 5 12
REMARK SMILES IDX 8 13 7 14 9 15 6 16 10 17
REMARK H PARENT
REMARK Flexibility Score: inf
ROOT
ATOM      1  C   UNL     1      10.766  43.575  17.536  1.00  0.00     0.138 A 
ATOM      2  C   UNL     1      11.893  43.533  18.384  1.00  0.00     0.100 A 
ATOM      3  C   UNL     1      12.628  42.351  18.494  1.00  0.00     0.193 A 
ATOM      4  O   UNL     1      13.636  42.315  19.252  1.00  0.00    -0.289 OA
ATOM      5  C   UNL     1      12.237  41.224  17.758  1.00  0.00     0.065 A 
ATOM      6  C   UNL     1      12.933  40.003  17.824  1.00  0.00     0.016 A 
ATOM      7  C   UNL     1      12.500  38.908  17.069  1.00  0.00     0.001 A 
ATOM      8  C   UNL     1      11.373  39.023  16.249  1.00  0.00     0.004 A 
ATOM      9  C   UNL     1      10.675  40.231  16.179  1.00  0.00     0.048 A 
ATOM     10  C   UNL     1      11.101  41.332  16.929  1.00  0.00     0.138 A 
ATOM     11  O   UNL     1      10.430  42.477  16.855  1.00  0.00    -0.456 OA
ENDROOT
BRANCH   1  12
ATOM     12  C   UNL     1       9.923  44.798  17.361  1.00  0.00     0.017 A 
ATOM     13  C   UNL     1       8.412  47.162  17.048  1.00  0.00     0.000 A 
ATOM     14  C   UNL     1       7.800  45.917  16.904  1.00  0.00     0.001 A 
ATOM     15  C   UNL     1       9.773  47.237  17.346  1.00  0.00     0.001 A 
ATOM     16  C   UNL     1       8.543  44.743  17.058  1.00  0.00     0.012 A 
ATOM     17  C   UNL     1      10.523  46.067  17.502  1.00  0.00     0.012 A 
ENDBRANCH   1  12
TORSDOF 1
ENDMDL
MODEL 3
REMARK VINA RESULT:    -7.451      8.867     10.735
REMARK INTER + INTRA:          -8.137
REMARK INTER:                  -7.905
REMARK INTRA:                  -0.232
REMARK UNBOUND:                -0.250
REMARK SMILES O=c1cc(-c2ccccc2)oc2ccccc12
REMARK SMILES IDX 4 1 3 2 2 3 1 4 17 5 16 6 15 7 14 8 13 9 12 10 11 11 5 12
REMARK SMILES IDX 8 13 7 14 9 15 6 16 10 17
REMARK H PARENT
REMARK Flexibility Score: inf
ROOT
ATOM      1  C   UNL     1      13.167  39.292  25.211  1.00  0.00     0.138 A 
ATOM      2  C   UNL     1      12.720  38.144  25.900  1.00  0.00     0.100 A 
ATOM      3  C   UNL     1      12.796  38.104  27.293  1.00  0.00     0.193 A 
ATOM      4  O   UNL     1      12.396  37.077  27.907  1.00  0.00    -0.289 OA
ATOM      5  C   UNL     1      13.315  39.204  27.988  1.00  0.00     0.065 A 
ATOM      6  C   UNL     1      13.420  39.228  29.391  1.00  0.00     0.016 A 
ATOM      7  C   UNL     1      13.947  40.353  30.035  1.00  0.00     0.001 A 
ATOM      8  C   UNL     1      14.371  41.455  29.288  1.00  0.00     0.004 A 
ATOM      9  C   UNL     1      14.271  41.441  27.894  1.00  0.00     0.048 A 
ATOM     10  C   UNL     1      13.745  40.321  27.240  1.00  0.00     0.138 A 
ATOM     11  O   UNL     1      13.654  40.316  25.915  1.00  0.00    -0.456 OA
ENDROOT
BRANCH   1  12
ATOM     12  C   UNL     1      13.121  39.418  23.722  1.00  0.00     0.017 A 
ATOM     13  C   UNL     1      12.972  39.730  20.920  1.00  0.00     0.000 A 
ATOM     14  C   UNL     1      13.777  38.733  21.470  1.00  0.00     0.001 A 
ATOM     15  C   UNL     1      12.241  40.573  21.757  1.00  0.00     0.001 A 
ATOM     16  C   UNL     1      13.855  38.574  22.857  1.00  0.00     0.012 A 
ATOM     17  C   UNL     1      12.313  40.421  23.145  1.00  0.00     0.012 A 
ENDBRANCH   1  12
TORSDOF 1
ENDMDL
MODEL 4
REMARK VINA RESULT:    -7.422      1.962      5.952
REMARK INTER + INTRA:          -8.106
REMARK INTER:                  -7.874
REMARK INTRA:                  -0.232
REMARK UNBOUND:                -0.250
REMARK SMILES O=c1cc(-c2ccccc2)oc2ccccc12
REMARK SMILES IDX 4 1 3 2 2 3 1 4 17 5 16 6 15 7 14 8 13 9 12 10 11 11 5 12
REMARK SMILES IDX 8 13 7 14 9 15 6 16 10 17
REMARK H PARENT
REMARK Flexibility Score: inf
ROOT
ATOM      1  C   UNL     1      10.417  43.655  17.934  1.00  0.00     0.138 A 
ATOM      2  C   UNL     1      10.728  42.630  17.016  1.00  0.00     0.100 A 
ATOM      3  C   UNL     1      11.655  41.647  17.369  1.00  0.00     0.193 A 
ATOM      4  O   UNL     1      11.932  40.730  16.548  1.00  0.00    -0.289 OA
ATOM      5  C   UNL     1      12.263  41.694  18.631  1.00  0.00     0.065 A 
ATOM      6  C   UNL     1      13.205  40.737  19.050  1.00  0.00     0.016 A 
ATOM      7  C   UNL     1      13.782  40.831  20.320  1.00  0.00     0.001 A 
ATOM      8  C   UNL     1      13.426  41.876  21.178  1.00  0.00     0.004 A 
ATOM      9  C   UNL     1      12.492  42.832  20.771  1.00  0.00     0.048 A 
ATOM     10  C   UNL     1      11.908  42.746  19.502  1.00  0.00     0.138 A 
ATOM     11  O   UNL     1      11.020  43.660  19.123  1.00  0.00    -0.456 OA
ENDROOT
BRANCH   1  12
ATOM     12  C   UNL     1       9.437  44.745  17.636  1.00  0.00     0.017 A 
ATOM     13  C   UNL     1       7.659  46.867  17.082  1.00  0.00     0.000 A 
ATOM     14  C   UNL     1       7.193  45.552  17.102  1.00  0.00     0.001 A 
ATOM     15  C   UNL     1       9.005  47.131  17.336  1.00  0.00     0.001 A 
ATOM     16  C   UNL     1       8.069  44.497  17.375  1.00  0.00     0.012 A 
ATOM     17  C   UNL     1       9.887  46.082  17.610  1.00  0.00     0.012 A 
ENDBRANCH   1  12
TORSDOF 1
ENDMDL
MODEL 5
REMARK VINA RESULT:    -7.364      1.188      1.635
REMARK INTER + INTRA:          -8.044
REMARK INTER:                  -7.791
REMARK INTRA:                  -0.252
REMARK UNBOUND:                -0.250
REMARK SMILES O=c1cc(-c2ccccc2)oc2ccccc12
REMARK SMILES IDX 4 1 3 2 2 3 1 4 17 5 16 6 15 7 14 8 13 9 12 10 11 11 5 12
REMARK SMILES IDX 8 13 7 14 9 15 6 16 10 17
REMARK H PARENT
REMARK Flexibility Score: inf
ROOT
ATOM      1  C   UNL     1      11.430  43.290  17.921  1.00  0.00     0.138 A 
ATOM      2  C   UNL     1      12.030  44.522  17.585  1.00  0.00     0.100 A 
ATOM      3  C   UNL     1      11.224  45.625  17.298  1.00  0.00     0.193 A 
ATOM      4  O   UNL     1      11.761  46.727  16.998  1.00  0.00    -0.289 OA
ATOM      5  C   UNL     1       9.829  45.493  17.348  1.00  0.00     0.065 A 
ATOM      6  C   UNL     1       8.960  46.564  17.070  1.00  0.00     0.016 A 
ATOM      7  C   UNL     1       7.575  46.377  17.134  1.00  0.00     0.001 A 
ATOM      8  C   UNL     1       7.051  45.126  17.474  1.00  0.00     0.004 A 
ATOM      9  C   UNL     1       7.906  44.057  17.751  1.00  0.00     0.048 A 
ATOM     10  C   UNL     1       9.293  44.233  17.690  1.00  0.00     0.138 A 
ATOM     11  O   UNL     1      10.099  43.210  17.956  1.00  0.00    -0.456 OA
ENDROOT
BRANCH   1  12
ATOM     12  C   UNL     1      12.218  42.061  18.241  1.00  0.00     0.017 A 
ATOM     13  C   UNL     1      13.775  39.796  18.889  1.00  0.00     0.000 A 
ATOM     14  C   UNL     1      12.564  39.642  18.214  1.00  0.00     0.001 A 
ATOM     15  C   UNL     1      14.215  41.072  19.244  1.00  0.00     0.001 A 
ATOM     16  C   UNL     1      11.789  40.760  17.891  1.00  0.00     0.012 A 
ATOM     17  C   UNL     1      13.446  42.194  18.924  1.00  0.00     0.012 A 
ENDBRANCH   1  12
TORSDOF 1
ENDMDL
MODEL 6
REMARK VINA RESULT:    -7.317      8.223     10.544
REMARK INTER + INTRA:          -7.995
REMARK INTER:                  -7.770
REMARK INTRA:                  -0.225
REMARK UNBOUND:                -0.250
REMARK SMILES O=c1cc(-c2ccccc2)oc2ccccc12
REMARK SMILES IDX 4 1 3 2 2 3 1 4 17 5 16 6 15 7 14 8 13 9 12 10 11 11 5 12
REMARK SMILES IDX 8 13 7 14 9 15 6 16 10 17
REMARK H PARENT
REMARK Flexibility Score: inf
ROOT
ATOM      1  C   UNL     1      13.919  40.122  25.535  1.00  0.00     0.138 A 
ATOM      2  C   UNL     1      12.760  40.449  24.799  1.00  0.00     0.100 A 
ATOM      3  C   UNL     1      12.721  40.196  23.427  1.00  0.00     0.193 A 
ATOM      4  O   UNL     1      11.684  40.488  22.770  1.00  0.00    -0.289 OA
ATOM      5  C   UNL     1      13.834  39.619  22.799  1.00  0.00     0.065 A 
ATOM      6  C   UNL     1      13.861  39.338  21.421  1.00  0.00     0.016 A 
ATOM      7  C   UNL     1      14.998  38.762  20.846  1.00  0.00     0.001 A 
ATOM      8  C   UNL     1      16.111  38.465  21.637  1.00  0.00     0.004 A 
ATOM      9  C   UNL     1      16.095  38.741  23.007  1.00  0.00     0.048 A 
ATOM     10  C   UNL     1      14.961  39.316  23.592  1.00  0.00     0.138 A 
ATOM     11  O   UNL     1      14.954  39.575  24.896  1.00  0.00    -0.456 OA
ENDROOT
BRANCH   1  12
ATOM     12  C   UNL     1      14.043  40.360  27.006  1.00  0.00     0.017 A 
ATOM     13  C   UNL     1      14.262  40.716  29.798  1.00  0.00     0.000 A 
ATOM     14  C   UNL     1      14.427  41.803  28.941  1.00  0.00     0.001 A 
ATOM     15  C   UNL     1      13.988  39.452  29.273  1.00  0.00     0.001 A 
ATOM     16  C   UNL     1      14.320  41.633  27.557  1.00  0.00     0.012 A 
ATOM     17  C   UNL     1      13.880  39.274  27.891  1.00  0.00     0.012 A 
ENDBRANCH   1  12
TORSDOF 1
ENDMDL
MODEL 7
REMARK VINA RESULT:    -7.134      9.354     11.338
REMARK INTER + INTRA:          -7.800
REMARK INTER:                  -7.572
REMARK INTRA:                  -0.229
REMARK UNBOUND:                -0.250
REMARK SMILES O=c1cc(-c2ccccc2)oc2ccccc12
REMARK SMILES IDX 4 1 3 2 2 3 1 4 17 5 16 6 15 7 14 8 13 9 12 10 11 11 5 12
REMARK SMILES IDX 8 13 7 14 9 15 6 16 10 17
REMARK H PARENT
REMARK Flexibility Score: inf
ROOT
ATOM      1  C   UNL     1      13.401  40.053  26.937  1.00  0.00     0.138 A 
ATOM      2  C   UNL     1      13.515  38.647  26.897  1.00  0.00     0.100 A 
ATOM      3  C   UNL     1      13.595  37.998  25.664  1.00  0.00     0.193 A 
ATOM      4  O   UNL     1      13.697  36.741  25.629  1.00  0.00    -0.289 OA
ATOM      5  C   UNL     1      13.561  38.752  24.483  1.00  0.00     0.065 A 
ATOM      6  C   UNL     1      13.637  38.160  23.208  1.00  0.00     0.016 A 
ATOM      7  C   UNL     1      13.599  38.960  22.062  1.00  0.00     0.001 A 
ATOM      8  C   UNL     1      13.485  40.348  22.177  1.00  0.00     0.004 A 
ATOM      9  C   UNL     1      13.408  40.945  23.439  1.00  0.00     0.048 A 
ATOM     10  C   UNL     1      13.446  40.154  24.592  1.00  0.00     0.138 A 
ATOM     11  O   UNL     1      13.373  40.730  25.788  1.00  0.00    -0.456 OA
ENDROOT
BRANCH   1  12
ATOM     12  C   UNL     1      13.310  40.827  28.214  1.00  0.00     0.017 A 
ATOM     13  C   UNL     1      13.229  42.261  30.644  1.00  0.00     0.000 A 
ATOM     14  C   UNL     1      12.113  42.240  29.808  1.00  0.00     0.001 A 
ATOM     15  C   UNL     1      14.386  41.572  30.277  1.00  0.00     0.001 A 
ATOM     16  C   UNL     1      12.147  41.531  28.603  1.00  0.00     0.012 A 
ATOM     17  C   UNL     1      14.427  40.862  29.074  1.00  0.00     0.012 A 
ENDBRANCH   1  12
TORSDOF 1
ENDMDL
MODEL 8
REMARK VINA RESULT:    -6.865      8.421     10.068
REMARK INTER + INTRA:          -7.516
REMARK INTER:                  -7.280
REMARK INTRA:                  -0.236
REMARK UNBOUND:                -0.250
REMARK SMILES O=c1cc(-c2ccccc2)oc2ccccc12
REMARK SMILES IDX 4 1 3 2 2 3 1 4 17 5 16 6 15 7 14 8 13 9 12 10 11 11 5 12
REMARK SMILES IDX 8 13 7 14 9 15 6 16 10 17
REMARK H PARENT
REMARK Flexibility Score: inf
ROOT
ATOM      1  C   UNL     1      13.851  39.973  25.820  1.00  0.00     0.138 A 
ATOM      2  C   UNL     1      15.146  39.889  25.265  1.00  0.00     0.100 A 
ATOM      3  C   UNL     1      15.308  39.964  23.880  1.00  0.00     0.193 A 
ATOM      4  O   UNL     1      16.466  39.889  23.385  1.00  0.00    -0.289 OA
ATOM      5  C   UNL     1      14.181  40.121  23.061  1.00  0.00     0.065 A 
ATOM      6  C   UNL     1      14.275  40.203  21.659  1.00  0.00     0.016 A 
ATOM      7  C   UNL     1      13.118  40.360  20.889  1.00  0.00     0.001 A 
ATOM      8  C   UNL     1      11.867  40.435  21.507  1.00  0.00     0.004 A 
ATOM      9  C   UNL     1      11.764  40.354  22.899  1.00  0.00     0.048 A 
ATOM     10  C   UNL     1      12.915  40.198  23.679  1.00  0.00     0.138 A 
ATOM     11  O   UNL     1      12.808  40.122  25.002  1.00  0.00    -0.456 OA
ENDROOT
BRANCH   1  12
ATOM     12  C   UNL     1      13.589  39.902  27.290  1.00  0.00     0.017 A 
ATOM     13  C   UNL     1      13.156  39.842  30.079  1.00  0.00     0.000 A 
ATOM     14  C   UNL     1      12.504  38.929  29.252  1.00  0.00     0.001 A 
ATOM     15  C   UNL     1      14.023  40.786  29.527  1.00  0.00     0.001 A 
ATOM     16  C   UNL     1      12.714  38.953  27.870  1.00  0.00     0.012 A 
ATOM     17  C   UNL     1      14.238  40.817  28.146  1.00  0.00     0.012 A 
ENDBRANCH   1  12
TORSDOF 1
ENDMDL
MODEL 9
REMARK VINA RESULT:    -6.811      1.608      2.933
REMARK INTER + INTRA:          -7.459
REMARK INTER:                  -7.224
REMARK INTRA:                  -0.234
REMARK UNBOUND:                -0.250
REMARK SMILES O=c1cc(-c2ccccc2)oc2ccccc12
REMARK SMILES IDX 4 1 3 2 2 3 1 4 17 5 16 6 15 7 14 8 13 9 12 10 11 11 5 12
REMARK SMILES IDX 8 13 7 14 9 15 6 16 10 17
REMARK H PARENT
REMARK Flexibility Score: inf
ROOT
ATOM      1  C   UNL     1      11.166  43.015  18.472  1.00  0.00     0.138 A 
ATOM      2  C   UNL     1       9.850  42.843  18.952  1.00  0.00     0.100 A 
ATOM      3  C   UNL     1       8.934  43.890  18.836  1.00  0.00     0.193 A 
ATOM      4  O   UNL     1       7.757  43.736  19.264  1.00  0.00    -0.289 OA
ATOM      5  C   UNL     1       9.335  45.097  18.246  1.00  0.00     0.065 A 
ATOM      6  C   UNL     1       8.462  46.191  18.100  1.00  0.00     0.016 A 
ATOM      7  C   UNL     1       8.914  47.373  17.503  1.00  0.00     0.001 A 
ATOM      8  C   UNL     1      10.234  47.471  17.052  1.00  0.00     0.004 A 
ATOM      9  C   UNL     1      11.108  46.390  17.193  1.00  0.00     0.048 A 
ATOM     10  C   UNL     1      10.665  45.203  17.788  1.00  0.00     0.138 A 
ATOM     11  O   UNL     1      11.504  44.180  17.918  1.00  0.00    -0.456 OA
ENDROOT
BRANCH   1  12
ATOM     12  C   UNL     1      12.209  41.946  18.556  1.00  0.00     0.017 A 
ATOM     13  C   UNL     1      14.118  39.869  18.664  1.00  0.00     0.000 A 
ATOM     14  C   UNL     1      14.390  41.099  19.262  1.00  0.00     0.001 A 
ATOM     15  C   UNL     1      12.901  39.666  18.013  1.00  0.00     0.001 A 
ATOM     16  C   UNL     1      13.448  42.132  19.211  1.00  0.00     0.012 A 
ATOM     17  C   UNL     1      11.954  40.694  17.959  1.00  0.00     0.012 A 
ENDBRANCH   1  12
TORSDOF 1
ENDMDL
