MODEL 1
REMARK VINA RESULT:    -3.982      0.000      0.000
REMARK INTER + INTRA:          -6.230
REMARK INTER:                  -5.612
REMARK INTRA:                  -0.618
REMARK UNBOUND:                -0.618
REMARK SMILES CCCCCCCCC(=O)[O-]
REMARK SMILES IDX 6 1 7 2 8 3 9 4 10 5 11 6 5 7 4 8 3 9 2 10 1 11
REMARK H PARENT
REMARK Flexibility Score: inf
ROOT
ATOM      1  C   UNL     1       4.512 -28.832 -18.270  1.00  0.00     0.000 C 
ENDROOT
BRANCH   1   2
ATOM      2  C   UNL     1       5.278 -28.338 -17.037  1.00  0.00     0.006 C 
BRANCH   2   3
ATOM      3  C   UNL     1       6.438 -27.423 -17.442  1.00  0.00     0.053 C 
BRANCH   3   4
ATOM      4  C   UNL     1       7.750 -28.056 -17.094  1.00  0.00     0.041 C 
ATOM      5  O   UNL     1       8.744 -27.910 -17.853  1.00  0.00    -0.550 OA
ATOM      6  O   UNL     1       7.886 -28.765 -15.908  1.00  0.00    -0.550 OA
ENDBRANCH   3   4
ENDBRANCH   2   3
ENDBRANCH   1   2
BRANCH   1   7
ATOM      7  C   UNL     1       4.529 -30.363 -18.352  1.00  0.00     0.000 C 
BRANCH   7   8
ATOM      8  C   UNL     1       5.371 -30.965 -17.219  1.00  0.00    -0.000 C 
BRANCH   8   9
ATOM      9  C   UNL     1       6.566 -31.781 -17.738  1.00  0.00    -0.000 C 
BRANCH   9  10
ATOM     10  C   UNL     1       6.714 -31.707 -19.264  1.00  0.00    -0.003 C 
ATOM     11  C   UNL     1       7.078 -33.069 -19.848  1.00  0.00     0.004 C 
ENDBRANCH   9  10
ENDBRANCH   8   9
ENDBRANCH   7   8
ENDBRANCH   1   7
TORSDOF 7
ENDMDL
MODEL 2
REMARK VINA RESULT:    -3.913     14.313     16.124
REMARK INTER + INTRA:          -6.132
REMARK INTER:                  -5.453
REMARK INTRA:                  -0.680
REMARK UNBOUND:                -0.618
REMARK SMILES CCCCCCCCC(=O)[O-]
REMARK SMILES IDX 6 1 7 2 8 3 9 4 10 5 11 6 5 7 4 8 3 9 2 10 1 11
REMARK H PARENT
REMARK Flexibility Score: inf
ROOT
ATOM      1  C   UNL     1       1.934 -44.930 -17.432  1.00  0.00     0.000 C 
ENDROOT
BRANCH   1   2
ATOM      2  C   UNL     1       1.429 -43.982 -18.526  1.00  0.00     0.006 C 
BRANCH   2   3
ATOM      3  C   UNL     1       1.293 -42.553 -17.995  1.00  0.00     0.053 C 
BRANCH   3   4
ATOM      4  C   UNL     1      -0.129 -42.093 -18.084  1.00  0.00     0.041 C 
ATOM      5  O   UNL     1      -0.719 -42.073 -19.196  1.00  0.00    -0.550 OA
ATOM      6  O   UNL     1      -0.817 -41.735 -16.932  1.00  0.00    -0.550 OA
ENDBRANCH   3   4
ENDBRANCH   2   3
ENDBRANCH   1   2
BRANCH   1   7
ATOM      7  C   UNL     1       1.287 -46.315 -17.560  1.00  0.00     0.000 C 
BRANCH   7   8
ATOM      8  C   UNL     1      -0.234 -46.230 -17.371  1.00  0.00    -0.000 C 
BRANCH   8   9
ATOM      9  C   UNL     1      -0.632 -45.465 -16.099  1.00  0.00    -0.000 C 
BRANCH   9  10
ATOM     10  C   UNL     1      -2.076 -44.946 -16.149  1.00  0.00    -0.003 C 
ATOM     11  C   UNL     1      -2.665 -45.095 -17.548  1.00  0.00     0.004 C 
ENDBRANCH   9  10
ENDBRANCH   8   9
ENDBRANCH   7   8
ENDBRANCH   1   7
TORSDOF 7
ENDMDL
MODEL 3
REMARK VINA RESULT:    -3.879      3.770      5.871
REMARK INTER + INTRA:          -6.084
REMARK INTER:                  -5.924
REMARK INTRA:                  -0.160
REMARK UNBOUND:                -0.618
REMARK SMILES CCCCCCCCC(=O)[O-]
REMARK SMILES IDX 6 1 7 2 8 3 9 4 10 5 11 6 5 7 4 8 3 9 2 10 1 11
REMARK H PARENT
REMARK Flexibility Score: inf
ROOT
ATOM      1  C   UNL     1       7.122 -31.845 -18.518  1.00  0.00     0.000 C 
ENDROOT
BRANCH   1   2
ATOM      2  C   UNL     1       6.579 -32.522 -19.782  1.00  0.00     0.006 C 
BRANCH   2   3
ATOM      3  C   UNL     1       7.455 -33.710 -20.188  1.00  0.00     0.053 C 
BRANCH   3   4
ATOM      4  C   UNL     1       6.644 -34.734 -20.919  1.00  0.00     0.041 C 
ATOM      5  O   UNL     1       5.969 -34.403 -21.930  1.00  0.00    -0.550 OA
ATOM      6  O   UNL     1       6.672 -36.062 -20.514  1.00  0.00    -0.550 OA
ENDBRANCH   3   4
ENDBRANCH   2   3
ENDBRANCH   1   2
BRANCH   1   7
ATOM      7  C   UNL     1       6.253 -30.645 -18.120  1.00  0.00     0.000 C 
BRANCH   7   8
ATOM      8  C   UNL     1       7.000 -29.727 -17.141  1.00  0.00    -0.000 C 
BRANCH   8   9
ATOM      9  C   UNL     1       7.191 -28.305 -17.691  1.00  0.00    -0.000 C 
BRANCH   9  10
ATOM     10  C   UNL     1       6.166 -27.310 -17.126  1.00  0.00    -0.003 C 
ATOM     11  C   UNL     1       4.887 -27.308 -17.958  1.00  0.00     0.004 C 
ENDBRANCH   9  10
ENDBRANCH   8   9
ENDBRANCH   7   8
ENDBRANCH   1   7
TORSDOF 7
ENDMDL
MODEL 4
REMARK VINA RESULT:    -3.798     14.130     15.821
REMARK INTER + INTRA:          -5.970
REMARK INTER:                  -5.225
REMARK INTRA:                  -0.745
REMARK UNBOUND:                -0.618
REMARK SMILES CCCCCCCCC(=O)[O-]
REMARK SMILES IDX 6 1 7 2 8 3 9 4 10 5 11 6 5 7 4 8 3 9 2 10 1 11
REMARK H PARENT
REMARK Flexibility Score: inf
ROOT
ATOM      1  C   UNL     1      -1.261 -44.517 -16.220  1.00  0.00     0.000 C 
ENDROOT
BRANCH   1   2
ATOM      2  C   UNL     1      -1.040 -43.055 -16.625  1.00  0.00     0.006 C 
BRANCH   2   3
ATOM      3  C   UNL     1      -1.390 -42.836 -18.100  1.00  0.00     0.053 C 
BRANCH   3   4
ATOM      4  C   UNL     1      -0.348 -41.991 -18.765  1.00  0.00     0.041 C 
ATOM      5  O   UNL     1       0.852 -42.052 -18.387  1.00  0.00    -0.550 OA
ATOM      6  O   UNL     1      -0.693 -41.174 -19.833  1.00  0.00    -0.550 OA
ENDBRANCH   3   4
ENDBRANCH   2   3
ENDBRANCH   1   2
BRANCH   1   7
ATOM      7  C   UNL     1      -1.424 -45.412 -17.455  1.00  0.00     0.000 C 
BRANCH   7   8
ATOM      8  C   UNL     1      -0.273 -46.423 -17.557  1.00  0.00    -0.000 C 
BRANCH   8   9
ATOM      9  C   UNL     1       1.058 -45.767 -17.959  1.00  0.00    -0.000 C 
BRANCH   9  10
ATOM     10  C   UNL     1       2.109 -45.830 -16.841  1.00  0.00    -0.003 C 
ATOM     11  C   UNL     1       2.695 -44.450 -16.559  1.00  0.00     0.004 C 
ENDBRANCH   9  10
ENDBRANCH   8   9
ENDBRANCH   7   8
ENDBRANCH   1   7
TORSDOF 7
ENDMDL
MODEL 5
REMARK VINA RESULT:    -3.750      4.802      7.033
REMARK INTER + INTRA:          -5.902
REMARK INTER:                  -5.679
REMARK INTRA:                  -0.223
REMARK UNBOUND:                -0.618
REMARK SMILES CCCCCCCCC(=O)[O-]
REMARK SMILES IDX 6 1 7 2 8 3 9 4 10 5 11 6 5 7 4 8 3 9 2 10 1 11
REMARK H PARENT
REMARK Flexibility Score: inf
ROOT
ATOM      1  C   UNL     1       7.440 -33.764 -20.273  1.00  0.00     0.000 C 
ENDROOT
BRANCH   1   2
ATOM      2  C   UNL     1       6.725 -35.063 -20.663  1.00  0.00     0.006 C 
BRANCH   2   3
ATOM      3  C   UNL     1       6.065 -34.934 -22.039  1.00  0.00     0.053 C 
BRANCH   3   4
ATOM      4  C   UNL     1       6.533 -36.027 -22.948  1.00  0.00     0.041 C 
ATOM      5  O   UNL     1       6.266 -35.986 -24.178  1.00  0.00    -0.550 OA
ATOM      6  O   UNL     1       7.307 -37.066 -22.446  1.00  0.00    -0.550 OA
ENDBRANCH   3   4
ENDBRANCH   2   3
ENDBRANCH   1   2
BRANCH   1   7
ATOM      7  C   UNL     1       6.437 -32.699 -19.812  1.00  0.00     0.000 C 
BRANCH   7   8
ATOM      8  C   UNL     1       7.080 -31.738 -18.802  1.00  0.00    -0.000 C 
BRANCH   8   9
ATOM      9  C   UNL     1       6.094 -31.265 -17.723  1.00  0.00    -0.000 C 
BRANCH   9  10
ATOM     10  C   UNL     1       4.812 -30.663 -18.317  1.00  0.00    -0.003 C 
ATOM     11  C   UNL     1       4.829 -29.140 -18.230  1.00  0.00     0.004 C 
ENDBRANCH   9  10
ENDBRANCH   8   9
ENDBRANCH   7   8
ENDBRANCH   1   7
TORSDOF 7
ENDMDL
MODEL 6
REMARK VINA RESULT:    -3.693      2.539      4.193
REMARK INTER + INTRA:          -5.822
REMARK INTER:                  -5.142
REMARK INTRA:                  -0.680
REMARK UNBOUND:                -0.618
REMARK SMILES CCCCCCCCC(=O)[O-]
REMARK SMILES IDX 6 1 7 2 8 3 9 4 10 5 11 6 5 7 4 8 3 9 2 10 1 11
REMARK H PARENT
REMARK Flexibility Score: inf
ROOT
ATOM      1  C   UNL     1       4.925 -29.415 -18.463  1.00  0.00     0.000 C 
ENDROOT
BRANCH   1   2
ATOM      2  C   UNL     1       4.214 -30.674 -17.952  1.00  0.00     0.006 C 
BRANCH   2   3
ATOM      3  C   UNL     1       4.157 -30.688 -16.422  1.00  0.00     0.053 C 
BRANCH   3   4
ATOM      4  C   UNL     1       5.030 -31.775 -15.875  1.00  0.00     0.041 C 
ATOM      5  O   UNL     1       4.516 -32.824 -15.407  1.00  0.00    -0.550 OA
ATOM      6  O   UNL     1       6.412 -31.649 -15.929  1.00  0.00    -0.550 OA
ENDBRANCH   3   4
ENDBRANCH   2   3
ENDBRANCH   1   2
BRANCH   1   7
ATOM      7  C   UNL     1       4.522 -28.183 -17.643  1.00  0.00     0.000 C 
BRANCH   7   8
ATOM      8  C   UNL     1       5.755 -27.358 -17.249  1.00  0.00    -0.000 C 
BRANCH   8   9
ATOM      9  C   UNL     1       6.548 -27.991 -16.094  1.00  0.00    -0.000 C 
BRANCH   9  10
ATOM     10  C   UNL     1       7.929 -28.499 -16.533  1.00  0.00    -0.003 C 
ATOM     11  C   UNL     1       8.349 -27.870 -17.859  1.00  0.00     0.004 C 
ENDBRANCH   9  10
ENDBRANCH   8   9
ENDBRANCH   7   8
ENDBRANCH   1   7
TORSDOF 7
ENDMDL
MODEL 7
REMARK VINA RESULT:    -3.677      2.028      3.301
REMARK INTER + INTRA:          -5.800
REMARK INTER:                  -5.678
REMARK INTRA:                  -0.122
REMARK UNBOUND:                -0.618
REMARK SMILES CCCCCCCCC(=O)[O-]
REMARK SMILES IDX 6 1 7 2 8 3 9 4 10 5 11 6 5 7 4 8 3 9 2 10 1 11
REMARK H PARENT
REMARK Flexibility Score: inf
ROOT
ATOM      1  C   UNL     1       7.230 -31.644 -18.418  1.00  0.00     0.000 C 
ENDROOT
BRANCH   1   2
ATOM      2  C   UNL     1       6.454 -30.447 -17.857  1.00  0.00     0.006 C 
BRANCH   2   3
ATOM      3  C   UNL     1       7.368 -29.541 -17.027  1.00  0.00     0.053 C 
BRANCH   3   4
ATOM      4  C   UNL     1       7.302 -28.131 -17.526  1.00  0.00     0.041 C 
ATOM      5  O   UNL     1       8.355 -27.527 -17.857  1.00  0.00    -0.550 OA
ATOM      6  O   UNL     1       6.072 -27.503 -17.672  1.00  0.00    -0.550 OA
ENDBRANCH   3   4
ENDBRANCH   2   3
ENDBRANCH   1   2
BRANCH   1   7
ATOM      7  C   UNL     1       6.454 -32.318 -19.558  1.00  0.00     0.000 C 
BRANCH   7   8
ATOM      8  C   UNL     1       7.251 -33.492 -20.145  1.00  0.00    -0.000 C 
BRANCH   8   9
ATOM      9  C   UNL     1       6.440 -34.306 -21.166  1.00  0.00    -0.000 C 
BRANCH   9  10
ATOM     10  C   UNL     1       6.461 -35.813 -20.871  1.00  0.00    -0.003 C 
ATOM     11  C   UNL     1       6.137 -36.623 -22.123  1.00  0.00     0.004 C 
ENDBRANCH   9  10
ENDBRANCH   8   9
ENDBRANCH   7   8
ENDBRANCH   1   7
TORSDOF 7
ENDMDL
MODEL 8
REMARK VINA RESULT:    -3.621     12.733     14.167
REMARK INTER + INTRA:          -5.721
REMARK INTER:                  -5.450
REMARK INTRA:                  -0.271
REMARK UNBOUND:                -0.618
REMARK SMILES CCCCCCCCC(=O)[O-]
REMARK SMILES IDX 6 1 7 2 8 3 9 4 10 5 11 6 5 7 4 8 3 9 2 10 1 11
REMARK H PARENT
REMARK Flexibility Score: inf
ROOT
ATOM      1  C   UNL     1      -1.702 -40.758 -19.141  1.00  0.00     0.000 C 
ENDROOT
BRANCH   1   2
ATOM      2  C   UNL     1      -2.011 -40.014 -20.446  1.00  0.00     0.006 C 
BRANCH   2   3
ATOM      3  C   UNL     1      -0.723 -39.668 -21.199  1.00  0.00     0.053 C 
BRANCH   3   4
ATOM      4  C   UNL     1      -0.777 -38.262 -21.711  1.00  0.00     0.041 C 
ATOM      5  O   UNL     1      -1.452 -37.988 -22.738  1.00  0.00    -0.550 OA
ATOM      6  O   UNL     1      -0.123 -37.247 -21.025  1.00  0.00    -0.550 OA
ENDBRANCH   3   4
ENDBRANCH   2   3
ENDBRANCH   1   2
BRANCH   1   7
ATOM      7  C   UNL     1      -0.396 -41.553 -19.257  1.00  0.00     0.000 C 
BRANCH   7   8
ATOM      8  C   UNL     1      -0.298 -42.613 -18.150  1.00  0.00    -0.000 C 
BRANCH   8   9
ATOM      9  C   UNL     1      -1.614 -43.380 -17.947  1.00  0.00    -0.000 C 
BRANCH   9  10
ATOM     10  C   UNL     1      -1.388 -44.854 -17.578  1.00  0.00    -0.003 C 
ATOM     11  C   UNL     1      -2.679 -45.656 -17.709  1.00  0.00     0.004 C 
ENDBRANCH   9  10
ENDBRANCH   8   9
ENDBRANCH   7   8
ENDBRANCH   1   7
TORSDOF 7
ENDMDL
MODEL 9
REMARK VINA RESULT:    -3.516     14.356     16.081
REMARK INTER + INTRA:          -5.573
REMARK INTER:                  -5.013
REMARK INTRA:                  -0.561
REMARK UNBOUND:                -0.618
REMARK SMILES CCCCCCCCC(=O)[O-]
REMARK SMILES IDX 6 1 7 2 8 3 9 4 10 5 11 6 5 7 4 8 3 9 2 10 1 11
REMARK H PARENT
REMARK Flexibility Score: inf
ROOT
ATOM      1  C   UNL     1      -1.251 -45.347 -16.869  1.00  0.00     0.000 C 
ENDROOT
BRANCH   1   2
ATOM      2  C   UNL     1      -1.651 -44.235 -17.847  1.00  0.00     0.006 C 
BRANCH   2   3
ATOM      3  C   UNL     1      -1.063 -42.888 -17.416  1.00  0.00     0.053 C 
BRANCH   3   4
ATOM      4  C   UNL     1      -0.166 -42.343 -18.482  1.00  0.00     0.041 C 
ATOM      5  O   UNL     1      -0.644 -41.655 -19.422  1.00  0.00    -0.550 OA
ATOM      6  O   UNL     1       1.206 -42.553 -18.411  1.00  0.00    -0.550 OA
ENDBRANCH   3   4
ENDBRANCH   2   3
ENDBRANCH   1   2
BRANCH   1   7
ATOM      7  C   UNL     1      -0.286 -46.340 -17.530  1.00  0.00     0.000 C 
BRANCH   7   8
ATOM      8  C   UNL     1       1.174 -45.962 -17.242  1.00  0.00    -0.000 C 
BRANCH   8   9
ATOM      9  C   UNL     1       1.351 -45.281 -15.875  1.00  0.00    -0.000 C 
BRANCH   9  10
ATOM     10  C   UNL     1       2.825 -45.174 -15.456  1.00  0.00    -0.003 C 
ATOM     11  C   UNL     1       3.616 -46.395 -15.915  1.00  0.00     0.004 C 
ENDBRANCH   9  10
ENDBRANCH   8   9
ENDBRANCH   7   8
ENDBRANCH   1   7
TORSDOF 7
ENDMDL
