MODEL 1
REMARK VINA RESULT:    -3.684      0.000      0.000
REMARK INTER + INTRA:          -5.883
REMARK INTER:                  -5.192
REMARK INTRA:                  -0.691
REMARK UNBOUND:                -0.691
REMARK SMILES CCCCCCCCC(=O)[O-]
REMARK SMILES IDX 6 1 7 2 8 3 9 4 10 5 11 6 5 7 4 8 3 9 2 10 1 11
REMARK H PARENT
REMARK Flexibility Score: inf
ROOT
ATOM      1  C   UNL     1     175.098 179.614 178.679  1.00  0.00     0.000 C 
ENDROOT
BRANCH   1   2
ATOM      2  C   UNL     1     173.803 178.892 179.097  1.00  0.00     0.006 C 
BRANCH   2   3
ATOM      3  C   UNL     1     173.248 179.330 180.462  1.00  0.00     0.053 C 
BRANCH   3   4
ATOM      4  C   UNL     1     171.765 179.540 180.424  1.00  0.00     0.041 C 
ATOM      5  O   UNL     1     171.233 180.123 179.443  1.00  0.00    -0.550 OA
ATOM      6  O   UNL     1     170.976 179.121 181.487  1.00  0.00    -0.550 OA
ENDBRANCH   3   4
ENDBRANCH   2   3
ENDBRANCH   1   2
BRANCH   1   7
ATOM      7  C   UNL     1     176.232 178.641 178.320  1.00  0.00     0.000 C 
BRANCH   7   8
ATOM      8  C   UNL     1     177.354 178.697 179.365  1.00  0.00    -0.000 C 
BRANCH   8   9
ATOM      9  C   UNL     1     177.211 179.937 180.259  1.00  0.00    -0.000 C 
BRANCH   9  10
ATOM     10  C   UNL     1     177.029 179.578 181.741  1.00  0.00    -0.003 C 
ATOM     11  C   UNL     1     176.585 178.131 181.949  1.00  0.00     0.004 C 
ENDBRANCH   9  10
ENDBRANCH   8   9
ENDBRANCH   7   8
ENDBRANCH   1   7
TORSDOF 7
ENDMDL
MODEL 2
REMARK VINA RESULT:    -3.668     12.109     13.273
REMARK INTER + INTRA:          -5.861
REMARK INTER:                  -5.129
REMARK INTRA:                  -0.732
REMARK UNBOUND:                -0.691
REMARK SMILES CCCCCCCCC(=O)[O-]
REMARK SMILES IDX 6 1 7 2 8 3 9 4 10 5 11 6 5 7 4 8 3 9 2 10 1 11
REMARK H PARENT
REMARK Flexibility Score: inf
ROOT
ATOM      1  C   UNL     1     161.488 177.785 178.682  1.00  0.00     0.000 C 
ENDROOT
BRANCH   1   2
ATOM      2  C   UNL     1     161.986 176.413 179.176  1.00  0.00     0.006 C 
BRANCH   2   3
ATOM      3  C   UNL     1     161.572 176.074 180.618  1.00  0.00     0.053 C 
BRANCH   3   4
ATOM      4  C   UNL     1     160.641 174.902 180.673  1.00  0.00     0.041 C 
ATOM      5  O   UNL     1     160.551 174.211 181.722  1.00  0.00    -0.550 OA
ATOM      6  O   UNL     1     159.895 174.554 179.554  1.00  0.00    -0.550 OA
ENDBRANCH   3   4
ENDBRANCH   2   3
ENDBRANCH   1   2
BRANCH   1   7
ATOM      7  C   UNL     1     162.622 178.668 178.139  1.00  0.00     0.000 C 
BRANCH   7   8
ATOM      8  C   UNL     1     163.097 179.667 179.203  1.00  0.00    -0.000 C 
BRANCH   8   9
ATOM      9  C   UNL     1     161.950 180.045 180.152  1.00  0.00    -0.000 C 
BRANCH   9  10
ATOM     10  C   UNL     1     162.283 179.757 181.624  1.00  0.00    -0.003 C 
ATOM     11  C   UNL     1     163.587 178.979 181.794  1.00  0.00     0.004 C 
ENDBRANCH   9  10
ENDBRANCH   8   9
ENDBRANCH   7   8
ENDBRANCH   1   7
TORSDOF 7
ENDMDL
MODEL 3
REMARK VINA RESULT:    -3.603      1.209      2.500
REMARK INTER + INTRA:          -5.768
REMARK INTER:                  -5.187
REMARK INTRA:                  -0.582
REMARK UNBOUND:                -0.691
REMARK SMILES CCCCCCCCC(=O)[O-]
REMARK SMILES IDX 6 1 7 2 8 3 9 4 10 5 11 6 5 7 4 8 3 9 2 10 1 11
REMARK H PARENT
REMARK Flexibility Score: inf
ROOT
ATOM      1  C   UNL     1     174.309 177.927 180.922  1.00  0.00     0.000 C 
ENDROOT
BRANCH   1   2
ATOM      2  C   UNL     1     173.773 179.366 181.036  1.00  0.00     0.006 C 
BRANCH   2   3
ATOM      3  C   UNL     1     172.243 179.462 181.168  1.00  0.00     0.053 C 
BRANCH   3   4
ATOM      4  C   UNL     1     171.568 179.512 179.831  1.00  0.00     0.041 C 
ATOM      5  O   UNL     1     170.325 179.334 179.742  1.00  0.00    -0.550 OA
ATOM      6  O   UNL     1     172.318 179.724 178.682  1.00  0.00    -0.550 OA
ENDBRANCH   3   4
ENDBRANCH   2   3
ENDBRANCH   1   2
BRANCH   1   7
ATOM      7  C   UNL     1     175.650 177.732 181.647  1.00  0.00     0.000 C 
BRANCH   7   8
ATOM      8  C   UNL     1     176.555 178.957 181.466  1.00  0.00    -0.000 C 
BRANCH   8   9
ATOM      9  C   UNL     1     177.314 178.887 180.133  1.00  0.00    -0.000 C 
BRANCH   9  10
ATOM     10  C   UNL     1     177.052 180.109 179.240  1.00  0.00    -0.003 C 
ATOM     11  C   UNL     1     176.041 179.825 178.130  1.00  0.00     0.004 C 
ENDBRANCH   9  10
ENDBRANCH   8   9
ENDBRANCH   7   8
ENDBRANCH   1   7
TORSDOF 7
ENDMDL
MODEL 4
REMARK VINA RESULT:    -3.581      9.739     11.884
REMARK INTER + INTRA:          -5.738
REMARK INTER:                  -4.973
REMARK INTRA:                  -0.765
REMARK UNBOUND:                -0.691
REMARK SMILES CCCCCCCCC(=O)[O-]
REMARK SMILES IDX 6 1 7 2 8 3 9 4 10 5 11 6 5 7 4 8 3 9 2 10 1 11
REMARK H PARENT
REMARK Flexibility Score: inf
ROOT
ATOM      1  C   UNL     1     161.722 180.092 180.904  1.00  0.00     0.000 C 
ENDROOT
BRANCH   1   2
ATOM      2  C   UNL     1     161.939 180.124 179.379  1.00  0.00     0.006 C 
BRANCH   2   3
ATOM      3  C   UNL     1     161.795 178.757 178.691  1.00  0.00     0.053 C 
BRANCH   3   4
ATOM      4  C   UNL     1     162.594 178.679 177.426  1.00  0.00     0.041 C 
ATOM      5  O   UNL     1     162.418 177.725 176.623  1.00  0.00    -0.550 OA
ATOM      6  O   UNL     1     163.555 179.643 177.151  1.00  0.00    -0.550 OA
ENDBRANCH   3   4
ENDBRANCH   2   3
ENDBRANCH   1   2
BRANCH   1   7
ATOM      7  C   UNL     1     162.142 178.756 181.536  1.00  0.00     0.000 C 
BRANCH   7   8
ATOM      8  C   UNL     1     163.618 178.785 181.952  1.00  0.00    -0.000 C 
BRANCH   8   9
ATOM      9  C   UNL     1     164.423 177.718 181.197  1.00  0.00    -0.000 C 
BRANCH   9  10
ATOM     10  C   UNL     1     165.623 178.309 180.441  1.00  0.00    -0.003 C 
ATOM     11  C   UNL     1     165.602 179.836 180.398  1.00  0.00     0.004 C 
ENDBRANCH   9  10
ENDBRANCH   8   9
ENDBRANCH   7   8
ENDBRANCH   1   7
TORSDOF 7
ENDMDL
MODEL 5
REMARK VINA RESULT:    -3.543     11.824     13.004
REMARK INTER + INTRA:          -5.685
REMARK INTER:                  -4.954
REMARK INTRA:                  -0.731
REMARK UNBOUND:                -0.691
REMARK SMILES CCCCCCCCC(=O)[O-]
REMARK SMILES IDX 6 1 7 2 8 3 9 4 10 5 11 6 5 7 4 8 3 9 2 10 1 11
REMARK H PARENT
REMARK Flexibility Score: inf
ROOT
ATOM      1  C   UNL     1     162.174 180.098 180.503  1.00  0.00     0.000 C 
ENDROOT
BRANCH   1   2
ATOM      2  C   UNL     1     163.055 179.773 179.281  1.00  0.00     0.006 C 
BRANCH   2   3
ATOM      3  C   UNL     1     162.269 179.527 177.983  1.00  0.00     0.053 C 
BRANCH   3   4
ATOM      4  C   UNL     1     162.057 178.067 177.723  1.00  0.00     0.041 C 
ATOM      5  O   UNL     1     160.898 177.578 177.761  1.00  0.00    -0.550 OA
ATOM      6  O   UNL     1     163.145 177.241 177.473  1.00  0.00    -0.550 OA
ENDBRANCH   3   4
ENDBRANCH   2   3
ENDBRANCH   1   2
BRANCH   1   7
ATOM      7  C   UNL     1     162.128 178.952 181.525  1.00  0.00     0.000 C 
BRANCH   7   8
ATOM      8  C   UNL     1     163.317 178.001 181.337  1.00  0.00    -0.000 C 
BRANCH   8   9
ATOM      9  C   UNL     1     162.837 176.572 181.047  1.00  0.00    -0.000 C 
BRANCH   9  10
ATOM     10  C   UNL     1     161.305 176.447 181.072  1.00  0.00    -0.003 C 
ATOM     11  C   UNL     1     160.831 174.994 181.081  1.00  0.00     0.004 C 
ENDBRANCH   9  10
ENDBRANCH   8   9
ENDBRANCH   7   8
ENDBRANCH   1   7
TORSDOF 7
ENDMDL
MODEL 6
REMARK VINA RESULT:    -3.531     12.557     13.619
REMARK INTER + INTRA:          -5.667
REMARK INTER:                  -5.141
REMARK INTRA:                  -0.526
REMARK UNBOUND:                -0.691
REMARK SMILES CCCCCCCCC(=O)[O-]
REMARK SMILES IDX 6 1 7 2 8 3 9 4 10 5 11 6 5 7 4 8 3 9 2 10 1 11
REMARK H PARENT
REMARK Flexibility Score: inf
ROOT
ATOM      1  C   UNL     1     163.064 177.697 181.125  1.00  0.00     0.000 C 
ENDROOT
BRANCH   1   2
ATOM      2  C   UNL     1     161.805 176.809 181.127  1.00  0.00     0.006 C 
BRANCH   2   3
ATOM      3  C   UNL     1     162.062 175.347 180.728  1.00  0.00     0.053 C 
BRANCH   3   4
ATOM      4  C   UNL     1     160.822 174.512 180.829  1.00  0.00     0.041 C 
ATOM      5  O   UNL     1     160.648 173.753 181.818  1.00  0.00    -0.550 OA
ATOM      6  O   UNL     1     159.875 174.548 179.814  1.00  0.00    -0.550 OA
ENDBRANCH   3   4
ENDBRANCH   2   3
ENDBRANCH   1   2
BRANCH   1   7
ATOM      7  C   UNL     1     162.864 179.016 181.886  1.00  0.00     0.000 C 
BRANCH   7   8
ATOM      8  C   UNL     1     161.983 179.984 181.085  1.00  0.00    -0.000 C 
BRANCH   8   9
ATOM      9  C   UNL     1     162.490 180.121 179.642  1.00  0.00    -0.000 C 
BRANCH   9  10
ATOM     10  C   UNL     1     161.408 179.793 178.602  1.00  0.00    -0.003 C 
ATOM     11  C   UNL     1     161.711 178.518 177.815  1.00  0.00     0.004 C 
ENDBRANCH   9  10
ENDBRANCH   8   9
ENDBRANCH   7   8
ENDBRANCH   1   7
TORSDOF 7
ENDMDL
MODEL 7
REMARK VINA RESULT:    -3.498      1.802      3.109
REMARK INTER + INTRA:          -5.620
REMARK INTER:                  -4.862
REMARK INTRA:                  -0.759
REMARK UNBOUND:                -0.691
REMARK SMILES CCCCCCCCC(=O)[O-]
REMARK SMILES IDX 6 1 7 2 8 3 9 4 10 5 11 6 5 7 4 8 3 9 2 10 1 11
REMARK H PARENT
REMARK Flexibility Score: inf
ROOT
ATOM      1  C   UNL     1     177.268 179.769 179.752  1.00  0.00     0.000 C 
ENDROOT
BRANCH   1   2
ATOM      2  C   UNL     1     176.228 180.125 178.673  1.00  0.00     0.006 C 
BRANCH   2   3
ATOM      3  C   UNL     1     175.468 178.914 178.106  1.00  0.00     0.053 C 
BRANCH   3   4
ATOM      4  C   UNL     1     174.010 178.956 178.451  1.00  0.00     0.041 C 
ATOM      5  O   UNL     1     173.613 179.619 179.444  1.00  0.00    -0.550 OA
ATOM      6  O   UNL     1     173.096 178.235 177.693  1.00  0.00    -0.550 OA
ENDBRANCH   3   4
ENDBRANCH   2   3
ENDBRANCH   1   2
BRANCH   1   7
ATOM      7  C   UNL     1     176.659 179.682 181.160  1.00  0.00     0.000 C 
BRANCH   7   8
ATOM      8  C   UNL     1     176.936 178.312 181.793  1.00  0.00    -0.000 C 
BRANCH   8   9
ATOM      9  C   UNL     1     175.923 177.266 181.304  1.00  0.00    -0.000 C 
BRANCH   9  10
ATOM     10  C   UNL     1     176.597 176.066 180.622  1.00  0.00    -0.003 C 
ATOM     11  C   UNL     1     178.103 176.254 180.446  1.00  0.00     0.004 C 
ENDBRANCH   9  10
ENDBRANCH   8   9
ENDBRANCH   7   8
ENDBRANCH   1   7
TORSDOF 7
ENDMDL
MODEL 8
REMARK VINA RESULT:    -3.477     10.816     12.517
REMARK INTER + INTRA:          -5.592
REMARK INTER:                  -4.901
REMARK INTRA:                  -0.691
REMARK UNBOUND:                -0.691
REMARK SMILES CCCCCCCCC(=O)[O-]
REMARK SMILES IDX 6 1 7 2 8 3 9 4 10 5 11 6 5 7 4 8 3 9 2 10 1 11
REMARK H PARENT
REMARK Flexibility Score: inf
ROOT
ATOM      1  C   UNL     1     162.180 180.098 179.390  1.00  0.00     0.000 C 
ENDROOT
BRANCH   1   2
ATOM      2  C   UNL     1     161.486 178.996 178.568  1.00  0.00     0.006 C 
BRANCH   2   3
ATOM      3  C   UNL     1     162.451 177.998 177.908  1.00  0.00     0.053 C 
BRANCH   3   4
ATOM      4  C   UNL     1     161.764 177.147 176.884  1.00  0.00     0.041 C 
ATOM      5  O   UNL     1     162.217 177.075 175.712  1.00  0.00    -0.550 OA
ATOM      6  O   UNL     1     160.603 176.461 177.216  1.00  0.00    -0.550 OA
ENDBRANCH   3   4
ENDBRANCH   2   3
ENDBRANCH   1   2
BRANCH   1   7
ATOM      7  C   UNL     1     161.748 180.103 180.864  1.00  0.00     0.000 C 
BRANCH   7   8
ATOM      8  C   UNL     1     162.732 179.304 181.727  1.00  0.00    -0.000 C 
BRANCH   8   9
ATOM      9  C   UNL     1     164.164 179.428 181.186  1.00  0.00    -0.000 C 
BRANCH   9  10
ATOM     10  C   UNL     1     164.818 178.062 180.927  1.00  0.00    -0.003 C 
ATOM     11  C   UNL     1     163.942 176.893 181.375  1.00  0.00     0.004 C 
ENDBRANCH   9  10
ENDBRANCH   8   9
ENDBRANCH   7   8
ENDBRANCH   1   7
TORSDOF 7
ENDMDL
MODEL 9
REMARK VINA RESULT:    -3.450     10.835     12.914
REMARK INTER + INTRA:          -5.553
REMARK INTER:                  -5.052
REMARK INTRA:                  -0.501
REMARK UNBOUND:                -0.691
REMARK SMILES CCCCCCCCC(=O)[O-]
REMARK SMILES IDX 6 1 7 2 8 3 9 4 10 5 11 6 5 7 4 8 3 9 2 10 1 11
REMARK H PARENT
REMARK Flexibility Score: inf
ROOT
ATOM      1  C   UNL     1     164.036 177.027 181.502  1.00  0.00     0.000 C 
ENDROOT
BRANCH   1   2
ATOM      2  C   UNL     1     163.623 178.488 181.759  1.00  0.00     0.006 C 
BRANCH   2   3
ATOM      3  C   UNL     1     164.222 179.498 180.767  1.00  0.00     0.053 C 
BRANCH   3   4
ATOM      4  C   UNL     1     163.306 179.760 179.611  1.00  0.00     0.041 C 
ATOM      5  O   UNL     1     163.752 179.747 178.433  1.00  0.00    -0.550 OA
ATOM      6  O   UNL     1     161.967 180.050 179.837  1.00  0.00    -0.550 OA
ENDBRANCH   3   4
ENDBRANCH   2   3
ENDBRANCH   1   2
BRANCH   1   7
ATOM      7  C   UNL     1     162.948 176.218 180.781  1.00  0.00     0.000 C 
BRANCH   7   8
ATOM      8  C   UNL     1     161.549 176.732 181.146  1.00  0.00    -0.000 C 
BRANCH   8   9
ATOM      9  C   UNL     1     160.537 175.579 181.202  1.00  0.00    -0.000 C 
BRANCH   9  10
ATOM     10  C   UNL     1     161.183 174.212 180.931  1.00  0.00    -0.003 C 
ATOM     11  C   UNL     1     160.992 173.228 182.083  1.00  0.00     0.004 C 
ENDBRANCH   9  10
ENDBRANCH   8   9
ENDBRANCH   7   8
ENDBRANCH   1   7
TORSDOF 7
ENDMDL
