MODEL 1
REMARK VINA RESULT:    -7.448      0.000      0.000
REMARK INTER + INTRA:         -11.633
REMARK INTER:                 -10.278
REMARK INTRA:                  -1.355
REMARK UNBOUND:                -1.355
REMARK SMILES O=C([O-])[C@H]1O[C@H](Oc2cc3oc(-c4ccccc4)cc(=O)c3c(O)c2O)[C@H](O)[C@H](O)[C@@H]1O
REMARK SMILES IDX 7 1 6 2 4 3 31 4 5 5 29 6 27 7 2 8 1 9 3 10 32 11 30 13
REMARK SMILES IDX 28 15 8 17 25 18 9 19 23 20 10 21 22 22 11 23 20 24 12 25
REMARK SMILES IDX 19 26 21 27 26 28 24 30 13 32 14 33 18 34 15 35 17 36 16 37
REMARK H PARENT 32 12 30 14 28 16 26 29 24 31
REMARK Flexibility Score: inf
ROOT
ATOM      1  O   UNL     1      24.297 -25.333 -13.495  1.00  0.00    -0.458 OA
ENDROOT
BRANCH   1   2
ATOM      2  C   UNL     1      25.711 -25.535 -13.393  1.00  0.00     0.339 C 
ATOM      3  C   UNL     1      25.483 -27.852 -12.983  1.00  0.00     0.199 C 
ATOM      4  C   UNL     1      26.109 -28.231 -14.344  1.00  0.00     0.180 C 
ATOM      5  O   UNL     1      26.014 -26.615 -12.520  1.00  0.00    -0.328 OA
ATOM      6  C   UNL     1      25.892 -27.089 -15.367  1.00  0.00     0.181 C 
ATOM      7  C   UNL     1      26.355 -25.761 -14.767  1.00  0.00     0.214 C 
BRANCH   3   8
ATOM      8  C   UNL     1      25.764 -28.897 -11.923  1.00  0.00     0.073 C 
ATOM      9  O   UNL     1      26.683 -28.720 -11.079  1.00  0.00    -0.547 OA
ATOM     10  O   UNL     1      25.127 -30.136 -11.987  1.00  0.00    -0.547 OA
ENDBRANCH   3   8
BRANCH   4  11
ATOM     11  O   UNL     1      25.544 -29.419 -14.845  1.00  0.00    -0.387 OA
ATOM     12  H   UNL     1      24.565 -29.358 -14.688  1.00  0.00     0.211 HD
ENDBRANCH   4  11
BRANCH   6  13
ATOM     13  O   UNL     1      24.539 -26.994 -15.746  1.00  0.00    -0.387 OA
ATOM     14  H   UNL     1      24.230 -26.090 -15.477  1.00  0.00     0.211 HD
ENDBRANCH   6  13
BRANCH   7  15
ATOM     15  O   UNL     1      26.058 -24.702 -15.646  1.00  0.00    -0.384 OA
ATOM     16  H   UNL     1      25.267 -24.991 -16.178  1.00  0.00     0.211 HD
ENDBRANCH   7  15
ENDBRANCH   1   2
BRANCH   1  17
ATOM     17  C   UNL     1      23.721 -24.067 -13.670  1.00  0.00     0.172 A 
ATOM     18  C   UNL     1      22.994 -23.810 -14.838  1.00  0.00     0.201 A 
ATOM     19  C   UNL     1      23.803 -23.093 -12.670  1.00  0.00     0.098 A 
ATOM     20  C   UNL     1      22.342 -22.574 -15.015  1.00  0.00     0.176 A 
ATOM     21  C   UNL     1      23.208 -21.844 -12.847  1.00  0.00     0.146 A 
ATOM     22  C   UNL     1      22.512 -21.542 -14.042  1.00  0.00     0.111 A 
ATOM     23  O   UNL     1      23.303 -20.953 -11.871  1.00  0.00    -0.456 OA
ATOM     24  C   UNL     1      22.031 -20.222 -14.189  1.00  0.00     0.197 A 
ATOM     25  C   UNL     1      22.794 -19.726 -11.947  1.00  0.00     0.138 A 
ATOM     26  C   UNL     1      22.146 -19.322 -13.129  1.00  0.00     0.100 A 
ATOM     27  O   UNL     1      21.541 -19.817 -15.281  1.00  0.00    -0.289 OA
BRANCH  18  28
ATOM     28  O   UNL     1      22.867 -24.837 -15.780  1.00  0.00    -0.502 OA
ATOM     29  H   UNL     1      23.256 -25.767 -15.646  1.00  0.00     0.293 HD
ENDBRANCH  18  28
BRANCH  20  30
ATOM     30  O   UNL     1      21.505 -22.436 -16.125  1.00  0.00    -0.504 OA
ATOM     31  H   UNL     1      21.108 -21.556 -16.421  1.00  0.00     0.293 HD
ENDBRANCH  20  30
BRANCH  25  32
ATOM     32  C   UNL     1      22.951 -18.836 -10.774  1.00  0.00     0.017 A 
ATOM     33  C   UNL     1      24.218 -18.692 -10.180  1.00  0.00     0.012 A 
ATOM     34  C   UNL     1      21.876 -18.068 -10.282  1.00  0.00     0.012 A 
ATOM     35  C   UNL     1      24.403 -17.804  -9.117  1.00  0.00     0.001 A 
ATOM     36  C   UNL     1      22.068 -17.189  -9.214  1.00  0.00     0.001 A 
ATOM     37  C   UNL     1      23.328 -17.051  -8.635  1.00  0.00     0.000 A 
ENDBRANCH  25  32
ENDBRANCH   1  17
TORSDOF 9
ENDMDL
MODEL 2
REMARK VINA RESULT:    -7.375      2.586      9.034
REMARK INTER + INTRA:         -11.533
REMARK INTER:                 -10.362
REMARK INTRA:                  -1.171
REMARK UNBOUND:                -1.355
REMARK SMILES O=C([O-])[C@H]1O[C@H](Oc2cc3oc(-c4ccccc4)cc(=O)c3c(O)c2O)[C@H](O)[C@H](O)[C@@H]1O
REMARK SMILES IDX 7 1 6 2 4 3 31 4 5 5 29 6 27 7 2 8 1 9 3 10 32 11 30 13
REMARK SMILES IDX 28 15 8 17 25 18 9 19 23 20 10 21 22 22 11 23 20 24 12 25
REMARK SMILES IDX 19 26 21 27 26 28 24 30 13 32 14 33 18 34 15 35 17 36 16 37
REMARK H PARENT 32 12 30 14 28 16 26 29 24 31
REMARK Flexibility Score: inf
ROOT
ATOM      1  O   UNL     1      22.761 -19.610 -11.039  1.00  0.00    -0.458 OA
ENDROOT
BRANCH   1   2
ATOM      2  C   UNL     1      23.902 -18.747 -11.116  1.00  0.00     0.339 C 
ATOM      3  C   UNL     1      22.581 -16.788 -11.182  1.00  0.00     0.199 C 
ATOM      4  C   UNL     1      23.052 -16.332  -9.782  1.00  0.00     0.180 C 
ATOM      5  O   UNL     1      23.596 -17.553 -11.823  1.00  0.00    -0.328 OA
ATOM      6  C   UNL     1      23.473 -17.559  -8.937  1.00  0.00     0.181 C 
ATOM      7  C   UNL     1      24.462 -18.418  -9.726  1.00  0.00     0.214 C 
BRANCH   3   8
ATOM      8  C   UNL     1      22.259 -15.610 -12.079  1.00  0.00     0.073 C 
ATOM      9  O   UNL     1      21.375 -14.776 -11.747  1.00  0.00    -0.547 OA
ATOM     10  O   UNL     1      22.815 -15.542 -13.356  1.00  0.00    -0.547 OA
ENDBRANCH   3   8
BRANCH   4  11
ATOM     11  O   UNL     1      22.032 -15.631  -9.112  1.00  0.00    -0.387 OA
ATOM     12  H   UNL     1      22.097 -15.880  -8.152  1.00  0.00     0.211 HD
ENDBRANCH   4  11
BRANCH   6  13
ATOM     13  O   UNL     1      22.356 -18.334  -8.571  1.00  0.00    -0.387 OA
ATOM     14  H   UNL     1      21.555 -17.866  -8.925  1.00  0.00     0.211 HD
ENDBRANCH   6  13
BRANCH   7  15
ATOM     15  O   UNL     1      24.763 -19.592  -9.010  1.00  0.00    -0.384 OA
ATOM     16  H   UNL     1      24.124 -19.629  -8.247  1.00  0.00     0.211 HD
ENDBRANCH   7  15
ENDBRANCH   1   2
BRANCH   1  17
ATOM     17  C   UNL     1      22.612 -20.745 -11.846  1.00  0.00     0.172 A 
ATOM     18  C   UNL     1      21.452 -20.878 -12.619  1.00  0.00     0.201 A 
ATOM     19  C   UNL     1      23.627 -21.701 -11.943  1.00  0.00     0.098 A 
ATOM     20  C   UNL     1      21.300 -21.969 -13.496  1.00  0.00     0.176 A 
ATOM     21  C   UNL     1      23.476 -22.816 -12.767  1.00  0.00     0.146 A 
ATOM     22  C   UNL     1      22.290 -22.999 -13.518  1.00  0.00     0.111 A 
ATOM     23  O   UNL     1      24.467 -23.693 -12.835  1.00  0.00    -0.456 OA
ATOM     24  C   UNL     1      22.169 -24.205 -14.243  1.00  0.00     0.197 A 
ATOM     25  C   UNL     1      24.415 -24.801 -13.569  1.00  0.00     0.138 A 
ATOM     26  C   UNL     1      23.244 -25.094 -14.292  1.00  0.00     0.100 A 
ATOM     27  O   UNL     1      21.086 -24.527 -14.809  1.00  0.00    -0.289 OA
BRANCH  18  28
ATOM     28  O   UNL     1      20.492 -19.860 -12.556  1.00  0.00    -0.502 OA
ATOM     29  H   UNL     1      20.674 -18.905 -12.852  1.00  0.00     0.293 HD
ENDBRANCH  18  28
BRANCH  20  30
ATOM     30  O   UNL     1      20.197 -21.963 -14.354  1.00  0.00    -0.504 OA
ATOM     31  H   UNL     1      19.263 -21.712 -14.063  1.00  0.00     0.293 HD
ENDBRANCH  20  30
BRANCH  25  32
ATOM     32  C   UNL     1      25.603 -25.685 -13.575  1.00  0.00     0.017 A 
ATOM     33  C   UNL     1      26.707 -25.354 -14.381  1.00  0.00     0.012 A 
ATOM     34  C   UNL     1      25.688 -26.812 -12.733  1.00  0.00     0.012 A 
ATOM     35  C   UNL     1      27.866 -26.135 -14.348  1.00  0.00     0.001 A 
ATOM     36  C   UNL     1      26.847 -27.592 -12.712  1.00  0.00     0.001 A 
ATOM     37  C   UNL     1      27.936 -27.253 -13.512  1.00  0.00     0.000 A 
ENDBRANCH  25  32
ENDBRANCH   1  17
TORSDOF 9
ENDMDL
MODEL 3
REMARK VINA RESULT:    -7.287      3.965      9.100
REMARK INTER + INTRA:         -11.411
REMARK INTER:                 -10.197
REMARK INTRA:                  -1.215
REMARK UNBOUND:                -1.355
REMARK SMILES O=C([O-])[C@H]1O[C@H](Oc2cc3oc(-c4ccccc4)cc(=O)c3c(O)c2O)[C@H](O)[C@H](O)[C@@H]1O
REMARK SMILES IDX 7 1 6 2 4 3 31 4 5 5 29 6 27 7 2 8 1 9 3 10 32 11 30 13
REMARK SMILES IDX 28 15 8 17 25 18 9 19 23 20 10 21 22 22 11 23 20 24 12 25
REMARK SMILES IDX 19 26 21 27 26 28 24 30 13 32 14 33 18 34 15 35 17 36 16 37
REMARK H PARENT 32 12 30 14 28 16 26 29 24 31
REMARK Flexibility Score: inf
ROOT
ATOM      1  O   UNL     1      22.291 -19.446 -10.861  1.00  0.00    -0.458 OA
ENDROOT
BRANCH   1   2
ATOM      2  C   UNL     1      23.575 -18.843 -11.060  1.00  0.00     0.339 C 
ATOM      3  C   UNL     1      22.686 -16.652 -11.088  1.00  0.00     0.199 C 
ATOM      4  C   UNL     1      23.360 -16.281  -9.747  1.00  0.00     0.180 C 
ATOM      5  O   UNL     1      23.463 -17.623 -11.781  1.00  0.00    -0.328 OA
ATOM      6  C   UNL     1      23.589 -17.553  -8.896  1.00  0.00     0.181 C 
ATOM      7  C   UNL     1      24.308 -18.613  -9.731  1.00  0.00     0.214 C 
BRANCH   3   8
ATOM      8  C   UNL     1      22.539 -15.449 -11.997  1.00  0.00     0.073 C 
ATOM      9  O   UNL     1      21.989 -14.395 -11.578  1.00  0.00    -0.547 OA
ATOM     10  O   UNL     1      22.850 -15.563 -13.351  1.00  0.00    -0.547 OA
ENDBRANCH   3   8
BRANCH   4  11
ATOM     11  O   UNL     1      22.568 -15.370  -9.022  1.00  0.00    -0.387 OA
ATOM     12  H   UNL     1      22.859 -15.430  -8.074  1.00  0.00     0.211 HD
ENDBRANCH   4  11
BRANCH   6  13
ATOM     13  O   UNL     1      22.371 -18.071  -8.415  1.00  0.00    -0.387 OA
ATOM     14  H   UNL     1      21.775 -18.177  -9.201  1.00  0.00     0.211 HD
ENDBRANCH   6  13
BRANCH   7  15
ATOM     15  O   UNL     1      24.420 -19.812  -9.002  1.00  0.00    -0.384 OA
ATOM     16  H   UNL     1      25.261 -20.250  -9.307  1.00  0.00     0.211 HD
ENDBRANCH   7  15
ENDBRANCH   1   2
BRANCH   1  17
ATOM     17  C   UNL     1      21.892 -20.616 -11.522  1.00  0.00     0.172 A 
ATOM     18  C   UNL     1      21.612 -20.557 -12.893  1.00  0.00     0.201 A 
ATOM     19  C   UNL     1      21.839 -21.841 -10.851  1.00  0.00     0.098 A 
ATOM     20  C   UNL     1      21.278 -21.725 -13.604  1.00  0.00     0.176 A 
ATOM     21  C   UNL     1      21.461 -23.003 -11.525  1.00  0.00     0.146 A 
ATOM     22  C   UNL     1      21.122 -22.959 -12.899  1.00  0.00     0.111 A 
ATOM     23  O   UNL     1      21.432 -24.144 -10.853  1.00  0.00    -0.456 OA
ATOM     24  C   UNL     1      20.647 -24.155 -13.482  1.00  0.00     0.197 A 
ATOM     25  C   UNL     1      21.062 -25.303 -11.393  1.00  0.00     0.138 A 
ATOM     26  C   UNL     1      20.645 -25.334 -12.736  1.00  0.00     0.100 A 
ATOM     27  O   UNL     1      20.172 -24.173 -14.652  1.00  0.00    -0.289 OA
BRANCH  18  28
ATOM     28  O   UNL     1      21.754 -19.327 -13.546  1.00  0.00    -0.502 OA
ATOM     29  H   UNL     1      21.828 -19.238 -14.556  1.00  0.00     0.293 HD
ENDBRANCH  18  28
BRANCH  20  30
ATOM     30  O   UNL     1      21.166 -21.630 -14.992  1.00  0.00    -0.504 OA
ATOM     31  H   UNL     1      21.545 -20.866 -15.534  1.00  0.00     0.293 HD
ENDBRANCH  20  30
BRANCH  25  32
ATOM     32  C   UNL     1      21.099 -26.510 -10.536  1.00  0.00     0.017 A 
ATOM     33  C   UNL     1      20.729 -26.408  -9.182  1.00  0.00     0.012 A 
ATOM     34  C   UNL     1      21.421 -27.777 -11.060  1.00  0.00     0.012 A 
ATOM     35  C   UNL     1      20.687 -27.547  -8.373  1.00  0.00     0.001 A 
ATOM     36  C   UNL     1      21.385 -28.910 -10.243  1.00  0.00     0.001 A 
ATOM     37  C   UNL     1      21.014 -28.798  -8.904  1.00  0.00     0.000 A 
ENDBRANCH  25  32
ENDBRANCH   1  17
TORSDOF 9
ENDMDL
MODEL 4
REMARK VINA RESULT:    -7.193      3.866      8.823
REMARK INTER + INTRA:         -11.281
REMARK INTER:                  -9.779
REMARK INTRA:                  -1.502
REMARK UNBOUND:                -1.355
REMARK SMILES O=C([O-])[C@H]1O[C@H](Oc2cc3oc(-c4ccccc4)cc(=O)c3c(O)c2O)[C@H](O)[C@H](O)[C@@H]1O
REMARK SMILES IDX 7 1 6 2 4 3 31 4 5 5 29 6 27 7 2 8 1 9 3 10 32 11 30 13
REMARK SMILES IDX 28 15 8 17 25 18 9 19 23 20 10 21 22 22 11 23 20 24 12 25
REMARK SMILES IDX 19 26 21 27 26 28 24 30 13 32 14 33 18 34 15 35 17 36 16 37
REMARK H PARENT 32 12 30 14 28 16 26 29 24 31
REMARK Flexibility Score: inf
ROOT
ATOM      1  O   UNL     1      21.956 -19.618 -11.976  1.00  0.00    -0.458 OA
ENDROOT
BRANCH   1   2
ATOM      2  C   UNL     1      20.979 -18.762 -11.370  1.00  0.00     0.339 C 
ATOM      3  C   UNL     1      22.614 -17.300 -10.490  1.00  0.00     0.199 C 
ATOM      4  C   UNL     1      22.198 -16.147 -11.431  1.00  0.00     0.180 C 
ATOM      5  O   UNL     1      21.497 -18.135 -10.205  1.00  0.00    -0.328 OA
ATOM      6  C   UNL     1      21.558 -16.716 -12.720  1.00  0.00     0.181 C 
ATOM      7  C   UNL     1      20.455 -17.710 -12.356  1.00  0.00     0.214 C 
BRANCH   3   8
ATOM      8  C   UNL     1      23.149 -16.784  -9.169  1.00  0.00     0.073 C 
ATOM      9  O   UNL     1      23.303 -15.547  -8.981  1.00  0.00    -0.547 OA
ATOM     10  O   UNL     1      23.638 -17.683  -8.223  1.00  0.00    -0.547 OA
ENDBRANCH   3   8
BRANCH   4  11
ATOM     11  O   UNL     1      23.308 -15.351 -11.773  1.00  0.00    -0.387 OA
ATOM     12  H   UNL     1      22.997 -14.707 -12.462  1.00  0.00     0.211 HD
ENDBRANCH   4  11
BRANCH   6  13
ATOM     13  O   UNL     1      22.520 -17.349 -13.530  1.00  0.00    -0.387 OA
ATOM     14  H   UNL     1      22.289 -18.314 -13.547  1.00  0.00     0.211 HD
ENDBRANCH   6  13
BRANCH   7  15
ATOM     15  O   UNL     1      19.944 -18.317 -13.520  1.00  0.00    -0.384 OA
ATOM     16  H   UNL     1      20.470 -19.152 -13.656  1.00  0.00     0.211 HD
ENDBRANCH   7  15
ENDBRANCH   1   2
BRANCH   1  17
ATOM     17  C   UNL     1      21.668 -20.926 -12.388  1.00  0.00     0.172 A 
ATOM     18  C   UNL     1      21.584 -21.200 -13.759  1.00  0.00     0.201 A 
ATOM     19  C   UNL     1      21.537 -21.963 -11.460  1.00  0.00     0.098 A 
ATOM     20  C   UNL     1      21.368 -22.515 -14.211  1.00  0.00     0.176 A 
ATOM     21  C   UNL     1      21.272 -23.265 -11.884  1.00  0.00     0.146 A 
ATOM     22  C   UNL     1      21.130 -23.557 -13.263  1.00  0.00     0.111 A 
ATOM     23  O   UNL     1      21.163 -24.219 -10.972  1.00  0.00    -0.456 OA
ATOM     24  C   UNL     1      20.756 -24.876 -13.604  1.00  0.00     0.197 A 
ATOM     25  C   UNL     1      20.887 -25.487 -11.267  1.00  0.00     0.138 A 
ATOM     26  C   UNL     1      20.663 -25.849 -12.608  1.00  0.00     0.100 A 
ATOM     27  O   UNL     1      20.451 -25.187 -14.790  1.00  0.00    -0.289 OA
BRANCH  18  28
ATOM     28  O   UNL     1      21.800 -20.150 -14.659  1.00  0.00    -0.502 OA
ATOM     29  H   UNL     1      22.581 -20.126 -15.309  1.00  0.00     0.293 HD
ENDBRANCH  18  28
BRANCH  20  30
ATOM     30  O   UNL     1      21.451 -22.750 -15.585  1.00  0.00    -0.504 OA
ATOM     31  H   UNL     1      22.263 -22.528 -16.144  1.00  0.00     0.293 HD
ENDBRANCH  20  30
BRANCH  25  32
ATOM     32  C   UNL     1      20.818 -26.459 -10.152  1.00  0.00     0.017 A 
ATOM     33  C   UNL     1      20.311 -26.046  -8.906  1.00  0.00     0.012 A 
ATOM     34  C   UNL     1      21.175 -27.811 -10.328  1.00  0.00     0.012 A 
ATOM     35  C   UNL     1      20.170 -26.965  -7.862  1.00  0.00     0.001 A 
ATOM     36  C   UNL     1      21.039 -28.720  -9.277  1.00  0.00     0.001 A 
ATOM     37  C   UNL     1      20.532 -28.302  -8.048  1.00  0.00     0.000 A 
ENDBRANCH  25  32
ENDBRANCH   1  17
TORSDOF 9
ENDMDL
MODEL 5
REMARK VINA RESULT:    -7.121      2.418      8.407
REMARK INTER + INTRA:         -11.183
REMARK INTER:                  -9.959
REMARK INTRA:                  -1.223
REMARK UNBOUND:                -1.355
REMARK SMILES O=C([O-])[C@H]1O[C@H](Oc2cc3oc(-c4ccccc4)cc(=O)c3c(O)c2O)[C@H](O)[C@H](O)[C@@H]1O
REMARK SMILES IDX 7 1 6 2 4 3 31 4 5 5 29 6 27 7 2 8 1 9 3 10 32 11 30 13
REMARK SMILES IDX 28 15 8 17 25 18 9 19 23 20 10 21 22 22 11 23 20 24 12 25
REMARK SMILES IDX 19 26 21 27 26 28 24 30 13 32 14 33 18 34 15 35 17 36 16 37
REMARK H PARENT 32 12 30 14 28 16 26 29 24 31
REMARK Flexibility Score: inf
ROOT
ATOM      1  O   UNL     1      22.051 -19.889 -13.200  1.00  0.00    -0.458 OA
ENDROOT
BRANCH   1   2
ATOM      2  C   UNL     1      21.163 -19.518 -12.139  1.00  0.00     0.339 C 
ATOM      3  C   UNL     1      22.911 -18.657 -10.801  1.00  0.00     0.199 C 
ATOM      4  C   UNL     1      22.412 -17.202 -10.951  1.00  0.00     0.180 C 
ATOM      5  O   UNL     1      21.819 -19.567 -10.880  1.00  0.00    -0.328 OA
ATOM      6  C   UNL     1      21.622 -17.045 -12.273  1.00  0.00     0.181 C 
ATOM      7  C   UNL     1      20.550 -18.130 -12.369  1.00  0.00     0.214 C 
BRANCH   3   8
ATOM      8  C   UNL     1      23.599 -18.882  -9.470  1.00  0.00     0.073 C 
ATOM      9  O   UNL     1      24.290 -19.918  -9.273  1.00  0.00    -0.547 OA
ATOM     10  O   UNL     1      23.327 -18.031  -8.398  1.00  0.00    -0.547 OA
ENDBRANCH   3   8
BRANCH   4  11
ATOM     11  O   UNL     1      23.491 -16.297 -10.941  1.00  0.00    -0.387 OA
ATOM     12  H   UNL     1      23.335 -15.659 -11.686  1.00  0.00     0.211 HD
ENDBRANCH   4  11
BRANCH   6  13
ATOM     13  O   UNL     1      22.477 -17.120 -13.390  1.00  0.00    -0.387 OA
ATOM     14  H   UNL     1      23.282 -16.584 -13.170  1.00  0.00     0.211 HD
ENDBRANCH   6  13
BRANCH   7  15
ATOM     15  O   UNL     1      19.902 -18.064 -13.618  1.00  0.00    -0.384 OA
ATOM     16  H   UNL     1      20.010 -17.128 -13.941  1.00  0.00     0.211 HD
ENDBRANCH   7  15
ENDBRANCH   1   2
BRANCH   1  17
ATOM     17  C   UNL     1      22.125 -21.193 -13.708  1.00  0.00     0.172 A 
ATOM     18  C   UNL     1      21.099 -21.653 -14.543  1.00  0.00     0.201 A 
ATOM     19  C   UNL     1      23.233 -22.006 -13.450  1.00  0.00     0.098 A 
ATOM     20  C   UNL     1      21.175 -22.931 -15.128  1.00  0.00     0.176 A 
ATOM     21  C   UNL     1      23.304 -23.295 -13.979  1.00  0.00     0.146 A 
ATOM     22  C   UNL     1      22.254 -23.802 -14.783  1.00  0.00     0.111 A 
ATOM     23  O   UNL     1      24.376 -24.029 -13.717  1.00  0.00    -0.456 OA
ATOM     24  C   UNL     1      22.352 -25.151 -15.190  1.00  0.00     0.197 A 
ATOM     25  C   UNL     1      24.532 -25.277 -14.150  1.00  0.00     0.138 A 
ATOM     26  C   UNL     1      23.505 -25.880 -14.898  1.00  0.00     0.100 A 
ATOM     27  O   UNL     1      21.393 -25.734 -15.771  1.00  0.00    -0.289 OA
BRANCH  18  28
ATOM     28  O   UNL     1      20.046 -20.781 -14.842  1.00  0.00    -0.502 OA
ATOM     29  H   UNL     1      19.114 -21.099 -15.094  1.00  0.00     0.293 HD
ENDBRANCH  18  28
BRANCH  20  30
ATOM     30  O   UNL     1      20.204 -23.270 -16.073  1.00  0.00    -0.504 OA
ATOM     31  H   UNL     1      20.135 -24.182 -16.503  1.00  0.00     0.293 HD
ENDBRANCH  20  30
BRANCH  25  32
ATOM     32  C   UNL     1      25.790 -25.977 -13.805  1.00  0.00     0.017 A 
ATOM     33  C   UNL     1      25.803 -26.890 -12.735  1.00  0.00     0.012 A 
ATOM     34  C   UNL     1      26.961 -25.811 -14.572  1.00  0.00     0.012 A 
ATOM     35  C   UNL     1      26.960 -27.616 -12.438  1.00  0.00     0.001 A 
ATOM     36  C   UNL     1      28.116 -26.533 -14.263  1.00  0.00     0.001 A 
ATOM     37  C   UNL     1      28.116 -27.438 -13.203  1.00  0.00     0.000 A 
ENDBRANCH  25  32
ENDBRANCH   1  17
TORSDOF 9
ENDMDL
MODEL 6
REMARK VINA RESULT:    -7.019      3.852      4.726
REMARK INTER + INTRA:         -11.041
REMARK INTER:                  -9.619
REMARK INTRA:                  -1.422
REMARK UNBOUND:                -1.355
REMARK SMILES O=C([O-])[C@H]1O[C@H](Oc2cc3oc(-c4ccccc4)cc(=O)c3c(O)c2O)[C@H](O)[C@H](O)[C@@H]1O
REMARK SMILES IDX 7 1 6 2 4 3 31 4 5 5 29 6 27 7 2 8 1 9 3 10 32 11 30 13
REMARK SMILES IDX 28 15 8 17 25 18 9 19 23 20 10 21 22 22 11 23 20 24 12 25
REMARK SMILES IDX 19 26 21 27 26 28 24 30 13 32 14 33 18 34 15 35 17 36 16 37
REMARK H PARENT 32 12 30 14 28 16 26 29 24 31
REMARK Flexibility Score: inf
ROOT
ATOM      1  O   UNL     1      21.244 -25.608 -11.089  1.00  0.00    -0.458 OA
ENDROOT
BRANCH   1   2
ATOM      2  C   UNL     1      20.174 -26.079 -10.261  1.00  0.00     0.339 C 
ATOM      3  C   UNL     1      19.745 -27.942 -11.651  1.00  0.00     0.199 C 
ATOM      4  C   UNL     1      20.241 -28.946 -10.586  1.00  0.00     0.180 C 
ATOM      5  O   UNL     1      19.205 -26.783 -11.026  1.00  0.00    -0.328 OA
ATOM      6  C   UNL     1      21.267 -28.264  -9.649  1.00  0.00     0.181 C 
ATOM      7  C   UNL     1      20.687 -26.956  -9.111  1.00  0.00     0.214 C 
BRANCH   3   8
ATOM      8  C   UNL     1      18.660 -28.538 -12.525  1.00  0.00     0.073 C 
ATOM      9  O   UNL     1      18.063 -29.592 -12.175  1.00  0.00    -0.547 OA
ATOM     10  O   UNL     1      18.442 -28.025 -13.803  1.00  0.00    -0.547 OA
ENDBRANCH   3   8
BRANCH   4  11
ATOM     11  O   UNL     1      20.838 -30.069 -11.193  1.00  0.00    -0.387 OA
ATOM     12  H   UNL     1      21.204 -30.629 -10.459  1.00  0.00     0.211 HD
ENDBRANCH   4  11
BRANCH   6  13
ATOM     13  O   UNL     1      22.479 -28.009 -10.318  1.00  0.00    -0.387 OA
ATOM     14  H   UNL     1      23.185 -27.961  -9.622  1.00  0.00     0.211 HD
ENDBRANCH   6  13
BRANCH   7  15
ATOM     15  O   UNL     1      21.654 -26.274  -8.348  1.00  0.00    -0.384 OA
ATOM     16  H   UNL     1      21.410 -25.309  -8.382  1.00  0.00     0.211 HD
ENDBRANCH   7  15
ENDBRANCH   1   2
BRANCH   1  17
ATOM     17  C   UNL     1      21.175 -24.406 -11.807  1.00  0.00     0.172 A 
ATOM     18  C   UNL     1      20.811 -24.446 -13.158  1.00  0.00     0.201 A 
ATOM     19  C   UNL     1      21.394 -23.177 -11.178  1.00  0.00     0.098 A 
ATOM     20  C   UNL     1      20.663 -23.253 -13.892  1.00  0.00     0.176 A 
ATOM     21  C   UNL     1      21.302 -21.985 -11.899  1.00  0.00     0.146 A 
ATOM     22  C   UNL     1      20.987 -22.004 -13.279  1.00  0.00     0.111 A 
ATOM     23  O   UNL     1      21.509 -20.842 -11.262  1.00  0.00    -0.456 OA
ATOM     24  C   UNL     1      21.019 -20.767 -13.961  1.00  0.00     0.197 A 
ATOM     25  C   UNL     1      21.470 -19.654 -11.860  1.00  0.00     0.138 A 
ATOM     26  C   UNL     1      21.232 -19.588 -13.245  1.00  0.00     0.100 A 
ATOM     27  O   UNL     1      20.910 -20.705 -15.218  1.00  0.00    -0.289 OA
BRANCH  18  28
ATOM     28  O   UNL     1      20.522 -25.689 -13.731  1.00  0.00    -0.502 OA
ATOM     29  H   UNL     1      20.930 -26.561 -13.405  1.00  0.00     0.293 HD
ENDBRANCH  18  28
BRANCH  20  30
ATOM     30  O   UNL     1      20.146 -23.348 -15.186  1.00  0.00    -0.504 OA
ATOM     31  H   UNL     1      19.179 -23.557 -15.389  1.00  0.00     0.293 HD
ENDBRANCH  20  30
BRANCH  25  32
ATOM     32  C   UNL     1      21.696 -18.452 -11.026  1.00  0.00     0.017 A 
ATOM     33  C   UNL     1      22.183 -18.601  -9.715  1.00  0.00     0.012 A 
ATOM     34  C   UNL     1      21.509 -17.152 -11.539  1.00  0.00     0.012 A 
ATOM     35  C   UNL     1      22.471 -17.477  -8.936  1.00  0.00     0.001 A 
ATOM     36  C   UNL     1      21.791 -16.034 -10.751  1.00  0.00     0.001 A 
ATOM     37  C   UNL     1      22.276 -16.194  -9.455  1.00  0.00     0.000 A 
ENDBRANCH  25  32
ENDBRANCH   1  17
TORSDOF 9
ENDMDL
MODEL 7
REMARK VINA RESULT:    -6.922      3.518      4.097
REMARK INTER + INTRA:         -10.907
REMARK INTER:                  -9.358
REMARK INTRA:                  -1.548
REMARK UNBOUND:                -1.355
REMARK SMILES O=C([O-])[C@H]1O[C@H](Oc2cc3oc(-c4ccccc4)cc(=O)c3c(O)c2O)[C@H](O)[C@H](O)[C@@H]1O
REMARK SMILES IDX 7 1 6 2 4 3 31 4 5 5 29 6 27 7 2 8 1 9 3 10 32 11 30 13
REMARK SMILES IDX 28 15 8 17 25 18 9 19 23 20 10 21 22 22 11 23 20 24 12 25
REMARK SMILES IDX 19 26 21 27 26 28 24 30 13 32 14 33 18 34 15 35 17 36 16 37
REMARK H PARENT 32 12 30 14 28 16 26 29 24 31
REMARK Flexibility Score: inf
ROOT
ATOM      1  O   UNL     1      20.632 -24.691 -11.987  1.00  0.00    -0.458 OA
ENDROOT
BRANCH   1   2
ATOM      2  C   UNL     1      21.789 -25.379 -11.497  1.00  0.00     0.339 C 
ATOM      3  C   UNL     1      20.518 -26.776 -10.075  1.00  0.00     0.199 C 
ATOM      4  C   UNL     1      20.832 -28.038 -10.909  1.00  0.00     0.180 C 
ATOM      5  O   UNL     1      21.588 -25.841 -10.168  1.00  0.00    -0.328 OA
ATOM      6  C   UNL     1      21.131 -27.646 -12.377  1.00  0.00     0.181 C 
ATOM      7  C   UNL     1      22.189 -26.543 -12.413  1.00  0.00     0.214 C 
BRANCH   3   8
ATOM      8  C   UNL     1      20.323 -27.104  -8.609  1.00  0.00     0.073 C 
ATOM      9  O   UNL     1      20.683 -28.221  -8.150  1.00  0.00    -0.547 OA
ATOM     10  O   UNL     1      19.584 -26.241  -7.799  1.00  0.00    -0.547 OA
ENDBRANCH   3   8
BRANCH   4  11
ATOM     11  O   UNL     1      19.753 -28.942 -10.879  1.00  0.00    -0.387 OA
ATOM     12  H   UNL     1      19.310 -28.828  -9.997  1.00  0.00     0.211 HD
ENDBRANCH   4  11
BRANCH   6  13
ATOM     13  O   UNL     1      19.965 -27.209 -13.035  1.00  0.00    -0.387 OA
ATOM     14  H   UNL     1      19.493 -28.023 -13.351  1.00  0.00     0.211 HD
ENDBRANCH   6  13
BRANCH   7  15
ATOM     15  O   UNL     1      22.385 -26.102 -13.736  1.00  0.00    -0.384 OA
ATOM     16  H   UNL     1      22.704 -25.160 -13.674  1.00  0.00     0.211 HD
ENDBRANCH   7  15
ENDBRANCH   1   2
BRANCH   1  17
ATOM     17  C   UNL     1      20.702 -23.445 -12.624  1.00  0.00     0.172 A 
ATOM     18  C   UNL     1      20.451 -23.373 -14.000  1.00  0.00     0.201 A 
ATOM     19  C   UNL     1      20.948 -22.276 -11.898  1.00  0.00     0.098 A 
ATOM     20  C   UNL     1      20.443 -22.130 -14.660  1.00  0.00     0.176 A 
ATOM     21  C   UNL     1      20.995 -21.038 -12.540  1.00  0.00     0.146 A 
ATOM     22  C   UNL     1      20.796 -20.947 -13.939  1.00  0.00     0.111 A 
ATOM     23  O   UNL     1      21.222 -19.955 -11.813  1.00  0.00    -0.456 OA
ATOM     24  C   UNL     1      20.966 -19.675 -14.530  1.00  0.00     0.197 A 
ATOM     25  C   UNL     1      21.312 -18.732 -12.329  1.00  0.00     0.138 A 
ATOM     26  C   UNL     1      21.195 -18.562 -13.721  1.00  0.00     0.100 A 
ATOM     27  O   UNL     1      20.967 -19.527 -15.785  1.00  0.00    -0.289 OA
BRANCH  18  28
ATOM     28  O   UNL     1      20.130 -24.555 -14.678  1.00  0.00    -0.502 OA
ATOM     29  H   UNL     1      20.830 -25.183 -15.064  1.00  0.00     0.293 HD
ENDBRANCH  18  28
BRANCH  20  30
ATOM     30  O   UNL     1      20.032 -22.106 -15.994  1.00  0.00    -0.504 OA
ATOM     31  H   UNL     1      19.168 -22.516 -16.321  1.00  0.00     0.293 HD
ENDBRANCH  20  30
BRANCH  25  32
ATOM     32  C   UNL     1      21.545 -17.603 -11.400  1.00  0.00     0.017 A 
ATOM     33  C   UNL     1      21.854 -17.868 -10.053  1.00  0.00     0.012 A 
ATOM     34  C   UNL     1      21.541 -16.266 -11.847  1.00  0.00     0.012 A 
ATOM     35  C   UNL     1      22.148 -16.820  -9.176  1.00  0.00     0.001 A 
ATOM     36  C   UNL     1      21.828 -15.225 -10.962  1.00  0.00     0.001 A 
ATOM     37  C   UNL     1      22.137 -15.499  -9.631  1.00  0.00     0.000 A 
ENDBRANCH  25  32
ENDBRANCH   1  17
TORSDOF 9
ENDMDL
MODEL 8
REMARK VINA RESULT:    -6.803      3.812      4.572
REMARK INTER + INTRA:         -10.743
REMARK INTER:                  -9.490
REMARK INTRA:                  -1.253
REMARK UNBOUND:                -1.355
REMARK SMILES O=C([O-])[C@H]1O[C@H](Oc2cc3oc(-c4ccccc4)cc(=O)c3c(O)c2O)[C@H](O)[C@H](O)[C@@H]1O
REMARK SMILES IDX 7 1 6 2 4 3 31 4 5 5 29 6 27 7 2 8 1 9 3 10 32 11 30 13
REMARK SMILES IDX 28 15 8 17 25 18 9 19 23 20 10 21 22 22 11 23 20 24 12 25
REMARK SMILES IDX 19 26 21 27 26 28 24 30 13 32 14 33 18 34 15 35 17 36 16 37
REMARK H PARENT 32 12 30 14 28 16 26 29 24 31
REMARK Flexibility Score: inf
ROOT
ATOM      1  O   UNL     1      20.644 -27.438 -11.248  1.00  0.00    -0.458 OA
ENDROOT
BRANCH   1   2
ATOM      2  C   UNL     1      21.765 -27.910 -10.491  1.00  0.00     0.339 C 
ATOM      3  C   UNL     1      20.596 -29.803  -9.693  1.00  0.00     0.199 C 
ATOM      4  C   UNL     1      21.471 -30.781 -10.509  1.00  0.00     0.180 C 
ATOM      5  O   UNL     1      21.341 -28.640  -9.347  1.00  0.00    -0.328 OA
ATOM      6  C   UNL     1      22.042 -30.068 -11.759  1.00  0.00     0.181 C 
ATOM      7  C   UNL     1      22.714 -28.758 -11.347  1.00  0.00     0.214 C 
BRANCH   3   8
ATOM      8  C   UNL     1      20.102 -30.430  -8.405  1.00  0.00     0.073 C 
ATOM      9  O   UNL     1      19.522 -31.549  -8.420  1.00  0.00    -0.547 OA
ATOM     10  O   UNL     1      20.129 -29.692  -7.222  1.00  0.00    -0.547 OA
ENDBRANCH   3   8
BRANCH   4  11
ATOM     11  O   UNL     1      20.725 -31.905 -10.913  1.00  0.00    -0.387 OA
ATOM     12  H   UNL     1      19.909 -31.925 -10.348  1.00  0.00     0.211 HD
ENDBRANCH   4  11
BRANCH   6  13
ATOM     13  O   UNL     1      21.031 -29.808 -12.704  1.00  0.00    -0.387 OA
ATOM     14  H   UNL     1      20.622 -30.682 -12.933  1.00  0.00     0.211 HD
ENDBRANCH   6  13
BRANCH   7  15
ATOM     15  O   UNL     1      23.137 -28.049 -12.487  1.00  0.00    -0.384 OA
ATOM     16  H   UNL     1      22.879 -27.099 -12.339  1.00  0.00     0.211 HD
ENDBRANCH   7  15
ENDBRANCH   1   2
BRANCH   1  17
ATOM     17  C   UNL     1      20.674 -26.249 -11.988  1.00  0.00     0.172 A 
ATOM     18  C   UNL     1      20.307 -26.283 -13.339  1.00  0.00     0.201 A 
ATOM     19  C   UNL     1      20.993 -25.030 -11.382  1.00  0.00     0.098 A 
ATOM     20  C   UNL     1      20.257 -25.096 -14.095  1.00  0.00     0.176 A 
ATOM     21  C   UNL     1      20.998 -23.848 -12.125  1.00  0.00     0.146 A 
ATOM     22  C   UNL     1      20.683 -23.866 -13.505  1.00  0.00     0.111 A 
ATOM     23  O   UNL     1      21.299 -22.714 -11.509  1.00  0.00    -0.456 OA
ATOM     24  C   UNL     1      20.815 -22.649 -14.209  1.00  0.00     0.197 A 
ATOM     25  C   UNL     1      21.357 -21.539 -12.129  1.00  0.00     0.138 A 
ATOM     26  C   UNL     1      21.124 -21.478 -13.515  1.00  0.00     0.100 A 
ATOM     27  O   UNL     1      20.712 -22.601 -15.467  1.00  0.00    -0.289 OA
BRANCH  18  28
ATOM     28  O   UNL     1      19.917 -27.509 -13.890  1.00  0.00    -0.502 OA
ATOM     29  H   UNL     1      20.344 -28.395 -13.634  1.00  0.00     0.293 HD
ENDBRANCH  18  28
BRANCH  20  30
ATOM     30  O   UNL     1      19.734 -25.172 -15.387  1.00  0.00    -0.504 OA
ATOM     31  H   UNL     1      20.222 -24.845 -16.210  1.00  0.00     0.293 HD
ENDBRANCH  20  30
BRANCH  25  32
ATOM     32  C   UNL     1      21.681 -20.343 -11.317  1.00  0.00     0.017 A 
ATOM     33  C   UNL     1      22.846 -20.337 -10.529  1.00  0.00     0.012 A 
ATOM     34  C   UNL     1      20.891 -19.178 -11.372  1.00  0.00     0.012 A 
ATOM     35  C   UNL     1      23.209 -19.194  -9.811  1.00  0.00     0.001 A 
ATOM     36  C   UNL     1      21.255 -18.042 -10.645  1.00  0.00     0.001 A 
ATOM     37  C   UNL     1      22.414 -18.046  -9.871  1.00  0.00     0.000 A 
ENDBRANCH  25  32
ENDBRANCH   1  17
TORSDOF 9
ENDMDL
MODEL 9
REMARK VINA RESULT:    -6.747      1.605      2.439
REMARK INTER + INTRA:         -10.666
REMARK INTER:                  -9.285
REMARK INTRA:                  -1.381
REMARK UNBOUND:                -1.355
REMARK SMILES O=C([O-])[C@H]1O[C@H](Oc2cc3oc(-c4ccccc4)cc(=O)c3c(O)c2O)[C@H](O)[C@H](O)[C@@H]1O
REMARK SMILES IDX 7 1 6 2 4 3 31 4 5 5 29 6 27 7 2 8 1 9 3 10 32 11 30 13
REMARK SMILES IDX 28 15 8 17 25 18 9 19 23 20 10 21 22 22 11 23 20 24 12 25
REMARK SMILES IDX 19 26 21 27 26 28 24 30 13 32 14 33 18 34 15 35 17 36 16 37
REMARK H PARENT 32 12 30 14 28 16 26 29 24 31
REMARK Flexibility Score: inf
ROOT
ATOM      1  O   UNL     1      24.493 -25.717 -14.063  1.00  0.00    -0.458 OA
ENDROOT
BRANCH   1   2
ATOM      2  C   UNL     1      24.323 -26.834 -13.183  1.00  0.00     0.339 C 
ATOM      3  C   UNL     1      23.694 -28.288 -14.938  1.00  0.00     0.199 C 
ATOM      4  C   UNL     1      24.988 -29.123 -14.811  1.00  0.00     0.180 C 
ATOM      5  O   UNL     1      23.337 -27.731 -13.677  1.00  0.00    -0.328 OA
ATOM      6  C   UNL     1      26.125 -28.255 -14.220  1.00  0.00     0.181 C 
ATOM      7  C   UNL     1      25.645 -27.574 -12.938  1.00  0.00     0.214 C 
BRANCH   3   8
ATOM      8  C   UNL     1      22.526 -29.128 -15.415  1.00  0.00     0.073 C 
ATOM      9  O   UNL     1      22.647 -30.375 -15.544  1.00  0.00    -0.547 OA
ATOM     10  O   UNL     1      21.370 -28.503 -15.881  1.00  0.00    -0.547 OA
ENDBRANCH   3   8
BRANCH   4  11
ATOM     11  O   UNL     1      25.388 -29.624 -16.065  1.00  0.00    -0.387 OA
ATOM     12  H   UNL     1      24.651 -30.208 -16.387  1.00  0.00     0.211 HD
ENDBRANCH   4  11
BRANCH   6  13
ATOM     13  O   UNL     1      26.558 -27.283 -15.142  1.00  0.00    -0.387 OA
ATOM     14  H   UNL     1      27.250 -26.740 -14.682  1.00  0.00     0.211 HD
ENDBRANCH   6  13
BRANCH   7  15
ATOM     15  O   UNL     1      26.633 -26.695 -12.455  1.00  0.00    -0.384 OA
ATOM     16  H   UNL     1      27.245 -26.511 -13.220  1.00  0.00     0.211 HD
ENDBRANCH   7  15
ENDBRANCH   1   2
BRANCH   1  17
ATOM     17  C   UNL     1      23.639 -24.606 -14.053  1.00  0.00     0.172 A 
ATOM     18  C   UNL     1      22.608 -24.537 -14.997  1.00  0.00     0.201 A 
ATOM     19  C   UNL     1      23.760 -23.612 -13.078  1.00  0.00     0.098 A 
ATOM     20  C   UNL     1      21.688 -23.471 -14.972  1.00  0.00     0.176 A 
ATOM     21  C   UNL     1      22.890 -22.521 -13.065  1.00  0.00     0.146 A 
ATOM     22  C   UNL     1      21.872 -22.402 -14.042  1.00  0.00     0.111 A 
ATOM     23  O   UNL     1      23.035 -21.606 -12.118  1.00  0.00    -0.456 OA
ATOM     24  C   UNL     1      21.103 -21.217 -14.027  1.00  0.00     0.197 A 
ATOM     25  C   UNL     1      22.277 -20.516 -12.030  1.00  0.00     0.138 A 
ATOM     26  C   UNL     1      21.286 -20.287 -13.002  1.00  0.00     0.100 A 
ATOM     27  O   UNL     1      20.285 -20.952 -14.952  1.00  0.00    -0.289 OA
BRANCH  18  28
ATOM     28  O   UNL     1      22.470 -25.591 -15.908  1.00  0.00    -0.502 OA
ATOM     29  H   UNL     1      23.090 -25.725 -16.702  1.00  0.00     0.293 HD
ENDBRANCH  18  28
BRANCH  20  30
ATOM     30  O   UNL     1      20.592 -23.540 -15.835  1.00  0.00    -0.504 OA
ATOM     31  H   UNL     1      20.665 -23.769 -16.816  1.00  0.00     0.293 HD
ENDBRANCH  20  30
BRANCH  25  32
ATOM     32  C   UNL     1      22.528 -19.585 -10.907  1.00  0.00     0.017 A 
ATOM     33  C   UNL     1      21.638 -18.520 -10.680  1.00  0.00     0.012 A 
ATOM     34  C   UNL     1      23.597 -19.783 -10.009  1.00  0.00     0.012 A 
ATOM     35  C   UNL     1      21.816 -17.672  -9.583  1.00  0.00     0.001 A 
ATOM     36  C   UNL     1      23.773 -18.926  -8.921  1.00  0.00     0.001 A 
ATOM     37  C   UNL     1      22.883 -17.876  -8.703  1.00  0.00     0.000 A 
ENDBRANCH  25  32
ENDBRANCH   1  17
TORSDOF 9
ENDMDL
