MODEL 1
REMARK VINA RESULT:    -5.229      0.000      0.000
REMARK INTER + INTRA:          -6.288
REMARK INTER:                  -5.993
REMARK INTRA:                  -0.295
REMARK UNBOUND:                -0.295
REMARK SMILES COc1ccc(C(C)=O)c(O)c1
REMARK SMILES IDX 6 1 10 2 12 3 3 4 4 5 5 6 7 7 8 8 9 9 11 10 2 12 1 13
REMARK H PARENT 11 11
REMARK Flexibility Score: inf
ROOT
ATOM      1  C   UNL     1      14.785  44.396   5.082  1.00  0.00     0.059 A 
ATOM      2  C   UNL     1      14.688  45.576   5.857  1.00  0.00     0.130 A 
ATOM      3  C   UNL     1      13.599  46.443   5.681  1.00  0.00     0.093 A 
ATOM      4  C   UNL     1      12.588  46.146   4.751  1.00  0.00     0.122 A 
ATOM      5  C   UNL     1      12.678  44.971   4.002  1.00  0.00     0.047 A 
ATOM      6  C   UNL     1      13.759  44.104   4.165  1.00  0.00     0.019 A 
ENDROOT
BRANCH   1   7
ATOM      7  C   UNL     1      15.924  43.446   5.210  1.00  0.00     0.163 C 
ATOM      8  C   UNL     1      16.931  43.247   4.119  1.00  0.00     0.093 C 
ATOM      9  O   UNL     1      16.053  42.777   6.271  1.00  0.00    -0.294 OA
ENDBRANCH   1   7
BRANCH   2  10
ATOM     10  O   UNL     1      15.654  45.881   6.816  1.00  0.00    -0.507 OA
ATOM     11  H   UNL     1      15.596  45.526   7.764  1.00  0.00     0.293 HD
ENDBRANCH   2  10
BRANCH   4  12
ATOM     12  O   UNL     1      11.482  46.984   4.545  1.00  0.00    -0.497 OA
ATOM     13  C   UNL     1      10.587  47.402   5.571  1.00  0.00     0.278 C 
ENDBRANCH   4  12
TORSDOF 3
ENDMDL
MODEL 2
REMARK VINA RESULT:    -5.178      2.148      2.821
REMARK INTER + INTRA:          -6.230
REMARK INTER:                  -5.893
REMARK INTRA:                  -0.336
REMARK UNBOUND:                -0.295
REMARK SMILES COc1ccc(C(C)=O)c(O)c1
REMARK SMILES IDX 6 1 10 2 12 3 3 4 4 5 5 6 7 7 8 8 9 9 11 10 2 12 1 13
REMARK H PARENT 11 11
REMARK Flexibility Score: inf
ROOT
ATOM      1  C   UNL     1      15.917  43.665   7.141  1.00  0.00     0.059 A 
ATOM      2  C   UNL     1      15.406  44.970   7.332  1.00  0.00     0.130 A 
ATOM      3  C   UNL     1      14.774  45.638   6.272  1.00  0.00     0.093 A 
ATOM      4  C   UNL     1      14.625  45.017   5.020  1.00  0.00     0.122 A 
ATOM      5  C   UNL     1      15.114  43.721   4.841  1.00  0.00     0.047 A 
ATOM      6  C   UNL     1      15.749  43.050   5.887  1.00  0.00     0.019 A 
ENDROOT
BRANCH   1   7
ATOM      7  C   UNL     1      16.613  42.912   8.221  1.00  0.00     0.163 C 
ATOM      8  C   UNL     1      16.313  41.476   8.521  1.00  0.00     0.093 C 
ATOM      9  O   UNL     1      17.487  43.498   8.916  1.00  0.00    -0.294 OA
ENDBRANCH   1   7
BRANCH   2  10
ATOM     10  O   UNL     1      15.502  45.600   8.573  1.00  0.00    -0.507 OA
ATOM     11  H   UNL     1      14.679  45.850   9.110  1.00  0.00     0.293 HD
ENDBRANCH   2  10
BRANCH   4  12
ATOM     12  O   UNL     1      13.999  45.648   3.934  1.00  0.00    -0.497 OA
ATOM     13  C   UNL     1      12.717  46.264   3.993  1.00  0.00     0.278 C 
ENDBRANCH   4  12
TORSDOF 3
ENDMDL
MODEL 3
REMARK VINA RESULT:    -5.100      2.514      3.587
REMARK INTER + INTRA:          -6.141
REMARK INTER:                  -5.820
REMARK INTRA:                  -0.321
REMARK UNBOUND:                -0.295
REMARK SMILES COc1ccc(C(C)=O)c(O)c1
REMARK SMILES IDX 6 1 10 2 12 3 3 4 4 5 5 6 7 7 8 8 9 9 11 10 2 12 1 13
REMARK H PARENT 11 11
REMARK Flexibility Score: inf
ROOT
ATOM      1  C   UNL     1      16.165  42.716   7.127  1.00  0.00     0.059 A 
ATOM      2  C   UNL     1      16.906  43.452   6.173  1.00  0.00     0.130 A 
ATOM      3  C   UNL     1      16.261  43.997   5.052  1.00  0.00     0.093 A 
ATOM      4  C   UNL     1      14.877  43.834   4.871  1.00  0.00     0.122 A 
ATOM      5  C   UNL     1      14.146  43.124   5.826  1.00  0.00     0.047 A 
ATOM      6  C   UNL     1      14.778  42.573   6.941  1.00  0.00     0.019 A 
ENDROOT
BRANCH   1   7
ATOM      7  C   UNL     1      16.794  42.100   8.327  1.00  0.00     0.163 C 
ATOM      8  C   UNL     1      16.339  40.788   8.889  1.00  0.00     0.093 C 
ATOM      9  O   UNL     1      17.745  42.698   8.901  1.00  0.00    -0.294 OA
ENDBRANCH   1   7
BRANCH   2  10
ATOM     10  O   UNL     1      18.274  43.666   6.342  1.00  0.00    -0.507 OA
ATOM     11  H   UNL     1      18.643  44.565   6.630  1.00  0.00     0.293 HD
ENDBRANCH   2  10
BRANCH   4  12
ATOM     12  O   UNL     1      14.193  44.363   3.766  1.00  0.00    -0.497 OA
ATOM     13  C   UNL     1      13.175  45.355   3.849  1.00  0.00     0.278 C 
ENDBRANCH   4  12
TORSDOF 3
ENDMDL
MODEL 4
REMARK VINA RESULT:    -5.087      2.295      4.667
REMARK INTER + INTRA:          -6.125
REMARK INTER:                  -5.790
REMARK INTRA:                  -0.335
REMARK UNBOUND:                -0.295
REMARK SMILES COc1ccc(C(C)=O)c(O)c1
REMARK SMILES IDX 6 1 10 2 12 3 3 4 4 5 5 6 7 7 8 8 9 9 11 10 2 12 1 13
REMARK H PARENT 11 11
REMARK Flexibility Score: inf
ROOT
ATOM      1  C   UNL     1      14.350  43.806   4.969  1.00  0.00     0.059 A 
ATOM      2  C   UNL     1      15.509  44.616   4.920  1.00  0.00     0.130 A 
ATOM      3  C   UNL     1      16.541  44.420   5.850  1.00  0.00     0.093 A 
ATOM      4  C   UNL     1      16.447  43.413   6.826  1.00  0.00     0.122 A 
ATOM      5  C   UNL     1      15.309  42.603   6.859  1.00  0.00     0.047 A 
ATOM      6  C   UNL     1      14.274  42.793   5.942  1.00  0.00     0.019 A 
ENDROOT
BRANCH   1   7
ATOM      7  C   UNL     1      13.214  43.976   4.023  1.00  0.00     0.163 C 
ATOM      8  C   UNL     1      12.631  42.832   3.253  1.00  0.00     0.093 C 
ATOM      9  O   UNL     1      12.718  45.124   3.854  1.00  0.00    -0.294 OA
ENDBRANCH   1   7
BRANCH   2  10
ATOM     10  O   UNL     1      15.653  45.598   3.940  1.00  0.00    -0.507 OA
ATOM     11  H   UNL     1      16.528  46.091   3.802  1.00  0.00     0.293 HD
ENDBRANCH   2  10
BRANCH   4  12
ATOM     12  O   UNL     1      17.456  43.183   7.773  1.00  0.00    -0.497 OA
ATOM     13  C   UNL     1      17.442  43.691   9.103  1.00  0.00     0.278 C 
ENDBRANCH   4  12
TORSDOF 3
ENDMDL
MODEL 5
REMARK VINA RESULT:    -5.062      1.728      2.708
REMARK INTER + INTRA:          -6.096
REMARK INTER:                  -5.754
REMARK INTRA:                  -0.343
REMARK UNBOUND:                -0.295
REMARK SMILES COc1ccc(C(C)=O)c(O)c1
REMARK SMILES IDX 6 1 10 2 12 3 3 4 4 5 5 6 7 7 8 8 9 9 11 10 2 12 1 13
REMARK H PARENT 11 11
REMARK Flexibility Score: inf
ROOT
ATOM      1  C   UNL     1      16.033  44.244   5.957  1.00  0.00     0.059 A 
ATOM      2  C   UNL     1      15.831  43.796   4.631  1.00  0.00     0.130 A 
ATOM      3  C   UNL     1      14.832  44.381   3.837  1.00  0.00     0.093 A 
ATOM      4  C   UNL     1      14.036  45.425   4.340  1.00  0.00     0.122 A 
ATOM      5  C   UNL     1      14.252  45.877   5.644  1.00  0.00     0.047 A 
ATOM      6  C   UNL     1      15.239  45.298   6.443  1.00  0.00     0.019 A 
ENDROOT
BRANCH   1   7
ATOM      7  C   UNL     1      17.063  43.651   6.853  1.00  0.00     0.163 C 
ATOM      8  C   UNL     1      16.733  43.110   8.210  1.00  0.00     0.093 C 
ATOM      9  O   UNL     1      18.263  43.601   6.466  1.00  0.00    -0.294 OA
ENDBRANCH   1   7
BRANCH   2  10
ATOM     10  O   UNL     1      16.629  42.789   4.087  1.00  0.00    -0.507 OA
ATOM     11  H   UNL     1      17.323  42.300   4.641  1.00  0.00     0.293 HD
ENDBRANCH   2  10
BRANCH   4  12
ATOM     12  O   UNL     1      13.029  46.038   3.580  1.00  0.00    -0.497 OA
ATOM     13  C   UNL     1      11.892  46.694   4.132  1.00  0.00     0.278 C 
ENDBRANCH   4  12
TORSDOF 3
ENDMDL
MODEL 6
REMARK VINA RESULT:    -5.036      1.107      1.148
REMARK INTER + INTRA:          -6.067
REMARK INTER:                  -5.745
REMARK INTRA:                  -0.321
REMARK UNBOUND:                -0.295
REMARK SMILES COc1ccc(C(C)=O)c(O)c1
REMARK SMILES IDX 6 1 10 2 12 3 3 4 4 5 5 6 7 7 8 8 9 9 11 10 2 12 1 13
REMARK H PARENT 11 11
REMARK Flexibility Score: inf
ROOT
ATOM      1  C   UNL     1      15.009  45.173   5.529  1.00  0.00     0.059 A 
ATOM      2  C   UNL     1      14.269  45.731   6.598  1.00  0.00     0.130 A 
ATOM      3  C   UNL     1      13.032  46.345   6.348  1.00  0.00     0.093 A 
ATOM      4  C   UNL     1      12.507  46.397   5.046  1.00  0.00     0.122 A 
ATOM      5  C   UNL     1      13.232  45.828   3.997  1.00  0.00     0.047 A 
ATOM      6  C   UNL     1      14.466  45.220   4.233  1.00  0.00     0.019 A 
ENDROOT
BRANCH   1   7
ATOM      7  C   UNL     1      16.335  44.525   5.727  1.00  0.00     0.163 C 
ATOM      8  C   UNL     1      16.792  43.361   4.901  1.00  0.00     0.093 C 
ATOM      9  O   UNL     1      17.109  44.963   6.622  1.00  0.00    -0.294 OA
ENDBRANCH   1   7
BRANCH   2  10
ATOM     10  O   UNL     1      14.743  45.661   7.908  1.00  0.00    -0.507 OA
ATOM     11  H   UNL     1      15.662  45.293   8.125  1.00  0.00     0.293 HD
ENDBRANCH   2  10
BRANCH   4  12
ATOM     12  O   UNL     1      11.274  47.000   4.753  1.00  0.00    -0.497 OA
ATOM     13  C   UNL     1      10.371  47.500   5.734  1.00  0.00     0.278 C 
ENDBRANCH   4  12
TORSDOF 3
ENDMDL
MODEL 7
REMARK VINA RESULT:    -5.025      2.027      4.822
REMARK INTER + INTRA:          -6.055
REMARK INTER:                  -5.735
REMARK INTRA:                  -0.320
REMARK UNBOUND:                -0.295
REMARK SMILES COc1ccc(C(C)=O)c(O)c1
REMARK SMILES IDX 6 1 10 2 12 3 3 4 4 5 5 6 7 7 8 8 9 9 11 10 2 12 1 13
REMARK H PARENT 11 11
REMARK Flexibility Score: inf
ROOT
ATOM      1  C   UNL     1      14.296  44.736   5.085  1.00  0.00     0.059 A 
ATOM      2  C   UNL     1      15.290  43.774   4.790  1.00  0.00     0.130 A 
ATOM      3  C   UNL     1      16.359  43.577   5.677  1.00  0.00     0.093 A 
ATOM      4  C   UNL     1      16.449  44.315   6.869  1.00  0.00     0.122 A 
ATOM      5  C   UNL     1      15.455  45.250   7.166  1.00  0.00     0.047 A 
ATOM      6  C   UNL     1      14.389  45.459   6.289  1.00  0.00     0.019 A 
ENDROOT
BRANCH   1   7
ATOM      7  C   UNL     1      13.147  45.004   4.177  1.00  0.00     0.163 C 
ATOM      8  C   UNL     1      12.585  46.378   3.975  1.00  0.00     0.093 C 
ATOM      9  O   UNL     1      12.619  44.045   3.551  1.00  0.00    -0.294 OA
ENDBRANCH   1   7
BRANCH   2  10
ATOM     10  O   UNL     1      15.211  42.997   3.635  1.00  0.00    -0.507 OA
ATOM     11  H   UNL     1      16.032  42.571   3.221  1.00  0.00     0.293 HD
ENDBRANCH   2  10
BRANCH   4  12
ATOM     12  O   UNL     1      17.500  44.148   7.783  1.00  0.00    -0.497 OA
ATOM     13  C   UNL     1      17.531  43.152   8.801  1.00  0.00     0.278 C 
ENDBRANCH   4  12
TORSDOF 3
ENDMDL
MODEL 8
REMARK VINA RESULT:    -5.014      1.506      4.569
REMARK INTER + INTRA:          -6.042
REMARK INTER:                  -5.743
REMARK INTRA:                  -0.299
REMARK UNBOUND:                -0.295
REMARK SMILES COc1ccc(C(C)=O)c(O)c1
REMARK SMILES IDX 6 1 10 2 12 3 3 4 4 5 5 6 7 7 8 8 9 9 11 10 2 12 1 13
REMARK H PARENT 11 11
REMARK Flexibility Score: inf
ROOT
ATOM      1  C   UNL     1      13.490  45.866   4.959  1.00  0.00     0.059 A 
ATOM      2  C   UNL     1      14.007  45.922   6.274  1.00  0.00     0.130 A 
ATOM      3  C   UNL     1      15.234  45.311   6.571  1.00  0.00     0.093 A 
ATOM      4  C   UNL     1      15.970  44.653   5.570  1.00  0.00     0.122 A 
ATOM      5  C   UNL     1      15.464  44.616   4.269  1.00  0.00     0.047 A 
ATOM      6  C   UNL     1      14.242  45.217   3.963  1.00  0.00     0.019 A 
ENDROOT
BRANCH   1   7
ATOM      7  C   UNL     1      12.186  46.480   4.585  1.00  0.00     0.163 C 
ATOM      8  C   UNL     1      11.868  46.899   3.182  1.00  0.00     0.093 C 
ATOM      9  O   UNL     1      11.311  46.660   5.475  1.00  0.00    -0.294 OA
ENDBRANCH   1   7
BRANCH   2  10
ATOM     10  O   UNL     1      13.323  46.601   7.282  1.00  0.00    -0.507 OA
ATOM     11  H   UNL     1      13.183  47.605   7.251  1.00  0.00     0.293 HD
ENDBRANCH   2  10
BRANCH   4  12
ATOM     12  O   UNL     1      17.201  44.030   5.824  1.00  0.00    -0.497 OA
ATOM     13  C   UNL     1      17.596  43.516   7.092  1.00  0.00     0.278 C 
ENDBRANCH   4  12
TORSDOF 3
ENDMDL
MODEL 9
REMARK VINA RESULT:    -4.818      2.498      4.940
REMARK INTER + INTRA:          -5.817
REMARK INTER:                  -5.478
REMARK INTRA:                  -0.339
REMARK UNBOUND:                -0.295
REMARK SMILES COc1ccc(C(C)=O)c(O)c1
REMARK SMILES IDX 6 1 10 2 12 3 3 4 4 5 5 6 7 7 8 8 9 9 11 10 2 12 1 13
REMARK H PARENT 11 11
REMARK Flexibility Score: inf
ROOT
ATOM      1  C   UNL     1      14.790  44.363   6.259  1.00  0.00     0.059 A 
ATOM      2  C   UNL     1      16.062  44.498   6.864  1.00  0.00     0.130 A 
ATOM      3  C   UNL     1      16.555  43.479   7.694  1.00  0.00     0.093 A 
ATOM      4  C   UNL     1      15.805  42.312   7.921  1.00  0.00     0.122 A 
ATOM      5  C   UNL     1      14.558  42.175   7.307  1.00  0.00     0.047 A 
ATOM      6  C   UNL     1      14.056  43.184   6.484  1.00  0.00     0.019 A 
ENDROOT
BRANCH   1   7
ATOM      7  C   UNL     1      14.205  45.415   5.384  1.00  0.00     0.163 C 
ATOM      8  C   UNL     1      13.752  45.135   3.984  1.00  0.00     0.093 C 
ATOM      9  O   UNL     1      14.083  46.590   5.827  1.00  0.00    -0.294 OA
ENDBRANCH   1   7
BRANCH   2  10
ATOM     10  O   UNL     1      16.849  45.625   6.628  1.00  0.00    -0.507 OA
ATOM     11  H   UNL     1      16.776  46.157   5.768  1.00  0.00     0.293 HD
ENDBRANCH   2  10
BRANCH   4  12
ATOM     12  O   UNL     1      16.261  41.270   8.743  1.00  0.00    -0.497 OA
ATOM     13  C   UNL     1      15.429  40.252   9.288  1.00  0.00     0.278 C 
ENDBRANCH   4  12
TORSDOF 3
ENDMDL
