MODEL 1
REMARK VINA RESULT:    -2.952      0.000      0.000
REMARK INTER + INTRA:          -3.039
REMARK INTER:                  -3.039
REMARK INTRA:                   0.000
REMARK UNBOUND:                 0.000
REMARK SMILES CC1(C)[C@H]2CC[C@]1(C)[C@@H](O)C2
REMARK SMILES IDX 1 1 2 2 4 3 5 4 6 5 7 6 9 7 11 8 8 9 3 10 10 11
REMARK H PARENT 10 12
REMARK Flexibility Score: inf
ROOT
ATOM      1  C   UNL     1     168.066 159.873 168.956  1.00  0.00     0.012 C 
ATOM      2  C   UNL     1     168.932 159.456 170.184  1.00  0.00    -0.025 C 
ATOM      3  C   UNL     1     170.087 158.503 169.831  1.00  0.00    -0.002 C 
ATOM      4  C   UNL     1     170.695 158.158 171.213  1.00  0.00     0.005 C 
ATOM      5  C   UNL     1     169.456 158.110 172.131  1.00  0.00     0.010 C 
ATOM      6  C   UNL     1     168.294 158.426 171.147  1.00  0.00    -0.001 C 
ATOM      7  C   UNL     1     168.127 157.145 170.275  1.00  0.00     0.121 C 
ATOM      8  C   UNL     1     169.363 157.221 169.345  1.00  0.00     0.036 C 
ATOM      9  C   UNL     1     167.014 158.877 171.865  1.00  0.00     0.015 C 
ATOM     10  C   UNL     1     169.394 160.792 170.846  1.00  0.00     0.012 C 
ENDROOT
BRANCH   7  11
ATOM     11  O   UNL     1     166.926 157.158 169.548  1.00  0.00    -0.393 OA
ATOM     12  H   UNL     1     166.576 158.086 169.599  1.00  0.00     0.210 HD
ENDBRANCH   7  11
TORSDOF 1
ENDMDL
MODEL 2
REMARK VINA RESULT:    -2.949     14.197     15.829
REMARK INTER + INTRA:          -3.035
REMARK INTER:                  -3.035
REMARK INTRA:                   0.000
REMARK UNBOUND:                 0.000
REMARK SMILES CC1(C)[C@H]2CC[C@]1(C)[C@@H](O)C2
REMARK SMILES IDX 1 1 2 2 4 3 5 4 6 5 7 6 9 7 11 8 8 9 3 10 10 11
REMARK H PARENT 10 12
REMARK Flexibility Score: inf
ROOT
ATOM      1  C   UNL     1     163.028 171.253 168.961  1.00  0.00     0.012 C 
ATOM      2  C   UNL     1     162.193 171.688 170.205  1.00  0.00    -0.025 C 
ATOM      3  C   UNL     1     161.001 172.598 169.862  1.00  0.00    -0.002 C 
ATOM      4  C   UNL     1     160.431 172.973 171.252  1.00  0.00     0.005 C 
ATOM      5  C   UNL     1     161.699 173.084 172.124  1.00  0.00     0.010 C 
ATOM      6  C   UNL     1     162.835 172.766 171.111  1.00  0.00    -0.001 C 
ATOM      7  C   UNL     1     162.937 174.021 170.192  1.00  0.00     0.121 C 
ATOM      8  C   UNL     1     161.673 173.881 169.309  1.00  0.00     0.036 C 
ATOM      9  C   UNL     1     164.151 172.374 171.798  1.00  0.00     0.015 C 
ATOM     10  C   UNL     1     161.791 170.363 170.926  1.00  0.00     0.012 C 
ENDROOT
BRANCH   7  11
ATOM     11  O   UNL     1     164.112 174.015 169.424  1.00  0.00    -0.393 OA
ATOM     12  H   UNL     1     164.421 174.958 169.373  1.00  0.00     0.210 HD
ENDBRANCH   7  11
TORSDOF 1
ENDMDL
MODEL 3
REMARK VINA RESULT:    -2.920     14.573     16.223
REMARK INTER + INTRA:          -3.005
REMARK INTER:                  -3.005
REMARK INTRA:                   0.000
REMARK UNBOUND:                 0.000
REMARK SMILES CC1(C)[C@H]2CC[C@]1(C)[C@@H](O)C2
REMARK SMILES IDX 1 1 2 2 4 3 5 4 6 5 7 6 9 7 11 8 8 9 3 10 10 11
REMARK H PARENT 10 12
REMARK Flexibility Score: inf
ROOT
ATOM      1  C   UNL     1     161.322 171.237 169.392  1.00  0.00     0.012 C 
ATOM      2  C   UNL     1     162.349 172.081 170.207  1.00  0.00    -0.025 C 
ATOM      3  C   UNL     1     161.760 172.710 171.481  1.00  0.00    -0.002 C 
ATOM      4  C   UNL     1     162.926 173.573 172.022  1.00  0.00     0.005 C 
ATOM      5  C   UNL     1     163.592 174.095 170.732  1.00  0.00     0.010 C 
ATOM      6  C   UNL     1     162.711 173.466 169.617  1.00  0.00    -0.001 C 
ATOM      7  C   UNL     1     161.367 174.256 169.654  1.00  0.00     0.121 C 
ATOM      8  C   UNL     1     160.701 173.704 170.938  1.00  0.00     0.036 C 
ATOM      9  C   UNL     1     163.403 173.455 168.247  1.00  0.00     0.015 C 
ATOM     10  C   UNL     1     163.559 171.132 170.472  1.00  0.00     0.012 C 
ENDROOT
BRANCH   7  11
ATOM     11  O   UNL     1     160.584 174.013 168.515  1.00  0.00    -0.393 OA
ATOM     12  H   UNL     1     160.227 174.893 168.224  1.00  0.00     0.210 HD
ENDBRANCH   7  11
TORSDOF 1
ENDMDL
MODEL 4
REMARK VINA RESULT:    -2.910      1.638      2.406
REMARK INTER + INTRA:          -2.995
REMARK INTER:                  -2.995
REMARK INTRA:                   0.000
REMARK UNBOUND:                 0.000
REMARK SMILES CC1(C)[C@H]2CC[C@]1(C)[C@@H](O)C2
REMARK SMILES IDX 1 1 2 2 4 3 5 4 6 5 7 6 9 7 11 8 8 9 3 10 10 11
REMARK H PARENT 10 12
REMARK Flexibility Score: inf
ROOT
ATOM      1  C   UNL     1     169.821 160.009 169.444  1.00  0.00     0.012 C 
ATOM      2  C   UNL     1     168.833 159.122 170.262  1.00  0.00    -0.025 C 
ATOM      3  C   UNL     1     169.450 158.518 171.534  1.00  0.00    -0.002 C 
ATOM      4  C   UNL     1     168.323 157.607 172.078  1.00  0.00     0.005 C 
ATOM      5  C   UNL     1     167.675 157.058 170.789  1.00  0.00     0.010 C 
ATOM      6  C   UNL     1     168.527 157.723 169.672  1.00  0.00    -0.001 C 
ATOM      7  C   UNL     1     169.903 156.990 169.706  1.00  0.00     0.121 C 
ATOM      8  C   UNL     1     170.549 157.569 170.988  1.00  0.00     0.036 C 
ATOM      9  C   UNL     1     167.832 157.706 168.303  1.00  0.00     0.015 C 
ATOM     10  C   UNL     1     167.584 160.020 170.529  1.00  0.00     0.012 C 
ENDROOT
BRANCH   7  11
ATOM     11  O   UNL     1     170.672 157.266 168.565  1.00  0.00    -0.393 OA
ATOM     12  H   UNL     1     170.449 158.195 168.292  1.00  0.00     0.210 HD
ENDBRANCH   7  11
TORSDOF 1
ENDMDL
MODEL 5
REMARK VINA RESULT:    -2.894      1.361      2.661
REMARK INTER + INTRA:          -2.979
REMARK INTER:                  -2.979
REMARK INTRA:                   0.000
REMARK UNBOUND:                 0.000
REMARK SMILES CC1(C)[C@H]2CC[C@]1(C)[C@@H](O)C2
REMARK SMILES IDX 1 1 2 2 4 3 5 4 6 5 7 6 9 7 11 8 8 9 3 10 10 11
REMARK H PARENT 10 12
REMARK Flexibility Score: inf
ROOT
ATOM      1  C   UNL     1     167.872 157.626 168.458  1.00  0.00     0.012 C 
ATOM      2  C   UNL     1     168.919 157.554 169.611  1.00  0.00    -0.025 C 
ATOM      3  C   UNL     1     168.387 156.885 170.890  1.00  0.00    -0.002 C 
ATOM      4  C   UNL     1     169.557 157.051 171.890  1.00  0.00     0.005 C 
ATOM      5  C   UNL     1     170.133 158.432 171.517  1.00  0.00     0.010 C 
ATOM      6  C   UNL     1     169.207 158.882 170.352  1.00  0.00    -0.001 C 
ATOM      7  C   UNL     1     167.846 159.246 171.020  1.00  0.00     0.121 C 
ATOM      8  C   UNL     1     167.270 157.851 171.366  1.00  0.00     0.036 C 
ATOM      9  C   UNL     1     169.819 160.007 169.506  1.00  0.00     0.015 C 
ATOM     10  C   UNL     1     170.170 156.846 169.001  1.00  0.00     0.012 C 
ENDROOT
BRANCH   7  11
ATOM     11  O   UNL     1     167.006 159.954 170.146  1.00  0.00    -0.393 OA
ATOM     12  H   UNL     1     166.391 159.286 169.743  1.00  0.00     0.210 HD
ENDBRANCH   7  11
TORSDOF 1
ENDMDL
MODEL 6
REMARK VINA RESULT:    -2.885     14.547     15.995
REMARK INTER + INTRA:          -2.969
REMARK INTER:                  -2.969
REMARK INTRA:                   0.000
REMARK UNBOUND:                 0.000
REMARK SMILES CC1(C)[C@H]2CC[C@]1(C)[C@@H](O)C2
REMARK SMILES IDX 1 1 2 2 4 3 5 4 6 5 7 6 9 7 11 8 8 9 3 10 10 11
REMARK H PARENT 10 12
REMARK Flexibility Score: inf
ROOT
ATOM      1  C   UNL     1     163.348 173.602 168.488  1.00  0.00     0.012 C 
ATOM      2  C   UNL     1     162.306 173.683 169.645  1.00  0.00    -0.025 C 
ATOM      3  C   UNL     1     162.850 174.348 170.922  1.00  0.00    -0.002 C 
ATOM      4  C   UNL     1     161.683 174.193 171.927  1.00  0.00     0.005 C 
ATOM      5  C   UNL     1     161.092 172.817 171.556  1.00  0.00     0.010 C 
ATOM      6  C   UNL     1     162.009 172.358 170.388  1.00  0.00    -0.001 C 
ATOM      7  C   UNL     1     163.370 171.982 171.051  1.00  0.00     0.121 C 
ATOM      8  C   UNL     1     163.960 173.372 171.393  1.00  0.00     0.036 C 
ATOM      9  C   UNL     1     161.383 171.238 169.545  1.00  0.00     0.015 C 
ATOM     10  C   UNL     1     161.060 174.402 169.040  1.00  0.00     0.012 C 
ENDROOT
BRANCH   7  11
ATOM     11  O   UNL     1     164.200 171.266 170.174  1.00  0.00    -0.393 OA
ATOM     12  H   UNL     1     163.651 170.522 169.810  1.00  0.00     0.210 HD
ENDBRANCH   7  11
TORSDOF 1
ENDMDL
MODEL 7
REMARK VINA RESULT:    -2.855      1.336      2.843
REMARK INTER + INTRA:          -2.938
REMARK INTER:                  -2.938
REMARK INTRA:                   0.000
REMARK UNBOUND:                 0.000
REMARK SMILES CC1(C)[C@H]2CC[C@]1(C)[C@@H](O)C2
REMARK SMILES IDX 1 1 2 2 4 3 5 4 6 5 7 6 9 7 11 8 8 9 3 10 10 11
REMARK H PARENT 10 12
REMARK Flexibility Score: inf
ROOT
ATOM      1  C   UNL     1     167.072 158.371 171.565  1.00  0.00     0.012 C 
ATOM      2  C   UNL     1     168.464 157.870 171.072  1.00  0.00    -0.025 C 
ATOM      3  C   UNL     1     169.632 158.778 171.491  1.00  0.00    -0.002 C 
ATOM      4  C   UNL     1     170.852 158.136 170.786  1.00  0.00     0.005 C 
ATOM      5  C   UNL     1     170.254 157.639 169.453  1.00  0.00     0.010 C 
ATOM      6  C   UNL     1     168.766 158.073 169.567  1.00  0.00    -0.001 C 
ATOM      7  C   UNL     1     168.769 159.622 169.387  1.00  0.00     0.121 C 
ATOM      8  C   UNL     1     169.348 160.105 170.740  1.00  0.00     0.036 C 
ATOM      9  C   UNL     1     167.851 157.323 168.589  1.00  0.00     0.015 C 
ATOM     10  C   UNL     1     168.589 156.401 171.585  1.00  0.00     0.012 C 
ENDROOT
BRANCH   7  11
ATOM     11  O   UNL     1     167.479 160.127 169.163  1.00  0.00    -0.393 OA
ATOM     12  H   UNL     1     167.594 161.039 168.787  1.00  0.00     0.210 HD
ENDBRANCH   7  11
TORSDOF 1
ENDMDL
MODEL 8
REMARK VINA RESULT:    -2.854     14.424     15.913
REMARK INTER + INTRA:          -2.938
REMARK INTER:                  -2.938
REMARK INTRA:                   0.000
REMARK UNBOUND:                 0.000
REMARK SMILES CC1(C)[C@H]2CC[C@]1(C)[C@@H](O)C2
REMARK SMILES IDX 1 1 2 2 4 3 5 4 6 5 7 6 9 7 11 8 8 9 3 10 10 11
REMARK H PARENT 10 12
REMARK Flexibility Score: inf
ROOT
ATOM      1  C   UNL     1     164.123 172.869 171.574  1.00  0.00     0.012 C 
ATOM      2  C   UNL     1     162.724 173.352 171.085  1.00  0.00    -0.025 C 
ATOM      3  C   UNL     1     161.567 172.435 171.518  1.00  0.00    -0.002 C 
ATOM      4  C   UNL     1     160.337 173.061 170.815  1.00  0.00     0.005 C 
ATOM      5  C   UNL     1     160.922 173.554 169.475  1.00  0.00     0.010 C 
ATOM      6  C   UNL     1     162.416 173.136 169.584  1.00  0.00    -0.001 C 
ATOM      7  C   UNL     1     162.427 171.586 169.415  1.00  0.00     0.121 C 
ATOM      8  C   UNL     1     161.861 171.106 170.774  1.00  0.00     0.036 C 
ATOM      9  C   UNL     1     163.318 173.888 168.595  1.00  0.00     0.015 C 
ATOM     10  C   UNL     1     162.586 174.823 171.589  1.00  0.00     0.012 C 
ENDROOT
BRANCH   7  11
ATOM     11  O   UNL     1     163.721 171.092 169.186  1.00  0.00    -0.393 OA
ATOM     12  H   UNL     1     164.297 171.883 169.009  1.00  0.00     0.210 HD
ENDBRANCH   7  11
TORSDOF 1
ENDMDL
MODEL 9
REMARK VINA RESULT:    -2.789     14.908     16.117
REMARK INTER + INTRA:          -2.870
REMARK INTER:                  -2.870
REMARK INTRA:                   0.000
REMARK UNBOUND:                 0.000
REMARK SMILES CC1(C)[C@H]2CC[C@]1(C)[C@@H](O)C2
REMARK SMILES IDX 1 1 2 2 4 3 5 4 6 5 7 6 9 7 11 8 8 9 3 10 10 11
REMARK H PARENT 10 12
REMARK Flexibility Score: inf
ROOT
ATOM      1  C   UNL     1     163.029 173.874 168.578  1.00  0.00     0.012 C 
ATOM      2  C   UNL     1     162.946 173.442 170.074  1.00  0.00    -0.025 C 
ATOM      3  C   UNL     1     162.935 171.917 170.278  1.00  0.00    -0.002 C 
ATOM      4  C   UNL     1     162.728 171.765 171.805  1.00  0.00     0.005 C 
ATOM      5  C   UNL     1     161.784 172.938 172.141  1.00  0.00     0.010 C 
ATOM      6  C   UNL     1     161.565 173.605 170.754  1.00  0.00    -0.001 C 
ATOM      7  C   UNL     1     160.638 172.631 169.965  1.00  0.00     0.121 C 
ATOM      8  C   UNL     1     161.605 171.473 169.614  1.00  0.00     0.036 C 
ATOM      9  C   UNL     1     161.032 175.040 170.862  1.00  0.00     0.015 C 
ATOM     10  C   UNL     1     164.131 174.166 170.788  1.00  0.00     0.012 C 
ENDROOT
BRANCH   7  11
ATOM     11  O   UNL     1     160.105 173.231 168.814  1.00  0.00    -0.393 OA
ATOM     12  H   UNL     1     160.879 173.534 168.270  1.00  0.00     0.210 HD
ENDBRANCH   7  11
TORSDOF 1
ENDMDL
