MODEL 1
REMARK VINA RESULT:    -3.546      0.000      0.000
REMARK INTER + INTRA:          -3.857
REMARK INTER:                  -3.857
REMARK INTRA:                   0.000
REMARK UNBOUND:                 0.000
REMARK SMILES [NH3+]CC(=O)[O-]
REMARK SMILES IDX 2 1 1 2 3 6 4 7 5 8
REMARK H PARENT 1 3 1 4 1 5
REMARK Flexibility Score: inf
ROOT
ATOM      1  C   UNL     1     -18.631  26.224 -19.691  1.00  0.00     0.312 C 
ENDROOT
BRANCH   1   2
ATOM      2  N   UNL     1     -17.972  27.047 -20.702  1.00  0.00    -0.353 N 
ATOM      3  H   UNL     1     -17.307  27.714 -20.246  1.00  0.00     0.344 HD
ATOM      4  H   UNL     1     -18.695  27.594 -21.224  1.00  0.00     0.344 HD
ATOM      5  H   UNL     1     -17.454  26.440 -21.379  1.00  0.00     0.344 HD
ENDBRANCH   1   2
BRANCH   1   6
ATOM      6  C   UNL     1     -19.629  25.305 -20.327  1.00  0.00     0.096 C 
ATOM      7  O   UNL     1     -20.382  25.725 -21.244  1.00  0.00    -0.544 OA
ATOM      8  O   UNL     1     -19.691  23.972 -19.942  1.00  0.00    -0.544 OA
ENDBRANCH   1   6
TORSDOF 2
ENDMDL
MODEL 2
REMARK VINA RESULT:    -3.272      2.168      2.375
REMARK INTER + INTRA:          -3.559
REMARK INTER:                  -3.559
REMARK INTRA:                   0.000
REMARK UNBOUND:                 0.000
REMARK SMILES [NH3+]CC(=O)[O-]
REMARK SMILES IDX 2 1 1 2 3 6 4 7 5 8
REMARK H PARENT 1 3 1 4 1 5
REMARK Flexibility Score: inf
ROOT
ATOM      1  C   UNL     1     -19.498  23.809 -20.389  1.00  0.00     0.312 C 
ENDROOT
BRANCH   1   2
ATOM      2  N   UNL     1     -18.875  23.291 -21.605  1.00  0.00    -0.353 N 
ATOM      3  H   UNL     1     -17.870  23.060 -21.425  1.00  0.00     0.344 HD
ATOM      4  H   UNL     1     -18.925  24.021 -22.353  1.00  0.00     0.344 HD
ATOM      5  H   UNL     1     -19.381  22.436 -21.933  1.00  0.00     0.344 HD
ENDBRANCH   1   2
BRANCH   1   6
ATOM      6  C   UNL     1     -19.607  25.302 -20.446  1.00  0.00     0.096 C 
ATOM      7  O   UNL     1     -20.452  25.846 -21.202  1.00  0.00    -0.544 OA
ATOM      8  O   UNL     1     -18.809  26.089 -19.624  1.00  0.00    -0.544 OA
ENDBRANCH   1   6
TORSDOF 2
ENDMDL
MODEL 3
REMARK VINA RESULT:    -3.086      2.731      3.232
REMARK INTER + INTRA:          -3.356
REMARK INTER:                  -3.356
REMARK INTRA:                   0.000
REMARK UNBOUND:                 0.000
REMARK SMILES [NH3+]CC(=O)[O-]
REMARK SMILES IDX 2 1 1 2 3 6 4 7 5 8
REMARK H PARENT 1 3 1 4 1 5
REMARK Flexibility Score: inf
ROOT
ATOM      1  C   UNL     1     -18.777  22.435 -20.537  1.00  0.00     0.312 C 
ENDROOT
BRANCH   1   2
ATOM      2  N   UNL     1     -18.650  23.014 -21.873  1.00  0.00    -0.353 N 
ATOM      3  H   UNL     1     -18.245  23.977 -21.810  1.00  0.00     0.344 HD
ATOM      4  H   UNL     1     -19.598  23.072 -22.312  1.00  0.00     0.344 HD
ATOM      5  H   UNL     1     -18.038  22.410 -22.469  1.00  0.00     0.344 HD
ENDBRANCH   1   2
BRANCH   1   6
ATOM      6  C   UNL     1     -19.600  23.322 -19.653  1.00  0.00     0.096 C 
ATOM      7  O   UNL     1     -20.474  22.826 -18.896  1.00  0.00    -0.544 OA
ATOM      8  O   UNL     1     -19.365  24.691 -19.630  1.00  0.00    -0.544 OA
ENDBRANCH   1   6
TORSDOF 2
ENDMDL
MODEL 4
REMARK VINA RESULT:    -3.071     13.646     14.119
REMARK INTER + INTRA:          -3.340
REMARK INTER:                  -3.340
REMARK INTRA:                   0.000
REMARK UNBOUND:                 0.000
REMARK SMILES [NH3+]CC(=O)[O-]
REMARK SMILES IDX 2 1 1 2 3 6 4 7 5 8
REMARK H PARENT 1 3 1 4 1 5
REMARK Flexibility Score: inf
ROOT
ATOM      1  C   UNL     1     -32.083  25.447 -23.619  1.00  0.00     0.312 C 
ENDROOT
BRANCH   1   2
ATOM      2  N   UNL     1     -31.184  24.320 -23.381  1.00  0.00    -0.353 N 
ATOM      3  H   UNL     1     -30.499  24.559 -22.628  1.00  0.00     0.344 HD
ATOM      4  H   UNL     1     -30.661  24.107 -24.262  1.00  0.00     0.344 HD
ATOM      5  H   UNL     1     -31.735  23.474 -23.103  1.00  0.00     0.344 HD
ENDBRANCH   1   2
BRANCH   1   6
ATOM      6  C   UNL     1     -32.996  25.161 -24.771  1.00  0.00     0.096 C 
ATOM      7  O   UNL     1     -32.841  24.118 -25.458  1.00  0.00    -0.544 OA
ATOM      8  O   UNL     1     -34.051  26.021 -25.053  1.00  0.00    -0.544 OA
ENDBRANCH   1   6
TORSDOF 2
ENDMDL
MODEL 5
REMARK VINA RESULT:    -3.058      2.943      3.194
REMARK INTER + INTRA:          -3.326
REMARK INTER:                  -3.326
REMARK INTRA:                   0.000
REMARK UNBOUND:                 0.000
REMARK SMILES [NH3+]CC(=O)[O-]
REMARK SMILES IDX 2 1 1 2 3 6 4 7 5 8
REMARK H PARENT 1 3 1 4 1 5
REMARK Flexibility Score: inf
ROOT
ATOM      1  C   UNL     1     -19.527  23.998 -20.028  1.00  0.00     0.312 C 
ENDROOT
BRANCH   1   2
ATOM      2  N   UNL     1     -19.132  24.011 -21.434  1.00  0.00    -0.353 N 
ATOM      3  H   UNL     1     -19.210  23.049 -21.838  1.00  0.00     0.344 HD
ATOM      4  H   UNL     1     -18.138  24.329 -21.508  1.00  0.00     0.344 HD
ATOM      5  H   UNL     1     -19.739  24.671 -21.973  1.00  0.00     0.344 HD
ENDBRANCH   1   2
BRANCH   1   6
ATOM      6  C   UNL     1     -19.635  22.593 -19.522  1.00  0.00     0.096 C 
ATOM      7  O   UNL     1     -18.777  21.734 -19.852  1.00  0.00    -0.544 OA
ATOM      8  O   UNL     1     -20.654  22.246 -18.644  1.00  0.00    -0.544 OA
ENDBRANCH   1   6
TORSDOF 2
ENDMDL
MODEL 6
REMARK VINA RESULT:    -2.893      3.760      4.137
REMARK INTER + INTRA:          -3.146
REMARK INTER:                  -3.146
REMARK INTRA:                   0.000
REMARK UNBOUND:                 0.000
REMARK SMILES [NH3+]CC(=O)[O-]
REMARK SMILES IDX 2 1 1 2 3 6 4 7 5 8
REMARK H PARENT 1 3 1 4 1 5
REMARK Flexibility Score: inf
ROOT
ATOM      1  C   UNL     1     -20.758  22.052 -19.169  1.00  0.00     0.312 C 
ENDROOT
BRANCH   1   2
ATOM      2  N   UNL     1     -20.831  21.994 -17.711  1.00  0.00    -0.353 N 
ATOM      3  H   UNL     1     -20.268  22.770 -17.292  1.00  0.00     0.344 HD
ATOM      4  H   UNL     1     -20.442  21.080 -17.385  1.00  0.00     0.344 HD
ATOM      5  H   UNL     1     -21.826  22.070 -17.397  1.00  0.00     0.344 HD
ENDBRANCH   1   2
BRANCH   1   6
ATOM      6  C   UNL     1     -19.457  22.650 -19.610  1.00  0.00     0.096 C 
ATOM      7  O   UNL     1     -19.335  23.898 -19.708  1.00  0.00    -0.544 OA
ATOM      8  O   UNL     1     -18.365  21.829 -19.863  1.00  0.00    -0.544 OA
ENDBRANCH   1   6
TORSDOF 2
ENDMDL
MODEL 7
REMARK VINA RESULT:    -2.827      5.855      6.225
REMARK INTER + INTRA:          -3.075
REMARK INTER:                  -3.075
REMARK INTRA:                   0.000
REMARK UNBOUND:                 0.000
REMARK SMILES [NH3+]CC(=O)[O-]
REMARK SMILES IDX 2 1 1 2 3 6 4 7 5 8
REMARK H PARENT 1 3 1 4 1 5
REMARK Flexibility Score: inf
ROOT
ATOM      1  C   UNL     1     -22.187  20.679 -16.687  1.00  0.00     0.312 C 
ENDROOT
BRANCH   1   2
ATOM      2  N   UNL     1     -22.206  21.400 -15.417  1.00  0.00    -0.353 N 
ATOM      3  H   UNL     1     -21.328  21.210 -14.881  1.00  0.00     0.344 HD
ATOM      4  H   UNL     1     -23.025  21.076 -14.852  1.00  0.00     0.344 HD
ATOM      5  H   UNL     1     -22.300  22.428 -15.588  1.00  0.00     0.344 HD
ENDBRANCH   1   2
BRANCH   1   6
ATOM      6  C   UNL     1     -22.157  21.638 -17.838  1.00  0.00     0.096 C 
ATOM      7  O   UNL     1     -23.221  22.173 -18.243  1.00  0.00    -0.544 OA
ATOM      8  O   UNL     1     -20.946  21.977 -18.429  1.00  0.00    -0.544 OA
ENDBRANCH   1   6
TORSDOF 2
ENDMDL
MODEL 8
REMARK VINA RESULT:    -2.788      4.256      4.317
REMARK INTER + INTRA:          -3.033
REMARK INTER:                  -3.033
REMARK INTRA:                   0.000
REMARK UNBOUND:                 0.000
REMARK SMILES [NH3+]CC(=O)[O-]
REMARK SMILES IDX 2 1 1 2 3 6 4 7 5 8
REMARK H PARENT 1 3 1 4 1 5
REMARK Flexibility Score: inf
ROOT
ATOM      1  C   UNL     1     -20.129  22.599 -18.967  1.00  0.00     0.312 C 
ENDROOT
BRANCH   1   2
ATOM      2  N   UNL     1     -20.735  22.071 -17.746  1.00  0.00    -0.353 N 
ATOM      3  H   UNL     1     -21.777  22.054 -17.840  1.00  0.00     0.344 HD
ATOM      4  H   UNL     1     -20.477  22.687 -16.942  1.00  0.00     0.344 HD
ATOM      5  H   UNL     1     -20.381  21.104 -17.559  1.00  0.00     0.344 HD
ENDBRANCH   1   2
BRANCH   1   6
ATOM      6  C   UNL     1     -20.858  22.100 -20.177  1.00  0.00     0.096 C 
ATOM      7  O   UNL     1     -22.115  22.135 -20.217  1.00  0.00    -0.544 OA
ATOM      8  O   UNL     1     -20.144  21.645 -21.279  1.00  0.00    -0.544 OA
ENDBRANCH   1   6
TORSDOF 2
ENDMDL
MODEL 9
REMARK VINA RESULT:    -2.784     13.584     13.915
REMARK INTER + INTRA:          -3.028
REMARK INTER:                  -3.028
REMARK INTRA:                   0.000
REMARK UNBOUND:                 0.000
REMARK SMILES [NH3+]CC(=O)[O-]
REMARK SMILES IDX 2 1 1 2 3 6 4 7 5 8
REMARK H PARENT 1 3 1 4 1 5
REMARK Flexibility Score: inf
ROOT
ATOM      1  C   UNL     1     -31.621  25.675 -23.369  1.00  0.00     0.312 C 
ENDROOT
BRANCH   1   2
ATOM      2  N   UNL     1     -31.153  24.291 -23.367  1.00  0.00    -0.353 N 
ATOM      3  H   UNL     1     -31.765  23.705 -22.753  1.00  0.00     0.344 HD
ATOM      4  H   UNL     1     -30.175  24.261 -22.998  1.00  0.00     0.344 HD
ATOM      5  H   UNL     1     -31.159  23.908 -24.341  1.00  0.00     0.344 HD
ENDBRANCH   1   2
BRANCH   1   6
ATOM      6  C   UNL     1     -33.112  25.728 -23.503  1.00  0.00     0.096 C 
ATOM      7  O   UNL     1     -33.761  24.685 -23.775  1.00  0.00    -0.544 OA
ATOM      8  O   UNL     1     -33.788  26.921 -23.278  1.00  0.00    -0.544 OA
ENDBRANCH   1   6
TORSDOF 2
ENDMDL
