MODEL 1
REMARK VINA RESULT:    -6.836      0.000      0.000
REMARK INTER + INTRA:          -8.294
REMARK INTER:                  -8.035
REMARK INTRA:                  -0.259
REMARK UNBOUND:                -0.259
REMARK SMILES O=c1c(O)c(-c2ccc(O)c(O)c2)oc2cc(O)ccc12
REMARK SMILES IDX 5 1 3 2 2 3 1 4 21 5 15 6 14 7 16 8 17 9 19 10 20 11 6 12
REMARK SMILES IDX 7 13 8 14 9 15 13 16 11 17 10 18 12 20 4 22 18 24
REMARK H PARENT 10 19 12 21 4 23 18 25
REMARK Flexibility Score: inf
ROOT
ATOM      1  C   UNL     1       6.462   6.096  18.631  1.00  0.00     0.180 A 
ATOM      2  C   UNL     1       7.203   4.923  18.882  1.00  0.00     0.208 A 
ATOM      3  C   UNL     1       6.910   3.766  18.144  1.00  0.00     0.235 A 
ATOM      4  O   UNL     1       7.551   2.701  18.358  1.00  0.00    -0.285 OA
ATOM      5  C   UNL     1       5.904   3.809  17.164  1.00  0.00     0.069 A 
ATOM      6  C   UNL     1       5.225   5.029  16.956  1.00  0.00     0.142 A 
ATOM      7  O   UNL     1       5.527   6.099  17.682  1.00  0.00    -0.452 OA
ATOM      8  C   UNL     1       4.224   5.115  15.983  1.00  0.00     0.094 A 
ATOM      9  C   UNL     1       3.890   3.996  15.212  1.00  0.00     0.119 A 
ATOM     10  C   UNL     1       4.562   2.783  15.417  1.00  0.00     0.047 A 
ATOM     11  C   UNL     1       5.564   2.687  16.387  1.00  0.00     0.020 A 
ENDROOT
BRANCH   1  12
ATOM     12  C   UNL     1       6.699   7.351  19.379  1.00  0.00     0.025 A 
ATOM     13  C   UNL     1       6.288   7.496  20.716  1.00  0.00     0.016 A 
ATOM     14  C   UNL     1       6.501   8.698  21.395  1.00  0.00     0.051 A 
ATOM     15  C   UNL     1       7.115   9.777  20.746  1.00  0.00     0.157 A 
ATOM     16  C   UNL     1       7.296   8.443  18.727  1.00  0.00     0.062 A 
ATOM     17  C   UNL     1       7.512   9.649  19.405  1.00  0.00     0.158 A 
BRANCH  15  18
ATOM     18  O   UNL     1       7.329  10.975  21.427  1.00  0.00    -0.504 OA
ATOM     19  H   UNL     1       7.521  11.839  20.933  1.00  0.00     0.293 HD
ENDBRANCH  15  18
BRANCH  17  20
ATOM     20  O   UNL     1       8.120  10.706  18.728  1.00  0.00    -0.504 OA
ATOM     21  H   UNL     1       7.980  10.862  17.736  1.00  0.00     0.293 HD
ENDBRANCH  17  20
ENDBRANCH   1  12
BRANCH   2  22
ATOM     22  O   UNL     1       8.231   4.925  19.828  1.00  0.00    -0.502 OA
ATOM     23  H   UNL     1       8.582   5.779  20.244  1.00  0.00     0.293 HD
ENDBRANCH   2  22
BRANCH   9  24
ATOM     24  O   UNL     1       2.890   4.098  14.248  1.00  0.00    -0.508 OA
ATOM     25  H   UNL     1       2.642   4.989  13.834  1.00  0.00     0.293 HD
ENDBRANCH   9  24
TORSDOF 5
ENDMDL
MODEL 2
REMARK VINA RESULT:    -6.557      1.271      2.811
REMARK INTER + INTRA:          -7.966
REMARK INTER:                  -7.782
REMARK INTRA:                  -0.184
REMARK UNBOUND:                -0.259
REMARK SMILES O=c1c(O)c(-c2ccc(O)c(O)c2)oc2cc(O)ccc12
REMARK SMILES IDX 5 1 3 2 2 3 1 4 21 5 15 6 14 7 16 8 17 9 19 10 20 11 6 12
REMARK SMILES IDX 7 13 8 14 9 15 13 16 11 17 10 18 12 20 4 22 18 24
REMARK H PARENT 10 19 12 21 4 23 18 25
REMARK Flexibility Score: inf
ROOT
ATOM      1  C   UNL     1       5.551   6.615  18.273  1.00  0.00     0.180 A 
ATOM      2  C   UNL     1       4.537   6.897  17.334  1.00  0.00     0.208 A 
ATOM      3  C   UNL     1       4.066   5.861  16.514  1.00  0.00     0.235 A 
ATOM      4  O   UNL     1       3.167   6.091  15.659  1.00  0.00    -0.285 OA
ATOM      5  C   UNL     1       4.598   4.569  16.659  1.00  0.00     0.069 A 
ATOM      6  C   UNL     1       5.594   4.363  17.638  1.00  0.00     0.142 A 
ATOM      7  O   UNL     1       6.018   5.373  18.389  1.00  0.00    -0.452 OA
ATOM      8  C   UNL     1       6.142   3.089  17.821  1.00  0.00     0.094 A 
ATOM      9  C   UNL     1       5.710   2.015  17.036  1.00  0.00     0.119 A 
ATOM     10  C   UNL     1       4.722   2.217  16.062  1.00  0.00     0.047 A 
ATOM     11  C   UNL     1       4.167   3.486  15.873  1.00  0.00     0.020 A 
ENDROOT
BRANCH   1  12
ATOM     12  C   UNL     1       6.113   7.658  19.160  1.00  0.00     0.025 A 
ATOM     13  C   UNL     1       5.874   7.647  20.545  1.00  0.00     0.016 A 
ATOM     14  C   UNL     1       6.395   8.656  21.360  1.00  0.00     0.051 A 
ATOM     15  C   UNL     1       7.151   9.695  20.803  1.00  0.00     0.157 A 
ATOM     16  C   UNL     1       6.855   8.713  18.603  1.00  0.00     0.062 A 
ATOM     17  C   UNL     1       7.380   9.725  19.417  1.00  0.00     0.158 A 
BRANCH  15  18
ATOM     18  O   UNL     1       7.673  10.699  21.618  1.00  0.00    -0.504 OA
ATOM     19  H   UNL     1       8.155  11.501  21.229  1.00  0.00     0.293 HD
ENDBRANCH  15  18
BRANCH  17  20
ATOM     20  O   UNL     1       8.122  10.748  18.830  1.00  0.00    -0.504 OA
ATOM     21  H   UNL     1       8.737  10.583  18.040  1.00  0.00     0.293 HD
ENDBRANCH  17  20
ENDBRANCH   1  12
BRANCH   2  22
ATOM     22  O   UNL     1       3.992   8.181  17.247  1.00  0.00    -0.502 OA
ATOM     23  H   UNL     1       4.469   8.997  17.610  1.00  0.00     0.293 HD
ENDBRANCH   2  22
BRANCH   9  24
ATOM     24  O   UNL     1       6.267   0.753  17.230  1.00  0.00    -0.508 OA
ATOM     25  H   UNL     1       7.028   0.604  17.881  1.00  0.00     0.293 HD
ENDBRANCH   9  24
TORSDOF 5
ENDMDL
MODEL 3
REMARK VINA RESULT:    -6.134     12.694     15.531
REMARK INTER + INTRA:          -7.469
REMARK INTER:                  -7.161
REMARK INTRA:                  -0.308
REMARK UNBOUND:                -0.259
REMARK SMILES O=c1c(O)c(-c2ccc(O)c(O)c2)oc2cc(O)ccc12
REMARK SMILES IDX 5 1 3 2 2 3 1 4 21 5 15 6 14 7 16 8 17 9 19 10 20 11 6 12
REMARK SMILES IDX 7 13 8 14 9 15 13 16 11 17 10 18 12 20 4 22 18 24
REMARK H PARENT 10 19 12 21 4 23 18 25
REMARK Flexibility Score: inf
ROOT
ATOM      1  C   UNL     1      -1.846   1.988   7.315  1.00  0.00     0.180 A 
ATOM      2  C   UNL     1      -2.081   3.287   7.811  1.00  0.00     0.208 A 
ATOM      3  C   UNL     1      -2.481   3.439   9.148  1.00  0.00     0.235 A 
ATOM      4  O   UNL     1      -2.707   4.590   9.612  1.00  0.00    -0.285 OA
ATOM      5  C   UNL     1      -2.618   2.302   9.961  1.00  0.00     0.069 A 
ATOM      6  C   UNL     1      -2.341   1.039   9.396  1.00  0.00     0.142 A 
ATOM      7  O   UNL     1      -1.973   0.937   8.124  1.00  0.00    -0.452 OA
ATOM      8  C   UNL     1      -2.457  -0.117  10.175  1.00  0.00     0.094 A 
ATOM      9  C   UNL     1      -2.848  -0.028  11.516  1.00  0.00     0.119 A 
ATOM     10  C   UNL     1      -3.124   1.225  12.080  1.00  0.00     0.047 A 
ATOM     11  C   UNL     1      -3.011   2.385  11.309  1.00  0.00     0.020 A 
ENDROOT
BRANCH   1  12
ATOM     12  C   UNL     1      -1.440   1.743   5.913  1.00  0.00     0.025 A 
ATOM     13  C   UNL     1      -0.094   1.831   5.514  1.00  0.00     0.016 A 
ATOM     14  C   UNL     1       0.262   1.619   4.180  1.00  0.00     0.051 A 
ATOM     15  C   UNL     1      -0.719   1.331   3.222  1.00  0.00     0.157 A 
ATOM     16  C   UNL     1      -2.422   1.475   4.946  1.00  0.00     0.062 A 
ATOM     17  C   UNL     1      -2.069   1.261   3.607  1.00  0.00     0.158 A 
BRANCH  15  18
ATOM     18  O   UNL     1      -0.360   1.118   1.892  1.00  0.00    -0.504 OA
ATOM     19  H   UNL     1       0.369   0.461   1.638  1.00  0.00     0.293 HD
ENDBRANCH  15  18
BRANCH  17  20
ATOM     20  O   UNL     1      -3.070   0.983   2.679  1.00  0.00    -0.504 OA
ATOM     21  H   UNL     1      -3.935   0.522   2.941  1.00  0.00     0.293 HD
ENDBRANCH  17  20
ENDBRANCH   1  12
BRANCH   2  22
ATOM     22  O   UNL     1      -1.887   4.402   6.992  1.00  0.00    -0.502 OA
ATOM     23  H   UNL     1      -2.579   5.138   6.907  1.00  0.00     0.293 HD
ENDBRANCH   2  22
BRANCH   9  24
ATOM     24  O   UNL     1      -2.959  -1.189  12.278  1.00  0.00    -0.508 OA
ATOM     25  H   UNL     1      -3.383  -1.180  13.198  1.00  0.00     0.293 HD
ENDBRANCH   9  24
TORSDOF 5
ENDMDL
MODEL 4
REMARK VINA RESULT:    -6.128      1.964      6.559
REMARK INTER + INTRA:          -7.461
REMARK INTER:                  -7.332
REMARK INTRA:                  -0.130
REMARK UNBOUND:                -0.259
REMARK SMILES O=c1c(O)c(-c2ccc(O)c(O)c2)oc2cc(O)ccc12
REMARK SMILES IDX 5 1 3 2 2 3 1 4 21 5 15 6 14 7 16 8 17 9 19 10 20 11 6 12
REMARK SMILES IDX 7 13 8 14 9 15 13 16 11 17 10 18 12 20 4 22 18 24
REMARK H PARENT 10 19 12 21 4 23 18 25
REMARK Flexibility Score: inf
ROOT
ATOM      1  C   UNL     1       6.128   6.177  18.616  1.00  0.00     0.180 A 
ATOM      2  C   UNL     1       5.787   6.873  19.795  1.00  0.00     0.208 A 
ATOM      3  C   UNL     1       6.390   8.115  20.046  1.00  0.00     0.235 A 
ATOM      4  O   UNL     1       6.110   8.752  21.098  1.00  0.00    -0.285 OA
ATOM      5  C   UNL     1       7.299   8.642  19.113  1.00  0.00     0.069 A 
ATOM      6  C   UNL     1       7.568   7.895  17.947  1.00  0.00     0.142 A 
ATOM      7  O   UNL     1       6.983   6.720  17.751  1.00  0.00    -0.452 OA
ATOM      8  C   UNL     1       8.460   8.391  16.989  1.00  0.00     0.094 A 
ATOM      9  C   UNL     1       9.088   9.626  17.181  1.00  0.00     0.119 A 
ATOM     10  C   UNL     1       8.823  10.370  18.340  1.00  0.00     0.047 A 
ATOM     11  C   UNL     1       7.933   9.883  19.302  1.00  0.00     0.020 A 
ENDROOT
BRANCH   1  12
ATOM     12  C   UNL     1       5.550   4.854  18.290  1.00  0.00     0.025 A 
ATOM     13  C   UNL     1       5.716   3.751  19.145  1.00  0.00     0.016 A 
ATOM     14  C   UNL     1       5.182   2.506  18.803  1.00  0.00     0.051 A 
ATOM     15  C   UNL     1       4.486   2.341  17.599  1.00  0.00     0.157 A 
ATOM     16  C   UNL     1       4.870   4.679  17.073  1.00  0.00     0.062 A 
ATOM     17  C   UNL     1       4.332   3.433  16.728  1.00  0.00     0.158 A 
BRANCH  15  18
ATOM     18  O   UNL     1       3.951   1.098  17.262  1.00  0.00    -0.504 OA
ATOM     19  H   UNL     1       3.285   0.995  16.505  1.00  0.00     0.293 HD
ENDBRANCH  15  18
BRANCH  17  20
ATOM     20  O   UNL     1       3.651   3.301  15.519  1.00  0.00    -0.504 OA
ATOM     21  H   UNL     1       2.638   3.307  15.468  1.00  0.00     0.293 HD
ENDBRANCH  17  20
ENDBRANCH   1  12
BRANCH   2  22
ATOM     22  O   UNL     1       4.843   6.346  20.679  1.00  0.00    -0.502 OA
ATOM     23  H   UNL     1       3.994   5.896  20.359  1.00  0.00     0.293 HD
ENDBRANCH   2  22
BRANCH   9  24
ATOM     24  O   UNL     1       9.974  10.105  16.218  1.00  0.00    -0.508 OA
ATOM     25  H   UNL     1      10.575   9.480  15.695  1.00  0.00     0.293 HD
ENDBRANCH   9  24
TORSDOF 5
ENDMDL
MODEL 5
REMARK VINA RESULT:    -5.923      2.609      6.718
REMARK INTER + INTRA:          -7.220
REMARK INTER:                  -7.146
REMARK INTRA:                  -0.075
REMARK UNBOUND:                -0.259
REMARK SMILES O=c1c(O)c(-c2ccc(O)c(O)c2)oc2cc(O)ccc12
REMARK SMILES IDX 5 1 3 2 2 3 1 4 21 5 15 6 14 7 16 8 17 9 19 10 20 11 6 12
REMARK SMILES IDX 7 13 8 14 9 15 13 16 11 17 10 18 12 20 4 22 18 24
REMARK H PARENT 10 19 12 21 4 23 18 25
REMARK Flexibility Score: inf
ROOT
ATOM      1  C   UNL     1       6.174   3.804  18.002  1.00  0.00     0.180 A 
ATOM      2  C   UNL     1       7.501   4.199  18.273  1.00  0.00     0.208 A 
ATOM      3  C   UNL     1       7.785   5.567  18.407  1.00  0.00     0.235 A 
ATOM      4  O   UNL     1       8.966   5.947  18.638  1.00  0.00    -0.285 OA
ATOM      5  C   UNL     1       6.745   6.503  18.288  1.00  0.00     0.069 A 
ATOM      6  C   UNL     1       5.441   6.026  18.040  1.00  0.00     0.142 A 
ATOM      7  O   UNL     1       5.215   4.723  17.911  1.00  0.00    -0.452 OA
ATOM      8  C   UNL     1       4.376   6.926  17.925  1.00  0.00     0.094 A 
ATOM      9  C   UNL     1       4.597   8.301  18.053  1.00  0.00     0.119 A 
ATOM     10  C   UNL     1       5.892   8.779  18.298  1.00  0.00     0.047 A 
ATOM     11  C   UNL     1       6.962   7.887  18.416  1.00  0.00     0.020 A 
ENDROOT
BRANCH   1  12
ATOM     12  C   UNL     1       5.797   2.383  17.829  1.00  0.00     0.025 A 
ATOM     13  C   UNL     1       6.447   1.561  16.892  1.00  0.00     0.016 A 
ATOM     14  C   UNL     1       6.058   0.229  16.729  1.00  0.00     0.051 A 
ATOM     15  C   UNL     1       5.006  -0.298  17.490  1.00  0.00     0.157 A 
ATOM     16  C   UNL     1       4.730   1.856  18.575  1.00  0.00     0.062 A 
ATOM     17  C   UNL     1       4.337   0.521  18.416  1.00  0.00     0.158 A 
BRANCH  15  18
ATOM     18  O   UNL     1       4.621  -1.628  17.329  1.00  0.00    -0.504 OA
ATOM     19  H   UNL     1       3.735  -1.876  16.903  1.00  0.00     0.293 HD
ENDBRANCH  15  18
BRANCH  17  20
ATOM     20  O   UNL     1       3.283   0.030  19.184  1.00  0.00    -0.504 OA
ATOM     21  H   UNL     1       3.291  -0.906  19.573  1.00  0.00     0.293 HD
ENDBRANCH  17  20
ENDBRANCH   1  12
BRANCH   2  22
ATOM     22  O   UNL     1       8.505   3.242  18.435  1.00  0.00    -0.502 OA
ATOM     23  H   UNL     1       8.657   2.761  19.314  1.00  0.00     0.293 HD
ENDBRANCH   2  22
BRANCH   9  24
ATOM     24  O   UNL     1       3.526   9.184  17.934  1.00  0.00    -0.508 OA
ATOM     25  H   UNL     1       3.669  10.185  17.873  1.00  0.00     0.293 HD
ENDBRANCH   9  24
TORSDOF 5
ENDMDL
MODEL 6
REMARK VINA RESULT:    -5.903      3.222      6.357
REMARK INTER + INTRA:          -7.197
REMARK INTER:                  -6.875
REMARK INTRA:                  -0.321
REMARK UNBOUND:                -0.259
REMARK SMILES O=c1c(O)c(-c2ccc(O)c(O)c2)oc2cc(O)ccc12
REMARK SMILES IDX 5 1 3 2 2 3 1 4 21 5 15 6 14 7 16 8 17 9 19 10 20 11 6 12
REMARK SMILES IDX 7 13 8 14 9 15 13 16 11 17 10 18 12 20 4 22 18 24
REMARK H PARENT 10 19 12 21 4 23 18 25
REMARK Flexibility Score: inf
ROOT
ATOM      1  C   UNL     1       3.737   6.408  17.342  1.00  0.00     0.180 A 
ATOM      2  C   UNL     1       4.722   6.315  16.336  1.00  0.00     0.208 A 
ATOM      3  C   UNL     1       6.033   5.978  16.703  1.00  0.00     0.235 A 
ATOM      4  O   UNL     1       6.934   5.900  15.823  1.00  0.00    -0.285 OA
ATOM      5  C   UNL     1       6.329   5.722  18.052  1.00  0.00     0.069 A 
ATOM      6  C   UNL     1       5.283   5.812  18.994  1.00  0.00     0.142 A 
ATOM      7  O   UNL     1       4.056   6.142  18.608  1.00  0.00    -0.452 OA
ATOM      8  C   UNL     1       5.535   5.555  20.346  1.00  0.00     0.094 A 
ATOM      9  C   UNL     1       6.822   5.209  20.771  1.00  0.00     0.119 A 
ATOM     10  C   UNL     1       7.864   5.121  19.838  1.00  0.00     0.047 A 
ATOM     11  C   UNL     1       7.622   5.375  18.485  1.00  0.00     0.020 A 
ENDROOT
BRANCH   1  12
ATOM     12  C   UNL     1       2.335   6.776  17.039  1.00  0.00     0.025 A 
ATOM     13  C   UNL     1       1.936   8.120  16.940  1.00  0.00     0.016 A 
ATOM     14  C   UNL     1       0.603   8.444  16.677  1.00  0.00     0.051 A 
ATOM     15  C   UNL     1      -0.353   7.432  16.521  1.00  0.00     0.157 A 
ATOM     16  C   UNL     1       1.369   5.765  16.903  1.00  0.00     0.062 A 
ATOM     17  C   UNL     1       0.032   6.086  16.638  1.00  0.00     0.158 A 
BRANCH  15  18
ATOM     18  O   UNL     1      -1.683   7.757  16.255  1.00  0.00    -0.504 OA
ATOM     19  H   UNL     1      -1.964   8.708  16.044  1.00  0.00     0.293 HD
ENDBRANCH  15  18
BRANCH  17  20
ATOM     20  O   UNL     1      -0.895   5.055  16.495  1.00  0.00    -0.504 OA
ATOM     21  H   UNL     1      -1.867   5.232  16.269  1.00  0.00     0.293 HD
ENDBRANCH  17  20
ENDBRANCH   1  12
BRANCH   2  22
ATOM     22  O   UNL     1       4.386   6.526  14.997  1.00  0.00    -0.502 OA
ATOM     23  H   UNL     1       3.559   6.120  14.576  1.00  0.00     0.293 HD
ENDBRANCH   2  22
BRANCH   9  24
ATOM     24  O   UNL     1       7.057   4.958  22.121  1.00  0.00    -0.508 OA
ATOM     25  H   UNL     1       7.687   5.533  22.666  1.00  0.00     0.293 HD
ENDBRANCH   9  24
TORSDOF 5
ENDMDL
MODEL 7
REMARK VINA RESULT:    -5.843      1.959      6.585
REMARK INTER + INTRA:          -7.126
REMARK INTER:                  -6.887
REMARK INTRA:                  -0.239
REMARK UNBOUND:                -0.259
REMARK SMILES O=c1c(O)c(-c2ccc(O)c(O)c2)oc2cc(O)ccc12
REMARK SMILES IDX 5 1 3 2 2 3 1 4 21 5 15 6 14 7 16 8 17 9 19 10 20 11 6 12
REMARK SMILES IDX 7 13 8 14 9 15 13 16 11 17 10 18 12 20 4 22 18 24
REMARK H PARENT 10 19 12 21 4 23 18 25
REMARK Flexibility Score: inf
ROOT
ATOM      1  C   UNL     1       6.636   5.821  17.882  1.00  0.00     0.180 A 
ATOM      2  C   UNL     1       7.881   6.033  17.253  1.00  0.00     0.208 A 
ATOM      3  C   UNL     1       8.513   7.276  17.406  1.00  0.00     0.235 A 
ATOM      4  O   UNL     1       9.622   7.494  16.844  1.00  0.00    -0.285 OA
ATOM      5  C   UNL     1       7.906   8.267  18.193  1.00  0.00     0.069 A 
ATOM      6  C   UNL     1       6.671   7.969  18.809  1.00  0.00     0.142 A 
ATOM      7  O   UNL     1       6.101   6.782  18.632  1.00  0.00    -0.452 OA
ATOM      8  C   UNL     1       6.039   8.926  19.610  1.00  0.00     0.094 A 
ATOM      9  C   UNL     1       6.623  10.182  19.803  1.00  0.00     0.119 A 
ATOM     10  C   UNL     1       7.849  10.483  19.192  1.00  0.00     0.047 A 
ATOM     11  C   UNL     1       8.489   9.532  18.391  1.00  0.00     0.020 A 
ENDROOT
BRANCH   1  12
ATOM     12  C   UNL     1       5.898   4.544  17.753  1.00  0.00     0.025 A 
ATOM     13  C   UNL     1       5.852   3.615  18.807  1.00  0.00     0.016 A 
ATOM     14  C   UNL     1       5.168   2.406  18.654  1.00  0.00     0.051 A 
ATOM     15  C   UNL     1       4.533   2.102  17.443  1.00  0.00     0.157 A 
ATOM     16  C   UNL     1       5.277   4.225  16.534  1.00  0.00     0.062 A 
ATOM     17  C   UNL     1       4.590   3.015  16.377  1.00  0.00     0.158 A 
BRANCH  15  18
ATOM     18  O   UNL     1       3.849   0.896  17.294  1.00  0.00    -0.504 OA
ATOM     19  H   UNL     1       4.262   0.014  17.574  1.00  0.00     0.293 HD
ENDBRANCH  15  18
BRANCH  17  20
ATOM     20  O   UNL     1       3.974   2.740  15.158  1.00  0.00    -0.504 OA
ATOM     21  H   UNL     1       4.330   2.036  14.521  1.00  0.00     0.293 HD
ENDBRANCH  17  20
ENDBRANCH   1  12
BRANCH   2  22
ATOM     22  O   UNL     1       8.484   5.010  16.517  1.00  0.00    -0.502 OA
ATOM     23  H   UNL     1       9.195   4.406  16.912  1.00  0.00     0.293 HD
ENDBRANCH   2  22
BRANCH   9  24
ATOM     24  O   UNL     1       5.980  11.125  20.602  1.00  0.00    -0.508 OA
ATOM     25  H   UNL     1       5.348  11.811  20.208  1.00  0.00     0.293 HD
ENDBRANCH   9  24
TORSDOF 5
ENDMDL
MODEL 8
REMARK VINA RESULT:    -5.824     12.549     15.423
REMARK INTER + INTRA:          -7.105
REMARK INTER:                  -6.791
REMARK INTRA:                  -0.313
REMARK UNBOUND:                -0.259
REMARK SMILES O=c1c(O)c(-c2ccc(O)c(O)c2)oc2cc(O)ccc12
REMARK SMILES IDX 5 1 3 2 2 3 1 4 21 5 15 6 14 7 16 8 17 9 19 10 20 11 6 12
REMARK SMILES IDX 7 13 8 14 9 15 13 16 11 17 10 18 12 20 4 22 18 24
REMARK H PARENT 10 19 12 21 4 23 18 25
REMARK Flexibility Score: inf
ROOT
ATOM      1  C   UNL     1      -1.664   0.830   6.934  1.00  0.00     0.180 A 
ATOM      2  C   UNL     1      -1.541  -0.567   7.083  1.00  0.00     0.208 A 
ATOM      3  C   UNL     1      -1.745  -1.132   8.351  1.00  0.00     0.235 A 
ATOM      4  O   UNL     1      -1.630  -2.378   8.514  1.00  0.00    -0.285 OA
ATOM      5  C   UNL     1      -2.085  -0.301   9.431  1.00  0.00     0.069 A 
ATOM      6  C   UNL     1      -2.213   1.085   9.194  1.00  0.00     0.142 A 
ATOM      7  O   UNL     1      -2.003   1.581   7.980  1.00  0.00    -0.452 OA
ATOM      8  C   UNL     1      -2.560   1.945  10.241  1.00  0.00     0.094 A 
ATOM      9  C   UNL     1      -2.781   1.439  11.527  1.00  0.00     0.119 A 
ATOM     10  C   UNL     1      -2.653   0.064  11.766  1.00  0.00     0.047 A 
ATOM     11  C   UNL     1      -2.308  -0.804  10.726  1.00  0.00     0.020 A 
ENDROOT
BRANCH   1  12
ATOM     12  C   UNL     1      -1.446   1.504   5.634  1.00  0.00     0.025 A 
ATOM     13  C   UNL     1      -2.509   1.748   4.748  1.00  0.00     0.016 A 
ATOM     14  C   UNL     1      -2.275   2.364   3.515  1.00  0.00     0.051 A 
ATOM     15  C   UNL     1      -0.975   2.733   3.145  1.00  0.00     0.157 A 
ATOM     16  C   UNL     1      -0.141   1.856   5.249  1.00  0.00     0.062 A 
ATOM     17  C   UNL     1       0.097   2.474   4.014  1.00  0.00     0.158 A 
BRANCH  15  18
ATOM     18  O   UNL     1      -0.745   3.350   1.915  1.00  0.00    -0.504 OA
ATOM     19  H   UNL     1       0.191   3.595   1.613  1.00  0.00     0.293 HD
ENDBRANCH  15  18
BRANCH  17  20
ATOM     20  O   UNL     1       1.403   2.822   3.673  1.00  0.00    -0.504 OA
ATOM     21  H   UNL     1       1.961   3.445   4.246  1.00  0.00     0.293 HD
ENDBRANCH  17  20
ENDBRANCH   1  12
BRANCH   2  22
ATOM     22  O   UNL     1      -1.250  -1.373   5.980  1.00  0.00    -0.502 OA
ATOM     23  H   UNL     1      -1.168  -2.381   6.053  1.00  0.00     0.293 HD
ENDBRANCH   2  22
BRANCH   9  24
ATOM     24  O   UNL     1      -3.125   2.309  12.559  1.00  0.00    -0.508 OA
ATOM     25  H   UNL     1      -3.690   3.132  12.391  1.00  0.00     0.293 HD
ENDBRANCH   9  24
TORSDOF 5
ENDMDL
MODEL 9
REMARK VINA RESULT:    -5.817      3.817      5.677
REMARK INTER + INTRA:          -7.096
REMARK INTER:                  -6.885
REMARK INTRA:                  -0.211
REMARK UNBOUND:                -0.259
REMARK SMILES O=c1c(O)c(-c2ccc(O)c(O)c2)oc2cc(O)ccc12
REMARK SMILES IDX 5 1 3 2 2 3 1 4 21 5 15 6 14 7 16 8 17 9 19 10 20 11 6 12
REMARK SMILES IDX 7 13 8 14 9 15 13 16 11 17 10 18 12 20 4 22 18 24
REMARK H PARENT 10 19 12 21 4 23 18 25
REMARK Flexibility Score: inf
ROOT
ATOM      1  C   UNL     1       3.436   6.898  17.385  1.00  0.00     0.180 A 
ATOM      2  C   UNL     1       4.162   6.706  16.190  1.00  0.00     0.208 A 
ATOM      3  C   UNL     1       5.364   5.984  16.238  1.00  0.00     0.235 A 
ATOM      4  O   UNL     1       6.037   5.808  15.185  1.00  0.00    -0.285 OA
ATOM      5  C   UNL     1       5.804   5.454  17.462  1.00  0.00     0.069 A 
ATOM      6  C   UNL     1       5.008   5.670  18.608  1.00  0.00     0.142 A 
ATOM      7  O   UNL     1       3.881   6.367  18.522  1.00  0.00    -0.452 OA
ATOM      8  C   UNL     1       5.407   5.150  19.844  1.00  0.00     0.094 A 
ATOM      9  C   UNL     1       6.593   4.417  19.952  1.00  0.00     0.119 A 
ATOM     10  C   UNL     1       7.386   4.203  18.817  1.00  0.00     0.047 A 
ATOM     11  C   UNL     1       6.996   4.717  17.577  1.00  0.00     0.020 A 
ENDROOT
BRANCH   1  12
ATOM     12  C   UNL     1       2.170   7.664  17.421  1.00  0.00     0.025 A 
ATOM     13  C   UNL     1       0.997   7.169  16.827  1.00  0.00     0.016 A 
ATOM     14  C   UNL     1      -0.181   7.921  16.853  1.00  0.00     0.051 A 
ATOM     15  C   UNL     1      -0.200   9.183  17.461  1.00  0.00     0.157 A 
ATOM     16  C   UNL     1       2.151   8.939  18.011  1.00  0.00     0.062 A 
ATOM     17  C   UNL     1       0.972   9.696  18.040  1.00  0.00     0.158 A 
BRANCH  15  18
ATOM     18  O   UNL     1      -1.378   9.930  17.488  1.00  0.00    -0.504 OA
ATOM     19  H   UNL     1      -1.774  10.263  18.359  1.00  0.00     0.293 HD
ENDBRANCH  15  18
BRANCH  17  20
ATOM     20  O   UNL     1       0.988  10.951  18.646  1.00  0.00    -0.504 OA
ATOM     21  H   UNL     1       1.305  11.083  19.600  1.00  0.00     0.293 HD
ENDBRANCH  17  20
ENDBRANCH   1  12
BRANCH   2  22
ATOM     22  O   UNL     1       3.674   7.203  14.979  1.00  0.00    -0.502 OA
ATOM     23  H   UNL     1       3.504   6.605  14.179  1.00  0.00     0.293 HD
ENDBRANCH   2  22
BRANCH   9  24
ATOM     24  O   UNL     1       6.976   3.908  21.191  1.00  0.00    -0.508 OA
ATOM     25  H   UNL     1       7.949   3.870  21.470  1.00  0.00     0.293 HD
ENDBRANCH   9  24
TORSDOF 5
ENDMDL
