MODEL 1
REMARK VINA RESULT:    -3.904      0.000      0.000
REMARK INTER + INTRA:          -4.968
REMARK INTER:                  -4.703
REMARK INTRA:                  -0.265
REMARK UNBOUND:                -0.265
REMARK SMILES NC(=O)C[C@@H]([NH3+])C(=O)[O-]
REMARK SMILES IDX 4 1 5 2 6 3 7 7 8 8 9 9 2 10 3 11 1 12
REMARK H PARENT 6 4 6 5 6 6 1 13 1 14
REMARK Flexibility Score: inf
ROOT
ATOM      1  C   UNL     1     140.833  -0.968   6.763  1.00  0.00     0.171 C 
ENDROOT
BRANCH   1   2
ATOM      2  C   UNL     1     141.548  -2.199   7.356  1.00  0.00     0.237 C 
BRANCH   2   3
ATOM      3  N   UNL     1     142.872  -2.395   6.750  1.00  0.00    -0.350 N 
ATOM      4  H   UNL     1     143.234  -1.499   6.350  1.00  0.00     0.345 HD
ATOM      5  H   UNL     1     142.818  -3.114   5.993  1.00  0.00     0.345 HD
ATOM      6  H   UNL     1     143.544  -2.742   7.473  1.00  0.00     0.345 HD
ENDBRANCH   2   3
BRANCH   2   7
ATOM      7  C   UNL     1     141.680  -2.038   8.847  1.00  0.00     0.100 C 
ATOM      8  O   UNL     1     141.027  -2.782   9.624  1.00  0.00    -0.544 OA
ATOM      9  O   UNL     1     142.509  -1.055   9.374  1.00  0.00    -0.544 OA
ENDBRANCH   2   7
ENDBRANCH   1   2
BRANCH   1  10
ATOM     10  C   UNL     1     140.852  -0.985   5.262  1.00  0.00     0.223 C 
ATOM     11  O   UNL     1     140.870  -2.085   4.649  1.00  0.00    -0.275 OA
ATOM     12  N   UNL     1     140.884   0.236   4.523  1.00  0.00    -0.369 N 
ATOM     13  H   UNL     1     140.893   1.158   5.015  1.00  0.00     0.159 HD
ATOM     14  H   UNL     1     140.908   0.221   3.479  1.00  0.00     0.159 HD
ENDBRANCH   1  10
TORSDOF 4
ENDMDL
MODEL 2
REMARK VINA RESULT:    -3.725     14.701     15.361
REMARK INTER + INTRA:          -4.752
REMARK INTER:                  -4.469
REMARK INTRA:                  -0.283
REMARK UNBOUND:                -0.265
REMARK SMILES NC(=O)C[C@@H]([NH3+])C(=O)[O-]
REMARK SMILES IDX 4 1 5 2 6 3 7 7 8 8 9 9 2 10 3 11 1 12
REMARK H PARENT 6 4 6 5 6 6 1 13 1 14
REMARK Flexibility Score: inf
ROOT
ATOM      1  C   UNL     1     144.112  12.961   1.697  1.00  0.00     0.171 C 
ENDROOT
BRANCH   1   2
ATOM      2  C   UNL     1     144.453  12.724   3.182  1.00  0.00     0.237 C 
BRANCH   2   3
ATOM      3  N   UNL     1     144.607  11.293   3.476  1.00  0.00    -0.350 N 
ATOM      4  H   UNL     1     143.745  10.912   3.930  1.00  0.00     0.345 HD
ATOM      5  H   UNL     1     145.425  11.143   4.110  1.00  0.00     0.345 HD
ATOM      6  H   UNL     1     144.789  10.767   2.590  1.00  0.00     0.345 HD
ENDBRANCH   2   3
BRANCH   2   7
ATOM      7  C   UNL     1     145.715  13.464   3.536  1.00  0.00     0.100 C 
ATOM      8  O   UNL     1     146.321  14.137   2.662  1.00  0.00    -0.544 OA
ATOM      9  O   UNL     1     146.230  13.393   4.825  1.00  0.00    -0.544 OA
ENDBRANCH   2   7
ENDBRANCH   1   2
BRANCH   1  10
ATOM     10  C   UNL     1     142.910  12.171   1.271  1.00  0.00     0.223 C 
ATOM     11  O   UNL     1     141.973  11.966   2.088  1.00  0.00    -0.275 OA
ATOM     12  N   UNL     1     142.832  11.621  -0.045  1.00  0.00    -0.369 N 
ATOM     13  H   UNL     1     143.610  11.760  -0.728  1.00  0.00     0.159 HD
ATOM     14  H   UNL     1     141.999  11.062  -0.334  1.00  0.00     0.159 HD
ENDBRANCH   1  10
TORSDOF 4
ENDMDL
MODEL 3
REMARK VINA RESULT:    -3.709     18.859     19.095
REMARK INTER + INTRA:          -4.733
REMARK INTER:                  -4.248
REMARK INTRA:                  -0.485
REMARK UNBOUND:                -0.265
REMARK SMILES NC(=O)C[C@@H]([NH3+])C(=O)[O-]
REMARK SMILES IDX 4 1 5 2 6 3 7 7 8 8 9 9 2 10 3 11 1 12
REMARK H PARENT 6 4 6 5 6 6 1 13 1 14
REMARK Flexibility Score: inf
ROOT
ATOM      1  C   UNL     1     141.729  10.193  -9.057  1.00  0.00     0.171 C 
ENDROOT
BRANCH   1   2
ATOM      2  C   UNL     1     140.327   9.824  -8.531  1.00  0.00     0.237 C 
BRANCH   2   3
ATOM      3  N   UNL     1     140.298   8.457  -7.993  1.00  0.00    -0.350 N 
ATOM      4  H   UNL     1     140.210   8.470  -6.950  1.00  0.00     0.345 HD
ATOM      5  H   UNL     1     141.171   7.947  -8.259  1.00  0.00     0.345 HD
ATOM      6  H   UNL     1     139.486   7.935  -8.398  1.00  0.00     0.345 HD
ENDBRANCH   2   3
BRANCH   2   7
ATOM      7  C   UNL     1     139.911  10.806  -7.470  1.00  0.00     0.100 C 
ATOM      8  O   UNL     1     138.695  11.097  -7.319  1.00  0.00    -0.544 OA
ATOM      9  O   UNL     1     140.866  11.412  -6.663  1.00  0.00    -0.544 OA
ENDBRANCH   2   7
ENDBRANCH   1   2
BRANCH   1  10
ATOM     10  C   UNL     1     142.794   9.320  -8.459  1.00  0.00     0.223 C 
ATOM     11  O   UNL     1     143.118   8.246  -9.033  1.00  0.00    -0.275 OA
ATOM     12  N   UNL     1     143.420   9.680  -7.228  1.00  0.00    -0.369 N 
ATOM     13  H   UNL     1     143.147  10.554  -6.726  1.00  0.00     0.159 HD
ATOM     14  H   UNL     1     144.152   9.064  -6.809  1.00  0.00     0.159 HD
ENDBRANCH   1  10
TORSDOF 4
ENDMDL
MODEL 4
REMARK VINA RESULT:    -3.648     15.030     16.133
REMARK INTER + INTRA:          -4.659
REMARK INTER:                  -4.452
REMARK INTRA:                  -0.207
REMARK UNBOUND:                -0.265
REMARK SMILES NC(=O)C[C@@H]([NH3+])C(=O)[O-]
REMARK SMILES IDX 4 1 5 2 6 3 7 7 8 8 9 9 2 10 3 11 1 12
REMARK H PARENT 6 4 6 5 6 6 1 13 1 14
REMARK Flexibility Score: inf
ROOT
ATOM      1  C   UNL     1     143.987  12.969  -0.752  1.00  0.00     0.171 C 
ENDROOT
BRANCH   1   2
ATOM      2  C   UNL     1     142.836  12.198  -0.073  1.00  0.00     0.237 C 
BRANCH   2   3
ATOM      3  N   UNL     1     142.842  10.779  -0.456  1.00  0.00    -0.350 N 
ATOM      4  H   UNL     1     143.713  10.540  -0.984  1.00  0.00     0.345 HD
ATOM      5  H   UNL     1     142.009  10.564  -1.049  1.00  0.00     0.345 HD
ATOM      6  H   UNL     1     142.787  10.182   0.402  1.00  0.00     0.345 HD
ENDBRANCH   2   3
BRANCH   2   7
ATOM      7  C   UNL     1     142.951  12.331   1.422  1.00  0.00     0.100 C 
ATOM      8  O   UNL     1     142.028  11.912   2.167  1.00  0.00    -0.544 OA
ATOM      9  O   UNL     1     144.069  12.934   1.987  1.00  0.00    -0.544 OA
ENDBRANCH   2   7
ENDBRANCH   1   2
BRANCH   1  10
ATOM     10  C   UNL     1     143.702  13.227  -2.203  1.00  0.00     0.223 C 
ATOM     11  O   UNL     1     142.510  13.276  -2.607  1.00  0.00    -0.275 OA
ATOM     12  N   UNL     1     144.771  13.383  -3.136  1.00  0.00    -0.369 N 
ATOM     13  H   UNL     1     145.766  13.321  -2.823  1.00  0.00     0.159 HD
ATOM     14  H   UNL     1     144.569  13.551  -4.147  1.00  0.00     0.159 HD
ENDBRANCH   1  10
TORSDOF 4
ENDMDL
MODEL 5
REMARK VINA RESULT:    -3.634     18.525     19.561
REMARK INTER + INTRA:          -4.642
REMARK INTER:                  -4.331
REMARK INTRA:                  -0.311
REMARK UNBOUND:                -0.265
REMARK SMILES NC(=O)C[C@@H]([NH3+])C(=O)[O-]
REMARK SMILES IDX 4 1 5 2 6 3 7 7 8 8 9 9 2 10 3 11 1 12
REMARK H PARENT 6 4 6 5 6 6 1 13 1 14
REMARK Flexibility Score: inf
ROOT
ATOM      1  C   UNL     1     141.774   9.845  -9.192  1.00  0.00     0.171 C 
ENDROOT
BRANCH   1   2
ATOM      2  C   UNL     1     143.025  10.363  -8.455  1.00  0.00     0.237 C 
BRANCH   2   3
ATOM      3  N   UNL     1     143.252   9.630  -7.201  1.00  0.00    -0.350 N 
ATOM      4  H   UNL     1     144.131   9.955  -6.736  1.00  0.00     0.345 HD
ATOM      5  H   UNL     1     143.321   8.605  -7.392  1.00  0.00     0.345 HD
ATOM      6  H   UNL     1     142.445   9.781  -6.553  1.00  0.00     0.345 HD
ENDBRANCH   2   3
BRANCH   2   7
ATOM      7  C   UNL     1     144.228  10.239  -9.351  1.00  0.00     0.100 C 
ATOM      8  O   UNL     1     144.342   9.253 -10.125  1.00  0.00    -0.544 OA
ATOM      9  O   UNL     1     145.230  11.202  -9.315  1.00  0.00    -0.544 OA
ENDBRANCH   2   7
ENDBRANCH   1   2
BRANCH   1  10
ATOM     10  C   UNL     1     141.300   8.536  -8.630  1.00  0.00     0.223 C 
ATOM     11  O   UNL     1     141.962   7.486  -8.845  1.00  0.00    -0.275 OA
ATOM     12  N   UNL     1     140.087   8.466  -7.881  1.00  0.00    -0.369 N 
ATOM     13  H   UNL     1     139.512   9.322  -7.713  1.00  0.00     0.159 HD
ATOM     14  H   UNL     1     139.754   7.551  -7.500  1.00  0.00     0.159 HD
ENDBRANCH   1  10
TORSDOF 4
ENDMDL
MODEL 6
REMARK VINA RESULT:    -3.606     14.677     15.777
REMARK INTER + INTRA:          -4.608
REMARK INTER:                  -4.354
REMARK INTRA:                  -0.255
REMARK UNBOUND:                -0.265
REMARK SMILES NC(=O)C[C@@H]([NH3+])C(=O)[O-]
REMARK SMILES IDX 4 1 5 2 6 3 7 7 8 8 9 9 2 10 3 11 1 12
REMARK H PARENT 6 4 6 5 6 6 1 13 1 14
REMARK Flexibility Score: inf
ROOT
ATOM      1  C   UNL     1     144.338  13.070   1.838  1.00  0.00     0.171 C 
ENDROOT
BRANCH   1   2
ATOM      2  C   UNL     1     143.251  12.078   1.376  1.00  0.00     0.237 C 
BRANCH   2   3
ATOM      3  N   UNL     1     142.014  12.236   2.154  1.00  0.00    -0.350 N 
ATOM      4  H   UNL     1     141.204  12.442   1.524  1.00  0.00     0.345 HD
ATOM      5  H   UNL     1     142.120  13.015   2.843  1.00  0.00     0.345 HD
ATOM      6  H   UNL     1     141.818  11.359   2.689  1.00  0.00     0.345 HD
ENDBRANCH   2   3
BRANCH   2   7
ATOM      7  C   UNL     1     142.970  12.281  -0.088  1.00  0.00     0.100 C 
ATOM      8  O   UNL     1     142.835  13.443  -0.552  1.00  0.00    -0.544 OA
ATOM      9  O   UNL     1     142.839  11.186  -0.935  1.00  0.00    -0.544 OA
ENDBRANCH   2   7
ENDBRANCH   1   2
BRANCH   1  10
ATOM     10  C   UNL     1     144.822  12.757   3.224  1.00  0.00     0.223 C 
ATOM     11  O   UNL     1     144.727  11.582   3.669  1.00  0.00    -0.275 OA
ATOM     12  N   UNL     1     145.359  13.786   4.055  1.00  0.00    -0.369 N 
ATOM     13  H   UNL     1     145.423  14.771   3.710  1.00  0.00     0.159 HD
ATOM     14  H   UNL     1     145.685  13.567   5.022  1.00  0.00     0.159 HD
ENDBRANCH   1  10
TORSDOF 4
ENDMDL
MODEL 7
REMARK VINA RESULT:    -3.508     18.859     19.281
REMARK INTER + INTRA:          -4.490
REMARK INTER:                  -4.047
REMARK INTRA:                  -0.443
REMARK UNBOUND:                -0.265
REMARK SMILES NC(=O)C[C@@H]([NH3+])C(=O)[O-]
REMARK SMILES IDX 4 1 5 2 6 3 7 7 8 8 9 9 2 10 3 11 1 12
REMARK H PARENT 6 4 6 5 6 6 1 13 1 14
REMARK Flexibility Score: inf
ROOT
ATOM      1  C   UNL     1     142.445  10.655  -8.866  1.00  0.00     0.171 C 
ENDROOT
BRANCH   1   2
ATOM      2  C   UNL     1     142.197   9.138  -8.981  1.00  0.00     0.237 C 
BRANCH   2   3
ATOM      3  N   UNL     1     142.901   8.397  -7.925  1.00  0.00    -0.350 N 
ATOM      4  H   UNL     1     142.649   7.382  -7.952  1.00  0.00     0.345 HD
ATOM      5  H   UNL     1     142.655   8.788  -6.987  1.00  0.00     0.345 HD
ATOM      6  H   UNL     1     143.935   8.497  -8.052  1.00  0.00     0.345 HD
ENDBRANCH   2   3
BRANCH   2   7
ATOM      7  C   UNL     1     140.720   8.859  -8.911  1.00  0.00     0.100 C 
ATOM      8  O   UNL     1     140.002   9.460  -8.069  1.00  0.00    -0.544 OA
ATOM      9  O   UNL     1     140.143   7.923  -9.760  1.00  0.00    -0.544 OA
ENDBRANCH   2   7
ENDBRANCH   1   2
BRANCH   1  10
ATOM     10  C   UNL     1     143.011  11.026  -7.526  1.00  0.00     0.223 C 
ATOM     11  O   UNL     1     144.259  11.051  -7.359  1.00  0.00    -0.275 OA
ATOM     12  N   UNL     1     142.145  11.318  -6.429  1.00  0.00    -0.369 N 
ATOM     13  H   UNL     1     141.107  11.279  -6.543  1.00  0.00     0.159 HD
ATOM     14  H   UNL     1     142.542  11.564  -5.495  1.00  0.00     0.159 HD
ENDBRANCH   1  10
TORSDOF 4
ENDMDL
MODEL 8
REMARK VINA RESULT:    -3.493     18.728     19.381
REMARK INTER + INTRA:          -4.472
REMARK INTER:                  -3.976
REMARK INTRA:                  -0.496
REMARK UNBOUND:                -0.265
REMARK SMILES NC(=O)C[C@@H]([NH3+])C(=O)[O-]
REMARK SMILES IDX 4 1 5 2 6 3 7 7 8 8 9 9 2 10 3 11 1 12
REMARK H PARENT 6 4 6 5 6 6 1 13 1 14
REMARK Flexibility Score: inf
ROOT
ATOM      1  C   UNL     1     141.270  10.487  -9.021  1.00  0.00     0.171 C 
ENDROOT
BRANCH   1   2
ATOM      2  C   UNL     1     142.748  10.387  -8.594  1.00  0.00     0.237 C 
BRANCH   2   3
ATOM      3  N   UNL     1     142.883  10.351  -7.131  1.00  0.00    -0.350 N 
ATOM      4  H   UNL     1     142.185  10.985  -6.678  1.00  0.00     0.345 HD
ATOM      5  H   UNL     1     143.847  10.645  -6.851  1.00  0.00     0.345 HD
ATOM      6  H   UNL     1     142.733   9.375  -6.786  1.00  0.00     0.345 HD
ENDBRANCH   2   3
BRANCH   2   7
ATOM      7  C   UNL     1     143.368   9.157  -9.200  1.00  0.00     0.100 C 
ATOM      8  O   UNL     1     144.215   9.266 -10.125  1.00  0.00    -0.544 OA
ATOM      9  O   UNL     1     142.996   7.894  -8.756  1.00  0.00    -0.544 OA
ENDBRANCH   2   7
ENDBRANCH   1   2
BRANCH   1  10
ATOM     10  C   UNL     1     140.349   9.945  -7.967  1.00  0.00     0.223 C 
ATOM     11  O   UNL     1     139.829  10.728  -7.128  1.00  0.00    -0.275 OA
ATOM     12  N   UNL     1     140.084   8.545  -7.886  1.00  0.00    -0.369 N 
ATOM     13  H   UNL     1     140.525   7.878  -8.558  1.00  0.00     0.159 HD
ATOM     14  H   UNL     1     139.451   8.170  -7.144  1.00  0.00     0.159 HD
ENDBRANCH   1  10
TORSDOF 4
ENDMDL
MODEL 9
REMARK VINA RESULT:    -3.354     19.176     19.928
REMARK INTER + INTRA:          -4.305
REMARK INTER:                  -3.833
REMARK INTRA:                  -0.472
REMARK UNBOUND:                -0.265
REMARK SMILES NC(=O)C[C@@H]([NH3+])C(=O)[O-]
REMARK SMILES IDX 4 1 5 2 6 3 7 7 8 8 9 9 2 10 3 11 1 12
REMARK H PARENT 6 4 6 5 6 6 1 13 1 14
REMARK Flexibility Score: inf
ROOT
ATOM      1  C   UNL     1     139.944  10.732  -7.509  1.00  0.00     0.171 C 
ENDROOT
BRANCH   1   2
ATOM      2  C   UNL     1     140.046  10.544  -9.036  1.00  0.00     0.237 C 
BRANCH   2   3
ATOM      3  N   UNL     1     140.683  11.702  -9.679  1.00  0.00    -0.350 N 
ATOM      4  H   UNL     1     141.470  12.066  -9.093  1.00  0.00     0.345 HD
ATOM      5  H   UNL     1     139.981  12.463  -9.824  1.00  0.00     0.345 HD
ATOM      6  H   UNL     1     141.055  11.426 -10.617  1.00  0.00     0.345 HD
ENDBRANCH   2   3
BRANCH   2   7
ATOM      7  C   UNL     1     140.824   9.292  -9.341  1.00  0.00     0.100 C 
ATOM      8  O   UNL     1     142.077   9.337  -9.458  1.00  0.00    -0.544 OA
ATOM      9  O   UNL     1     140.163   8.081  -9.514  1.00  0.00    -0.544 OA
ENDBRANCH   2   7
ENDBRANCH   1   2
BRANCH   1  10
ATOM     10  C   UNL     1     141.042  11.610  -6.983  1.00  0.00     0.223 C 
ATOM     11  O   UNL     1     140.835  12.843  -6.825  1.00  0.00    -0.275 OA
ATOM     12  N   UNL     1     142.330  11.067  -6.692  1.00  0.00    -0.369 N 
ATOM     13  H   UNL     1     142.526  10.051  -6.840  1.00  0.00     0.159 HD
ATOM     14  H   UNL     1     143.094  11.683  -6.337  1.00  0.00     0.159 HD
ENDBRANCH   1  10
TORSDOF 4
ENDMDL
