MODEL 1
REMARK VINA RESULT:    -4.815      0.000      0.000
REMARK INTER + INTRA:          -6.118
REMARK INTER:                  -6.786
REMARK INTRA:                   0.668
REMARK UNBOUND:                 0.668
REMARK SMILES CC1=CCC(=C(C)C)C(=O)CC(C)=CCC1
REMARK SMILES IDX 12 1 14 2 13 3 15 4 16 5 2 6 1 7 3 8 11 10 9 11 10 12 5 13
REMARK SMILES IDX 6 14 7 15 8 16 4 17
REMARK H PARENT
REMARK Flexibility Score: 60.00
ROOT
ATOM      1  C   UNL     1      -9.919  74.736  21.229  1.00  0.00    -0.070 C 
ATOM      2  C   UNL     1      -8.915  74.211  20.486  1.00  0.00    -0.027 C 
ATOM      3  C   UNL     1     -11.210  75.063  20.521  1.00  0.00     0.039 C 
ENDROOT
BRANCH   2   4
ATOM      4  C   UNL     1      -7.586  73.716  21.002  1.00  0.00     0.032 C 
BRANCH   4   5
ATOM      5  C   UNL     1      -7.717  72.435  21.847  1.00  0.00     0.034 C 
BRANCH   5   6
ATOM      6  C   UNL     1      -6.892  72.500  23.117  1.00  0.00    -0.077 C 
ATOM      7  C   UNL     1      -5.413  72.770  22.996  1.00  0.00     0.039 C 
ATOM      8  C   UNL     1      -7.401  72.306  24.354  1.00  0.00    -0.023 CG0
ATOM      9  G   UNL     1      -8.843  71.992  24.675  1.00  0.00     0.000 G0
ENDBRANCH   5   6
ENDBRANCH   4   5
ENDBRANCH   2   4
BRANCH   1  10
ATOM     10  C   UNL     1      -9.834  74.949  22.731  1.00  0.00     0.111 C 
BRANCH  10  11
ATOM     11  C   UNL     1     -10.295  73.730  23.491  1.00  0.00     0.163 C 
ATOM     12  O   UNL     1     -11.304  73.109  23.061  1.00  0.00    -0.294 OA
BRANCH  11  13
ATOM     13  C   UNL     1      -9.625  73.283  24.752  1.00  0.00    -0.002 C 
ATOM     14  C   UNL     1      -9.772  73.967  25.927  1.00  0.00    -0.069 C 
ATOM     15  C   UNL     1     -10.677  75.174  26.033  1.00  0.00     0.039 C 
ATOM     16  C   UNL     1      -9.061  73.528  27.189  1.00  0.00     0.039 C 
BRANCH  13  17
ATOM     17  C   UNL     1      -8.834  71.988  24.691  1.00  0.00     0.066 CG0
ATOM     18  G   UNL     1      -7.390  72.286  24.365  1.00  0.00     0.000 G0
ENDBRANCH  13  17
ENDBRANCH  11  13
ENDBRANCH  10  11
ENDBRANCH   1  10
TORSDOF 0
ENDMDL
MODEL 2
REMARK VINA RESULT:    -4.306      1.633      3.792
REMARK INTER + INTRA:          -5.400
REMARK INTER:                  -5.850
REMARK INTRA:                   0.450
REMARK UNBOUND:                 0.668
REMARK SMILES CC1=CCC(=C(C)C)C(=O)CC(C)=CCC1
REMARK SMILES IDX 12 1 14 2 13 3 15 4 16 5 2 6 1 7 3 8 11 10 9 11 10 12 5 13
REMARK SMILES IDX 6 14 7 15 8 16 4 17
REMARK H PARENT
REMARK Flexibility Score: 60.00
ROOT
ATOM      1  C   UNL     1      -8.827  74.357  21.444  1.00  0.00    -0.070 C 
ATOM      2  C   UNL     1      -9.997  74.606  22.081  1.00  0.00    -0.027 C 
ATOM      3  C   UNL     1      -8.864  74.251  19.939  1.00  0.00     0.039 C 
ENDROOT
BRANCH   2   4
ATOM      4  C   UNL     1     -10.175  74.854  23.559  1.00  0.00     0.032 C 
BRANCH   4   5
ATOM      5  C   UNL     1     -10.443  73.559  24.350  1.00  0.00     0.034 C 
BRANCH   5   6
ATOM      6  C   UNL     1      -9.380  73.300  25.399  1.00  0.00    -0.077 C 
ATOM      7  C   UNL     1      -9.445  74.074  26.691  1.00  0.00     0.039 C 
ATOM      8  C   UNL     1      -8.358  72.429  25.235  1.00  0.00    -0.023 CG0
ATOM      9  G   UNL     1      -8.104  71.591  24.004  1.00  0.00     0.000 G0
ENDBRANCH   5   6
ENDBRANCH   4   5
ENDBRANCH   2   4
BRANCH   1  10
ATOM     10  C   UNL     1      -7.487  74.248  22.153  1.00  0.00     0.111 C 
BRANCH  10  11
ATOM     11  C   UNL     1      -6.941  72.844  22.094  1.00  0.00     0.163 C 
ATOM     12  O   UNL     1      -6.634  72.373  20.965  1.00  0.00    -0.294 OA
BRANCH  11  13
ATOM     13  C   UNL     1      -6.808  71.993  23.317  1.00  0.00    -0.002 C 
ATOM     14  C   UNL     1      -5.586  71.664  23.836  1.00  0.00    -0.069 C 
ATOM     15  C   UNL     1      -4.303  72.203  23.245  1.00  0.00     0.039 C 
ATOM     16  C   UNL     1      -5.460  70.772  25.052  1.00  0.00     0.039 C 
BRANCH  13  17
ATOM     17  C   UNL     1      -8.094  71.569  24.006  1.00  0.00     0.066 CG0
ATOM     18  G   UNL     1      -8.334  72.437  25.218  1.00  0.00     0.000 G0
ENDBRANCH  13  17
ENDBRANCH  11  13
ENDBRANCH  10  11
ENDBRANCH   1  10
TORSDOF 0
ENDMDL
MODEL 3
REMARK VINA RESULT:    -4.085      2.173      4.777
REMARK INTER + INTRA:          -5.089
REMARK INTER:                  -5.468
REMARK INTRA:                   0.379
REMARK UNBOUND:                 0.668
REMARK SMILES CC1=CCC(=C(C)C)C(=O)CC(C)=CCC1
REMARK SMILES IDX 12 1 14 2 13 3 15 4 16 5 2 6 1 7 3 8 11 10 9 11 10 12 5 13
REMARK SMILES IDX 6 14 7 15 8 16 4 17
REMARK H PARENT
REMARK Flexibility Score: 60.00
ROOT
ATOM      1  C   UNL     1      -9.042  73.213  24.975  1.00  0.00    -0.070 C 
ATOM      2  C   UNL     1      -9.420  74.374  24.389  1.00  0.00    -0.027 C 
ATOM      3  C   UNL     1      -9.143  73.126  26.478  1.00  0.00     0.039 C 
ENDROOT
BRANCH   2   4
ATOM      4  C   UNL     1      -9.499  74.643  22.906  1.00  0.00     0.032 C 
BRANCH   4   5
ATOM      5  C   UNL     1      -8.128  74.975  22.289  1.00  0.00     0.034 C 
BRANCH   5   6
ATOM      6  C   UNL     1      -7.799  74.078  21.111  1.00  0.00    -0.077 C 
ATOM      7  C   UNL     1      -8.656  74.176  19.875  1.00  0.00     0.039 C 
ATOM      8  C   UNL     1      -6.793  73.174  21.113  1.00  0.00    -0.023 CG0
ATOM      9  G   UNL     1      -5.851  72.906  22.263  1.00  0.00     0.000 G0
ENDBRANCH   5   6
ENDBRANCH   4   5
ENDBRANCH   2   4
BRANCH   1  10
ATOM     10  C   UNL     1      -8.589  71.986  24.201  1.00  0.00     0.111 C 
BRANCH  10  11
ATOM     11  C   UNL     1      -7.090  71.828  24.237  1.00  0.00     0.163 C 
ATOM     12  O   UNL     1      -6.512  71.903  25.355  1.00  0.00    -0.294 OA
BRANCH  11  13
ATOM     13  C   UNL     1      -6.282  71.642  22.992  1.00  0.00    -0.002 C 
ATOM     14  C   UNL     1      -6.006  70.399  22.492  1.00  0.00    -0.069 C 
ATOM     15  C   UNL     1      -6.564  69.147  23.130  1.00  0.00     0.039 C 
ATOM     16  C   UNL     1      -5.157  70.218  21.252  1.00  0.00     0.039 C 
BRANCH  13  17
ATOM     17  C   UNL     1      -5.842  72.898  22.260  1.00  0.00     0.066 CG0
ATOM     18  G   UNL     1      -6.779  73.173  21.108  1.00  0.00     0.000 G0
ENDBRANCH  13  17
ENDBRANCH  11  13
ENDBRANCH  10  11
ENDBRANCH   1  10
TORSDOF 0
ENDMDL
MODEL 4
REMARK VINA RESULT:    -3.808      1.368      3.952
REMARK INTER + INTRA:          -4.698
REMARK INTER:                  -6.167
REMARK INTRA:                   1.469
REMARK UNBOUND:                 0.668
REMARK SMILES CC1=CCC(=C(C)C)C(=O)CC(C)=CCC1
REMARK SMILES IDX 12 1 14 2 13 3 15 4 16 5 2 6 1 7 3 8 11 10 9 11 10 12 5 13
REMARK SMILES IDX 6 14 7 15 8 16 4 17
REMARK H PARENT
REMARK Flexibility Score: 60.00
ROOT
ATOM      1  C   UNL     1      -9.794  73.634  25.809  1.00  0.00    -0.070 C 
ATOM      2  C   UNL     1      -8.662  72.907  25.967  1.00  0.00    -0.027 C 
ATOM      3  C   UNL     1     -10.839  73.539  26.894  1.00  0.00     0.039 C 
ENDROOT
BRANCH   2   4
ATOM      4  C   UNL     1      -7.450  72.931  25.067  1.00  0.00     0.032 C 
BRANCH   4   5
ATOM      5  C   UNL     1      -6.949  71.520  24.709  1.00  0.00     0.034 C 
BRANCH   5   6
ATOM      6  C   UNL     1      -7.275  71.143  23.276  1.00  0.00    -0.077 C 
ATOM      7  C   UNL     1      -7.160  69.695  22.874  1.00  0.00     0.039 C 
ATOM      8  C   UNL     1      -7.640  72.037  22.329  1.00  0.00    -0.023 CG0
ATOM      9  G   UNL     1      -7.776  73.527  22.529  1.00  0.00     0.000 G0
ENDBRANCH   5   6
ENDBRANCH   4   5
ENDBRANCH   2   4
BRANCH   1  10
ATOM     10  C   UNL     1     -10.033  74.581  24.645  1.00  0.00     0.111 C 
BRANCH  10  11
ATOM     11  C   UNL     1     -10.192  73.833  23.345  1.00  0.00     0.163 C 
ATOM     12  O   UNL     1     -11.168  73.043  23.231  1.00  0.00    -0.294 OA
BRANCH  11  13
ATOM     13  C   UNL     1      -9.205  73.966  22.228  1.00  0.00    -0.002 C 
ATOM     14  C   UNL     1      -9.553  74.508  21.021  1.00  0.00    -0.069 C 
ATOM     15  C   UNL     1     -10.934  75.070  20.774  1.00  0.00     0.039 C 
ATOM     16  C   UNL     1      -8.558  74.604  19.885  1.00  0.00     0.039 C 
BRANCH  13  17
ATOM     17  C   UNL     1      -7.776  73.541  22.516  1.00  0.00     0.066 CG0
ATOM     18  G   UNL     1      -7.635  72.051  22.316  1.00  0.00     0.000 G0
ENDBRANCH  13  17
ENDBRANCH  11  13
ENDBRANCH  10  11
ENDBRANCH   1  10
TORSDOF 0
ENDMDL
MODEL 5
REMARK VINA RESULT:    -3.569     12.198     14.422
REMARK INTER + INTRA:          -4.362
REMARK INTER:                  -4.693
REMARK INTRA:                   0.331
REMARK UNBOUND:                 0.668
REMARK SMILES CC1=CCC(=C(C)C)C(=O)CC(C)=CCC1
REMARK SMILES IDX 12 1 14 2 13 3 15 4 16 5 2 6 1 7 3 8 11 10 9 11 10 12 5 13
REMARK SMILES IDX 6 14 7 15 8 16 4 17
REMARK H PARENT
REMARK Flexibility Score: 60.00
ROOT
ATOM      1  C   UNL     1      -4.037  70.168  37.155  1.00  0.00    -0.070 C 
ATOM      2  C   UNL     1      -5.155  70.159  37.921  1.00  0.00    -0.027 C 
ATOM      3  C   UNL     1      -2.723  70.434  37.847  1.00  0.00     0.039 C 
ENDROOT
BRANCH   2   4
ATOM      4  C   UNL     1      -6.550  69.813  37.461  1.00  0.00     0.032 C 
BRANCH   4   5
ATOM      5  C   UNL     1      -6.771  68.295  37.324  1.00  0.00     0.034 C 
BRANCH   5   6
ATOM      6  C   UNL     1      -7.502  67.936  36.045  1.00  0.00    -0.077 C 
ATOM      7  C   UNL     1      -8.927  68.401  35.880  1.00  0.00     0.039 C 
ATOM      8  C   UNL     1      -6.958  67.199  35.051  1.00  0.00    -0.023 CG0
ATOM      9  G   UNL     1      -5.565  66.616  35.047  1.00  0.00     0.000 G0
ENDBRANCH   5   6
ENDBRANCH   4   5
ENDBRANCH   2   4
BRANCH   1  10
ATOM     10  C   UNL     1      -4.031  69.862  35.667  1.00  0.00     0.111 C 
BRANCH  10  11
ATOM     11  C   UNL     1      -3.744  68.406  35.400  1.00  0.00     0.163 C 
ATOM     12  O   UNL     1      -2.754  67.881  35.979  1.00  0.00    -0.294 OA
BRANCH  11  13
ATOM     13  C   UNL     1      -4.560  67.600  34.440  1.00  0.00    -0.002 C 
ATOM     14  C   UNL     1      -4.382  67.694  33.087  1.00  0.00    -0.069 C 
ATOM     15  C   UNL     1      -3.298  68.563  32.490  1.00  0.00     0.039 C 
ATOM     16  C   UNL     1      -5.237  66.902  32.122  1.00  0.00     0.039 C 
BRANCH  13  17
ATOM     17  C   UNL     1      -5.549  66.613  35.035  1.00  0.00     0.066 CG0
ATOM     18  G   UNL     1      -6.932  67.219  35.048  1.00  0.00     0.000 G0
ENDBRANCH  13  17
ENDBRANCH  11  13
ENDBRANCH  10  11
ENDBRANCH   1  10
TORSDOF 0
ENDMDL
MODEL 6
REMARK VINA RESULT:    -3.428     11.162     13.551
REMARK INTER + INTRA:          -4.163
REMARK INTER:                  -4.704
REMARK INTRA:                   0.541
REMARK UNBOUND:                 0.668
REMARK SMILES CC1=CCC(=C(C)C)C(=O)CC(C)=CCC1
REMARK SMILES IDX 12 1 14 2 13 3 15 4 16 5 2 6 1 7 3 8 11 10 9 11 10 12 5 13
REMARK SMILES IDX 6 14 7 15 8 16 4 17
REMARK H PARENT
REMARK Flexibility Score: 60.00
ROOT
ATOM      1  C   UNL     1      -3.075  69.283  35.573  1.00  0.00    -0.070 C 
ATOM      2  C   UNL     1      -2.743  68.800  34.352  1.00  0.00    -0.027 C 
ATOM      3  C   UNL     1      -1.969  69.416  36.592  1.00  0.00     0.039 C 
ENDROOT
BRANCH   2   4
ATOM      4  C   UNL     1      -3.659  68.684  33.158  1.00  0.00     0.032 C 
BRANCH   4   5
ATOM      5  C   UNL     1      -4.258  67.273  33.006  1.00  0.00     0.034 C 
BRANCH   5   6
ATOM      6  C   UNL     1      -5.761  67.308  32.805  1.00  0.00    -0.077 C 
ATOM      7  C   UNL     1      -6.292  67.610  31.426  1.00  0.00     0.039 C 
ATOM      8  C   UNL     1      -6.656  67.109  33.798  1.00  0.00    -0.023 CG0
ATOM      9  G   UNL     1      -6.321  66.830  35.244  1.00  0.00     0.000 G0
ENDBRANCH   5   6
ENDBRANCH   4   5
ENDBRANCH   2   4
BRANCH   1  10
ATOM     10  C   UNL     1      -4.471  69.755  35.944  1.00  0.00     0.111 C 
BRANCH  10  11
ATOM     11  C   UNL     1      -5.251  68.677  36.654  1.00  0.00     0.163 C 
ATOM     12  O   UNL     1      -4.801  68.242  37.749  1.00  0.00    -0.294 OA
BRANCH  11  13
ATOM     13  C   UNL     1      -6.495  68.085  36.072  1.00  0.00    -0.002 C 
ATOM     14  C   UNL     1      -7.715  68.687  36.218  1.00  0.00    -0.069 C 
ATOM     15  C   UNL     1      -7.862  70.021  36.914  1.00  0.00     0.039 C 
ATOM     16  C   UNL     1      -8.974  68.062  35.658  1.00  0.00     0.039 C 
BRANCH  13  17
ATOM     17  C   UNL     1      -6.337  66.822  35.244  1.00  0.00     0.066 CG0
ATOM     18  G   UNL     1      -6.685  67.108  33.803  1.00  0.00     0.000 G0
ENDBRANCH  13  17
ENDBRANCH  11  13
ENDBRANCH  10  11
ENDBRANCH   1  10
TORSDOF 0
ENDMDL
MODEL 7
REMARK VINA RESULT:    -3.420     12.535     13.951
REMARK INTER + INTRA:          -4.152
REMARK INTER:                  -4.593
REMARK INTRA:                   0.441
REMARK UNBOUND:                 0.668
REMARK SMILES CC1=CCC(=C(C)C)C(=O)CC(C)=CCC1
REMARK SMILES IDX 12 1 14 2 13 3 15 4 16 5 2 6 1 7 3 8 11 10 9 11 10 12 5 13
REMARK SMILES IDX 6 14 7 15 8 16 4 17
REMARK H PARENT
REMARK Flexibility Score: 60.00
ROOT
ATOM      1  C   UNL     1      -7.076  68.155  35.141  1.00  0.00    -0.070 C 
ATOM      2  C   UNL     1      -6.693  67.679  33.932  1.00  0.00    -0.027 C 
ATOM      3  C   UNL     1      -8.467  68.729  35.254  1.00  0.00     0.039 C 
ENDROOT
BRANCH   2   4
ATOM      4  C   UNL     1      -5.397  66.972  33.619  1.00  0.00     0.032 C 
BRANCH   4   5
ATOM      5  C   UNL     1      -4.300  67.934  33.128  1.00  0.00     0.034 C 
BRANCH   5   6
ATOM      6  C   UNL     1      -3.066  67.892  34.009  1.00  0.00    -0.077 C 
ATOM      7  C   UNL     1      -2.090  66.759  33.819  1.00  0.00     0.039 C 
ATOM      8  C   UNL     1      -2.802  68.801  34.974  1.00  0.00    -0.023 CG0
ATOM      9  G   UNL     1      -3.671  69.981  35.336  1.00  0.00     0.000 G0
ENDBRANCH   5   6
ENDBRANCH   4   5
ENDBRANCH   2   4
BRANCH   1  10
ATOM     10  C   UNL     1      -6.212  68.080  36.389  1.00  0.00     0.111 C 
BRANCH  10  11
ATOM     11  C   UNL     1      -5.713  69.442  36.801  1.00  0.00     0.163 C 
ATOM     12  O   UNL     1      -6.562  70.299  37.170  1.00  0.00    -0.294 OA
BRANCH  11  13
ATOM     13  C   UNL     1      -4.264  69.810  36.733  1.00  0.00    -0.002 C 
ATOM     14  C   UNL     1      -3.490  69.898  37.857  1.00  0.00    -0.069 C 
ATOM     15  C   UNL     1      -4.038  69.557  39.225  1.00  0.00     0.039 C 
ATOM     16  C   UNL     1      -2.035  70.306  37.782  1.00  0.00     0.039 C 
BRANCH  13  17
ATOM     17  C   UNL     1      -3.667  70.009  35.351  1.00  0.00     0.066 CG0
ATOM     18  G   UNL     1      -2.817  68.815  34.984  1.00  0.00     0.000 G0
ENDBRANCH  13  17
ENDBRANCH  11  13
ENDBRANCH  10  11
ENDBRANCH   1  10
TORSDOF 0
ENDMDL
MODEL 8
REMARK VINA RESULT:    -3.270     11.457     13.455
REMARK INTER + INTRA:          -3.940
REMARK INTER:                  -4.287
REMARK INTRA:                   0.347
REMARK UNBOUND:                 0.668
REMARK SMILES CC1=CCC(=C(C)C)C(=O)CC(C)=CCC1
REMARK SMILES IDX 12 1 14 2 13 3 15 4 16 5 2 6 1 7 3 8 11 10 9 11 10 12 5 13
REMARK SMILES IDX 6 14 7 15 8 16 4 17
REMARK H PARENT
REMARK Flexibility Score: 60.00
ROOT
ATOM      1  C   UNL     1      -3.464  68.202  32.796  1.00  0.00    -0.070 C 
ATOM      2  C   UNL     1      -2.745  69.144  33.451  1.00  0.00    -0.027 C 
ATOM      3  C   UNL     1      -3.362  68.170  31.291  1.00  0.00     0.039 C 
ENDROOT
BRANCH   2   4
ATOM      4  C   UNL     1      -2.615  69.291  34.948  1.00  0.00     0.032 C 
BRANCH   4   5
ATOM      5  C   UNL     1      -3.792  70.063  35.572  1.00  0.00     0.034 C 
BRANCH   5   6
ATOM      6  C   UNL     1      -4.463  69.283  36.686  1.00  0.00    -0.077 C 
ATOM      7  C   UNL     1      -3.691  69.050  37.960  1.00  0.00     0.039 C 
ATOM      8  C   UNL     1      -5.706  68.761  36.594  1.00  0.00    -0.023 CG0
ATOM      9  G   UNL     1      -6.617  68.858  35.393  1.00  0.00     0.000 G0
ENDBRANCH   5   6
ENDBRANCH   4   5
ENDBRANCH   2   4
BRANCH   1  10
ATOM     10  C   UNL     1      -4.306  67.146  33.494  1.00  0.00     0.111 C 
BRANCH  10  11
ATOM     11  C   UNL     1      -5.777  67.467  33.414  1.00  0.00     0.163 C 
ATOM     12  O   UNL     1      -6.268  67.721  32.280  1.00  0.00    -0.294 OA
BRANCH  11  13
ATOM     13  C   UNL     1      -6.641  67.541  34.633  1.00  0.00    -0.002 C 
ATOM     14  C   UNL     1      -7.352  66.460  35.078  1.00  0.00    -0.069 C 
ATOM     15  C   UNL     1      -7.247  65.111  34.405  1.00  0.00     0.039 C 
ATOM     16  C   UNL     1      -8.252  66.555  36.292  1.00  0.00     0.039 C 
BRANCH  13  17
ATOM     17  C   UNL     1      -6.636  68.850  35.403  1.00  0.00     0.066 CG0
ATOM     18  G   UNL     1      -5.702  68.745  36.585  1.00  0.00     0.000 G0
ENDBRANCH  13  17
ENDBRANCH  11  13
ENDBRANCH  10  11
ENDBRANCH   1  10
TORSDOF 0
ENDMDL
MODEL 9
REMARK VINA RESULT:    -3.258     11.959     13.294
REMARK INTER + INTRA:          -3.924
REMARK INTER:                  -4.485
REMARK INTRA:                   0.562
REMARK UNBOUND:                 0.668
REMARK SMILES CC1=CCC(=C(C)C)C(=O)CC(C)=CCC1
REMARK SMILES IDX 12 1 14 2 13 3 15 4 16 5 2 6 1 7 3 8 11 10 9 11 10 12 5 13
REMARK SMILES IDX 6 14 7 15 8 16 4 17
REMARK H PARENT
REMARK Flexibility Score: 60.00
ROOT
ATOM      1  C   UNL     1      -6.805  66.512  33.733  1.00  0.00    -0.070 C 
ATOM      2  C   UNL     1      -6.106  66.081  32.656  1.00  0.00    -0.027 C 
ATOM      3  C   UNL     1      -7.699  65.513  34.426  1.00  0.00     0.039 C 
ENDROOT
BRANCH   2   4
ATOM      4  C   UNL     1      -5.081  66.873  31.880  1.00  0.00     0.032 C 
BRANCH   4   5
ATOM      5  C   UNL     1      -3.664  66.746  32.469  1.00  0.00     0.034 C 
BRANCH   5   6
ATOM      6  C   UNL     1      -3.085  68.091  32.862  1.00  0.00    -0.077 C 
ATOM      7  C   UNL     1      -2.506  68.965  31.777  1.00  0.00     0.039 C 
ATOM      8  C   UNL     1      -3.033  68.544  34.135  1.00  0.00    -0.023 CG0
ATOM      9  G   UNL     1      -3.526  67.804  35.355  1.00  0.00     0.000 G0
ENDBRANCH   5   6
ENDBRANCH   4   5
ENDBRANCH   2   4
BRANCH   1  10
ATOM     10  C   UNL     1      -6.686  67.911  34.312  1.00  0.00     0.111 C 
BRANCH  10  11
ATOM     11  C   UNL     1      -6.071  67.892  35.689  1.00  0.00     0.163 C 
ATOM     12  O   UNL     1      -6.738  67.383  36.630  1.00  0.00    -0.294 OA
BRANCH  11  13
ATOM     13  C   UNL     1      -4.733  68.502  35.968  1.00  0.00    -0.002 C 
ATOM     14  C   UNL     1      -4.597  69.602  36.770  1.00  0.00    -0.069 C 
ATOM     15  C   UNL     1      -5.782  70.219  37.477  1.00  0.00     0.039 C 
ATOM     16  C   UNL     1      -3.244  70.234  37.017  1.00  0.00     0.039 C 
BRANCH  13  17
ATOM     17  C   UNL     1      -3.520  67.800  35.384  1.00  0.00     0.066 CG0
ATOM     18  G   UNL     1      -3.041  68.543  34.159  1.00  0.00     0.000 G0
ENDBRANCH  13  17
ENDBRANCH  11  13
ENDBRANCH  10  11
ENDBRANCH   1  10
TORSDOF 0
ENDMDL
