MODEL 1
REMARK VINA RESULT:    -8.704      0.000      0.000
REMARK INTER + INTRA:         -26.084
REMARK INTER:                 -20.662
REMARK INTRA:                  -5.422
REMARK UNBOUND:                -5.422
REMARK SMILES O=C(OC[C@H]1O[C@H](OC(=O)c2cc(O)c(O)c(O)c2)[C@H](OC(=O)c2cc(O)c(O)c(O)c2)[C@@H](OC(=O)c2cc(O)c(O)c(O)c2)[C@H]1OC(=O)c1cc(O)c(O)c(O)c1)c1cc(O)c(O)c(O)c1
REMARK SMILES IDX 5 1 46 2 33 3 20 4 7 5 6 6 4 7 3 8 2 9 1 10 59 11 60 12
REMARK SMILES IDX 61 13 67 14 63 15 65 16 62 17 64 19 66 21 47 23 48 24 49 25
REMARK SMILES IDX 50 26 58 27 51 28 56 29 52 30 54 31 57 32 53 34 55 36 34 38
REMARK SMILES IDX 35 39 36 40 37 41 45 42 38 43 43 44 39 45 41 46 44 47 40 49
REMARK SMILES IDX 42 51 8 53 9 54 10 55 11 56 19 57 12 58 17 59 13 60 15 61
REMARK SMILES IDX 18 62 14 64 16 66 21 68 22 69 23 70 24 71 32 72 25 73 30 74
REMARK SMILES IDX 26 75 28 76 31 77 27 79 29 81
REMARK H PARENT 62 18 64 20 66 22 57 33 53 35 55 37 44 48 40 50 42 52 18 63
REMARK H PARENT 14 65 16 67 31 78 27 80 29 82
REMARK Flexibility Score: inf
ROOT
ATOM      1  C   UNL     1     144.062 187.055 155.953  1.00  0.00     0.205 C 
ATOM      2  C   UNL     1     143.687 186.977 157.444  1.00  0.00     0.254 C 
ATOM      3  C   UNL     1     144.067 188.316 158.084  1.00  0.00     0.267 C 
ATOM      4  C   UNL     1     143.347 189.462 157.350  1.00  0.00     0.290 C 
ATOM      5  C   UNL     1     143.622 189.360 155.832  1.00  0.00     0.357 C 
ATOM      6  O   UNL     1     143.307 188.074 155.313  1.00  0.00    -0.329 OA
ENDROOT
BRANCH   1   7
ATOM      7  C   UNL     1     143.832 185.720 155.221  1.00  0.00     0.269 C 
BRANCH   7   8
ATOM      8  O   UNL     1     145.089 185.129 154.906  1.00  0.00    -0.459 OA
BRANCH   8   9
ATOM      9  C   UNL     1     146.169 185.140 155.799  1.00  0.00     0.338 C 
ATOM     10  O   UNL     1     146.130 184.427 156.843  1.00  0.00    -0.246 OA
BRANCH   9  11
ATOM     11  C   UNL     1     147.335 186.010 155.538  1.00  0.00     0.067 A 
ATOM     12  C   UNL     1     148.351 185.586 154.671  1.00  0.00     0.066 A 
ATOM     13  C   UNL     1     149.484 186.374 154.454  1.00  0.00     0.162 A 
ATOM     14  C   UNL     1     147.458 187.253 156.190  1.00  0.00     0.066 A 
ATOM     15  C   UNL     1     149.624 187.605 155.137  1.00  0.00     0.200 A 
ATOM     16  C   UNL     1     148.601 188.039 156.000  1.00  0.00     0.162 A 
BRANCH  13  17
ATOM     17  O   UNL     1     150.435 185.904 153.547  1.00  0.00    -0.504 OA
ATOM     18  H   UNL     1     151.172 185.267 153.794  1.00  0.00     0.293 HD
ENDBRANCH  13  17
BRANCH  15  19
ATOM     19  O   UNL     1     150.758 188.411 154.989  1.00  0.00    -0.502 OA
ATOM     20  H   UNL     1     151.136 188.707 154.102  1.00  0.00     0.293 HD
ENDBRANCH  15  19
BRANCH  16  21
ATOM     21  O   UNL     1     148.699 189.251 156.684  1.00  0.00    -0.504 OA
ATOM     22  H   UNL     1     148.242 190.092 156.354  1.00  0.00     0.293 HD
ENDBRANCH  16  21
ENDBRANCH   9  11
ENDBRANCH   8   9
ENDBRANCH   7   8
ENDBRANCH   1   7
BRANCH   2  23
ATOM     23  O   UNL     1     142.281 186.774 157.591  1.00  0.00    -0.452 OA
BRANCH  23  24
ATOM     24  C   UNL     1     141.679 185.519 157.757  1.00  0.00     0.338 C 
ATOM     25  O   UNL     1     140.507 185.327 157.342  1.00  0.00    -0.246 OA
BRANCH  24  26
ATOM     26  C   UNL     1     142.438 184.426 158.404  1.00  0.00     0.067 A 
ATOM     27  C   UNL     1     143.305 183.609 157.655  1.00  0.00     0.066 A 
ATOM     28  C   UNL     1     142.258 184.157 159.771  1.00  0.00     0.066 A 
ATOM     29  C   UNL     1     143.970 182.530 158.261  1.00  0.00     0.162 A 
ATOM     30  C   UNL     1     142.927 183.090 160.380  1.00  0.00     0.162 A 
ATOM     31  C   UNL     1     143.783 182.272 159.629  1.00  0.00     0.200 A 
BRANCH  29  32
ATOM     32  O   UNL     1     144.809 181.712 157.508  1.00  0.00    -0.504 OA
ATOM     33  H   UNL     1     144.726 180.702 157.533  1.00  0.00     0.293 HD
ENDBRANCH  29  32
BRANCH  30  34
ATOM     34  O   UNL     1     142.720 182.855 161.737  1.00  0.00    -0.504 OA
ATOM     35  H   UNL     1     141.860 182.446 162.089  1.00  0.00     0.293 HD
ENDBRANCH  30  34
BRANCH  31  36
ATOM     36  O   UNL     1     144.429 181.207 160.253  1.00  0.00    -0.502 OA
ATOM     37  H   UNL     1     144.063 180.764 161.086  1.00  0.00     0.293 HD
ENDBRANCH  31  36
ENDBRANCH  24  26
ENDBRANCH  23  24
ENDBRANCH   2  23
BRANCH   3  38
ATOM     38  O   UNL     1     143.747 188.312 159.475  1.00  0.00    -0.450 OA
BRANCH  38  39
ATOM     39  C   UNL     1     144.486 187.584 160.418  1.00  0.00     0.338 C 
ATOM     40  O   UNL     1     144.017 186.517 160.901  1.00  0.00    -0.246 OA
BRANCH  39  41
ATOM     41  C   UNL     1     145.827 188.052 160.833  1.00  0.00     0.067 A 
ATOM     42  C   UNL     1     146.031 188.569 162.124  1.00  0.00     0.066 A 
ATOM     43  C   UNL     1     146.912 187.980 159.944  1.00  0.00     0.066 A 
ATOM     44  C   UNL     1     147.295 189.013 162.520  1.00  0.00     0.162 A 
ATOM     45  C   UNL     1     148.181 188.425 160.326  1.00  0.00     0.162 A 
ATOM     46  C   UNL     1     148.377 188.958 161.627  1.00  0.00     0.200 A 
BRANCH  44  47
ATOM     47  O   UNL     1     147.481 189.512 163.811  1.00  0.00    -0.504 OA
ATOM     48  H   UNL     1     147.820 190.456 163.975  1.00  0.00     0.293 HD
ENDBRANCH  44  47
BRANCH  45  49
ATOM     49  O   UNL     1     149.210 188.323 159.390  1.00  0.00    -0.504 OA
ATOM     50  H   UNL     1     149.769 187.494 159.250  1.00  0.00     0.293 HD
ENDBRANCH  45  49
BRANCH  46  51
ATOM     51  O   UNL     1     149.612 189.442 162.068  1.00  0.00    -0.502 OA
ATOM     52  H   UNL     1     150.335 189.786 161.447  1.00  0.00     0.293 HD
ENDBRANCH  46  51
ENDBRANCH  39  41
ENDBRANCH  38  39
ENDBRANCH   3  38
BRANCH   5  53
ATOM     53  O   UNL     1     144.976 189.707 155.546  1.00  0.00    -0.428 OA
BRANCH  53  54
ATOM     54  C   UNL     1     145.402 190.179 154.300  1.00  0.00     0.340 C 
ATOM     55  O   UNL     1     146.589 190.557 154.129  1.00  0.00    -0.246 OA
BRANCH  54  56
ATOM     56  C   UNL     1     144.447 190.223 153.181  1.00  0.00     0.067 A 
ATOM     57  C   UNL     1     143.483 191.235 153.101  1.00  0.00     0.066 A 
ATOM     58  C   UNL     1     144.508 189.253 152.174  1.00  0.00     0.066 A 
ATOM     59  C   UNL     1     142.603 191.308 152.013  1.00  0.00     0.162 A 
ATOM     60  C   UNL     1     143.622 189.289 151.096  1.00  0.00     0.162 A 
ATOM     61  C   UNL     1     142.670 190.325 150.993  1.00  0.00     0.200 A 
BRANCH  59  62
ATOM     62  O   UNL     1     141.692 192.369 151.990  1.00  0.00    -0.504 OA
ATOM     63  H   UNL     1     141.620 193.037 151.231  1.00  0.00     0.293 HD
ENDBRANCH  59  62
BRANCH  60  64
ATOM     64  O   UNL     1     143.700 188.279 150.138  1.00  0.00    -0.504 OA
ATOM     65  H   UNL     1     144.007 187.340 150.371  1.00  0.00     0.293 HD
ENDBRANCH  60  64
BRANCH  61  66
ATOM     66  O   UNL     1     141.822 190.349 149.876  1.00  0.00    -0.502 OA
ATOM     67  H   UNL     1     140.820 190.225 149.922  1.00  0.00     0.293 HD
ENDBRANCH  61  66
ENDBRANCH  54  56
ENDBRANCH  53  54
ENDBRANCH   5  53
BRANCH   4  68
ATOM     68  O   UNL     1     143.836 190.722 157.806  1.00  0.00    -0.448 OA
BRANCH  68  69
ATOM     69  C   UNL     1     144.041 191.046 159.150  1.00  0.00     0.339 C 
ATOM     70  O   UNL     1     143.080 191.008 159.968  1.00  0.00    -0.246 OA
BRANCH  69  71
ATOM     71  C   UNL     1     145.389 191.449 159.605  1.00  0.00     0.067 A 
ATOM     72  C   UNL     1     145.581 192.032 160.863  1.00  0.00     0.066 A 
ATOM     73  C   UNL     1     146.504 191.242 158.776  1.00  0.00     0.066 A 
ATOM     74  C   UNL     1     146.864 192.392 161.300  1.00  0.00     0.162 A 
ATOM     75  C   UNL     1     147.788 191.594 159.202  1.00  0.00     0.162 A 
ATOM     76  C   UNL     1     147.974 192.170 160.468  1.00  0.00     0.200 A 
BRANCH  74  77
ATOM     77  O   UNL     1     147.043 192.960 162.562  1.00  0.00    -0.504 OA
ATOM     78  H   UNL     1     146.568 193.815 162.831  1.00  0.00     0.293 HD
ENDBRANCH  74  77
BRANCH  75  79
ATOM     79  O   UNL     1     148.871 191.361 158.353  1.00  0.00    -0.504 OA
ATOM     80  H   UNL     1     149.182 192.042 157.674  1.00  0.00     0.293 HD
ENDBRANCH  75  79
BRANCH  76  81
ATOM     81  O   UNL     1     149.260 192.519 160.886  1.00  0.00    -0.502 OA
ATOM     82  H   UNL     1     149.474 193.417 161.292  1.00  0.00     0.293 HD
ENDBRANCH  76  81
ENDBRANCH  69  71
ENDBRANCH  68  69
ENDBRANCH   4  68
TORSDOF 31
ENDMDL
MODEL 2
REMARK VINA RESULT:    -8.681      0.273      1.482
REMARK INTER + INTRA:         -26.029
REMARK INTER:                 -20.580
REMARK INTRA:                  -5.448
REMARK UNBOUND:                -5.422
REMARK SMILES O=C(OC[C@H]1O[C@H](OC(=O)c2cc(O)c(O)c(O)c2)[C@H](OC(=O)c2cc(O)c(O)c(O)c2)[C@@H](OC(=O)c2cc(O)c(O)c(O)c2)[C@H]1OC(=O)c1cc(O)c(O)c(O)c1)c1cc(O)c(O)c(O)c1
REMARK SMILES IDX 5 1 46 2 33 3 20 4 7 5 6 6 4 7 3 8 2 9 1 10 59 11 60 12
REMARK SMILES IDX 61 13 67 14 63 15 65 16 62 17 64 19 66 21 47 23 48 24 49 25
REMARK SMILES IDX 50 26 58 27 51 28 56 29 52 30 54 31 57 32 53 34 55 36 34 38
REMARK SMILES IDX 35 39 36 40 37 41 45 42 38 43 43 44 39 45 41 46 44 47 40 49
REMARK SMILES IDX 42 51 8 53 9 54 10 55 11 56 19 57 12 58 17 59 13 60 15 61
REMARK SMILES IDX 18 62 14 64 16 66 21 68 22 69 23 70 24 71 32 72 25 73 30 74
REMARK SMILES IDX 26 75 28 76 31 77 27 79 29 81
REMARK H PARENT 62 18 64 20 66 22 57 33 53 35 55 37 44 48 40 50 42 52 18 63
REMARK H PARENT 14 65 16 67 31 78 27 80 29 82
REMARK Flexibility Score: inf
ROOT
ATOM      1  C   UNL     1     144.001 187.253 156.107  1.00  0.00     0.205 C 
ATOM      2  C   UNL     1     143.665 187.136 157.604  1.00  0.00     0.254 C 
ATOM      3  C   UNL     1     144.048 188.464 158.267  1.00  0.00     0.267 C 
ATOM      4  C   UNL     1     143.299 189.620 157.579  1.00  0.00     0.290 C 
ATOM      5  C   UNL     1     143.537 189.556 156.053  1.00  0.00     0.357 C 
ATOM      6  O   UNL     1     143.220 188.280 155.511  1.00  0.00    -0.329 OA
ENDROOT
BRANCH   1   7
ATOM      7  C   UNL     1     143.765 185.934 155.349  1.00  0.00     0.269 C 
BRANCH   7   8
ATOM      8  O   UNL     1     145.017 185.380 154.958  1.00  0.00    -0.459 OA
BRANCH   8   9
ATOM      9  C   UNL     1     146.116 185.323 155.827  1.00  0.00     0.338 C 
ATOM     10  O   UNL     1     146.072 184.581 156.850  1.00  0.00    -0.246 OA
BRANCH   9  11
ATOM     11  C   UNL     1     147.308 186.155 155.564  1.00  0.00     0.067 A 
ATOM     12  C   UNL     1     148.322 185.689 154.716  1.00  0.00     0.066 A 
ATOM     13  C   UNL     1     149.479 186.441 154.499  1.00  0.00     0.162 A 
ATOM     14  C   UNL     1     147.460 187.406 156.197  1.00  0.00     0.066 A 
ATOM     15  C   UNL     1     149.646 187.679 155.163  1.00  0.00     0.200 A 
ATOM     16  C   UNL     1     148.626 188.156 156.006  1.00  0.00     0.162 A 
BRANCH  13  17
ATOM     17  O   UNL     1     150.426 185.929 153.611  1.00  0.00    -0.504 OA
ATOM     18  H   UNL     1     150.954 186.497 152.971  1.00  0.00     0.293 HD
ENDBRANCH  13  17
BRANCH  15  19
ATOM     19  O   UNL     1     150.804 188.450 155.014  1.00  0.00    -0.502 OA
ATOM     20  H   UNL     1     151.522 188.275 154.328  1.00  0.00     0.293 HD
ENDBRANCH  15  19
BRANCH  16  21
ATOM     21  O   UNL     1     148.752 189.376 156.671  1.00  0.00    -0.504 OA
ATOM     22  H   UNL     1     149.162 190.189 156.229  1.00  0.00     0.293 HD
ENDBRANCH  16  21
ENDBRANCH   9  11
ENDBRANCH   8   9
ENDBRANCH   7   8
ENDBRANCH   1   7
BRANCH   2  23
ATOM     23  O   UNL     1     142.264 186.916 157.782  1.00  0.00    -0.452 OA
BRANCH  23  24
ATOM     24  C   UNL     1     141.666 185.650 157.835  1.00  0.00     0.338 C 
ATOM     25  O   UNL     1     140.516 185.480 157.354  1.00  0.00    -0.246 OA
BRANCH  24  26
ATOM     26  C   UNL     1     142.405 184.520 158.441  1.00  0.00     0.067 A 
ATOM     27  C   UNL     1     143.267 183.723 157.664  1.00  0.00     0.066 A 
ATOM     28  C   UNL     1     142.209 184.195 159.793  1.00  0.00     0.066 A 
ATOM     29  C   UNL     1     143.912 182.610 158.229  1.00  0.00     0.162 A 
ATOM     30  C   UNL     1     142.857 183.093 160.361  1.00  0.00     0.162 A 
ATOM     31  C   UNL     1     143.708 182.296 159.583  1.00  0.00     0.200 A 
BRANCH  29  32
ATOM     32  O   UNL     1     144.747 181.814 157.449  1.00  0.00    -0.504 OA
ATOM     33  H   UNL     1     144.972 180.862 157.716  1.00  0.00     0.293 HD
ENDBRANCH  29  32
BRANCH  30  34
ATOM     34  O   UNL     1     142.634 182.803 161.705  1.00  0.00    -0.504 OA
ATOM     35  H   UNL     1     143.281 182.239 162.250  1.00  0.00     0.293 HD
ENDBRANCH  30  34
BRANCH  31  36
ATOM     36  O   UNL     1     144.334 181.196 160.166  1.00  0.00    -0.502 OA
ATOM     37  H   UNL     1     143.835 180.533 160.746  1.00  0.00     0.293 HD
ENDBRANCH  31  36
ENDBRANCH  24  26
ENDBRANCH  23  24
ENDBRANCH   2  23
BRANCH   3  38
ATOM     38  O   UNL     1     143.764 188.423 159.665  1.00  0.00    -0.450 OA
BRANCH  38  39
ATOM     39  C   UNL     1     144.543 187.691 160.573  1.00  0.00     0.338 C 
ATOM     40  O   UNL     1     144.083 186.638 161.094  1.00  0.00    -0.246 OA
BRANCH  39  41
ATOM     41  C   UNL     1     145.913 188.139 160.907  1.00  0.00     0.067 A 
ATOM     42  C   UNL     1     146.948 188.023 159.964  1.00  0.00     0.066 A 
ATOM     43  C   UNL     1     146.192 188.689 162.169  1.00  0.00     0.066 A 
ATOM     44  C   UNL     1     148.244 188.443 160.276  1.00  0.00     0.162 A 
ATOM     45  C   UNL     1     147.485 189.110 162.495  1.00  0.00     0.162 A 
ATOM     46  C   UNL     1     148.529 188.978 161.542  1.00  0.00     0.200 A 
BRANCH  44  47
ATOM     47  O   UNL     1     149.256 188.331 159.321  1.00  0.00    -0.504 OA
ATOM     48  H   UNL     1     149.513 189.112 158.722  1.00  0.00     0.293 HD
ENDBRANCH  44  47
BRANCH  45  49
ATOM     49  O   UNL     1     147.688 189.646 163.766  1.00  0.00    -0.504 OA
ATOM     50  H   UNL     1     148.425 189.356 164.392  1.00  0.00     0.293 HD
ENDBRANCH  45  49
BRANCH  46  51
ATOM     51  O   UNL     1     149.848 189.356 161.808  1.00  0.00    -0.502 OA
ATOM     52  H   UNL     1     150.598 188.696 161.979  1.00  0.00     0.293 HD
ENDBRANCH  46  51
ENDBRANCH  39  41
ENDBRANCH  38  39
ENDBRANCH   3  38
BRANCH   5  53
ATOM     53  O   UNL     1     144.880 189.923 155.741  1.00  0.00    -0.428 OA
BRANCH  53  54
ATOM     54  C   UNL     1     145.228 190.688 154.623  1.00  0.00     0.340 C 
ATOM     55  O   UNL     1     146.239 191.437 154.646  1.00  0.00    -0.246 OA
BRANCH  54  56
ATOM     56  C   UNL     1     144.403 190.605 153.407  1.00  0.00     0.067 A 
ATOM     57  C   UNL     1     143.360 191.514 153.185  1.00  0.00     0.066 A 
ATOM     58  C   UNL     1     144.667 189.618 152.451  1.00  0.00     0.066 A 
ATOM     59  C   UNL     1     142.603 191.467 152.007  1.00  0.00     0.162 A 
ATOM     60  C   UNL     1     143.906 189.535 151.284  1.00  0.00     0.162 A 
ATOM     61  C   UNL     1     142.876 190.467 151.040  1.00  0.00     0.200 A 
BRANCH  59  62
ATOM     62  O   UNL     1     141.603 192.432 151.846  1.00  0.00    -0.504 OA
ATOM     63  H   UNL     1     141.775 193.380 151.530  1.00  0.00     0.293 HD
ENDBRANCH  59  62
BRANCH  60  64
ATOM     64  O   UNL     1     144.185 188.510 150.380  1.00  0.00    -0.504 OA
ATOM     65  H   UNL     1     143.511 187.781 150.169  1.00  0.00     0.293 HD
ENDBRANCH  60  64
BRANCH  61  66
ATOM     66  O   UNL     1     142.158 190.375 149.838  1.00  0.00    -0.502 OA
ATOM     67  H   UNL     1     141.325 189.815 149.717  1.00  0.00     0.293 HD
ENDBRANCH  61  66
ENDBRANCH  54  56
ENDBRANCH  53  54
ENDBRANCH   5  53
BRANCH   4  68
ATOM     68  O   UNL     1     143.789 190.873 158.053  1.00  0.00    -0.448 OA
BRANCH  68  69
ATOM     69  C   UNL     1     144.081 191.148 159.392  1.00  0.00     0.339 C 
ATOM     70  O   UNL     1     143.175 191.078 160.269  1.00  0.00    -0.246 OA
BRANCH  69  71
ATOM     71  C   UNL     1     145.456 191.535 159.773  1.00  0.00     0.067 A 
ATOM     72  C   UNL     1     146.536 191.295 158.914  1.00  0.00     0.066 A 
ATOM     73  C   UNL     1     145.697 192.160 161.007  1.00  0.00     0.066 A 
ATOM     74  C   UNL     1     147.836 191.684 159.269  1.00  0.00     0.162 A 
ATOM     75  C   UNL     1     146.988 192.554 161.369  1.00  0.00     0.162 A 
ATOM     76  C   UNL     1     148.064 192.319 160.501  1.00  0.00     0.200 A 
BRANCH  74  77
ATOM     77  O   UNL     1     148.901 191.451 158.398  1.00  0.00    -0.504 OA
ATOM     78  H   UNL     1     148.899 190.664 157.756  1.00  0.00     0.293 HD
ENDBRANCH  74  77
BRANCH  75  79
ATOM     79  O   UNL     1     147.184 193.184 162.600  1.00  0.00    -0.504 OA
ATOM     80  H   UNL     1     148.104 193.424 162.944  1.00  0.00     0.293 HD
ENDBRANCH  75  79
BRANCH  76  81
ATOM     81  O   UNL     1     149.351 192.716 160.870  1.00  0.00    -0.502 OA
ATOM     82  H   UNL     1     149.800 192.387 161.711  1.00  0.00     0.293 HD
ENDBRANCH  76  81
ENDBRANCH  69  71
ENDBRANCH  68  69
ENDBRANCH   4  68
TORSDOF 31
ENDMDL
MODEL 3
REMARK VINA RESULT:    -8.535      2.068      8.411
REMARK INTER + INTRA:         -25.682
REMARK INTER:                 -20.104
REMARK INTRA:                  -5.578
REMARK UNBOUND:                -5.422
REMARK SMILES O=C(OC[C@H]1O[C@H](OC(=O)c2cc(O)c(O)c(O)c2)[C@H](OC(=O)c2cc(O)c(O)c(O)c2)[C@@H](OC(=O)c2cc(O)c(O)c(O)c2)[C@H]1OC(=O)c1cc(O)c(O)c(O)c1)c1cc(O)c(O)c(O)c1
REMARK SMILES IDX 5 1 46 2 33 3 20 4 7 5 6 6 4 7 3 8 2 9 1 10 59 11 60 12
REMARK SMILES IDX 61 13 67 14 63 15 65 16 62 17 64 19 66 21 47 23 48 24 49 25
REMARK SMILES IDX 50 26 58 27 51 28 56 29 52 30 54 31 57 32 53 34 55 36 34 38
REMARK SMILES IDX 35 39 36 40 37 41 45 42 38 43 43 44 39 45 41 46 44 47 40 49
REMARK SMILES IDX 42 51 8 53 9 54 10 55 11 56 19 57 12 58 17 59 13 60 15 61
REMARK SMILES IDX 18 62 14 64 16 66 21 68 22 69 23 70 24 71 32 72 25 73 30 74
REMARK SMILES IDX 26 75 28 76 31 77 27 79 29 81
REMARK H PARENT 62 18 64 20 66 22 57 33 53 35 55 37 44 48 40 50 42 52 18 63
REMARK H PARENT 14 65 16 67 31 78 27 80 29 82
REMARK Flexibility Score: inf
ROOT
ATOM      1  C   UNL     1     144.034 190.168 155.348  1.00  0.00     0.205 C 
ATOM      2  C   UNL     1     144.258 188.761 154.764  1.00  0.00     0.254 C 
ATOM      3  C   UNL     1     144.543 187.817 155.938  1.00  0.00     0.267 C 
ATOM      4  C   UNL     1     143.372 187.866 156.936  1.00  0.00     0.290 C 
ATOM      5  C   UNL     1     143.087 189.333 157.330  1.00  0.00     0.357 C 
ATOM      6  O   UNL     1     142.893 190.168 156.195  1.00  0.00    -0.329 OA
ENDROOT
BRANCH   1   7
ATOM      7  C   UNL     1     143.849 191.234 154.252  1.00  0.00     0.269 C 
BRANCH   7   8
ATOM      8  O   UNL     1     144.946 192.142 154.283  1.00  0.00    -0.459 OA
BRANCH   8   9
ATOM      9  C   UNL     1     145.384 192.829 153.143  1.00  0.00     0.338 C 
ATOM     10  O   UNL     1     144.752 193.849 152.741  1.00  0.00    -0.246 OA
BRANCH   9  11
ATOM     11  C   UNL     1     146.561 192.343 152.394  1.00  0.00     0.067 A 
ATOM     12  C   UNL     1     147.162 191.125 152.737  1.00  0.00     0.066 A 
ATOM     13  C   UNL     1     148.307 190.677 152.073  1.00  0.00     0.162 A 
ATOM     14  C   UNL     1     147.118 193.119 151.357  1.00  0.00     0.066 A 
ATOM     15  C   UNL     1     148.886 191.474 151.058  1.00  0.00     0.200 A 
ATOM     16  C   UNL     1     148.279 192.692 150.703  1.00  0.00     0.162 A 
BRANCH  13  17
ATOM     17  O   UNL     1     148.825 189.436 152.444  1.00  0.00    -0.504 OA
ATOM     18  H   UNL     1     148.347 188.564 152.292  1.00  0.00     0.293 HD
ENDBRANCH  13  17
BRANCH  15  19
ATOM     19  O   UNL     1     150.056 191.092 150.392  1.00  0.00    -0.502 OA
ATOM     20  H   UNL     1     150.221 191.226 149.407  1.00  0.00     0.293 HD
ENDBRANCH  15  19
BRANCH  16  21
ATOM     21  O   UNL     1     148.816 193.500 149.700  1.00  0.00    -0.504 OA
ATOM     22  H   UNL     1     149.352 194.333 149.912  1.00  0.00     0.293 HD
ENDBRANCH  16  21
ENDBRANCH   9  11
ENDBRANCH   8   9
ENDBRANCH   7   8
ENDBRANCH   1   7
BRANCH   2  23
ATOM     23  O   UNL     1     143.084 188.314 154.083  1.00  0.00    -0.452 OA
BRANCH  23  24
ATOM     24  C   UNL     1     143.053 187.933 152.735  1.00  0.00     0.338 C 
ATOM     25  O   UNL     1     142.940 186.718 152.430  1.00  0.00    -0.246 OA
BRANCH  24  26
ATOM     26  C   UNL     1     143.134 188.970 151.683  1.00  0.00     0.067 A 
ATOM     27  C   UNL     1     141.979 189.646 151.246  1.00  0.00     0.066 A 
ATOM     28  C   UNL     1     144.364 189.252 151.066  1.00  0.00     0.066 A 
ATOM     29  C   UNL     1     142.052 190.581 150.199  1.00  0.00     0.162 A 
ATOM     30  C   UNL     1     144.442 190.189 150.030  1.00  0.00     0.162 A 
ATOM     31  C   UNL     1     143.288 190.855 149.591  1.00  0.00     0.200 A 
BRANCH  29  32
ATOM     32  O   UNL     1     140.901 191.230 149.759  1.00  0.00    -0.504 OA
ATOM     33  H   UNL     1     139.983 190.966 150.095  1.00  0.00     0.293 HD
ENDBRANCH  29  32
BRANCH  30  34
ATOM     34  O   UNL     1     145.680 190.439 149.443  1.00  0.00    -0.504 OA
ATOM     35  H   UNL     1     145.767 190.914 148.549  1.00  0.00     0.293 HD
ENDBRANCH  30  34
BRANCH  31  36
ATOM     36  O   UNL     1     143.387 191.775 148.550  1.00  0.00    -0.502 OA
ATOM     37  H   UNL     1     144.059 192.532 148.558  1.00  0.00     0.293 HD
ENDBRANCH  31  36
ENDBRANCH  24  26
ENDBRANCH  23  24
ENDBRANCH   2  23
BRANCH   3  38
ATOM     38  O   UNL     1     144.765 186.489 155.465  1.00  0.00    -0.450 OA
BRANCH  38  39
ATOM     39  C   UNL     1     145.966 185.800 155.684  1.00  0.00     0.338 C 
ATOM     40  O   UNL     1     145.946 184.573 155.974  1.00  0.00    -0.246 OA
BRANCH  39  41
ATOM     41  C   UNL     1     147.261 186.504 155.554  1.00  0.00     0.067 A 
ATOM     42  C   UNL     1     148.266 185.993 154.715  1.00  0.00     0.066 A 
ATOM     43  C   UNL     1     147.498 187.692 156.265  1.00  0.00     0.066 A 
ATOM     44  C   UNL     1     149.491 186.654 154.590  1.00  0.00     0.162 A 
ATOM     45  C   UNL     1     148.721 188.361 156.152  1.00  0.00     0.162 A 
ATOM     46  C   UNL     1     149.736 187.833 155.312  1.00  0.00     0.200 A 
BRANCH  44  47
ATOM     47  O   UNL     1     150.473 186.138 153.741  1.00  0.00    -0.504 OA
ATOM     48  H   UNL     1     151.441 186.445 153.797  1.00  0.00     0.293 HD
ENDBRANCH  44  47
BRANCH  45  49
ATOM     49  O   UNL     1     148.885 189.534 156.887  1.00  0.00    -0.504 OA
ATOM     50  H   UNL     1     149.633 189.689 157.547  1.00  0.00     0.293 HD
ENDBRANCH  45  49
BRANCH  46  51
ATOM     51  O   UNL     1     150.989 188.435 155.170  1.00  0.00    -0.502 OA
ATOM     52  H   UNL     1     151.750 188.314 155.830  1.00  0.00     0.293 HD
ENDBRANCH  46  51
ENDBRANCH  39  41
ENDBRANCH  38  39
ENDBRANCH   3  38
BRANCH   5  53
ATOM     53  O   UNL     1     144.131 189.838 158.161  1.00  0.00    -0.428 OA
BRANCH  53  54
ATOM     54  C   UNL     1     144.135 189.709 159.555  1.00  0.00     0.340 C 
ATOM     55  O   UNL     1     143.189 190.169 160.244  1.00  0.00    -0.246 OA
BRANCH  54  56
ATOM     56  C   UNL     1     145.257 189.021 160.212  1.00  0.00     0.067 A 
ATOM     57  C   UNL     1     145.066 188.315 161.406  1.00  0.00     0.066 A 
ATOM     58  C   UNL     1     146.532 189.057 159.634  1.00  0.00     0.066 A 
ATOM     59  C   UNL     1     146.121 187.619 162.010  1.00  0.00     0.162 A 
ATOM     60  C   UNL     1     147.604 188.395 160.234  1.00  0.00     0.162 A 
ATOM     61  C   UNL     1     147.410 187.655 161.419  1.00  0.00     0.200 A 
BRANCH  59  62
ATOM     62  O   UNL     1     145.839 186.910 163.182  1.00  0.00    -0.504 OA
ATOM     63  H   UNL     1     145.014 187.061 163.751  1.00  0.00     0.293 HD
ENDBRANCH  59  62
BRANCH  60  64
ATOM     64  O   UNL     1     148.862 188.492 159.638  1.00  0.00    -0.504 OA
ATOM     65  H   UNL     1     149.284 187.711 159.146  1.00  0.00     0.293 HD
ENDBRANCH  60  64
BRANCH  61  66
ATOM     66  O   UNL     1     148.504 186.973 161.971  1.00  0.00    -0.502 OA
ATOM     67  H   UNL     1     148.642 186.831 162.963  1.00  0.00     0.293 HD
ENDBRANCH  61  66
ENDBRANCH  54  56
ENDBRANCH  53  54
ENDBRANCH   5  53
BRANCH   4  68
ATOM     68  O   UNL     1     143.706 187.145 158.121  1.00  0.00    -0.448 OA
BRANCH  68  69
ATOM     69  C   UNL     1     142.803 186.362 158.846  1.00  0.00     0.339 C 
ATOM     70  O   UNL     1     141.747 186.875 159.312  1.00  0.00    -0.246 OA
BRANCH  69  71
ATOM     71  C   UNL     1     143.101 184.933 159.077  1.00  0.00     0.067 A 
ATOM     72  C   UNL     1     143.821 184.186 158.136  1.00  0.00     0.066 A 
ATOM     73  C   UNL     1     142.669 184.303 160.255  1.00  0.00     0.066 A 
ATOM     74  C   UNL     1     144.121 182.835 158.369  1.00  0.00     0.162 A 
ATOM     75  C   UNL     1     142.965 182.959 160.499  1.00  0.00     0.162 A 
ATOM     76  C   UNL     1     143.694 182.218 159.556  1.00  0.00     0.200 A 
BRANCH  74  77
ATOM     77  O   UNL     1     144.850 182.106 157.429  1.00  0.00    -0.504 OA
ATOM     78  H   UNL     1     145.844 182.258 157.295  1.00  0.00     0.293 HD
ENDBRANCH  74  77
BRANCH  75  79
ATOM     79  O   UNL     1     142.528 182.374 161.689  1.00  0.00    -0.504 OA
ATOM     80  H   UNL     1     141.566 182.100 161.835  1.00  0.00     0.293 HD
ENDBRANCH  75  79
BRANCH  76  81
ATOM     81  O   UNL     1     143.986 180.876 159.808  1.00  0.00    -0.502 OA
ATOM     82  H   UNL     1     144.253 180.233 159.078  1.00  0.00     0.293 HD
ENDBRANCH  76  81
ENDBRANCH  69  71
ENDBRANCH  68  69
ENDBRANCH   4  68
TORSDOF 31
ENDMDL
MODEL 4
REMARK VINA RESULT:    -8.502      2.069      8.327
REMARK INTER + INTRA:         -25.605
REMARK INTER:                 -20.068
REMARK INTRA:                  -5.537
REMARK UNBOUND:                -5.422
REMARK SMILES O=C(OC[C@H]1O[C@H](OC(=O)c2cc(O)c(O)c(O)c2)[C@H](OC(=O)c2cc(O)c(O)c(O)c2)[C@@H](OC(=O)c2cc(O)c(O)c(O)c2)[C@H]1OC(=O)c1cc(O)c(O)c(O)c1)c1cc(O)c(O)c(O)c1
REMARK SMILES IDX 5 1 46 2 33 3 20 4 7 5 6 6 4 7 3 8 2 9 1 10 59 11 60 12
REMARK SMILES IDX 61 13 67 14 63 15 65 16 62 17 64 19 66 21 47 23 48 24 49 25
REMARK SMILES IDX 50 26 58 27 51 28 56 29 52 30 54 31 57 32 53 34 55 36 34 38
REMARK SMILES IDX 35 39 36 40 37 41 45 42 38 43 43 44 39 45 41 46 44 47 40 49
REMARK SMILES IDX 42 51 8 53 9 54 10 55 11 56 19 57 12 58 17 59 13 60 15 61
REMARK SMILES IDX 18 62 14 64 16 66 21 68 22 69 23 70 24 71 32 72 25 73 30 74
REMARK SMILES IDX 26 75 28 76 31 77 27 79 29 81
REMARK H PARENT 62 18 64 20 66 22 57 33 53 35 55 37 44 48 40 50 42 52 18 63
REMARK H PARENT 14 65 16 67 31 78 27 80 29 82
REMARK Flexibility Score: inf
ROOT
ATOM      1  C   UNL     1     144.006 190.181 155.342  1.00  0.00     0.205 C 
ATOM      2  C   UNL     1     144.248 188.777 154.760  1.00  0.00     0.254 C 
ATOM      3  C   UNL     1     144.574 187.844 155.931  1.00  0.00     0.267 C 
ATOM      4  C   UNL     1     143.423 187.873 156.952  1.00  0.00     0.290 C 
ATOM      5  C   UNL     1     143.116 189.336 157.346  1.00  0.00     0.357 C 
ATOM      6  O   UNL     1     142.882 190.162 156.211  1.00  0.00    -0.329 OA
ENDROOT
BRANCH   1   7
ATOM      7  C   UNL     1     143.779 191.238 154.246  1.00  0.00     0.269 C 
BRANCH   7   8
ATOM      8  O   UNL     1     144.889 192.130 154.209  1.00  0.00    -0.459 OA
BRANCH   8   9
ATOM      9  C   UNL     1     145.301 192.767 153.030  1.00  0.00     0.338 C 
ATOM     10  O   UNL     1     144.582 193.673 152.519  1.00  0.00    -0.246 OA
BRANCH   9  11
ATOM     11  C   UNL     1     146.557 192.356 152.369  1.00  0.00     0.067 A 
ATOM     12  C   UNL     1     147.097 193.131 151.334  1.00  0.00     0.066 A 
ATOM     13  C   UNL     1     148.255 192.728 150.665  1.00  0.00     0.162 A 
ATOM     14  C   UNL     1     147.202 191.159 152.742  1.00  0.00     0.066 A 
ATOM     15  C   UNL     1     148.880 191.508 151.015  1.00  0.00     0.200 A 
ATOM     16  C   UNL     1     148.348 190.733 152.061  1.00  0.00     0.162 A 
BRANCH  13  17
ATOM     17  O   UNL     1     148.754 193.572 149.672  1.00  0.00    -0.504 OA
ATOM     18  H   UNL     1     149.126 193.244 148.797  1.00  0.00     0.293 HD
ENDBRANCH  13  17
BRANCH  15  19
ATOM     19  O   UNL     1     150.016 191.039 150.348  1.00  0.00    -0.502 OA
ATOM     20  H   UNL     1     150.784 191.620 150.048  1.00  0.00     0.293 HD
ENDBRANCH  15  19
BRANCH  16  21
ATOM     21  O   UNL     1     148.941 189.529 152.441  1.00  0.00    -0.504 OA
ATOM     22  H   UNL     1     149.315 189.384 153.371  1.00  0.00     0.293 HD
ENDBRANCH  16  21
ENDBRANCH   9  11
ENDBRANCH   8   9
ENDBRANCH   7   8
ENDBRANCH   1   7
BRANCH   2  23
ATOM     23  O   UNL     1     143.071 188.303 154.103  1.00  0.00    -0.452 OA
BRANCH  23  24
ATOM     24  C   UNL     1     143.028 187.884 152.767  1.00  0.00     0.338 C 
ATOM     25  O   UNL     1     142.904 186.661 152.498  1.00  0.00    -0.246 OA
BRANCH  24  26
ATOM     26  C   UNL     1     143.112 188.889 151.684  1.00  0.00     0.067 A 
ATOM     27  C   UNL     1     144.339 189.175 151.058  1.00  0.00     0.066 A 
ATOM     28  C   UNL     1     141.969 189.613 151.307  1.00  0.00     0.066 A 
ATOM     29  C   UNL     1     144.425 190.179 150.079  1.00  0.00     0.162 A 
ATOM     30  C   UNL     1     142.048 190.607 150.326  1.00  0.00     0.162 A 
ATOM     31  C   UNL     1     143.275 190.895 149.710  1.00  0.00     0.200 A 
BRANCH  29  32
ATOM     32  O   UNL     1     145.648 190.470 149.480  1.00  0.00    -0.504 OA
ATOM     33  H   UNL     1     145.732 190.582 148.476  1.00  0.00     0.293 HD
ENDBRANCH  29  32
BRANCH  30  34
ATOM     34  O   UNL     1     140.892 191.304 149.981  1.00  0.00    -0.504 OA
ATOM     35  H   UNL     1     140.913 192.111 149.364  1.00  0.00     0.293 HD
ENDBRANCH  30  34
BRANCH  31  36
ATOM     36  O   UNL     1     143.333 191.898 148.743  1.00  0.00    -0.502 OA
ATOM     37  H   UNL     1     143.471 192.872 148.981  1.00  0.00     0.293 HD
ENDBRANCH  31  36
ENDBRANCH  24  26
ENDBRANCH  23  24
ENDBRANCH   2  23
BRANCH   3  38
ATOM     38  O   UNL     1     144.814 186.518 155.459  1.00  0.00    -0.450 OA
BRANCH  38  39
ATOM     39  C   UNL     1     145.998 185.821 155.735  1.00  0.00     0.338 C 
ATOM     40  O   UNL     1     145.949 184.621 156.120  1.00  0.00    -0.246 OA
BRANCH  39  41
ATOM     41  C   UNL     1     147.310 186.482 155.554  1.00  0.00     0.067 A 
ATOM     42  C   UNL     1     147.583 187.704 156.194  1.00  0.00     0.066 A 
ATOM     43  C   UNL     1     148.296 185.895 154.746  1.00  0.00     0.066 A 
ATOM     44  C   UNL     1     148.819 188.333 156.026  1.00  0.00     0.162 A 
ATOM     45  C   UNL     1     149.536 186.516 154.567  1.00  0.00     0.162 A 
ATOM     46  C   UNL     1     149.801 187.755 155.205  1.00  0.00     0.200 A 
BRANCH  44  47
ATOM     47  O   UNL     1     149.077 189.539 156.680  1.00  0.00    -0.504 OA
ATOM     48  H   UNL     1     149.853 190.138 156.409  1.00  0.00     0.293 HD
ENDBRANCH  44  47
BRANCH  45  49
ATOM     49  O   UNL     1     150.467 185.874 153.749  1.00  0.00    -0.504 OA
ATOM     50  H   UNL     1     151.031 185.089 154.042  1.00  0.00     0.293 HD
ENDBRANCH  45  49
BRANCH  46  51
ATOM     51  O   UNL     1     151.009 188.443 155.052  1.00  0.00    -0.502 OA
ATOM     52  H   UNL     1     151.207 189.064 154.275  1.00  0.00     0.293 HD
ENDBRANCH  46  51
ENDBRANCH  39  41
ENDBRANCH  38  39
ENDBRANCH   3  38
BRANCH   5  53
ATOM     53  O   UNL     1     144.165 189.866 158.155  1.00  0.00    -0.428 OA
BRANCH  53  54
ATOM     54  C   UNL     1     144.189 189.759 159.550  1.00  0.00     0.340 C 
ATOM     55  O   UNL     1     143.264 190.250 160.246  1.00  0.00    -0.246 OA
BRANCH  54  56
ATOM     56  C   UNL     1     145.307 189.059 160.200  1.00  0.00     0.067 A 
ATOM     57  C   UNL     1     145.125 188.392 161.418  1.00  0.00     0.066 A 
ATOM     58  C   UNL     1     146.568 189.042 159.593  1.00  0.00     0.066 A 
ATOM     59  C   UNL     1     146.175 187.685 162.017  1.00  0.00     0.162 A 
ATOM     60  C   UNL     1     147.636 188.368 160.186  1.00  0.00     0.162 A 
ATOM     61  C   UNL     1     147.450 187.668 161.396  1.00  0.00     0.200 A 
BRANCH  59  62
ATOM     62  O   UNL     1     145.902 187.017 163.215  1.00  0.00    -0.504 OA
ATOM     63  H   UNL     1     146.614 186.618 163.817  1.00  0.00     0.293 HD
ENDBRANCH  59  62
BRANCH  60  64
ATOM     64  O   UNL     1     148.881 188.412 159.559  1.00  0.00    -0.504 OA
ATOM     65  H   UNL     1     148.983 188.687 158.587  1.00  0.00     0.293 HD
ENDBRANCH  60  64
BRANCH  61  66
ATOM     66  O   UNL     1     148.537 186.971 161.943  1.00  0.00    -0.502 OA
ATOM     67  H   UNL     1     148.495 186.012 162.261  1.00  0.00     0.293 HD
ENDBRANCH  61  66
ENDBRANCH  54  56
ENDBRANCH  53  54
ENDBRANCH   5  53
BRANCH   4  68
ATOM     68  O   UNL     1     143.794 187.164 158.132  1.00  0.00    -0.448 OA
BRANCH  68  69
ATOM     69  C   UNL     1     142.906 186.422 158.917  1.00  0.00     0.339 C 
ATOM     70  O   UNL     1     141.906 186.982 159.448  1.00  0.00    -0.246 OA
BRANCH  69  71
ATOM     71  C   UNL     1     143.153 184.981 159.132  1.00  0.00     0.067 A 
ATOM     72  C   UNL     1     143.835 184.217 158.178  1.00  0.00     0.066 A 
ATOM     73  C   UNL     1     142.711 184.358 160.310  1.00  0.00     0.066 A 
ATOM     74  C   UNL     1     144.088 182.854 158.396  1.00  0.00     0.162 A 
ATOM     75  C   UNL     1     142.961 183.001 160.540  1.00  0.00     0.162 A 
ATOM     76  C   UNL     1     143.652 182.243 159.583  1.00  0.00     0.200 A 
BRANCH  74  77
ATOM     77  O   UNL     1     144.780 182.107 157.442  1.00  0.00    -0.504 OA
ATOM     78  H   UNL     1     144.372 181.892 156.538  1.00  0.00     0.293 HD
ENDBRANCH  74  77
BRANCH  75  79
ATOM     79  O   UNL     1     142.515 182.422 161.729  1.00  0.00    -0.504 OA
ATOM     80  H   UNL     1     141.711 182.771 162.232  1.00  0.00     0.293 HD
ENDBRANCH  75  79
BRANCH  76  81
ATOM     81  O   UNL     1     143.897 180.889 159.819  1.00  0.00    -0.502 OA
ATOM     82  H   UNL     1     143.653 180.437 160.688  1.00  0.00     0.293 HD
ENDBRANCH  76  81
ENDBRANCH  69  71
ENDBRANCH  68  69
ENDBRANCH   4  68
TORSDOF 31
ENDMDL
MODEL 5
REMARK VINA RESULT:    -8.187      2.113      7.985
REMARK INTER + INTRA:         -24.857
REMARK INTER:                 -18.183
REMARK INTRA:                  -6.674
REMARK UNBOUND:                -5.422
REMARK SMILES O=C(OC[C@H]1O[C@H](OC(=O)c2cc(O)c(O)c(O)c2)[C@H](OC(=O)c2cc(O)c(O)c(O)c2)[C@@H](OC(=O)c2cc(O)c(O)c(O)c2)[C@H]1OC(=O)c1cc(O)c(O)c(O)c1)c1cc(O)c(O)c(O)c1
REMARK SMILES IDX 5 1 46 2 33 3 20 4 7 5 6 6 4 7 3 8 2 9 1 10 59 11 60 12
REMARK SMILES IDX 61 13 67 14 63 15 65 16 62 17 64 19 66 21 47 23 48 24 49 25
REMARK SMILES IDX 50 26 58 27 51 28 56 29 52 30 54 31 57 32 53 34 55 36 34 38
REMARK SMILES IDX 35 39 36 40 37 41 45 42 38 43 43 44 39 45 41 46 44 47 40 49
REMARK SMILES IDX 42 51 8 53 9 54 10 55 11 56 19 57 12 58 17 59 13 60 15 61
REMARK SMILES IDX 18 62 14 64 16 66 21 68 22 69 23 70 24 71 32 72 25 73 30 74
REMARK SMILES IDX 26 75 28 76 31 77 27 79 29 81
REMARK H PARENT 62 18 64 20 66 22 57 33 53 35 55 37 44 48 40 50 42 52 18 63
REMARK H PARENT 14 65 16 67 31 78 27 80 29 82
REMARK Flexibility Score: inf
ROOT
ATOM      1  C   UNL     1     146.532 187.717 158.596  1.00  0.00     0.205 C 
ATOM      2  C   UNL     1     145.733 187.174 157.398  1.00  0.00     0.254 C 
ATOM      3  C   UNL     1     145.618 188.306 156.371  1.00  0.00     0.267 C 
ATOM      4  C   UNL     1     147.026 188.790 155.976  1.00  0.00     0.290 C 
ATOM      5  C   UNL     1     147.831 189.139 157.249  1.00  0.00     0.357 C 
ATOM      6  O   UNL     1     147.847 188.069 158.187  1.00  0.00    -0.329 OA
ENDROOT
BRANCH   1   7
ATOM      7  C   UNL     1     146.618 186.702 159.751  1.00  0.00     0.269 C 
BRANCH   7   8
ATOM      8  O   UNL     1     146.592 187.394 160.995  1.00  0.00    -0.459 OA
BRANCH   8   9
ATOM      9  C   UNL     1     145.394 187.762 161.624  1.00  0.00     0.338 C 
ATOM     10  O   UNL     1     145.246 187.558 162.864  1.00  0.00    -0.246 OA
BRANCH   9  11
ATOM     11  C   UNL     1     144.296 188.355 160.834  1.00  0.00     0.067 A 
ATOM     12  C   UNL     1     143.326 187.533 160.245  1.00  0.00     0.066 A 
ATOM     13  C   UNL     1     142.312 188.074 159.452  1.00  0.00     0.162 A 
ATOM     14  C   UNL     1     144.238 189.748 160.626  1.00  0.00     0.066 A 
ATOM     15  C   UNL     1     142.275 189.469 159.214  1.00  0.00     0.200 A 
ATOM     16  C   UNL     1     143.241 190.298 159.812  1.00  0.00     0.162 A 
BRANCH  13  17
ATOM     17  O   UNL     1     141.359 187.197 158.932  1.00  0.00    -0.504 OA
ATOM     18  H   UNL     1     140.953 187.294 158.017  1.00  0.00     0.293 HD
ENDBRANCH  13  17
BRANCH  15  19
ATOM     19  O   UNL     1     141.307 190.056 158.392  1.00  0.00    -0.502 OA
ATOM     20  H   UNL     1     140.313 189.983 158.540  1.00  0.00     0.293 HD
ENDBRANCH  15  19
BRANCH  16  21
ATOM     21  O   UNL     1     143.232 191.678 159.608  1.00  0.00    -0.504 OA
ATOM     22  H   UNL     1     142.894 192.092 158.748  1.00  0.00     0.293 HD
ENDBRANCH  16  21
ENDBRANCH   9  11
ENDBRANCH   8   9
ENDBRANCH   7   8
ENDBRANCH   1   7
BRANCH   2  23
ATOM     23  O   UNL     1     146.421 186.074 156.801  1.00  0.00    -0.452 OA
BRANCH  23  24
ATOM     24  C   UNL     1     145.818 184.853 156.470  1.00  0.00     0.338 C 
ATOM     25  O   UNL     1     145.963 184.375 155.315  1.00  0.00    -0.246 OA
BRANCH  24  26
ATOM     26  C   UNL     1     145.031 184.129 157.492  1.00  0.00     0.067 A 
ATOM     27  C   UNL     1     143.736 184.554 157.841  1.00  0.00     0.066 A 
ATOM     28  C   UNL     1     145.594 183.035 158.169  1.00  0.00     0.066 A 
ATOM     29  C   UNL     1     143.020 183.905 158.861  1.00  0.00     0.162 A 
ATOM     30  C   UNL     1     144.882 182.378 159.178  1.00  0.00     0.162 A 
ATOM     31  C   UNL     1     143.595 182.811 159.529  1.00  0.00     0.200 A 
BRANCH  29  32
ATOM     32  O   UNL     1     141.748 184.345 159.214  1.00  0.00    -0.504 OA
ATOM     33  H   UNL     1     141.603 184.965 160.003  1.00  0.00     0.293 HD
ENDBRANCH  29  32
BRANCH  30  34
ATOM     34  O   UNL     1     145.476 181.299 159.827  1.00  0.00    -0.504 OA
ATOM     35  H   UNL     1     146.393 180.949 159.565  1.00  0.00     0.293 HD
ENDBRANCH  30  34
BRANCH  31  36
ATOM     36  O   UNL     1     142.908 182.150 160.546  1.00  0.00    -0.502 OA
ATOM     37  H   UNL     1     143.290 181.343 161.022  1.00  0.00     0.293 HD
ENDBRANCH  31  36
ENDBRANCH  24  26
ENDBRANCH  23  24
ENDBRANCH   2  23
BRANCH   3  38
ATOM     38  O   UNL     1     144.882 187.870 155.229  1.00  0.00    -0.450 OA
BRANCH  38  39
ATOM     39  C   UNL     1     143.625 188.393 154.896  1.00  0.00     0.338 C 
ATOM     40  O   UNL     1     142.599 188.024 155.530  1.00  0.00    -0.246 OA
BRANCH  39  41
ATOM     41  C   UNL     1     143.500 189.395 153.814  1.00  0.00     0.067 A 
ATOM     42  C   UNL     1     143.248 188.987 152.493  1.00  0.00     0.066 A 
ATOM     43  C   UNL     1     143.627 190.765 154.097  1.00  0.00     0.066 A 
ATOM     44  C   UNL     1     143.129 189.929 151.468  1.00  0.00     0.162 A 
ATOM     45  C   UNL     1     143.515 191.718 153.080  1.00  0.00     0.162 A 
ATOM     46  C   UNL     1     143.273 191.298 151.746  1.00  0.00     0.200 A 
BRANCH  44  47
ATOM     47  O   UNL     1     142.866 189.505 150.164  1.00  0.00    -0.504 OA
ATOM     48  H   UNL     1     143.290 188.664 149.781  1.00  0.00     0.293 HD
ENDBRANCH  44  47
BRANCH  45  49
ATOM     49  O   UNL     1     143.653 193.060 153.435  1.00  0.00    -0.504 OA
ATOM     50  H   UNL     1     144.455 193.627 153.202  1.00  0.00     0.293 HD
ENDBRANCH  45  49
BRANCH  46  51
ATOM     51  O   UNL     1     143.173 192.193 150.677  1.00  0.00    -0.502 OA
ATOM     52  H   UNL     1     142.744 191.961 149.788  1.00  0.00     0.293 HD
ENDBRANCH  46  51
ENDBRANCH  39  41
ENDBRANCH  38  39
ENDBRANCH   3  38
BRANCH   5  53
ATOM     53  O   UNL     1     147.327 190.333 157.847  1.00  0.00    -0.428 OA
BRANCH  53  54
ATOM     54  C   UNL     1     148.149 191.348 158.348  1.00  0.00     0.340 C 
ATOM     55  O   UNL     1     148.797 192.093 157.568  1.00  0.00    -0.246 OA
BRANCH  54  56
ATOM     56  C   UNL     1     148.247 191.545 159.803  1.00  0.00     0.067 A 
ATOM     57  C   UNL     1     147.933 190.507 160.690  1.00  0.00     0.066 A 
ATOM     58  C   UNL     1     148.671 192.777 160.313  1.00  0.00     0.066 A 
ATOM     59  C   UNL     1     148.069 190.675 162.074  1.00  0.00     0.162 A 
ATOM     60  C   UNL     1     148.787 192.976 161.689  1.00  0.00     0.162 A 
ATOM     61  C   UNL     1     148.504 191.924 162.586  1.00  0.00     0.200 A 
BRANCH  59  62
ATOM     62  O   UNL     1     147.769 189.579 162.889  1.00  0.00    -0.504 OA
ATOM     63  H   UNL     1     148.224 188.676 162.815  1.00  0.00     0.293 HD
ENDBRANCH  59  62
BRANCH  60  64
ATOM     64  O   UNL     1     149.179 194.233 162.149  1.00  0.00    -0.504 OA
ATOM     65  H   UNL     1     150.052 194.663 161.858  1.00  0.00     0.293 HD
ENDBRANCH  60  64
BRANCH  61  66
ATOM     66  O   UNL     1     148.667 192.151 163.960  1.00  0.00    -0.502 OA
ATOM     67  H   UNL     1     148.346 191.520 164.682  1.00  0.00     0.293 HD
ENDBRANCH  61  66
ENDBRANCH  54  56
ENDBRANCH  53  54
ENDBRANCH   5  53
BRANCH   4  68
ATOM     68  O   UNL     1     146.934 189.966 155.173  1.00  0.00    -0.448 OA
BRANCH  68  69
ATOM     69  C   UNL     1     147.436 190.070 153.872  1.00  0.00     0.339 C 
ATOM     70  O   UNL     1     148.114 189.129 153.374  1.00  0.00    -0.246 OA
BRANCH  69  71
ATOM     71  C   UNL     1     147.179 191.298 153.090  1.00  0.00     0.067 A 
ATOM     72  C   UNL     1     147.296 192.564 153.676  1.00  0.00     0.066 A 
ATOM     73  C   UNL     1     146.819 191.208 151.736  1.00  0.00     0.066 A 
ATOM     74  C   UNL     1     147.073 193.727 152.924  1.00  0.00     0.162 A 
ATOM     75  C   UNL     1     146.597 192.361 150.976  1.00  0.00     0.162 A 
ATOM     76  C   UNL     1     146.725 193.627 151.567  1.00  0.00     0.200 A 
BRANCH  74  77
ATOM     77  O   UNL     1     147.206 194.983 153.518  1.00  0.00    -0.504 OA
ATOM     78  H   UNL     1     146.739 195.801 153.139  1.00  0.00     0.293 HD
ENDBRANCH  74  77
BRANCH  75  79
ATOM     79  O   UNL     1     146.253 192.229 149.629  1.00  0.00    -0.504 OA
ATOM     80  H   UNL     1     145.337 191.921 149.333  1.00  0.00     0.293 HD
ENDBRANCH  75  79
BRANCH  76  81
ATOM     81  O   UNL     1     146.502 194.773 150.802  1.00  0.00    -0.502 OA
ATOM     82  H   UNL     1     145.906 195.526 151.112  1.00  0.00     0.293 HD
ENDBRANCH  76  81
ENDBRANCH  69  71
ENDBRANCH  68  69
ENDBRANCH   4  68
TORSDOF 31
ENDMDL
MODEL 6
REMARK VINA RESULT:    -8.130      2.109      7.906
REMARK INTER + INTRA:         -24.720
REMARK INTER:                 -17.994
REMARK INTRA:                  -6.726
REMARK UNBOUND:                -5.422
REMARK SMILES O=C(OC[C@H]1O[C@H](OC(=O)c2cc(O)c(O)c(O)c2)[C@H](OC(=O)c2cc(O)c(O)c(O)c2)[C@@H](OC(=O)c2cc(O)c(O)c(O)c2)[C@H]1OC(=O)c1cc(O)c(O)c(O)c1)c1cc(O)c(O)c(O)c1
REMARK SMILES IDX 5 1 46 2 33 3 20 4 7 5 6 6 4 7 3 8 2 9 1 10 59 11 60 12
REMARK SMILES IDX 61 13 67 14 63 15 65 16 62 17 64 19 66 21 47 23 48 24 49 25
REMARK SMILES IDX 50 26 58 27 51 28 56 29 52 30 54 31 57 32 53 34 55 36 34 38
REMARK SMILES IDX 35 39 36 40 37 41 45 42 38 43 43 44 39 45 41 46 44 47 40 49
REMARK SMILES IDX 42 51 8 53 9 54 10 55 11 56 19 57 12 58 17 59 13 60 15 61
REMARK SMILES IDX 18 62 14 64 16 66 21 68 22 69 23 70 24 71 32 72 25 73 30 74
REMARK SMILES IDX 26 75 28 76 31 77 27 79 29 81
REMARK H PARENT 62 18 64 20 66 22 57 33 53 35 55 37 44 48 40 50 42 52 18 63
REMARK H PARENT 14 65 16 67 31 78 27 80 29 82
REMARK Flexibility Score: inf
ROOT
ATOM      1  C   UNL     1     146.796 187.875 158.782  1.00  0.00     0.205 C 
ATOM      2  C   UNL     1     145.956 187.251 157.652  1.00  0.00     0.254 C 
ATOM      3  C   UNL     1     145.746 188.331 156.585  1.00  0.00     0.267 C 
ATOM      4  C   UNL     1     147.112 188.845 156.095  1.00  0.00     0.290 C 
ATOM      5  C   UNL     1     147.969 189.278 157.307  1.00  0.00     0.357 C 
ATOM      6  O   UNL     1     148.073 188.253 158.287  1.00  0.00    -0.329 OA
ENDROOT
BRANCH   1   7
ATOM      7  C   UNL     1     146.978 186.916 159.973  1.00  0.00     0.269 C 
BRANCH   7   8
ATOM      8  O   UNL     1     146.697 187.608 161.186  1.00  0.00    -0.459 OA
BRANCH   8   9
ATOM      9  C   UNL     1     145.391 187.796 161.657  1.00  0.00     0.338 C 
ATOM     10  O   UNL     1     145.084 187.429 162.828  1.00  0.00    -0.246 OA
BRANCH   9  11
ATOM     11  C   UNL     1     144.366 188.390 160.773  1.00  0.00     0.067 A 
ATOM     12  C   UNL     1     144.313 189.778 160.588  1.00  0.00     0.066 A 
ATOM     13  C   UNL     1     143.319 190.359 159.797  1.00  0.00     0.162 A 
ATOM     14  C   UNL     1     143.405 187.574 160.144  1.00  0.00     0.066 A 
ATOM     15  C   UNL     1     142.333 189.542 159.196  1.00  0.00     0.200 A 
ATOM     16  C   UNL     1     142.389 188.147 159.371  1.00  0.00     0.162 A 
BRANCH  13  17
ATOM     17  O   UNL     1     143.354 191.744 159.628  1.00  0.00    -0.504 OA
ATOM     18  H   UNL     1     142.567 192.288 159.318  1.00  0.00     0.293 HD
ENDBRANCH  13  17
BRANCH  15  19
ATOM     19  O   UNL     1     141.291 190.077 158.432  1.00  0.00    -0.502 OA
ATOM     20  H   UNL     1     141.336 190.958 157.943  1.00  0.00     0.293 HD
ENDBRANCH  15  19
BRANCH  16  21
ATOM     21  O   UNL     1     141.440 187.308 158.786  1.00  0.00    -0.504 OA
ATOM     22  H   UNL     1     141.435 186.308 158.948  1.00  0.00     0.293 HD
ENDBRANCH  16  21
ENDBRANCH   9  11
ENDBRANCH   8   9
ENDBRANCH   7   8
ENDBRANCH   1   7
BRANCH   2  23
ATOM     23  O   UNL     1     146.652 186.150 157.067  1.00  0.00    -0.452 OA
BRANCH  23  24
ATOM     24  C   UNL     1     146.037 184.960 156.652  1.00  0.00     0.338 C 
ATOM     25  O   UNL     1     146.219 184.537 155.481  1.00  0.00    -0.246 OA
BRANCH  24  26
ATOM     26  C   UNL     1     145.195 184.204 157.605  1.00  0.00     0.067 A 
ATOM     27  C   UNL     1     143.889 184.631 157.908  1.00  0.00     0.066 A 
ATOM     28  C   UNL     1     145.714 183.077 158.262  1.00  0.00     0.066 A 
ATOM     29  C   UNL     1     143.118 183.949 158.865  1.00  0.00     0.162 A 
ATOM     30  C   UNL     1     144.947 182.389 159.207  1.00  0.00     0.162 A 
ATOM     31  C   UNL     1     143.649 182.822 159.515  1.00  0.00     0.200 A 
BRANCH  29  32
ATOM     32  O   UNL     1     141.835 184.390 159.176  1.00  0.00    -0.504 OA
ATOM     33  H   UNL     1     141.317 184.005 159.957  1.00  0.00     0.293 HD
ENDBRANCH  29  32
BRANCH  30  34
ATOM     34  O   UNL     1     145.499 181.276 159.839  1.00  0.00    -0.504 OA
ATOM     35  H   UNL     1     144.942 180.650 160.412  1.00  0.00     0.293 HD
ENDBRANCH  30  34
BRANCH  31  36
ATOM     36  O   UNL     1     142.907 182.128 160.469  1.00  0.00    -0.502 OA
ATOM     37  H   UNL     1     142.313 181.345 160.229  1.00  0.00     0.293 HD
ENDBRANCH  31  36
ENDBRANCH  24  26
ENDBRANCH  23  24
ENDBRANCH   2  23
BRANCH   3  38
ATOM     38  O   UNL     1     144.968 187.819 155.504  1.00  0.00    -0.450 OA
BRANCH  38  39
ATOM     39  C   UNL     1     143.697 188.317 155.186  1.00  0.00     0.338 C 
ATOM     40  O   UNL     1     142.688 187.940 155.843  1.00  0.00    -0.246 OA
BRANCH  39  41
ATOM     41  C   UNL     1     143.536 189.302 154.094  1.00  0.00     0.067 A 
ATOM     42  C   UNL     1     143.655 190.678 154.355  1.00  0.00     0.066 A 
ATOM     43  C   UNL     1     143.267 188.873 152.784  1.00  0.00     0.066 A 
ATOM     44  C   UNL     1     143.503 191.612 153.327  1.00  0.00     0.162 A 
ATOM     45  C   UNL     1     143.108 189.797 151.747  1.00  0.00     0.162 A 
ATOM     46  C   UNL     1     143.217 191.186 152.020  1.00  0.00     0.200 A 
BRANCH  44  47
ATOM     47  O   UNL     1     143.638 192.974 153.603  1.00  0.00    -0.504 OA
ATOM     48  H   UNL     1     142.935 193.483 154.134  1.00  0.00     0.293 HD
ENDBRANCH  44  47
BRANCH  45  49
ATOM     49  O   UNL     1     142.842 189.297 150.472  1.00  0.00    -0.504 OA
ATOM     50  H   UNL     1     142.462 188.380 150.292  1.00  0.00     0.293 HD
ENDBRANCH  45  49
BRANCH  46  51
ATOM     51  O   UNL     1     143.048 192.166 151.038  1.00  0.00    -0.502 OA
ATOM     52  H   UNL     1     143.677 192.951 150.913  1.00  0.00     0.293 HD
ENDBRANCH  46  51
ENDBRANCH  39  41
ENDBRANCH  38  39
ENDBRANCH   3  38
BRANCH   5  53
ATOM     53  O   UNL     1     147.454 190.480 157.878  1.00  0.00    -0.428 OA
BRANCH  53  54
ATOM     54  C   UNL     1     148.266 191.523 158.337  1.00  0.00     0.340 C 
ATOM     55  O   UNL     1     148.869 192.271 157.525  1.00  0.00    -0.246 OA
BRANCH  54  56
ATOM     56  C   UNL     1     148.404 191.746 159.785  1.00  0.00     0.067 A 
ATOM     57  C   UNL     1     148.810 192.990 160.284  1.00  0.00     0.066 A 
ATOM     58  C   UNL     1     148.115 190.710 160.680  1.00  0.00     0.066 A 
ATOM     59  C   UNL     1     148.898 193.220 161.662  1.00  0.00     0.162 A 
ATOM     60  C   UNL     1     148.223 190.908 162.057  1.00  0.00     0.162 A 
ATOM     61  C   UNL     1     148.600 192.168 162.566  1.00  0.00     0.200 A 
BRANCH  59  62
ATOM     62  O   UNL     1     149.277 194.500 162.080  1.00  0.00    -0.504 OA
ATOM     63  H   UNL     1     150.050 194.685 162.708  1.00  0.00     0.293 HD
ENDBRANCH  59  62
BRANCH  60  64
ATOM     64  O   UNL     1     147.959 189.833 162.906  1.00  0.00    -0.504 OA
ATOM     65  H   UNL     1     148.381 189.759 163.826  1.00  0.00     0.293 HD
ENDBRANCH  60  64
BRANCH  61  66
ATOM     66  O   UNL     1     148.662 192.340 163.957  1.00  0.00    -0.502 OA
ATOM     67  H   UNL     1     149.522 192.432 164.480  1.00  0.00     0.293 HD
ENDBRANCH  61  66
ENDBRANCH  54  56
ENDBRANCH  53  54
ENDBRANCH   5  53
BRANCH   4  68
ATOM     68  O   UNL     1     146.936 189.979 155.248  1.00  0.00    -0.448 OA
BRANCH  68  69
ATOM     69  C   UNL     1     147.435 190.073 153.945  1.00  0.00     0.339 C 
ATOM     70  O   UNL     1     148.134 189.139 153.462  1.00  0.00    -0.246 OA
BRANCH  69  71
ATOM     71  C   UNL     1     147.151 191.281 153.142  1.00  0.00     0.067 A 
ATOM     72  C   UNL     1     147.195 192.557 153.719  1.00  0.00     0.066 A 
ATOM     73  C   UNL     1     146.839 191.165 151.778  1.00  0.00     0.066 A 
ATOM     74  C   UNL     1     146.947 193.702 152.949  1.00  0.00     0.162 A 
ATOM     75  C   UNL     1     146.593 192.300 151.000  1.00  0.00     0.162 A 
ATOM     76  C   UNL     1     146.648 193.575 151.582  1.00  0.00     0.200 A 
BRANCH  74  77
ATOM     77  O   UNL     1     147.008 194.968 153.533  1.00  0.00    -0.504 OA
ATOM     78  H   UNL     1     147.742 195.627 153.296  1.00  0.00     0.293 HD
ENDBRANCH  74  77
BRANCH  75  79
ATOM     79  O   UNL     1     146.299 192.142 149.645  1.00  0.00    -0.504 OA
ATOM     80  H   UNL     1     145.984 191.262 149.259  1.00  0.00     0.293 HD
ENDBRANCH  75  79
BRANCH  76  81
ATOM     81  O   UNL     1     146.402 194.704 150.799  1.00  0.00    -0.502 OA
ATOM     82  H   UNL     1     147.032 195.491 150.767  1.00  0.00     0.293 HD
ENDBRANCH  76  81
ENDBRANCH  69  71
ENDBRANCH  68  69
ENDBRANCH   4  68
TORSDOF 31
ENDMDL
MODEL 7
REMARK VINA RESULT:    -8.125      2.041      8.031
REMARK INTER + INTRA:         -24.708
REMARK INTER:                 -17.477
REMARK INTRA:                  -7.231
REMARK UNBOUND:                -5.422
REMARK SMILES O=C(OC[C@H]1O[C@H](OC(=O)c2cc(O)c(O)c(O)c2)[C@H](OC(=O)c2cc(O)c(O)c(O)c2)[C@@H](OC(=O)c2cc(O)c(O)c(O)c2)[C@H]1OC(=O)c1cc(O)c(O)c(O)c1)c1cc(O)c(O)c(O)c1
REMARK SMILES IDX 5 1 46 2 33 3 20 4 7 5 6 6 4 7 3 8 2 9 1 10 59 11 60 12
REMARK SMILES IDX 61 13 67 14 63 15 65 16 62 17 64 19 66 21 47 23 48 24 49 25
REMARK SMILES IDX 50 26 58 27 51 28 56 29 52 30 54 31 57 32 53 34 55 36 34 38
REMARK SMILES IDX 35 39 36 40 37 41 45 42 38 43 43 44 39 45 41 46 44 47 40 49
REMARK SMILES IDX 42 51 8 53 9 54 10 55 11 56 19 57 12 58 17 59 13 60 15 61
REMARK SMILES IDX 18 62 14 64 16 66 21 68 22 69 23 70 24 71 32 72 25 73 30 74
REMARK SMILES IDX 26 75 28 76 31 77 27 79 29 81
REMARK H PARENT 62 18 64 20 66 22 57 33 53 35 55 37 44 48 40 50 42 52 18 63
REMARK H PARENT 14 65 16 67 31 78 27 80 29 82
REMARK Flexibility Score: inf
ROOT
ATOM      1  C   UNL     1     146.856 187.922 159.195  1.00  0.00     0.205 C 
ATOM      2  C   UNL     1     146.067 187.130 158.137  1.00  0.00     0.254 C 
ATOM      3  C   UNL     1     145.887 188.044 156.919  1.00  0.00     0.267 C 
ATOM      4  C   UNL     1     147.265 188.505 156.411  1.00  0.00     0.290 C 
ATOM      5  C   UNL     1     148.070 189.120 157.579  1.00  0.00     0.357 C 
ATOM      6  O   UNL     1     148.148 188.247 158.699  1.00  0.00    -0.329 OA
ENDROOT
BRANCH   1   7
ATOM      7  C   UNL     1     147.003 187.146 160.517  1.00  0.00     0.269 C 
BRANCH   7   8
ATOM      8  O   UNL     1     146.530 187.948 161.594  1.00  0.00    -0.459 OA
BRANCH   8   9
ATOM      9  C   UNL     1     145.171 188.031 161.927  1.00  0.00     0.338 C 
ATOM     10  O   UNL     1     144.773 187.626 163.057  1.00  0.00    -0.246 OA
BRANCH   9  11
ATOM     11  C   UNL     1     144.201 188.559 160.945  1.00  0.00     0.067 A 
ATOM     12  C   UNL     1     144.175 189.927 160.643  1.00  0.00     0.066 A 
ATOM     13  C   UNL     1     143.230 190.449 159.757  1.00  0.00     0.162 A 
ATOM     14  C   UNL     1     143.263 187.701 160.335  1.00  0.00     0.066 A 
ATOM     15  C   UNL     1     142.267 189.593 159.174  1.00  0.00     0.200 A 
ATOM     16  C   UNL     1     142.297 188.217 159.465  1.00  0.00     0.162 A 
BRANCH  13  17
ATOM     17  O   UNL     1     143.292 191.815 159.476  1.00  0.00    -0.504 OA
ATOM     18  H   UNL     1     144.142 192.297 159.240  1.00  0.00     0.293 HD
ENDBRANCH  13  17
BRANCH  15  19
ATOM     19  O   UNL     1     141.273 190.072 158.314  1.00  0.00    -0.502 OA
ATOM     20  H   UNL     1     140.941 189.584 157.496  1.00  0.00     0.293 HD
ENDBRANCH  15  19
BRANCH  16  21
ATOM     21  O   UNL     1     141.369 187.340 158.902  1.00  0.00    -0.504 OA
ATOM     22  H   UNL     1     141.359 186.352 159.125  1.00  0.00     0.293 HD
ENDBRANCH  16  21
ENDBRANCH   9  11
ENDBRANCH   8   9
ENDBRANCH   7   8
ENDBRANCH   1   7
BRANCH   2  23
ATOM     23  O   UNL     1     146.797 185.968 157.741  1.00  0.00    -0.452 OA
BRANCH  23  24
ATOM     24  C   UNL     1     146.312 184.657 157.851  1.00  0.00     0.338 C 
ATOM     25  O   UNL     1     147.047 183.756 158.329  1.00  0.00    -0.246 OA
BRANCH  24  26
ATOM     26  C   UNL     1     144.930 184.353 157.419  1.00  0.00     0.067 A 
ATOM     27  C   UNL     1     144.661 183.936 156.102  1.00  0.00     0.066 A 
ATOM     28  C   UNL     1     143.859 184.533 158.309  1.00  0.00     0.066 A 
ATOM     29  C   UNL     1     143.339 183.716 155.678  1.00  0.00     0.162 A 
ATOM     30  C   UNL     1     142.543 184.304 157.895  1.00  0.00     0.162 A 
ATOM     31  C   UNL     1     142.277 183.898 156.579  1.00  0.00     0.200 A 
BRANCH  29  32
ATOM     32  O   UNL     1     143.080 183.324 154.367  1.00  0.00    -0.504 OA
ATOM     33  H   UNL     1     142.528 183.900 153.742  1.00  0.00     0.293 HD
ENDBRANCH  29  32
BRANCH  30  34
ATOM     34  O   UNL     1     141.508 184.495 158.808  1.00  0.00    -0.504 OA
ATOM     35  H   UNL     1     141.650 184.412 159.810  1.00  0.00     0.293 HD
ENDBRANCH  30  34
BRANCH  31  36
ATOM     36  O   UNL     1     140.957 183.687 156.184  1.00  0.00    -0.502 OA
ATOM     37  H   UNL     1     140.178 184.156 156.628  1.00  0.00     0.293 HD
ENDBRANCH  31  36
ENDBRANCH  24  26
ENDBRANCH  23  24
ENDBRANCH   2  23
BRANCH   3  38
ATOM     38  O   UNL     1     145.156 187.370 155.895  1.00  0.00    -0.450 OA
BRANCH  38  39
ATOM     39  C   UNL     1     143.859 187.746 155.521  1.00  0.00     0.338 C 
ATOM     40  O   UNL     1     142.862 187.253 156.116  1.00  0.00    -0.246 OA
BRANCH  39  41
ATOM     41  C   UNL     1     143.654 188.737 154.441  1.00  0.00     0.067 A 
ATOM     42  C   UNL     1     143.814 190.110 154.698  1.00  0.00     0.066 A 
ATOM     43  C   UNL     1     143.301 188.317 153.149  1.00  0.00     0.066 A 
ATOM     44  C   UNL     1     143.621 191.050 153.682  1.00  0.00     0.162 A 
ATOM     45  C   UNL     1     143.101 189.248 152.124  1.00  0.00     0.162 A 
ATOM     46  C   UNL     1     143.252 190.633 152.393  1.00  0.00     0.200 A 
BRANCH  44  47
ATOM     47  O   UNL     1     143.797 192.408 153.954  1.00  0.00    -0.504 OA
ATOM     48  H   UNL     1     144.713 192.795 154.169  1.00  0.00     0.293 HD
ENDBRANCH  44  47
BRANCH  45  49
ATOM     49  O   UNL     1     142.752 188.758 150.866  1.00  0.00    -0.504 OA
ATOM     50  H   UNL     1     143.055 187.866 150.502  1.00  0.00     0.293 HD
ENDBRANCH  45  49
BRANCH  46  51
ATOM     51  O   UNL     1     143.045 191.619 151.424  1.00  0.00    -0.502 OA
ATOM     52  H   UNL     1     143.734 191.874 150.726  1.00  0.00     0.293 HD
ENDBRANCH  46  51
ENDBRANCH  39  41
ENDBRANCH  38  39
ENDBRANCH   3  38
BRANCH   5  53
ATOM     53  O   UNL     1     147.520 190.382 157.953  1.00  0.00    -0.428 OA
BRANCH  53  54
ATOM     54  C   UNL     1     148.296 191.457 158.401  1.00  0.00     0.340 C 
ATOM     55  O   UNL     1     148.920 192.182 157.584  1.00  0.00    -0.246 OA
BRANCH  54  56
ATOM     56  C   UNL     1     148.373 191.739 159.843  1.00  0.00     0.067 A 
ATOM     57  C   UNL     1     148.202 190.716 160.784  1.00  0.00     0.066 A 
ATOM     58  C   UNL     1     148.634 193.041 160.285  1.00  0.00     0.066 A 
ATOM     59  C   UNL     1     148.321 190.972 162.156  1.00  0.00     0.162 A 
ATOM     60  C   UNL     1     148.728 193.324 161.648  1.00  0.00     0.162 A 
ATOM     61  C   UNL     1     148.590 192.292 162.600  1.00  0.00     0.200 A 
BRANCH  59  62
ATOM     62  O   UNL     1     148.171 189.890 163.030  1.00  0.00    -0.504 OA
ATOM     63  H   UNL     1     148.663 189.009 162.930  1.00  0.00     0.293 HD
ENDBRANCH  59  62
BRANCH  60  64
ATOM     64  O   UNL     1     148.953 194.644 162.039  1.00  0.00    -0.504 OA
ATOM     65  H   UNL     1     148.916 194.930 163.012  1.00  0.00     0.293 HD
ENDBRANCH  60  64
BRANCH  61  66
ATOM     66  O   UNL     1     148.728 192.609 163.959  1.00  0.00    -0.502 OA
ATOM     67  H   UNL     1     148.459 191.994 164.715  1.00  0.00     0.293 HD
ENDBRANCH  61  66
ENDBRANCH  54  56
ENDBRANCH  53  54
ENDBRANCH   5  53
BRANCH   4  68
ATOM     68  O   UNL     1     147.109 189.503 155.404  1.00  0.00    -0.448 OA
BRANCH  68  69
ATOM     69  C   UNL     1     147.689 189.437 154.134  1.00  0.00     0.339 C 
ATOM     70  O   UNL     1     148.588 188.586 153.889  1.00  0.00    -0.246 OA
BRANCH  69  71
ATOM     71  C   UNL     1     147.253 190.382 153.085  1.00  0.00     0.067 A 
ATOM     72  C   UNL     1     147.244 191.763 153.317  1.00  0.00     0.066 A 
ATOM     73  C   UNL     1     146.846 189.904 151.829  1.00  0.00     0.066 A 
ATOM     74  C   UNL     1     146.851 192.658 152.311  1.00  0.00     0.162 A 
ATOM     75  C   UNL     1     146.455 190.787 150.818  1.00  0.00     0.162 A 
ATOM     76  C   UNL     1     146.457 192.169 151.054  1.00  0.00     0.200 A 
BRANCH  74  77
ATOM     77  O   UNL     1     146.860 194.033 152.551  1.00  0.00    -0.504 OA
ATOM     78  H   UNL     1     147.708 194.582 152.459  1.00  0.00     0.293 HD
ENDBRANCH  74  77
BRANCH  75  79
ATOM     79  O   UNL     1     146.070 190.271 149.580  1.00  0.00    -0.504 OA
ATOM     80  H   UNL     1     145.235 190.581 149.101  1.00  0.00     0.293 HD
ENDBRANCH  75  79
BRANCH  76  81
ATOM     81  O   UNL     1     146.066 193.045 150.039  1.00  0.00    -0.502 OA
ATOM     82  H   UNL     1     145.120 193.083 149.691  1.00  0.00     0.293 HD
ENDBRANCH  76  81
ENDBRANCH  69  71
ENDBRANCH  68  69
ENDBRANCH   4  68
TORSDOF 31
ENDMDL
MODEL 8
REMARK VINA RESULT:    -8.083      2.146      7.662
REMARK INTER + INTRA:         -24.610
REMARK INTER:                 -17.625
REMARK INTRA:                  -6.985
REMARK UNBOUND:                -5.422
REMARK SMILES O=C(OC[C@H]1O[C@H](OC(=O)c2cc(O)c(O)c(O)c2)[C@H](OC(=O)c2cc(O)c(O)c(O)c2)[C@@H](OC(=O)c2cc(O)c(O)c(O)c2)[C@H]1OC(=O)c1cc(O)c(O)c(O)c1)c1cc(O)c(O)c(O)c1
REMARK SMILES IDX 5 1 46 2 33 3 20 4 7 5 6 6 4 7 3 8 2 9 1 10 59 11 60 12
REMARK SMILES IDX 61 13 67 14 63 15 65 16 62 17 64 19 66 21 47 23 48 24 49 25
REMARK SMILES IDX 50 26 58 27 51 28 56 29 52 30 54 31 57 32 53 34 55 36 34 38
REMARK SMILES IDX 35 39 36 40 37 41 45 42 38 43 43 44 39 45 41 46 44 47 40 49
REMARK SMILES IDX 42 51 8 53 9 54 10 55 11 56 19 57 12 58 17 59 13 60 15 61
REMARK SMILES IDX 18 62 14 64 16 66 21 68 22 69 23 70 24 71 32 72 25 73 30 74
REMARK SMILES IDX 26 75 28 76 31 77 27 79 29 81
REMARK H PARENT 62 18 64 20 66 22 57 33 53 35 55 37 44 48 40 50 42 52 18 63
REMARK H PARENT 14 65 16 67 31 78 27 80 29 82
REMARK Flexibility Score: inf
ROOT
ATOM      1  C   UNL     1     145.027 190.014 158.080  1.00  0.00     0.205 C 
ATOM      2  C   UNL     1     146.100 188.915 158.186  1.00  0.00     0.254 C 
ATOM      3  C   UNL     1     146.332 188.361 156.776  1.00  0.00     0.267 C 
ATOM      4  C   UNL     1     146.745 189.505 155.832  1.00  0.00     0.290 C 
ATOM      5  C   UNL     1     145.712 190.652 155.924  1.00  0.00     0.357 C 
ATOM      6  O   UNL     1     145.498 191.078 157.264  1.00  0.00    -0.329 OA
ENDROOT
BRANCH   1   7
ATOM      7  C   UNL     1     144.623 190.572 159.456  1.00  0.00     0.269 C 
BRANCH   7   8
ATOM      8  O   UNL     1     143.510 189.839 159.958  1.00  0.00    -0.459 OA
BRANCH   8   9
ATOM      9  C   UNL     1     143.602 188.488 160.318  1.00  0.00     0.338 C 
ATOM     10  O   UNL     1     144.339 188.143 161.286  1.00  0.00    -0.246 OA
BRANCH   9  11
ATOM     11  C   UNL     1     142.866 187.466 159.545  1.00  0.00     0.067 A 
ATOM     12  C   UNL     1     142.980 186.110 159.878  1.00  0.00     0.066 A 
ATOM     13  C   UNL     1     142.332 185.128 159.125  1.00  0.00     0.162 A 
ATOM     14  C   UNL     1     142.075 187.840 158.439  1.00  0.00     0.066 A 
ATOM     15  C   UNL     1     141.569 185.502 157.993  1.00  0.00     0.200 A 
ATOM     16  C   UNL     1     141.442 186.863 157.663  1.00  0.00     0.162 A 
BRANCH  13  17
ATOM     17  O   UNL     1     142.462 183.803 159.541  1.00  0.00    -0.504 OA
ATOM     18  H   UNL     1     141.709 183.136 159.522  1.00  0.00     0.293 HD
ENDBRANCH  13  17
BRANCH  15  19
ATOM     19  O   UNL     1     140.936 184.555 157.181  1.00  0.00    -0.502 OA
ATOM     20  H   UNL     1     140.732 183.608 157.460  1.00  0.00     0.293 HD
ENDBRANCH  15  19
BRANCH  16  21
ATOM     21  O   UNL     1     140.691 187.270 156.560  1.00  0.00    -0.504 OA
ATOM     22  H   UNL     1     140.985 188.032 155.961  1.00  0.00     0.293 HD
ENDBRANCH  16  21
ENDBRANCH   9  11
ENDBRANCH   8   9
ENDBRANCH   7   8
ENDBRANCH   1   7
BRANCH   2  23
ATOM     23  O   UNL     1     147.325 189.464 158.675  1.00  0.00    -0.452 OA
BRANCH  23  24
ATOM     24  C   UNL     1     147.811 189.270 159.976  1.00  0.00     0.338 C 
ATOM     25  O   UNL     1     147.983 188.103 160.412  1.00  0.00    -0.246 OA
BRANCH  24  26
ATOM     26  C   UNL     1     148.136 190.444 160.815  1.00  0.00     0.067 A 
ATOM     27  C   UNL     1     148.373 190.301 162.195  1.00  0.00     0.066 A 
ATOM     28  C   UNL     1     148.158 191.729 160.249  1.00  0.00     0.066 A 
ATOM     29  C   UNL     1     148.613 191.428 162.999  1.00  0.00     0.162 A 
ATOM     30  C   UNL     1     148.407 192.853 161.044  1.00  0.00     0.162 A 
ATOM     31  C   UNL     1     148.633 192.708 162.421  1.00  0.00     0.200 A 
BRANCH  29  32
ATOM     32  O   UNL     1     148.824 191.280 164.367  1.00  0.00    -0.504 OA
ATOM     33  H   UNL     1     148.176 190.763 164.950  1.00  0.00     0.293 HD
ENDBRANCH  29  32
BRANCH  30  34
ATOM     34  O   UNL     1     148.418 194.111 160.445  1.00  0.00    -0.504 OA
ATOM     35  H   UNL     1     147.746 194.374 159.731  1.00  0.00     0.293 HD
ENDBRANCH  30  34
BRANCH  31  36
ATOM     36  O   UNL     1     148.867 193.842 163.196  1.00  0.00    -0.502 OA
ATOM     37  H   UNL     1     148.362 194.025 164.054  1.00  0.00     0.293 HD
ENDBRANCH  31  36
ENDBRANCH  24  26
ENDBRANCH  23  24
ENDBRANCH   2  23
BRANCH   3  38
ATOM     38  O   UNL     1     147.319 187.330 156.802  1.00  0.00    -0.450 OA
BRANCH  38  39
ATOM     39  C   UNL     1     147.238 186.187 155.994  1.00  0.00     0.338 C 
ATOM     40  O   UNL     1     148.105 185.982 155.101  1.00  0.00    -0.246 OA
BRANCH  39  41
ATOM     41  C   UNL     1     146.149 185.206 156.201  1.00  0.00     0.067 A 
ATOM     42  C   UNL     1     145.055 185.163 155.319  1.00  0.00     0.066 A 
ATOM     43  C   UNL     1     146.199 184.306 157.277  1.00  0.00     0.066 A 
ATOM     44  C   UNL     1     144.024 184.240 155.510  1.00  0.00     0.162 A 
ATOM     45  C   UNL     1     145.171 183.380 157.482  1.00  0.00     0.162 A 
ATOM     46  C   UNL     1     144.063 183.350 156.596  1.00  0.00     0.200 A 
BRANCH  44  47
ATOM     47  O   UNL     1     142.953 184.204 154.616  1.00  0.00    -0.504 OA
ATOM     48  H   UNL     1     143.012 183.704 153.732  1.00  0.00     0.293 HD
ENDBRANCH  44  47
BRANCH  45  49
ATOM     49  O   UNL     1     145.288 182.518 158.573  1.00  0.00    -0.504 OA
ATOM     50  H   UNL     1     144.870 182.687 159.476  1.00  0.00     0.293 HD
ENDBRANCH  45  49
BRANCH  46  51
ATOM     51  O   UNL     1     142.991 182.468 156.753  1.00  0.00    -0.502 OA
ATOM     52  H   UNL     1     143.035 181.625 157.316  1.00  0.00     0.293 HD
ENDBRANCH  46  51
ENDBRANCH  39  41
ENDBRANCH  38  39
ENDBRANCH   3  38
BRANCH   5  53
ATOM     53  O   UNL     1     144.484 190.268 155.309  1.00  0.00    -0.428 OA
BRANCH  53  54
ATOM     54  C   UNL     1     143.785 191.083 154.412  1.00  0.00     0.340 C 
ATOM     55  O   UNL     1     143.249 192.152 154.800  1.00  0.00    -0.246 OA
BRANCH  54  56
ATOM     56  C   UNL     1     143.687 190.681 152.999  1.00  0.00     0.067 A 
ATOM     57  C   UNL     1     143.558 189.332 152.644  1.00  0.00     0.066 A 
ATOM     58  C   UNL     1     143.707 191.655 151.994  1.00  0.00     0.066 A 
ATOM     59  C   UNL     1     143.417 188.949 151.305  1.00  0.00     0.162 A 
ATOM     60  C   UNL     1     143.597 191.294 150.651  1.00  0.00     0.162 A 
ATOM     61  C   UNL     1     143.434 189.940 150.290  1.00  0.00     0.200 A 
BRANCH  59  62
ATOM     62  O   UNL     1     143.258 187.586 151.036  1.00  0.00    -0.504 OA
ATOM     63  H   UNL     1     142.361 187.113 151.019  1.00  0.00     0.293 HD
ENDBRANCH  59  62
BRANCH  60  64
ATOM     64  O   UNL     1     143.660 192.299 149.685  1.00  0.00    -0.504 OA
ATOM     65  H   UNL     1     143.902 193.256 149.921  1.00  0.00     0.293 HD
ENDBRANCH  60  64
BRANCH  61  66
ATOM     66  O   UNL     1     143.289 189.620 148.932  1.00  0.00    -0.502 OA
ATOM     67  H   UNL     1     143.070 188.695 148.587  1.00  0.00     0.293 HD
ENDBRANCH  61  66
ENDBRANCH  54  56
ENDBRANCH  53  54
ENDBRANCH   5  53
BRANCH   4  68
ATOM     68  O   UNL     1     146.776 189.043 154.483  1.00  0.00    -0.448 OA
BRANCH  68  69
ATOM     69  C   UNL     1     147.781 189.363 153.565  1.00  0.00     0.339 C 
ATOM     70  O   UNL     1     148.919 188.823 153.654  1.00  0.00    -0.246 OA
BRANCH  69  71
ATOM     71  C   UNL     1     147.506 190.348 152.498  1.00  0.00     0.067 A 
ATOM     72  C   UNL     1     147.518 191.723 152.766  1.00  0.00     0.066 A 
ATOM     73  C   UNL     1     147.234 189.915 151.190  1.00  0.00     0.066 A 
ATOM     74  C   UNL     1     147.278 192.655 151.746  1.00  0.00     0.162 A 
ATOM     75  C   UNL     1     146.997 190.836 150.166  1.00  0.00     0.162 A 
ATOM     76  C   UNL     1     147.019 192.211 150.439  1.00  0.00     0.200 A 
BRANCH  74  77
ATOM     77  O   UNL     1     147.307 194.022 152.024  1.00  0.00    -0.504 OA
ATOM     78  H   UNL     1     148.173 194.500 152.252  1.00  0.00     0.293 HD
ENDBRANCH  74  77
BRANCH  75  79
ATOM     79  O   UNL     1     146.744 190.364 148.876  1.00  0.00    -0.504 OA
ATOM     80  H   UNL     1     145.969 189.749 148.669  1.00  0.00     0.293 HD
ENDBRANCH  75  79
BRANCH  76  81
ATOM     81  O   UNL     1     146.782 193.125 149.410  1.00  0.00    -0.502 OA
ATOM     82  H   UNL     1     147.050 194.095 149.473  1.00  0.00     0.293 HD
ENDBRANCH  76  81
ENDBRANCH  69  71
ENDBRANCH  68  69
ENDBRANCH   4  68
TORSDOF 31
ENDMDL
MODEL 9
REMARK VINA RESULT:    -8.053      2.034      6.998
REMARK INTER + INTRA:         -24.538
REMARK INTER:                 -16.734
REMARK INTRA:                  -7.804
REMARK UNBOUND:                -5.422
REMARK SMILES O=C(OC[C@H]1O[C@H](OC(=O)c2cc(O)c(O)c(O)c2)[C@H](OC(=O)c2cc(O)c(O)c(O)c2)[C@@H](OC(=O)c2cc(O)c(O)c(O)c2)[C@H]1OC(=O)c1cc(O)c(O)c(O)c1)c1cc(O)c(O)c(O)c1
REMARK SMILES IDX 5 1 46 2 33 3 20 4 7 5 6 6 4 7 3 8 2 9 1 10 59 11 60 12
REMARK SMILES IDX 61 13 67 14 63 15 65 16 62 17 64 19 66 21 47 23 48 24 49 25
REMARK SMILES IDX 50 26 58 27 51 28 56 29 52 30 54 31 57 32 53 34 55 36 34 38
REMARK SMILES IDX 35 39 36 40 37 41 45 42 38 43 43 44 39 45 41 46 44 47 40 49
REMARK SMILES IDX 42 51 8 53 9 54 10 55 11 56 19 57 12 58 17 59 13 60 15 61
REMARK SMILES IDX 18 62 14 64 16 66 21 68 22 69 23 70 24 71 32 72 25 73 30 74
REMARK SMILES IDX 26 75 28 76 31 77 27 79 29 81
REMARK H PARENT 62 18 64 20 66 22 57 33 53 35 55 37 44 48 40 50 42 52 18 63
REMARK H PARENT 14 65 16 67 31 78 27 80 29 82
REMARK Flexibility Score: inf
ROOT
ATOM      1  C   UNL     1     146.890 190.481 156.104  1.00  0.00     0.205 C 
ATOM      2  C   UNL     1     145.847 189.391 156.411  1.00  0.00     0.254 C 
ATOM      3  C   UNL     1     144.618 189.672 155.539  1.00  0.00     0.267 C 
ATOM      4  C   UNL     1     145.032 189.698 154.056  1.00  0.00     0.290 C 
ATOM      5  C   UNL     1     146.211 190.679 153.863  1.00  0.00     0.357 C 
ATOM      6  O   UNL     1     147.293 190.402 154.743  1.00  0.00    -0.329 OA
ENDROOT
BRANCH   1   7
ATOM      7  C   UNL     1     148.133 190.373 157.006  1.00  0.00     0.269 C 
BRANCH   7   8
ATOM      8  O   UNL     1     148.318 191.598 157.708  1.00  0.00    -0.459 OA
BRANCH   8   9
ATOM      9  C   UNL     1     148.101 191.713 159.088  1.00  0.00     0.338 C 
ATOM     10  O   UNL     1     148.650 192.650 159.736  1.00  0.00    -0.246 OA
BRANCH   9  11
ATOM     11  C   UNL     1     147.258 190.721 159.787  1.00  0.00     0.067 A 
ATOM     12  C   UNL     1     145.861 190.812 159.726  1.00  0.00     0.066 A 
ATOM     13  C   UNL     1     145.052 189.912 160.424  1.00  0.00     0.162 A 
ATOM     14  C   UNL     1     147.849 189.699 160.559  1.00  0.00     0.066 A 
ATOM     15  C   UNL     1     145.646 188.911 161.227  1.00  0.00     0.200 A 
ATOM     16  C   UNL     1     147.048 188.809 161.282  1.00  0.00     0.162 A 
BRANCH  13  17
ATOM     17  O   UNL     1     143.670 190.042 160.283  1.00  0.00    -0.504 OA
ATOM     18  H   UNL     1     143.078 190.479 160.969  1.00  0.00     0.293 HD
ENDBRANCH  13  17
BRANCH  15  19
ATOM     19  O   UNL     1     144.882 188.014 161.980  1.00  0.00    -0.502 OA
ATOM     20  H   UNL     1     144.450 187.181 161.610  1.00  0.00     0.293 HD
ENDBRANCH  15  19
BRANCH  16  21
ATOM     21  O   UNL     1     147.670 187.829 162.056  1.00  0.00    -0.504 OA
ATOM     22  H   UNL     1     147.405 187.655 163.018  1.00  0.00     0.293 HD
ENDBRANCH  16  21
ENDBRANCH   9  11
ENDBRANCH   8   9
ENDBRANCH   7   8
ENDBRANCH   1   7
BRANCH   2  23
ATOM     23  O   UNL     1     146.366 188.102 156.080  1.00  0.00    -0.452 OA
BRANCH  23  24
ATOM     24  C   UNL     1     146.502 187.049 156.995  1.00  0.00     0.338 C 
ATOM     25  O   UNL     1     147.038 187.258 158.114  1.00  0.00    -0.246 OA
BRANCH  24  26
ATOM     26  C   UNL     1     145.996 185.705 156.640  1.00  0.00     0.067 A 
ATOM     27  C   UNL     1     145.364 185.476 155.404  1.00  0.00     0.066 A 
ATOM     28  C   UNL     1     146.091 184.651 157.563  1.00  0.00     0.066 A 
ATOM     29  C   UNL     1     144.824 184.215 155.100  1.00  0.00     0.162 A 
ATOM     30  C   UNL     1     145.564 183.391 157.261  1.00  0.00     0.162 A 
ATOM     31  C   UNL     1     144.927 183.168 156.031  1.00  0.00     0.200 A 
BRANCH  29  32
ATOM     32  O   UNL     1     144.181 184.002 153.884  1.00  0.00    -0.504 OA
ATOM     33  H   UNL     1     143.774 183.104 153.650  1.00  0.00     0.293 HD
ENDBRANCH  29  32
BRANCH  30  34
ATOM     34  O   UNL     1     145.677 182.371 158.204  1.00  0.00    -0.504 OA
ATOM     35  H   UNL     1     146.549 182.177 158.686  1.00  0.00     0.293 HD
ENDBRANCH  30  34
BRANCH  31  36
ATOM     36  O   UNL     1     144.398 181.908 155.757  1.00  0.00    -0.502 OA
ATOM     37  H   UNL     1     144.730 181.337 154.990  1.00  0.00     0.293 HD
ENDBRANCH  31  36
ENDBRANCH  24  26
ENDBRANCH  23  24
ENDBRANCH   2  23
BRANCH   3  38
ATOM     38  O   UNL     1     143.606 188.695 155.777  1.00  0.00    -0.450 OA
BRANCH  38  39
ATOM     39  C   UNL     1     142.945 188.576 157.008  1.00  0.00     0.338 C 
ATOM     40  O   UNL     1     142.450 189.596 157.560  1.00  0.00    -0.246 OA
BRANCH  39  41
ATOM     41  C   UNL     1     142.809 187.251 157.653  1.00  0.00     0.067 A 
ATOM     42  C   UNL     1     143.285 187.045 158.959  1.00  0.00     0.066 A 
ATOM     43  C   UNL     1     142.198 186.188 156.969  1.00  0.00     0.066 A 
ATOM     44  C   UNL     1     143.159 185.796 159.572  1.00  0.00     0.162 A 
ATOM     45  C   UNL     1     142.070 184.931 157.569  1.00  0.00     0.162 A 
ATOM     46  C   UNL     1     142.564 184.726 158.884  1.00  0.00     0.200 A 
BRANCH  44  47
ATOM     47  O   UNL     1     143.626 185.614 160.875  1.00  0.00    -0.504 OA
ATOM     48  H   UNL     1     143.714 186.393 161.524  1.00  0.00     0.293 HD
ENDBRANCH  44  47
BRANCH  45  49
ATOM     49  O   UNL     1     141.454 183.922 156.829  1.00  0.00    -0.504 OA
ATOM     50  H   UNL     1     140.678 184.075 156.201  1.00  0.00     0.293 HD
ENDBRANCH  45  49
BRANCH  46  51
ATOM     51  O   UNL     1     142.490 183.492 159.536  1.00  0.00    -0.502 OA
ATOM     52  H   UNL     1     141.749 183.241 160.181  1.00  0.00     0.293 HD
ENDBRANCH  46  51
ENDBRANCH  39  41
ENDBRANCH  38  39
ENDBRANCH   3  38
BRANCH   5  53
ATOM     53  O   UNL     1     145.767 192.027 154.010  1.00  0.00    -0.428 OA
BRANCH  53  54
ATOM     54  C   UNL     1     145.845 192.978 152.987  1.00  0.00     0.340 C 
ATOM     55  O   UNL     1     146.953 193.469 152.651  1.00  0.00    -0.246 OA
BRANCH  54  56
ATOM     56  C   UNL     1     144.615 193.398 152.296  1.00  0.00     0.067 A 
ATOM     57  C   UNL     1     144.626 193.694 150.928  1.00  0.00     0.066 A 
ATOM     58  C   UNL     1     143.414 193.492 153.008  1.00  0.00     0.066 A 
ATOM     59  C   UNL     1     143.448 194.048 150.257  1.00  0.00     0.162 A 
ATOM     60  C   UNL     1     142.234 193.872 152.367  1.00  0.00     0.162 A 
ATOM     61  C   UNL     1     142.232 194.138 150.982  1.00  0.00     0.200 A 
BRANCH  59  62
ATOM     62  O   UNL     1     143.537 194.294 148.883  1.00  0.00    -0.504 OA
ATOM     63  H   UNL     1     142.943 193.853 148.190  1.00  0.00     0.293 HD
ENDBRANCH  59  62
BRANCH  60  64
ATOM     64  O   UNL     1     141.071 193.986 153.128  1.00  0.00    -0.504 OA
ATOM     65  H   UNL     1     140.244 193.431 152.931  1.00  0.00     0.293 HD
ENDBRANCH  60  64
BRANCH  61  66
ATOM     66  O   UNL     1     141.020 194.480 150.366  1.00  0.00    -0.502 OA
ATOM     67  H   UNL     1     140.146 194.599 150.860  1.00  0.00     0.293 HD
ENDBRANCH  61  66
ENDBRANCH  54  56
ENDBRANCH  53  54
ENDBRANCH   5  53
BRANCH   4  68
ATOM     68  O   UNL     1     143.944 190.146 153.250  1.00  0.00    -0.448 OA
BRANCH  68  69
ATOM     69  C   UNL     1     143.240 189.334 152.355  1.00  0.00     0.339 C 
ATOM     70  O   UNL     1     143.212 188.082 152.519  1.00  0.00    -0.246 OA
BRANCH  69  71
ATOM     71  C   UNL     1     142.543 189.950 151.207  1.00  0.00     0.067 A 
ATOM     72  C   UNL     1     141.159 190.166 151.236  1.00  0.00     0.066 A 
ATOM     73  C   UNL     1     143.265 190.338 150.067  1.00  0.00     0.066 A 
ATOM     74  C   UNL     1     140.503 190.771 150.154  1.00  0.00     0.162 A 
ATOM     75  C   UNL     1     142.623 190.945 148.984  1.00  0.00     0.162 A 
ATOM     76  C   UNL     1     141.238 191.165 149.023  1.00  0.00     0.200 A 
BRANCH  74  77
ATOM     77  O   UNL     1     139.127 190.992 150.201  1.00  0.00    -0.504 OA
ATOM     78  H   UNL     1     138.501 190.594 149.508  1.00  0.00     0.293 HD
ENDBRANCH  74  77
BRANCH  75  79
ATOM     79  O   UNL     1     143.379 191.327 147.875  1.00  0.00    -0.504 OA
ATOM     80  H   UNL     1     142.995 191.884 147.125  1.00  0.00     0.293 HD
ENDBRANCH  75  79
BRANCH  76  81
ATOM     81  O   UNL     1     140.604 191.773 147.938  1.00  0.00    -0.502 OA
ATOM     82  H   UNL     1     140.703 192.755 147.731  1.00  0.00     0.293 HD
ENDBRANCH  76  81
ENDBRANCH  69  71
ENDBRANCH  68  69
ENDBRANCH   4  68
TORSDOF 31
ENDMDL
