MODEL 1
REMARK VINA RESULT:    -4.979      0.000      0.000
REMARK INTER + INTRA:          -5.448
REMARK INTER:                  -5.270
REMARK INTRA:                  -0.178
REMARK UNBOUND:                -0.178
REMARK SMILES CC1=CC[C@]23[C@H]([C@@H](C(C)C)CC[C@H]2C)[C@@H]13
REMARK SMILES IDX 14 1 13 2 12 3 11 4 7 5 6 6 5 7 15 8 2 9 3 10 4 11 1 12 8 13
REMARK SMILES IDX 9 14 10 15
REMARK H PARENT
REMARK Flexibility Score: inf
ROOT
ATOM      1  C   UNL     1      15.234  15.460  36.139  1.00  0.00     0.008 C 
ATOM      2  C   UNL     1      14.121  15.367  37.207  1.00  0.00    -0.007 C 
ATOM      3  C   UNL     1      13.034  14.392  36.722  1.00  0.00     0.004 C 
ATOM      4  C   UNL     1      11.798  14.333  37.652  1.00  0.00     0.004 C 
ATOM      5  C   UNL     1      11.866  15.301  38.879  1.00  0.00    -0.004 C 
ATOM      6  C   UNL     1      12.360  16.733  38.478  1.00  0.00     0.007 C 
ATOM      7  C   UNL     1      13.518  16.760  37.604  1.00  0.00    -0.013 C 
ATOM      8  C   UNL     1      12.108  17.137  36.977  1.00  0.00     0.025 C 
ATOM      9  C   UNL     1      12.792  17.845  35.818  1.00  0.00    -0.073 C 
ATOM     10  C   UNL     1      13.984  18.389  36.099  1.00  0.00    -0.027 C 
ATOM     11  C   UNL     1      14.346  18.038  37.476  1.00  0.00     0.035 C 
ATOM     12  C   UNL     1      12.356  17.595  34.403  1.00  0.00     0.039 C 
ENDROOT
BRANCH   5  13
ATOM     13  C   UNL     1      10.505  15.376  39.644  1.00  0.00    -0.014 C 
ATOM     14  C   UNL     1       9.377  15.971  38.774  1.00  0.00     0.007 C 
ATOM     15  C   UNL     1      10.037  13.982  40.125  1.00  0.00     0.007 C 
ENDBRANCH   5  13
TORSDOF 1
ENDMDL
MODEL 2
REMARK VINA RESULT:    -4.902     10.649     13.870
REMARK INTER + INTRA:          -5.366
REMARK INTER:                  -5.122
REMARK INTRA:                  -0.244
REMARK UNBOUND:                -0.178
REMARK SMILES CC1=CC[C@]23[C@H]([C@@H](C(C)C)CC[C@H]2C)[C@@H]13
REMARK SMILES IDX 14 1 13 2 12 3 11 4 7 5 6 6 5 7 15 8 2 9 3 10 4 11 1 12 8 13
REMARK SMILES IDX 9 14 10 15
REMARK H PARENT
REMARK Flexibility Score: inf
ROOT
ATOM      1  C   UNL     1       9.758  22.410  26.948  1.00  0.00     0.008 C 
ATOM      2  C   UNL     1       9.038  21.560  25.878  1.00  0.00    -0.007 C 
ATOM      3  C   UNL     1       8.007  20.647  26.566  1.00  0.00     0.004 C 
ATOM      4  C   UNL     1       7.328  19.646  25.601  1.00  0.00     0.004 C 
ATOM      5  C   UNL     1       7.844  19.719  24.125  1.00  0.00    -0.004 C 
ATOM      6  C   UNL     1       9.406  19.801  24.046  1.00  0.00     0.007 C 
ATOM      7  C   UNL     1      10.018  20.745  24.963  1.00  0.00    -0.013 C 
ATOM      8  C   UNL     1      10.176  19.197  25.280  1.00  0.00     0.025 C 
ATOM      9  C   UNL     1      11.369  19.483  26.179  1.00  0.00    -0.073 C 
ATOM     10  C   UNL     1      12.098  20.555  25.841  1.00  0.00    -0.027 C 
ATOM     11  C   UNL     1      11.446  21.231  24.716  1.00  0.00     0.035 C 
ATOM     12  C   UNL     1      11.467  18.863  27.543  1.00  0.00     0.039 C 
ENDROOT
BRANCH   5  13
ATOM     13  C   UNL     1       7.303  18.539  23.256  1.00  0.00    -0.014 C 
ATOM     14  C   UNL     1       5.959  18.879  22.578  1.00  0.00     0.007 C 
ATOM     15  C   UNL     1       8.300  18.140  22.141  1.00  0.00     0.007 C 
ENDBRANCH   5  13
TORSDOF 1
ENDMDL
MODEL 3
REMARK VINA RESULT:    -4.757      2.597      4.347
REMARK INTER + INTRA:          -5.213
REMARK INTER:                  -5.012
REMARK INTRA:                  -0.201
REMARK UNBOUND:                -0.178
REMARK SMILES CC1=CC[C@]23[C@H]([C@@H](C(C)C)CC[C@H]2C)[C@@H]13
REMARK SMILES IDX 14 1 13 2 12 3 11 4 7 5 6 6 5 7 15 8 2 9 3 10 4 11 1 12 8 13
REMARK SMILES IDX 9 14 10 15
REMARK H PARENT
REMARK Flexibility Score: inf
ROOT
ATOM      1  C   UNL     1      13.342  19.167  38.684  1.00  0.00     0.008 C 
ATOM      2  C   UNL     1      13.945  17.830  38.200  1.00  0.00    -0.007 C 
ATOM      3  C   UNL     1      15.474  17.970  38.101  1.00  0.00     0.004 C 
ATOM      4  C   UNL     1      16.170  16.732  37.486  1.00  0.00     0.004 C 
ATOM      5  C   UNL     1      15.190  15.595  37.042  1.00  0.00    -0.004 C 
ATOM      6  C   UNL     1      13.952  16.151  36.260  1.00  0.00     0.007 C 
ATOM      7  C   UNL     1      13.321  17.313  36.856  1.00  0.00    -0.013 C 
ATOM      8  C   UNL     1      14.176  17.532  35.536  1.00  0.00     0.025 C 
ATOM      9  C   UNL     1      13.468  18.851  35.272  1.00  0.00    -0.073 C 
ATOM     10  C   UNL     1      12.206  18.926  35.718  1.00  0.00    -0.027 C 
ATOM     11  C   UNL     1      11.896  17.697  36.455  1.00  0.00     0.035 C 
ATOM     12  C   UNL     1      14.250  20.083  34.917  1.00  0.00     0.039 C 
ENDROOT
BRANCH   5  13
ATOM     13  C   UNL     1      15.916  14.484  36.218  1.00  0.00    -0.014 C 
ATOM     14  C   UNL     1      17.372  14.266  36.685  1.00  0.00     0.007 C 
ATOM     15  C   UNL     1      15.186  13.123  36.315  1.00  0.00     0.007 C 
ENDBRANCH   5  13
TORSDOF 1
ENDMDL
MODEL 4
REMARK VINA RESULT:    -4.717     12.970     16.190
REMARK INTER + INTRA:          -5.171
REMARK INTER:                  -4.959
REMARK INTRA:                  -0.212
REMARK UNBOUND:                -0.178
REMARK SMILES CC1=CC[C@]23[C@H]([C@@H](C(C)C)CC[C@H]2C)[C@@H]13
REMARK SMILES IDX 14 1 13 2 12 3 11 4 7 5 6 6 5 7 15 8 2 9 3 10 4 11 1 12 8 13
REMARK SMILES IDX 9 14 10 15
REMARK H PARENT
REMARK Flexibility Score: inf
ROOT
ATOM      1  C   UNL     1       8.394  22.627  24.132  1.00  0.00     0.008 C 
ATOM      2  C   UNL     1       7.235  21.886  23.429  1.00  0.00    -0.007 C 
ATOM      3  C   UNL     1       5.952  22.041  24.265  1.00  0.00     0.004 C 
ATOM      4  C   UNL     1       4.760  21.215  23.726  1.00  0.00     0.004 C 
ATOM      5  C   UNL     1       5.091  20.349  22.465  1.00  0.00    -0.004 C 
ATOM      6  C   UNL     1       6.450  19.584  22.611  1.00  0.00     0.007 C 
ATOM      7  C   UNL     1       7.550  20.380  23.121  1.00  0.00    -0.013 C 
ATOM      8  C   UNL     1       6.907  19.300  24.091  1.00  0.00     0.025 C 
ATOM      9  C   UNL     1       8.155  19.308  24.960  1.00  0.00    -0.073 C 
ATOM     10  C   UNL     1       9.300  19.579  24.318  1.00  0.00    -0.027 C 
ATOM     11  C   UNL     1       8.990  19.905  22.923  1.00  0.00     0.035 C 
ATOM     12  C   UNL     1       8.048  19.410  26.454  1.00  0.00     0.039 C 
ENDROOT
BRANCH   5  13
ATOM     13  C   UNL     1       3.932  19.364  22.110  1.00  0.00    -0.014 C 
ATOM     14  C   UNL     1       2.635  19.682  22.884  1.00  0.00     0.007 C 
ATOM     15  C   UNL     1       3.593  19.392  20.600  1.00  0.00     0.007 C 
ENDBRANCH   5  13
TORSDOF 1
ENDMDL
MODEL 5
REMARK VINA RESULT:    -4.623     10.310     13.151
REMARK INTER + INTRA:          -5.071
REMARK INTER:                  -4.882
REMARK INTRA:                  -0.189
REMARK UNBOUND:                -0.178
REMARK SMILES CC1=CC[C@]23[C@H]([C@@H](C(C)C)CC[C@H]2C)[C@@H]13
REMARK SMILES IDX 14 1 13 2 12 3 11 4 7 5 6 6 5 7 15 8 2 9 3 10 4 11 1 12 8 13
REMARK SMILES IDX 9 14 10 15
REMARK H PARENT
REMARK Flexibility Score: inf
ROOT
ATOM      1  C   UNL     1      13.564  20.357  26.077  1.00  0.00     0.008 C 
ATOM      2  C   UNL     1      12.297  19.960  25.287  1.00  0.00    -0.007 C 
ATOM      3  C   UNL     1      11.887  21.125  24.368  1.00  0.00     0.004 C 
ATOM      4  C   UNL     1      10.545  20.892  23.635  1.00  0.00     0.004 C 
ATOM      5  C   UNL     1       9.837  19.543  23.996  1.00  0.00    -0.004 C 
ATOM      6  C   UNL     1       9.839  19.266  25.538  1.00  0.00     0.007 C 
ATOM      7  C   UNL     1      11.109  19.496  26.201  1.00  0.00    -0.013 C 
ATOM      8  C   UNL     1       9.944  20.545  26.452  1.00  0.00     0.025 C 
ATOM      9  C   UNL     1      10.630  21.035  27.717  1.00  0.00    -0.073 C 
ATOM     10  C   UNL     1      11.362  20.118  28.365  1.00  0.00    -0.027 C 
ATOM     11  C   UNL     1      11.373  18.883  27.577  1.00  0.00     0.035 C 
ATOM     12  C   UNL     1      10.800  22.504  27.976  1.00  0.00     0.039 C 
ENDROOT
BRANCH   5  13
ATOM     13  C   UNL     1       8.388  19.468  23.419  1.00  0.00    -0.014 C 
ATOM     14  C   UNL     1       8.247  18.379  22.333  1.00  0.00     0.007 C 
ATOM     15  C   UNL     1       7.343  19.167  24.520  1.00  0.00     0.007 C 
ENDBRANCH   5  13
TORSDOF 1
ENDMDL
MODEL 6
REMARK VINA RESULT:    -4.618      1.755      4.794
REMARK INTER + INTRA:          -5.066
REMARK INTER:                  -4.844
REMARK INTRA:                  -0.222
REMARK UNBOUND:                -0.178
REMARK SMILES CC1=CC[C@]23[C@H]([C@@H](C(C)C)CC[C@H]2C)[C@@H]13
REMARK SMILES IDX 14 1 13 2 12 3 11 4 7 5 6 6 5 7 15 8 2 9 3 10 4 11 1 12 8 13
REMARK SMILES IDX 9 14 10 15
REMARK H PARENT
REMARK Flexibility Score: inf
ROOT
ATOM      1  C   UNL     1      15.802  17.254  38.209  1.00  0.00     0.008 C 
ATOM      2  C   UNL     1      14.994  17.906  37.066  1.00  0.00    -0.007 C 
ATOM      3  C   UNL     1      13.841  18.730  37.666  1.00  0.00     0.004 C 
ATOM      4  C   UNL     1      12.878  19.310  36.603  1.00  0.00     0.004 C 
ATOM      5  C   UNL     1      13.229  18.918  35.129  1.00  0.00    -0.004 C 
ATOM      6  C   UNL     1      13.577  17.397  34.988  1.00  0.00     0.007 C 
ATOM      7  C   UNL     1      14.479  16.877  35.999  1.00  0.00    -0.013 C 
ATOM      8  C   UNL     1      12.950  16.457  36.086  1.00  0.00     0.025 C 
ATOM      9  C   UNL     1      13.307  15.263  36.957  1.00  0.00    -0.073 C 
ATOM     10  C   UNL     1      14.520  14.736  36.740  1.00  0.00    -0.027 C 
ATOM     11  C   UNL     1      15.221  15.563  35.754  1.00  0.00     0.035 C 
ATOM     12  C   UNL     1      12.537  14.974  38.214  1.00  0.00     0.039 C 
ENDROOT
BRANCH   5  13
ATOM     13  C   UNL     1      12.101  19.326  34.129  1.00  0.00    -0.014 C 
ATOM     14  C   UNL     1      10.942  20.069  34.826  1.00  0.00     0.007 C 
ATOM     15  C   UNL     1      12.634  20.245  33.003  1.00  0.00     0.007 C 
ENDBRANCH   5  13
TORSDOF 1
ENDMDL
MODEL 7
REMARK VINA RESULT:    -4.562     11.412     14.152
REMARK INTER + INTRA:          -5.007
REMARK INTER:                  -4.752
REMARK INTRA:                  -0.255
REMARK UNBOUND:                -0.178
REMARK SMILES CC1=CC[C@]23[C@H]([C@@H](C(C)C)CC[C@H]2C)[C@@H]13
REMARK SMILES IDX 14 1 13 2 12 3 11 4 7 5 6 6 5 7 15 8 2 9 3 10 4 11 1 12 8 13
REMARK SMILES IDX 9 14 10 15
REMARK H PARENT
REMARK Flexibility Score: inf
ROOT
ATOM      1  C   UNL     1      11.668  19.502  24.854  1.00  0.00     0.008 C 
ATOM      2  C   UNL     1      10.195  19.295  24.436  1.00  0.00    -0.007 C 
ATOM      3  C   UNL     1       9.855  20.259  23.285  1.00  0.00     0.004 C 
ATOM      4  C   UNL     1       8.360  20.239  22.884  1.00  0.00     0.004 C 
ATOM      5  C   UNL     1       7.472  19.281  23.746  1.00  0.00    -0.004 C 
ATOM      6  C   UNL     1       7.774  19.411  25.278  1.00  0.00     0.007 C 
ATOM      7  C   UNL     1       9.182  19.431  25.626  1.00  0.00    -0.013 C 
ATOM      8  C   UNL     1       8.375  20.795  25.731  1.00  0.00     0.025 C 
ATOM      9  C   UNL     1       9.432  21.372  26.660  1.00  0.00    -0.073 C 
ATOM     10  C   UNL     1      10.069  20.479  27.429  1.00  0.00    -0.027 C 
ATOM     11  C   UNL     1       9.616  19.134  27.062  1.00  0.00     0.035 C 
ATOM     12  C   UNL     1       9.985  22.748  26.430  1.00  0.00     0.039 C 
ENDROOT
BRANCH   5  13
ATOM     13  C   UNL     1       5.949  19.476  23.459  1.00  0.00    -0.014 C 
ATOM     14  C   UNL     1       5.591  20.952  23.180  1.00  0.00     0.007 C 
ATOM     15  C   UNL     1       5.480  18.644  22.242  1.00  0.00     0.007 C 
ENDBRANCH   5  13
TORSDOF 1
ENDMDL
MODEL 8
REMARK VINA RESULT:    -4.552      9.947     11.840
REMARK INTER + INTRA:          -4.996
REMARK INTER:                  -4.647
REMARK INTRA:                  -0.349
REMARK UNBOUND:                -0.178
REMARK SMILES CC1=CC[C@]23[C@H]([C@@H](C(C)C)CC[C@H]2C)[C@@H]13
REMARK SMILES IDX 14 1 13 2 12 3 11 4 7 5 6 6 5 7 15 8 2 9 3 10 4 11 1 12 8 13
REMARK SMILES IDX 9 14 10 15
REMARK H PARENT
REMARK Flexibility Score: inf
ROOT
ATOM      1  C   UNL     1      13.494  20.499  25.732  1.00  0.00     0.008 C 
ATOM      2  C   UNL     1      12.037  19.988  25.714  1.00  0.00    -0.007 C 
ATOM      3  C   UNL     1      11.143  21.030  25.018  1.00  0.00     0.004 C 
ATOM      4  C   UNL     1       9.635  20.686  25.073  1.00  0.00     0.004 C 
ATOM      5  C   UNL     1       9.299  19.374  25.859  1.00  0.00    -0.004 C 
ATOM      6  C   UNL     1      10.079  19.279  27.214  1.00  0.00     0.007 C 
ATOM      7  C   UNL     1      11.489  19.610  27.135  1.00  0.00    -0.013 C 
ATOM      8  C   UNL     1      10.522  20.657  27.835  1.00  0.00     0.025 C 
ATOM      9  C   UNL     1      11.703  21.305  28.542  1.00  0.00    -0.073 C 
ATOM     10  C   UNL     1      12.725  20.485  28.822  1.00  0.00    -0.027 C 
ATOM     11  C   UNL     1      12.439  19.166  28.248  1.00  0.00     0.035 C 
ATOM     12  C   UNL     1      11.868  22.797  28.547  1.00  0.00     0.039 C 
ENDROOT
BRANCH   5  13
ATOM     13  C   UNL     1       7.763  19.204  26.086  1.00  0.00    -0.014 C 
ATOM     14  C   UNL     1       7.447  18.408  27.370  1.00  0.00     0.007 C 
ATOM     15  C   UNL     1       7.041  20.568  26.193  1.00  0.00     0.007 C 
ENDBRANCH   5  13
TORSDOF 1
ENDMDL
MODEL 9
REMARK VINA RESULT:    -4.538      1.138      2.642
REMARK INTER + INTRA:          -4.982
REMARK INTER:                  -4.751
REMARK INTRA:                  -0.231
REMARK UNBOUND:                -0.178
REMARK SMILES CC1=CC[C@]23[C@H]([C@@H](C(C)C)CC[C@H]2C)[C@@H]13
REMARK SMILES IDX 14 1 13 2 12 3 11 4 7 5 6 6 5 7 15 8 2 9 3 10 4 11 1 12 8 13
REMARK SMILES IDX 9 14 10 15
REMARK H PARENT
REMARK Flexibility Score: inf
ROOT
ATOM      1  C   UNL     1      13.570  17.520  34.792  1.00  0.00     0.008 C 
ATOM      2  C   UNL     1      12.635  16.960  35.887  1.00  0.00    -0.007 C 
ATOM      3  C   UNL     1      11.923  18.129  36.591  1.00  0.00     0.004 C 
ATOM      4  C   UNL     1      11.070  17.690  37.805  1.00  0.00     0.004 C 
ATOM      5  C   UNL     1      11.124  16.157  38.114  1.00  0.00    -0.004 C 
ATOM      6  C   UNL     1      12.584  15.592  38.057  1.00  0.00     0.007 C 
ATOM      7  C   UNL     1      13.364  16.021  36.911  1.00  0.00    -0.013 C 
ATOM      8  C   UNL     1      13.725  16.645  38.326  1.00  0.00     0.025 C 
ATOM      9  C   UNL     1      15.103  17.042  37.821  1.00  0.00    -0.073 C 
ATOM     10  C   UNL     1      15.618  16.248  36.873  1.00  0.00    -0.027 C 
ATOM     11  C   UNL     1      14.616  15.243  36.507  1.00  0.00     0.035 C 
ATOM     12  C   UNL     1      15.642  18.421  38.071  1.00  0.00     0.039 C 
ENDROOT
BRANCH   5  13
ATOM     13  C   UNL     1      10.445  15.808  39.477  1.00  0.00    -0.014 C 
ATOM     14  C   UNL     1       8.905  15.880  39.398  1.00  0.00     0.007 C 
ATOM     15  C   UNL     1      10.821  14.388  39.963  1.00  0.00     0.007 C 
ENDBRANCH   5  13
TORSDOF 1
ENDMDL
