MODEL 1
REMARK VINA RESULT:    -4.174      0.000      0.000
REMARK INTER + INTRA:          -7.810
REMARK INTER:                  -5.638
REMARK INTRA:                  -2.172
REMARK UNBOUND:                -2.172
REMARK SMILES C=CC(C)=CCC=C(C)CCC=C(C)C
REMARK SMILES IDX 8 1 7 2 9 3 10 4 11 5 12 6 14 7 13 8 15 9 6 10 5 11 3 12
REMARK SMILES IDX 4 13 2 14 1 15
REMARK H PARENT
REMARK Flexibility Score: inf
ROOT
ATOM      1  C   UNL     1     133.428 135.254 131.246  1.00  0.00    -0.077 C 
ATOM      2  C   UNL     1     134.400 135.021 132.159  1.00  0.00    -0.024 C 
ATOM      3  C   UNL     1     132.516 136.435 131.459  1.00  0.00     0.039 C 
ENDROOT
BRANCH   1   4
ATOM      4  C   UNL     1     133.172 134.344 130.062  1.00  0.00     0.034 C 
BRANCH   4   5
ATOM      5  C   UNL     1     133.683 134.986 128.766  1.00  0.00     0.032 C 
BRANCH   5   6
ATOM      6  C   UNL     1     134.995 134.376 128.334  1.00  0.00    -0.028 C 
ATOM      7  C   UNL     1     137.425 134.325 127.963  1.00  0.00     0.039 C 
ATOM      8  C   UNL     1     136.174 135.027 128.423  1.00  0.00    -0.080 C 
ATOM      9  C   UNL     1     136.261 136.431 128.971  1.00  0.00     0.039 C 
ENDBRANCH   5   6
ENDBRANCH   4   5
ENDBRANCH   1   4
BRANCH   2  10
ATOM     10  C   UNL     1     135.393 133.886 132.095  1.00  0.00     0.055 C 
BRANCH  10  11
ATOM     11  C   UNL     1     136.807 134.398 131.995  1.00  0.00    -0.020 C 
ATOM     12  C   UNL     1     137.863 133.678 131.564  1.00  0.00    -0.055 C 
ATOM     13  C   UNL     1     137.721 132.248 131.092  1.00  0.00     0.044 C 
BRANCH  12  14
ATOM     14  C   UNL     1     139.180 134.363 131.481  1.00  0.00    -0.005 C 
ATOM     15  C   UNL     1     139.350 135.573 130.947  1.00  0.00     0.009 C 
ENDBRANCH  12  14
ENDBRANCH  10  11
ENDBRANCH   2  10
TORSDOF 6
ENDMDL
MODEL 2
REMARK VINA RESULT:    -4.170      2.806      4.660
REMARK INTER + INTRA:          -7.804
REMARK INTER:                  -5.709
REMARK INTRA:                  -2.095
REMARK UNBOUND:                -2.172
REMARK SMILES C=CC(C)=CCC=C(C)CCC=C(C)C
REMARK SMILES IDX 8 1 7 2 9 3 10 4 11 5 12 6 14 7 13 8 15 9 6 10 5 11 3 12
REMARK SMILES IDX 4 13 2 14 1 15
REMARK H PARENT
REMARK Flexibility Score: inf
ROOT
ATOM      1  C   UNL     1     135.249 140.027 131.475  1.00  0.00    -0.077 C 
ATOM      2  C   UNL     1     134.977 139.094 132.417  1.00  0.00    -0.024 C 
ATOM      3  C   UNL     1     136.458 140.906 131.668  1.00  0.00     0.039 C 
ENDROOT
BRANCH   1   4
ATOM      4  C   UNL     1     134.356 140.275 130.276  1.00  0.00     0.034 C 
BRANCH   4   5
ATOM      5  C   UNL     1     135.044 139.812 128.986  1.00  0.00     0.032 C 
BRANCH   5   6
ATOM      6  C   UNL     1     134.402 138.557 128.444  1.00  0.00    -0.028 C 
ATOM      7  C   UNL     1     134.251 136.151 127.959  1.00  0.00     0.039 C 
ATOM      8  C   UNL     1     134.978 137.339 128.534  1.00  0.00    -0.080 C 
ATOM      9  C   UNL     1     136.322 137.148 129.193  1.00  0.00     0.039 C 
ENDBRANCH   5   6
ENDBRANCH   4   5
ENDBRANCH   1   4
BRANCH   2  10
ATOM     10  C   UNL     1     133.811 138.138 132.376  1.00  0.00     0.055 C 
BRANCH  10  11
ATOM     11  C   UNL     1     134.270 136.718 132.168  1.00  0.00    -0.020 C 
ATOM     12  C   UNL     1     133.541 135.745 131.582  1.00  0.00    -0.055 C 
ATOM     13  C   UNL     1     132.157 136.001 131.031  1.00  0.00     0.044 C 
BRANCH  12  14
ATOM     14  C   UNL     1     134.177 134.412 131.412  1.00  0.00    -0.005 C 
ATOM     15  C   UNL     1     135.212 133.989 132.138  1.00  0.00     0.009 C 
ENDBRANCH  12  14
ENDBRANCH  10  11
ENDBRANCH   2  10
TORSDOF 6
ENDMDL
MODEL 3
REMARK VINA RESULT:    -4.149      4.077      6.399
REMARK INTER + INTRA:          -7.776
REMARK INTER:                  -5.754
REMARK INTRA:                  -2.022
REMARK UNBOUND:                -2.172
REMARK SMILES C=CC(C)=CCC=C(C)CCC=C(C)C
REMARK SMILES IDX 8 1 7 2 9 3 10 4 11 5 12 6 14 7 13 8 15 9 6 10 5 11 3 12
REMARK SMILES IDX 4 13 2 14 1 15
REMARK H PARENT
REMARK Flexibility Score: inf
ROOT
ATOM      1  C   UNL     1     139.420 136.443 132.408  1.00  0.00    -0.077 C 
ATOM      2  C   UNL     1     138.098 136.557 132.675  1.00  0.00    -0.024 C 
ATOM      3  C   UNL     1     139.948 135.099 131.977  1.00  0.00     0.039 C 
ENDROOT
BRANCH   1   4
ATOM      4  C   UNL     1     140.401 137.584 132.592  1.00  0.00     0.034 C 
BRANCH   4   5
ATOM      5  C   UNL     1     141.252 137.772 131.330  1.00  0.00     0.032 C 
BRANCH   5   6
ATOM      6  C   UNL     1     140.625 138.776 130.393  1.00  0.00    -0.028 C 
ATOM      7  C   UNL     1     139.427 139.508 128.374  1.00  0.00     0.039 C 
ATOM      8  C   UNL     1     140.021 138.426 129.237  1.00  0.00    -0.080 C 
ATOM      9  C   UNL     1     139.932 136.984 128.798  1.00  0.00     0.039 C 
ENDBRANCH   5   6
ENDBRANCH   4   5
ENDBRANCH   1   4
BRANCH   2  10
ATOM     10  C   UNL     1     137.411 137.826 133.115  1.00  0.00     0.055 C 
BRANCH  10  11
ATOM     11  C   UNL     1     136.784 138.546 131.949  1.00  0.00    -0.020 C 
ATOM     12  C   UNL     1     137.058 139.816 131.584  1.00  0.00    -0.055 C 
ATOM     13  C   UNL     1     138.078 140.659 132.315  1.00  0.00     0.044 C 
BRANCH  12  14
ATOM     14  C   UNL     1     136.382 140.348 130.371  1.00  0.00    -0.005 C 
ATOM     15  C   UNL     1     135.074 140.232 130.144  1.00  0.00     0.009 C 
ENDBRANCH  12  14
ENDBRANCH  10  11
ENDBRANCH   2  10
TORSDOF 6
ENDMDL
MODEL 4
REMARK VINA RESULT:    -4.148      3.736      6.706
REMARK INTER + INTRA:          -7.774
REMARK INTER:                  -5.582
REMARK INTRA:                  -2.193
REMARK UNBOUND:                -2.172
REMARK SMILES C=CC(C)=CCC=C(C)CCC=C(C)C
REMARK SMILES IDX 8 1 7 2 9 3 10 4 11 5 12 6 14 7 13 8 15 9 6 10 5 11 3 12
REMARK SMILES IDX 4 13 2 14 1 15
REMARK H PARENT
REMARK Flexibility Score: inf
ROOT
ATOM      1  C   UNL     1     140.196 138.550 131.308  1.00  0.00    -0.077 C 
ATOM      2  C   UNL     1     139.257 138.792 132.252  1.00  0.00    -0.024 C 
ATOM      3  C   UNL     1     141.094 137.352 131.483  1.00  0.00     0.039 C 
ENDROOT
BRANCH   1   4
ATOM      4  C   UNL     1     140.432 139.466 130.123  1.00  0.00     0.034 C 
BRANCH   4   5
ATOM      5  C   UNL     1     139.936 138.812 128.828  1.00  0.00     0.032 C 
BRANCH   5   6
ATOM      6  C   UNL     1     138.629 139.418 128.375  1.00  0.00    -0.028 C 
ATOM      7  C   UNL     1     136.199 139.478 128.003  1.00  0.00     0.039 C 
ATOM      8  C   UNL     1     137.444 138.782 128.487  1.00  0.00    -0.080 C 
ATOM      9  C   UNL     1     137.344 137.398 129.084  1.00  0.00     0.039 C 
ENDBRANCH   5   6
ENDBRANCH   4   5
ENDBRANCH   1   4
BRANCH   2  10
ATOM     10  C   UNL     1     138.283 139.944 132.228  1.00  0.00     0.055 C 
BRANCH  10  11
ATOM     11  C   UNL     1     136.859 139.458 132.138  1.00  0.00    -0.020 C 
ATOM     12  C   UNL     1     135.826 140.171 131.644  1.00  0.00    -0.055 C 
ATOM     13  C   UNL     1     136.008 141.563 131.082  1.00  0.00     0.044 C 
BRANCH  12  14
ATOM     14  C   UNL     1     134.495 139.511 131.584  1.00  0.00    -0.005 C 
ATOM     15  C   UNL     1     134.284 138.327 131.009  1.00  0.00     0.009 C 
ENDBRANCH  12  14
ENDBRANCH  10  11
ENDBRANCH   2  10
TORSDOF 6
ENDMDL
MODEL 5
REMARK VINA RESULT:    -4.129      3.664      4.974
REMARK INTER + INTRA:          -7.749
REMARK INTER:                  -5.441
REMARK INTRA:                  -2.308
REMARK UNBOUND:                -2.172
REMARK SMILES C=CC(C)=CCC=C(C)CCC=C(C)C
REMARK SMILES IDX 8 1 7 2 9 3 10 4 11 5 12 6 14 7 13 8 15 9 6 10 5 11 3 12
REMARK SMILES IDX 4 13 2 14 1 15
REMARK H PARENT
REMARK Flexibility Score: inf
ROOT
ATOM      1  C   UNL     1     135.450 140.192 131.277  1.00  0.00    -0.077 C 
ATOM      2  C   UNL     1     136.575 140.938 131.371  1.00  0.00    -0.024 C 
ATOM      3  C   UNL     1     134.482 140.495 130.163  1.00  0.00     0.039 C 
ENDROOT
BRANCH   1   4
ATOM      4  C   UNL     1     135.087 139.116 132.282  1.00  0.00     0.034 C 
BRANCH   4   5
ATOM      5  C   UNL     1     134.785 137.792 131.569  1.00  0.00     0.032 C 
BRANCH   5   6
ATOM      6  C   UNL     1     135.777 136.722 131.960  1.00  0.00    -0.028 C 
ATOM      7  C   UNL     1     137.785 135.328 131.697  1.00  0.00     0.039 C 
ATOM      8  C   UNL     1     136.858 136.413 131.214  1.00  0.00    -0.080 C 
ATOM      9  C   UNL     1     137.154 137.128 129.918  1.00  0.00     0.039 C 
ENDBRANCH   5   6
ENDBRANCH   4   5
ENDBRANCH   1   4
BRANCH   2  10
ATOM     10  C   UNL     1     137.644 140.766 132.422  1.00  0.00     0.055 C 
BRANCH  10  11
ATOM     11  C   UNL     1     138.759 139.878 131.933  1.00  0.00    -0.020 C 
ATOM     12  C   UNL     1     139.230 138.794 132.584  1.00  0.00    -0.055 C 
ATOM     13  C   UNL     1     138.644 138.330 133.898  1.00  0.00     0.044 C 
BRANCH  12  14
ATOM     14  C   UNL     1     140.303 138.003 131.925  1.00  0.00    -0.005 C 
ATOM     15  C   UNL     1     140.770 138.267 130.705  1.00  0.00     0.009 C 
ENDBRANCH  12  14
ENDBRANCH  10  11
ENDBRANCH   2  10
TORSDOF 6
ENDMDL
MODEL 6
REMARK VINA RESULT:    -4.129      3.085      4.814
REMARK INTER + INTRA:          -7.749
REMARK INTER:                  -5.580
REMARK INTRA:                  -2.169
REMARK UNBOUND:                -2.172
REMARK SMILES C=CC(C)=CCC=C(C)CCC=C(C)C
REMARK SMILES IDX 8 1 7 2 9 3 10 4 11 5 12 6 14 7 13 8 15 9 6 10 5 11 3 12
REMARK SMILES IDX 4 13 2 14 1 15
REMARK H PARENT
REMARK Flexibility Score: inf
ROOT
ATOM      1  C   UNL     1     138.593 133.492 131.046  1.00  0.00    -0.077 C 
ATOM      2  C   UNL     1     138.781 134.389 132.042  1.00  0.00    -0.024 C 
ATOM      3  C   UNL     1     137.420 132.551 131.144  1.00  0.00     0.039 C 
ENDROOT
BRANCH   1   4
ATOM      4  C   UNL     1     139.546 133.343 129.877  1.00  0.00     0.034 C 
BRANCH   4   5
ATOM      5  C   UNL     1     138.911 133.884 128.590  1.00  0.00     0.032 C 
BRANCH   5   6
ATOM      6  C   UNL     1     139.525 135.203 128.189  1.00  0.00    -0.028 C 
ATOM      7  C   UNL     1     139.585 137.642 127.878  1.00  0.00     0.039 C 
ATOM      8  C   UNL     1     138.879 136.382 128.309  1.00  0.00    -0.080 C 
ATOM      9  C   UNL     1     137.476 136.462 128.861  1.00  0.00     0.039 C 
ENDBRANCH   5   6
ENDBRANCH   4   5
ENDBRANCH   1   4
BRANCH   2  10
ATOM     10  C   UNL     1     139.902 135.397 132.097  1.00  0.00     0.055 C 
BRANCH  10  11
ATOM     11  C   UNL     1     139.385 136.804 131.940  1.00  0.00    -0.020 C 
ATOM     12  C   UNL     1     140.116 137.857 131.517  1.00  0.00    -0.055 C 
ATOM     13  C   UNL     1     141.567 137.716 131.115  1.00  0.00     0.044 C 
BRANCH  12  14
ATOM     14  C   UNL     1     139.425 139.165 131.371  1.00  0.00    -0.005 C 
ATOM     15  C   UNL     1     138.103 139.315 131.457  1.00  0.00     0.009 C 
ENDBRANCH  12  14
ENDBRANCH  10  11
ENDBRANCH   2  10
TORSDOF 6
ENDMDL
MODEL 7
REMARK VINA RESULT:    -4.127      2.641      4.555
REMARK INTER + INTRA:          -7.746
REMARK INTER:                  -5.455
REMARK INTRA:                  -2.291
REMARK UNBOUND:                -2.172
REMARK SMILES C=CC(C)=CCC=C(C)CCC=C(C)C
REMARK SMILES IDX 8 1 7 2 9 3 10 4 11 5 12 6 14 7 13 8 15 9 6 10 5 11 3 12
REMARK SMILES IDX 4 13 2 14 1 15
REMARK H PARENT
REMARK Flexibility Score: inf
ROOT
ATOM      1  C   UNL     1     133.526 135.457 131.278  1.00  0.00    -0.077 C 
ATOM      2  C   UNL     1     132.866 136.631 131.416  1.00  0.00    -0.024 C 
ATOM      3  C   UNL     1     133.107 134.528 130.168  1.00  0.00     0.039 C 
ENDROOT
BRANCH   1   4
ATOM      4  C   UNL     1     134.614 135.006 132.231  1.00  0.00     0.034 C 
BRANCH   4   5
ATOM      5  C   UNL     1     135.899 134.670 131.464  1.00  0.00     0.032 C 
BRANCH   5   6
ATOM      6  C   UNL     1     136.992 135.668 131.763  1.00  0.00    -0.028 C 
ATOM      7  C   UNL     1     138.380 137.657 131.356  1.00  0.00     0.039 C 
ATOM      8  C   UNL     1     137.266 136.720 130.963  1.00  0.00    -0.080 C 
ATOM      9  C   UNL     1     136.487 136.973 129.695  1.00  0.00     0.039 C 
ENDBRANCH   5   6
ENDBRANCH   4   5
ENDBRANCH   1   4
BRANCH   2  10
ATOM     10  C   UNL     1     133.159 137.670 132.470  1.00  0.00     0.055 C 
BRANCH  10  11
ATOM     11  C   UNL     1     133.994 138.796 131.917  1.00  0.00    -0.020 C 
ATOM     12  C   UNL     1     135.127 139.269 132.477  1.00  0.00    -0.055 C 
ATOM     13  C   UNL     1     135.706 138.675 133.741  1.00  0.00     0.044 C 
BRANCH  12  14
ATOM     14  C   UNL     1     135.852 140.352 131.762  1.00  0.00    -0.005 C 
ATOM     15  C   UNL     1     135.493 140.815 130.565  1.00  0.00     0.009 C 
ENDBRANCH  12  14
ENDBRANCH  10  11
ENDBRANCH   2  10
TORSDOF 6
ENDMDL
MODEL 8
REMARK VINA RESULT:    -4.104      2.031      3.691
REMARK INTER + INTRA:          -7.716
REMARK INTER:                  -5.684
REMARK INTRA:                  -2.032
REMARK UNBOUND:                -2.172
REMARK SMILES C=CC(C)=CCC=C(C)CCC=C(C)C
REMARK SMILES IDX 8 1 7 2 9 3 10 4 11 5 12 6 14 7 13 8 15 9 6 10 5 11 3 12
REMARK SMILES IDX 4 13 2 14 1 15
REMARK H PARENT
REMARK Flexibility Score: inf
ROOT
ATOM      1  C   UNL     1     136.339 134.313 132.354  1.00  0.00    -0.077 C 
ATOM      2  C   UNL     1     136.515 135.638 132.571  1.00  0.00    -0.024 C 
ATOM      3  C   UNL     1     134.984 133.838 131.897  1.00  0.00     0.039 C 
ENDROOT
BRANCH   1   4
ATOM      4  C   UNL     1     137.418 133.283 132.618  1.00  0.00     0.034 C 
BRANCH   4   5
ATOM      5  C   UNL     1     137.720 132.479 131.347  1.00  0.00     0.032 C 
BRANCH   5   6
ATOM      6  C   UNL     1     138.711 133.201 130.467  1.00  0.00    -0.028 C 
ATOM      7  C   UNL     1     139.443 134.460 128.485  1.00  0.00     0.039 C 
ATOM      8  C   UNL     1     138.374 133.763 129.287  1.00  0.00    -0.080 C 
ATOM      9  C   UNL     1     136.960 133.706 128.760  1.00  0.00     0.039 C 
ENDBRANCH   5   6
ENDBRANCH   4   5
ENDBRANCH   1   4
BRANCH   2  10
ATOM     10  C   UNL     1     137.803 136.276 133.030  1.00  0.00     0.055 C 
BRANCH  10  11
ATOM     11  C   UNL     1     138.526 136.940 131.886  1.00  0.00    -0.020 C 
ATOM     12  C   UNL     1     139.826 136.752 131.576  1.00  0.00    -0.055 C 
ATOM     13  C   UNL     1     140.707 135.800 132.354  1.00  0.00     0.044 C 
BRANCH  12  14
ATOM     14  C   UNL     1     140.359 137.450 130.377  1.00  0.00    -0.005 C 
ATOM     15  C   UNL     1     140.048 138.706 130.055  1.00  0.00     0.009 C 
ENDBRANCH  12  14
ENDBRANCH  10  11
ENDBRANCH   2  10
TORSDOF 6
ENDMDL
MODEL 9
REMARK VINA RESULT:    -4.071      2.529      5.303
REMARK INTER + INTRA:          -7.671
REMARK INTER:                  -5.322
REMARK INTRA:                  -2.349
REMARK UNBOUND:                -2.172
REMARK SMILES C=CC(C)=CCC=C(C)CCC=C(C)C
REMARK SMILES IDX 8 1 7 2 9 3 10 4 11 5 12 6 14 7 13 8 15 9 6 10 5 11 3 12
REMARK SMILES IDX 4 13 2 14 1 15
REMARK H PARENT
REMARK Flexibility Score: inf
ROOT
ATOM      1  C   UNL     1     140.228 138.454 131.109  1.00  0.00    -0.077 C 
ATOM      2  C   UNL     1     140.978 137.340 131.279  1.00  0.00    -0.024 C 
ATOM      3  C   UNL     1     140.518 139.334 129.921  1.00  0.00     0.039 C 
ENDROOT
BRANCH   1   4
ATOM      4  C   UNL     1     139.163 138.891 132.094  1.00  0.00     0.034 C 
BRANCH   4   5
ATOM      5  C   UNL     1     137.837 139.162 131.371  1.00  0.00     0.032 C 
BRANCH   5   6
ATOM      6  C   UNL     1     136.785 138.152 131.762  1.00  0.00    -0.028 C 
ATOM      7  C   UNL     1     135.437 136.111 131.506  1.00  0.00     0.039 C 
ATOM      8  C   UNL     1     136.508 137.056 131.025  1.00  0.00    -0.080 C 
ATOM      9  C   UNL     1     137.244 136.761 129.740  1.00  0.00     0.039 C 
ENDBRANCH   5   6
ENDBRANCH   4   5
ENDBRANCH   1   4
BRANCH   2  10
ATOM     10  C   UNL     1     140.819 136.355 132.412  1.00  0.00     0.055 C 
BRANCH  10  11
ATOM     11  C   UNL     1     139.954 135.188 132.008  1.00  0.00    -0.020 C 
ATOM     12  C   UNL     1     138.859 134.767 132.675  1.00  0.00    -0.055 C 
ATOM     13  C   UNL     1     138.357 135.469 133.917  1.00  0.00     0.044 C 
BRANCH  12  14
ATOM     14  C   UNL     1     138.095 133.629 132.101  1.00  0.00    -0.005 C 
ATOM     15  C   UNL     1     138.236 133.203 130.846  1.00  0.00     0.009 C 
ENDBRANCH  12  14
ENDBRANCH  10  11
ENDBRANCH   2  10
TORSDOF 6
ENDMDL
