MODEL 1
REMARK VINA RESULT:    -2.273      0.000      0.000
REMARK INTER + INTRA:          -2.273
REMARK INTER:                  -2.273
REMARK INTRA:                   0.000
REMARK UNBOUND:                 0.000
REMARK SMILES CC(=O)[O-]
REMARK SMILES IDX 1 1 2 2 3 3 4 4
REMARK H PARENT
REMARK Flexibility Score: inf
ROOT
ATOM      1  C   UNL     1       5.518  -4.260  -5.776  1.00  0.00     0.063 C 
ATOM      2  C   UNL     1       6.749  -4.101  -4.949  1.00  0.00     0.038 C 
ATOM      3  O   UNL     1       7.353  -2.996  -4.922  1.00  0.00    -0.550 OA
ATOM      4  O   UNL     1       7.203  -5.153  -4.165  1.00  0.00    -0.550 OA
ENDROOT
TORSDOF 0
ENDMDL
MODEL 2
REMARK VINA RESULT:    -2.258      4.613      5.035
REMARK INTER + INTRA:          -2.258
REMARK INTER:                  -2.258
REMARK INTRA:                   0.000
REMARK UNBOUND:                 0.000
REMARK SMILES CC(=O)[O-]
REMARK SMILES IDX 1 1 2 2 3 3 4 4
REMARK H PARENT
REMARK Flexibility Score: inf
ROOT
ATOM      1  C   UNL     1       5.684  -0.961  -5.648  1.00  0.00     0.063 C 
ATOM      2  C   UNL     1       4.963   0.297  -5.304  1.00  0.00     0.038 C 
ATOM      3  O   UNL     1       3.965   0.660  -5.981  1.00  0.00    -0.550 OA
ATOM      4  O   UNL     1       5.356   1.047  -4.203  1.00  0.00    -0.550 OA
ENDROOT
TORSDOF 0
ENDMDL
MODEL 3
REMARK VINA RESULT:    -2.247      4.607      5.099
REMARK INTER + INTRA:          -2.247
REMARK INTER:                  -2.247
REMARK INTRA:                   0.000
REMARK UNBOUND:                 0.000
REMARK SMILES CC(=O)[O-]
REMARK SMILES IDX 1 1 2 2 3 3 4 4
REMARK H PARENT
REMARK Flexibility Score: inf
ROOT
ATOM      1  C   UNL     1       5.686  -0.930  -5.617  1.00  0.00     0.063 C 
ATOM      2  C   UNL     1       4.964   0.326  -5.261  1.00  0.00     0.038 C 
ATOM      3  O   UNL     1       5.347   1.019  -4.282  1.00  0.00    -0.550 OA
ATOM      4  O   UNL     1       3.901   0.763  -6.040  1.00  0.00    -0.550 OA
ENDROOT
TORSDOF 0
ENDMDL
MODEL 4
REMARK VINA RESULT:    -2.202      4.559      5.145
REMARK INTER + INTRA:          -2.202
REMARK INTER:                  -2.202
REMARK INTRA:                   0.000
REMARK UNBOUND:                 0.000
REMARK SMILES CC(=O)[O-]
REMARK SMILES IDX 1 1 2 2 3 3 4 4
REMARK H PARENT
REMARK Flexibility Score: inf
ROOT
ATOM      1  C   UNL     1       4.077   1.059  -6.410  1.00  0.00     0.063 C 
ATOM      2  C   UNL     1       4.815   0.325  -5.343  1.00  0.00     0.038 C 
ATOM      3  O   UNL     1       4.990  -0.919  -5.436  1.00  0.00    -0.550 OA
ATOM      4  O   UNL     1       5.359   1.018  -4.269  1.00  0.00    -0.550 OA
ENDROOT
TORSDOF 0
ENDMDL
MODEL 5
REMARK VINA RESULT:    -2.173     11.625     12.051
REMARK INTER + INTRA:          -2.173
REMARK INTER:                  -2.173
REMARK INTRA:                   0.000
REMARK UNBOUND:                 0.000
REMARK SMILES CC(=O)[O-]
REMARK SMILES IDX 1 1 2 2 3 3 4 4
REMARK H PARENT
REMARK Flexibility Score: inf
ROOT
ATOM      1  C   UNL     1      -0.167  -9.645   3.053  1.00  0.00     0.063 C 
ATOM      2  C   UNL     1      -1.171  -8.586   2.747  1.00  0.00     0.038 C 
ATOM      3  O   UNL     1      -2.324  -8.643   3.251  1.00  0.00    -0.550 OA
ATOM      4  O   UNL     1      -0.822  -7.505   1.947  1.00  0.00    -0.550 OA
ENDROOT
TORSDOF 0
ENDMDL
MODEL 6
REMARK VINA RESULT:    -2.170      4.409      4.829
REMARK INTER + INTRA:          -2.170
REMARK INTER:                  -2.170
REMARK INTRA:                   0.000
REMARK UNBOUND:                 0.000
REMARK SMILES CC(=O)[O-]
REMARK SMILES IDX 1 1 2 2 3 3 4 4
REMARK H PARENT
REMARK Flexibility Score: inf
ROOT
ATOM      1  C   UNL     1       4.193   0.793  -6.175  1.00  0.00     0.063 C 
ATOM      2  C   UNL     1       5.228   0.396  -5.179  1.00  0.00     0.038 C 
ATOM      3  O   UNL     1       5.412   1.093  -4.145  1.00  0.00    -0.550 OA
ATOM      4  O   UNL     1       5.957  -0.773  -5.359  1.00  0.00    -0.550 OA
ENDROOT
TORSDOF 0
ENDMDL
MODEL 7
REMARK VINA RESULT:    -2.124      4.598      5.259
REMARK INTER + INTRA:          -2.124
REMARK INTER:                  -2.124
REMARK INTRA:                   0.000
REMARK UNBOUND:                 0.000
REMARK SMILES CC(=O)[O-]
REMARK SMILES IDX 1 1 2 2 3 3 4 4
REMARK H PARENT
REMARK Flexibility Score: inf
ROOT
ATOM      1  C   UNL     1       5.537   0.895  -4.465  1.00  0.00     0.063 C 
ATOM      2  C   UNL     1       4.755   0.112  -5.465  1.00  0.00     0.038 C 
ATOM      3  O   UNL     1       4.954  -1.126  -5.594  1.00  0.00    -0.550 OA
ATOM      4  O   UNL     1       3.770   0.733  -6.221  1.00  0.00    -0.550 OA
ENDROOT
TORSDOF 0
ENDMDL
MODEL 8
REMARK VINA RESULT:    -2.112     13.149     13.646
REMARK INTER + INTRA:          -2.112
REMARK INTER:                  -2.112
REMARK INTRA:                   0.000
REMARK UNBOUND:                 0.000
REMARK SMILES CC(=O)[O-]
REMARK SMILES IDX 1 1 2 2 3 3 4 4
REMARK H PARENT
REMARK Flexibility Score: inf
ROOT
ATOM      1  C   UNL     1       5.213   9.174  -1.550  1.00  0.00     0.063 C 
ATOM      2  C   UNL     1       5.199   8.451  -0.246  1.00  0.00     0.038 C 
ATOM      3  O   UNL     1       6.053   7.556  -0.010  1.00  0.00    -0.550 OA
ATOM      4  O   UNL     1       4.277   8.798   0.733  1.00  0.00    -0.550 OA
ENDROOT
TORSDOF 0
ENDMDL
MODEL 9
REMARK VINA RESULT:    -2.082     16.810     17.142
REMARK INTER + INTRA:          -2.082
REMARK INTER:                  -2.082
REMARK INTRA:                   0.000
REMARK UNBOUND:                 0.000
REMARK SMILES CC(=O)[O-]
REMARK SMILES IDX 1 1 2 2 3 3 4 4
REMARK H PARENT
REMARK Flexibility Score: inf
ROOT
ATOM      1  C   UNL     1      -0.483  10.125   3.927  1.00  0.00     0.063 C 
ATOM      2  C   UNL     1       0.294   8.856   4.022  1.00  0.00     0.038 C 
ATOM      3  O   UNL     1      -0.129   7.908   4.735  1.00  0.00    -0.550 OA
ATOM      4  O   UNL     1       1.460   8.695   3.284  1.00  0.00    -0.550 OA
ENDROOT
TORSDOF 0
ENDMDL
