MODEL 1
REMARK VINA RESULT:    -3.004      0.000      0.000
REMARK INTER + INTRA:          -6.307
REMARK INTER:                  -5.112
REMARK INTRA:                  -1.195
REMARK UNBOUND:                -1.195
REMARK SMILES CCCCCCCCCCCCCC(=O)[O-]
REMARK SMILES IDX 8 1 9 2 10 3 11 4 12 5 13 6 14 7 15 8 16 9 7 10 6 11 5 12
REMARK SMILES IDX 4 13 3 14 2 15 1 16
REMARK H PARENT
REMARK Flexibility Score: inf
ROOT
ATOM      1  C   UNL     1      -9.299  17.027 -12.900  1.00  0.00     0.000 C 
ENDROOT
BRANCH   1   2
ATOM      2  C   UNL     1      -8.813  16.066 -11.797  1.00  0.00     0.000 C 
BRANCH   2   3
ATOM      3  C   UNL     1      -7.413  15.469 -12.025  1.00  0.00     0.000 C 
BRANCH   3   4
ATOM      4  C   UNL     1      -7.457  14.008 -12.498  1.00  0.00     0.000 C 
BRANCH   4   5
ATOM      5  C   UNL     1      -7.892  13.919 -13.966  1.00  0.00     0.006 C 
BRANCH   5   6
ATOM      6  C   UNL     1      -7.016  12.928 -14.739  1.00  0.00     0.053 C 
BRANCH   6   7
ATOM      7  C   UNL     1      -5.577  13.104 -14.371  1.00  0.00     0.041 C 
ATOM      8  O   UNL     1      -5.000  12.252 -13.644  1.00  0.00    -0.550 OA
ATOM      9  O   UNL     1      -4.886  14.234 -14.787  1.00  0.00    -0.550 OA
ENDBRANCH   6   7
ENDBRANCH   5   6
ENDBRANCH   4   5
ENDBRANCH   3   4
ENDBRANCH   2   3
ENDBRANCH   1   2
BRANCH   1  10
ATOM     10  C   UNL     1      -8.203  17.915 -13.525  1.00  0.00     0.000 C 
BRANCH  10  11
ATOM     11  C   UNL     1      -7.676  17.428 -14.886  1.00  0.00    -0.000 C 
BRANCH  11  12
ATOM     12  C   UNL     1      -6.139  17.430 -14.964  1.00  0.00    -0.000 C 
BRANCH  12  13
ATOM     13  C   UNL     1      -5.512  18.605 -14.197  1.00  0.00    -0.000 C 
BRANCH  13  14
ATOM     14  C   UNL     1      -5.522  19.911 -15.008  1.00  0.00    -0.000 C 
BRANCH  14  15
ATOM     15  C   UNL     1      -5.990  21.116 -14.177  1.00  0.00    -0.003 C 
ATOM     16  C   UNL     1      -6.040  20.816 -12.679  1.00  0.00     0.004 C 
ENDBRANCH  14  15
ENDBRANCH  13  14
ENDBRANCH  12  13
ENDBRANCH  11  12
ENDBRANCH  10  11
ENDBRANCH   1  10
TORSDOF 12
ENDMDL
MODEL 2
REMARK VINA RESULT:    -2.864      1.223      1.996
REMARK INTER + INTRA:          -6.068
REMARK INTER:                  -5.099
REMARK INTRA:                  -0.970
REMARK UNBOUND:                -1.195
REMARK SMILES CCCCCCCCCCCCCC(=O)[O-]
REMARK SMILES IDX 8 1 9 2 10 3 11 4 12 5 13 6 14 7 15 8 16 9 7 10 6 11 5 12
REMARK SMILES IDX 4 13 3 14 2 15 1 16
REMARK H PARENT
REMARK Flexibility Score: inf
ROOT
ATOM      1  C   UNL     1      -8.753  16.701 -12.101  1.00  0.00     0.000 C 
ENDROOT
BRANCH   1   2
ATOM      2  C   UNL     1      -7.769  15.700 -12.739  1.00  0.00     0.000 C 
BRANCH   2   3
ATOM      3  C   UNL     1      -8.407  14.688 -13.707  1.00  0.00     0.000 C 
BRANCH   3   4
ATOM      4  C   UNL     1      -7.378  14.008 -14.623  1.00  0.00     0.000 C 
BRANCH   4   5
ATOM      5  C   UNL     1      -6.284  14.995 -15.047  1.00  0.00     0.006 C 
BRANCH   5   6
ATOM      6  C   UNL     1      -4.891  14.432 -14.748  1.00  0.00     0.053 C 
BRANCH   6   7
ATOM      7  C   UNL     1      -4.995  13.052 -14.180  1.00  0.00     0.041 C 
ATOM      8  O   UNL     1      -5.146  12.886 -12.941  1.00  0.00    -0.550 OA
ATOM      9  O   UNL     1      -4.876  11.947 -15.013  1.00  0.00    -0.550 OA
ENDBRANCH   6   7
ENDBRANCH   5   6
ENDBRANCH   4   5
ENDBRANCH   3   4
ENDBRANCH   2   3
ENDBRANCH   1   2
BRANCH   1  10
ATOM     10  C   UNL     1      -8.604  18.161 -12.575  1.00  0.00     0.000 C 
BRANCH  10  11
ATOM     11  C   UNL     1      -8.447  18.334 -14.096  1.00  0.00    -0.000 C 
BRANCH  11  12
ATOM     12  C   UNL     1      -7.816  19.683 -14.480  1.00  0.00    -0.000 C 
BRANCH  12  13
ATOM     13  C   UNL     1      -7.062  20.334 -13.310  1.00  0.00    -0.000 C 
BRANCH  13  14
ATOM     14  C   UNL     1      -5.574  20.568 -13.624  1.00  0.00    -0.000 C 
BRANCH  14  15
ATOM     15  C   UNL     1      -4.954  19.414 -14.427  1.00  0.00    -0.003 C 
ATOM     16  C   UNL     1      -4.875  18.114 -13.627  1.00  0.00     0.004 C 
ENDBRANCH  14  15
ENDBRANCH  13  14
ENDBRANCH  12  13
ENDBRANCH  11  12
ENDBRANCH  10  11
ENDBRANCH   1  10
TORSDOF 12
ENDMDL
MODEL 3
REMARK VINA RESULT:    -2.803      2.923      5.971
REMARK INTER + INTRA:          -5.963
REMARK INTER:                  -4.494
REMARK INTRA:                  -1.469
REMARK UNBOUND:                -1.195
REMARK SMILES CCCCCCCCCCCCCC(=O)[O-]
REMARK SMILES IDX 8 1 9 2 10 3 11 4 12 5 13 6 14 7 15 8 16 9 7 10 6 11 5 12
REMARK SMILES IDX 4 13 3 14 2 15 1 16
REMARK H PARENT
REMARK Flexibility Score: inf
ROOT
ATOM      1  C   UNL     1      -8.464  17.260 -12.778  1.00  0.00     0.000 C 
ENDROOT
BRANCH   1   2
ATOM      2  C   UNL     1      -8.523  17.403 -14.312  1.00  0.00     0.000 C 
BRANCH   2   3
ATOM      3  C   UNL     1      -7.196  17.807 -14.979  1.00  0.00     0.000 C 
BRANCH   3   4
ATOM      4  C   UNL     1      -5.972  17.508 -14.100  1.00  0.00     0.000 C 
BRANCH   4   5
ATOM      5  C   UNL     1      -4.996  18.691 -14.096  1.00  0.00     0.006 C 
BRANCH   5   6
ATOM      6  C   UNL     1      -5.716  19.997 -14.447  1.00  0.00     0.053 C 
BRANCH   6   7
ATOM      7  C   UNL     1      -6.384  20.568 -13.236  1.00  0.00     0.041 C 
ATOM      8  O   UNL     1      -7.597  20.903 -13.281  1.00  0.00    -0.550 OA
ATOM      9  O   UNL     1      -5.655  20.776 -12.073  1.00  0.00    -0.550 OA
ENDBRANCH   6   7
ENDBRANCH   5   6
ENDBRANCH   4   5
ENDBRANCH   3   4
ENDBRANCH   2   3
ENDBRANCH   1   2
BRANCH   1  10
ATOM     10  C   UNL     1      -8.893  15.883 -12.232  1.00  0.00     0.000 C 
BRANCH  10  11
ATOM     11  C   UNL     1      -7.788  15.108 -11.493  1.00  0.00    -0.000 C 
BRANCH  11  12
ATOM     12  C   UNL     1      -6.682  14.605 -12.437  1.00  0.00    -0.000 C 
BRANCH  12  13
ATOM     13  C   UNL     1      -6.785  13.097 -12.714  1.00  0.00    -0.000 C 
BRANCH  13  14
ATOM     14  C   UNL     1      -6.584  12.756 -14.201  1.00  0.00    -0.000 C 
BRANCH  14  15
ATOM     15  C   UNL     1      -7.468  13.609 -15.124  1.00  0.00    -0.003 C 
ATOM     16  C   UNL     1      -8.931  13.164 -15.117  1.00  0.00     0.004 C 
ENDBRANCH  14  15
ENDBRANCH  13  14
ENDBRANCH  12  13
ENDBRANCH  11  12
ENDBRANCH  10  11
ENDBRANCH   1  10
TORSDOF 12
ENDMDL
MODEL 4
REMARK VINA RESULT:    -2.772      2.283      3.629
REMARK INTER + INTRA:          -5.912
REMARK INTER:                  -4.638
REMARK INTRA:                  -1.273
REMARK UNBOUND:                -1.195
REMARK SMILES CCCCCCCCCCCCCC(=O)[O-]
REMARK SMILES IDX 8 1 9 2 10 3 11 4 12 5 13 6 14 7 15 8 16 9 7 10 6 11 5 12
REMARK SMILES IDX 4 13 3 14 2 15 1 16
REMARK H PARENT
REMARK Flexibility Score: inf
ROOT
ATOM      1  C   UNL     1      -5.835  13.751 -14.724  1.00  0.00     0.000 C 
ENDROOT
BRANCH   1   2
ATOM      2  C   UNL     1      -7.349  14.045 -14.709  1.00  0.00     0.000 C 
BRANCH   2   3
ATOM      3  C   UNL     1      -8.105  13.496 -13.486  1.00  0.00     0.000 C 
BRANCH   3   4
ATOM      4  C   UNL     1      -7.416  13.837 -12.156  1.00  0.00     0.000 C 
BRANCH   4   5
ATOM      5  C   UNL     1      -7.490  15.341 -11.868  1.00  0.00     0.006 C 
BRANCH   5   6
ATOM      6  C   UNL     1      -8.855  15.910 -12.270  1.00  0.00     0.053 C 
BRANCH   6   7
ATOM      7  C   UNL     1      -8.685  17.188 -13.029  1.00  0.00     0.041 C 
ATOM      8  O   UNL     1      -8.216  18.207 -12.457  1.00  0.00    -0.550 OA
ATOM      9  O   UNL     1      -9.092  17.269 -14.354  1.00  0.00    -0.550 OA
ENDBRANCH   6   7
ENDBRANCH   5   6
ENDBRANCH   4   5
ENDBRANCH   3   4
ENDBRANCH   2   3
ENDBRANCH   1   2
BRANCH   1  10
ATOM     10  C   UNL     1      -4.927  14.985 -14.545  1.00  0.00     0.000 C 
BRANCH  10  11
ATOM     11  C   UNL     1      -5.496  16.295 -15.116  1.00  0.00    -0.000 C 
BRANCH  11  12
ATOM     12  C   UNL     1      -5.324  17.486 -14.158  1.00  0.00    -0.000 C 
BRANCH  12  13
ATOM     13  C   UNL     1      -5.164  18.822 -14.901  1.00  0.00    -0.000 C 
BRANCH  13  14
ATOM     14  C   UNL     1      -4.875  19.995 -13.949  1.00  0.00    -0.000 C 
BRANCH  14  15
ATOM     15  C   UNL     1      -5.990  21.052 -13.963  1.00  0.00    -0.003 C 
ATOM     16  C   UNL     1      -7.187  20.636 -14.818  1.00  0.00     0.004 C 
ENDBRANCH  14  15
ENDBRANCH  13  14
ENDBRANCH  12  13
ENDBRANCH  11  12
ENDBRANCH  10  11
ENDBRANCH   1  10
TORSDOF 12
ENDMDL
MODEL 5
REMARK VINA RESULT:    -2.606      2.155      3.491
REMARK INTER + INTRA:          -5.628
REMARK INTER:                  -5.242
REMARK INTRA:                  -0.387
REMARK UNBOUND:                -1.195
REMARK SMILES CCCCCCCCCCCCCC(=O)[O-]
REMARK SMILES IDX 8 1 9 2 10 3 11 4 12 5 13 6 14 7 15 8 16 9 7 10 6 11 5 12
REMARK SMILES IDX 4 13 3 14 2 15 1 16
REMARK H PARENT
REMARK Flexibility Score: inf
ROOT
ATOM      1  C   UNL     1      -5.049  14.876 -14.935  1.00  0.00     0.000 C 
ENDROOT
BRANCH   1   2
ATOM      2  C   UNL     1      -5.724  13.748 -14.131  1.00  0.00     0.000 C 
BRANCH   2   3
ATOM      3  C   UNL     1      -6.541  12.750 -14.970  1.00  0.00     0.000 C 
BRANCH   3   4
ATOM      4  C   UNL     1      -8.055  12.994 -14.881  1.00  0.00     0.000 C 
BRANCH   4   5
ATOM      5  C   UNL     1      -8.354  14.421 -14.409  1.00  0.00     0.006 C 
BRANCH   5   6
ATOM      6  C   UNL     1      -8.087  14.571 -12.908  1.00  0.00     0.053 C 
BRANCH   6   7
ATOM      7  C   UNL     1      -8.457  15.944 -12.445  1.00  0.00     0.041 C 
ATOM      8  O   UNL     1      -7.772  16.519 -11.558  1.00  0.00    -0.550 OA
ATOM      9  O   UNL     1      -9.586  16.570 -12.956  1.00  0.00    -0.550 OA
ENDBRANCH   6   7
ENDBRANCH   5   6
ENDBRANCH   4   5
ENDBRANCH   3   4
ENDBRANCH   2   3
ENDBRANCH   1   2
BRANCH   1  10
ATOM     10  C   UNL     1      -4.919  16.222 -14.194  1.00  0.00     0.000 C 
BRANCH  10  11
ATOM     11  C   UNL     1      -5.326  17.456 -15.018  1.00  0.00    -0.000 C 
BRANCH  11  12
ATOM     12  C   UNL     1      -6.852  17.624 -15.125  1.00  0.00    -0.000 C 
BRANCH  12  13
ATOM     13  C   UNL     1      -7.297  19.086 -14.963  1.00  0.00    -0.000 C 
BRANCH  13  14
ATOM     14  C   UNL     1      -7.646  19.438 -13.507  1.00  0.00    -0.000 C 
BRANCH  14  15
ATOM     15  C   UNL     1      -6.912  20.694 -13.013  1.00  0.00    -0.003 C 
ATOM     16  C   UNL     1      -5.560  20.895 -13.699  1.00  0.00     0.004 C 
ENDBRANCH  14  15
ENDBRANCH  13  14
ENDBRANCH  12  13
ENDBRANCH  11  12
ENDBRANCH  10  11
ENDBRANCH   1  10
TORSDOF 12
ENDMDL
MODEL 6
REMARK VINA RESULT:    -2.491      2.800      5.630
REMARK INTER + INTRA:          -5.432
REMARK INTER:                  -4.896
REMARK INTRA:                  -0.536
REMARK UNBOUND:                -1.195
REMARK SMILES CCCCCCCCCCCCCC(=O)[O-]
REMARK SMILES IDX 8 1 9 2 10 3 11 4 12 5 13 6 14 7 15 8 16 9 7 10 6 11 5 12
REMARK SMILES IDX 4 13 3 14 2 15 1 16
REMARK H PARENT
REMARK Flexibility Score: inf
ROOT
ATOM      1  C   UNL     1      -5.610  13.273 -15.115  1.00  0.00     0.000 C 
ENDROOT
BRANCH   1   2
ATOM      2  C   UNL     1      -4.907  14.607 -14.794  1.00  0.00     0.000 C 
BRANCH   2   3
ATOM      3  C   UNL     1      -5.750  15.867 -15.063  1.00  0.00     0.000 C 
BRANCH   3   4
ATOM      4  C   UNL     1      -5.286  17.081 -14.244  1.00  0.00     0.000 C 
BRANCH   4   5
ATOM      5  C   UNL     1      -5.188  18.332 -15.125  1.00  0.00     0.006 C 
BRANCH   5   6
ATOM      6  C   UNL     1      -5.002  19.591 -14.272  1.00  0.00     0.053 C 
BRANCH   6   7
ATOM      7  C   UNL     1      -6.321  20.080 -13.765  1.00  0.00     0.041 C 
ATOM      8  O   UNL     1      -7.250  20.348 -14.573  1.00  0.00    -0.550 OA
ATOM      9  O   UNL     1      -6.511  20.289 -12.406  1.00  0.00    -0.550 OA
ENDBRANCH   6   7
ENDBRANCH   5   6
ENDBRANCH   4   5
ENDBRANCH   3   4
ENDBRANCH   2   3
ENDBRANCH   1   2
BRANCH   1  10
ATOM     10  C   UNL     1      -7.151  13.330 -15.125  1.00  0.00     0.000 C 
BRANCH  10  11
ATOM     11  C   UNL     1      -7.780  14.051 -13.920  1.00  0.00    -0.000 C 
BRANCH  11  12
ATOM     12  C   UNL     1      -7.396  13.409 -12.575  1.00  0.00    -0.000 C 
BRANCH  12  13
ATOM     13  C   UNL     1      -7.500  14.395 -11.401  1.00  0.00    -0.000 C 
BRANCH  13  14
ATOM     14  C   UNL     1      -7.529  15.861 -11.863  1.00  0.00    -0.000 C 
BRANCH  14  15
ATOM     15  C   UNL     1      -8.953  16.355 -12.165  1.00  0.00    -0.003 C 
ATOM     16  C   UNL     1      -8.982  17.459 -13.222  1.00  0.00     0.004 C 
ENDBRANCH  14  15
ENDBRANCH  13  14
ENDBRANCH  12  13
ENDBRANCH  11  12
ENDBRANCH  10  11
ENDBRANCH   1  10
TORSDOF 12
ENDMDL
MODEL 7
REMARK VINA RESULT:    -2.327      2.811      5.929
REMARK INTER + INTRA:          -5.154
REMARK INTER:                  -4.556
REMARK INTRA:                  -0.597
REMARK UNBOUND:                -1.195
REMARK SMILES CCCCCCCCCCCCCC(=O)[O-]
REMARK SMILES IDX 8 1 9 2 10 3 11 4 12 5 13 6 14 7 15 8 16 9 7 10 6 11 5 12
REMARK SMILES IDX 4 13 3 14 2 15 1 16
REMARK H PARENT
REMARK Flexibility Score: inf
ROOT
ATOM      1  C   UNL     1      -6.535  15.796 -15.125  1.00  0.00     0.000 C 
ENDROOT
BRANCH   1   2
ATOM      2  C   UNL     1      -5.809  16.766 -14.172  1.00  0.00     0.000 C 
BRANCH   2   3
ATOM      3  C   UNL     1      -4.911  17.807 -14.864  1.00  0.00     0.000 C 
BRANCH   3   4
ATOM      4  C   UNL     1      -5.120  19.229 -14.323  1.00  0.00     0.000 C 
BRANCH   4   5
ATOM      5  C   UNL     1      -6.198  19.969 -15.124  1.00  0.00     0.006 C 
BRANCH   5   6
ATOM      6  C   UNL     1      -7.571  19.828 -14.459  1.00  0.00     0.053 C 
BRANCH   6   7
ATOM      7  C   UNL     1      -7.457  20.019 -12.980  1.00  0.00     0.041 C 
ATOM      8  O   UNL     1      -6.651  20.865 -12.511  1.00  0.00    -0.550 OA
ATOM      9  O   UNL     1      -8.205  19.229 -12.117  1.00  0.00    -0.550 OA
ENDBRANCH   6   7
ENDBRANCH   5   6
ENDBRANCH   4   5
ENDBRANCH   3   4
ENDBRANCH   2   3
ENDBRANCH   1   2
BRANCH   1  10
ATOM     10  C   UNL     1      -6.029  14.340 -15.088  1.00  0.00     0.000 C 
BRANCH  10  11
ATOM     11  C   UNL     1      -7.135  13.270 -15.091  1.00  0.00    -0.000 C 
BRANCH  11  12
ATOM     12  C   UNL     1      -7.851  13.151 -13.735  1.00  0.00    -0.000 C 
BRANCH  12  13
ATOM     13  C   UNL     1      -6.906  13.393 -12.547  1.00  0.00    -0.000 C 
BRANCH  13  14
ATOM     14  C   UNL     1      -7.578  14.184 -11.411  1.00  0.00    -0.000 C 
BRANCH  14  15
ATOM     15  C   UNL     1      -7.754  15.671 -11.754  1.00  0.00    -0.003 C 
ATOM     16  C   UNL     1      -9.167  16.002 -12.235  1.00  0.00     0.004 C 
ENDBRANCH  14  15
ENDBRANCH  13  14
ENDBRANCH  12  13
ENDBRANCH  11  12
ENDBRANCH  10  11
ENDBRANCH   1  10
TORSDOF 12
ENDMDL
