MODEL 1
REMARK VINA RESULT:    -4.542      0.000      0.000
REMARK INTER + INTRA:          -7.935
REMARK INTER:                  -6.932
REMARK INTRA:                  -1.003
REMARK UNBOUND:                -1.003
REMARK SMILES CCCCCCCCCCC(=O)[O-]
REMARK SMILES IDX 7 1 8 2 9 3 10 4 11 5 12 6 13 7 6 8 5 9 4 10 3 11 2 12 1 13
REMARK H PARENT
REMARK Flexibility Score: inf
ROOT
ATOM      1  C   UNL     1       8.462  19.457  30.611  1.00  0.00     0.000 C 
ENDROOT
BRANCH   1   2
ATOM      2  C   UNL     1       9.549  18.414  30.315  1.00  0.00     0.000 C 
BRANCH   2   3
ATOM      3  C   UNL     1       9.902  17.555  31.543  1.00  0.00     0.006 C 
BRANCH   3   4
ATOM      4  C   UNL     1       9.275  18.043  32.858  1.00  0.00     0.053 C 
BRANCH   4   5
ATOM      5  C   UNL     1      10.082  17.631  34.050  1.00  0.00     0.041 C 
ATOM      6  O   UNL     1      11.284  17.990  34.156  1.00  0.00    -0.550 OA
ATOM      7  O   UNL     1       9.496  16.880  35.061  1.00  0.00    -0.550 OA
ENDBRANCH   4   5
ENDBRANCH   3   4
ENDBRANCH   2   3
ENDBRANCH   1   2
BRANCH   1   8
ATOM      8  C   UNL     1       8.176  20.319  29.376  1.00  0.00     0.000 C 
BRANCH   8   9
ATOM      9  C   UNL     1       7.925  21.781  29.768  1.00  0.00    -0.000 C 
BRANCH   9  10
ATOM     10  C   UNL     1       8.165  21.998  31.269  1.00  0.00    -0.000 C 
BRANCH  10  11
ATOM     11  C   UNL     1       9.550  22.593  31.568  1.00  0.00    -0.000 C 
BRANCH  11  12
ATOM     12  C   UNL     1      10.192  21.992  32.827  1.00  0.00    -0.003 C 
ATOM     13  C   UNL     1      11.373  21.095  32.467  1.00  0.00     0.004 C 
ENDBRANCH  11  12
ENDBRANCH  10  11
ENDBRANCH   9  10
ENDBRANCH   8   9
ENDBRANCH   1   8
TORSDOF 9
ENDMDL
MODEL 2
REMARK VINA RESULT:    -4.417      1.993      4.587
REMARK INTER + INTRA:          -7.744
REMARK INTER:                  -7.147
REMARK INTRA:                  -0.598
REMARK UNBOUND:                -1.003
REMARK SMILES CCCCCCCCCCC(=O)[O-]
REMARK SMILES IDX 7 1 8 2 9 3 10 4 11 5 12 6 13 7 6 8 5 9 4 10 3 11 2 12 1 13
REMARK H PARENT
REMARK Flexibility Score: inf
ROOT
ATOM      1  C   UNL     1       8.203  20.381  29.405  1.00  0.00     0.000 C 
ENDROOT
BRANCH   1   2
ATOM      2  C   UNL     1       7.891  21.799  29.904  1.00  0.00     0.000 C 
BRANCH   2   3
ATOM      3  C   UNL     1       8.329  22.029  31.361  1.00  0.00     0.006 C 
BRANCH   3   4
ATOM      4  C   UNL     1       9.343  23.169  31.544  1.00  0.00     0.053 C 
BRANCH   4   5
ATOM      5  C   UNL     1      10.590  22.705  32.231  1.00  0.00     0.041 C 
ATOM      6  O   UNL     1      11.430  23.544  32.655  1.00  0.00    -0.550 OA
ATOM      7  O   UNL     1      10.810  21.349  32.434  1.00  0.00    -0.550 OA
ENDBRANCH   4   5
ENDBRANCH   3   4
ENDBRANCH   2   3
ENDBRANCH   1   2
BRANCH   1   8
ATOM      8  C   UNL     1       8.637  19.474  30.562  1.00  0.00     0.000 C 
BRANCH   8   9
ATOM      9  C   UNL     1       9.479  18.295  30.055  1.00  0.00    -0.000 C 
BRANCH   9  10
ATOM     10  C   UNL     1       9.927  17.399  31.219  1.00  0.00    -0.000 C 
BRANCH  10  11
ATOM     11  C   UNL     1       9.494  17.944  32.588  1.00  0.00    -0.000 C 
BRANCH  11  12
ATOM     12  C   UNL     1      10.184  17.223  33.757  1.00  0.00    -0.003 C 
ATOM     13  C   UNL     1       9.204  16.966  34.898  1.00  0.00     0.004 C 
ENDBRANCH  11  12
ENDBRANCH  10  11
ENDBRANCH   9  10
ENDBRANCH   8   9
ENDBRANCH   1   8
TORSDOF 9
ENDMDL
MODEL 3
REMARK VINA RESULT:    -4.411      1.198      1.985
REMARK INTER + INTRA:          -7.734
REMARK INTER:                  -6.983
REMARK INTRA:                  -0.751
REMARK UNBOUND:                -1.003
REMARK SMILES CCCCCCCCCCC(=O)[O-]
REMARK SMILES IDX 7 1 8 2 9 3 10 4 11 5 12 6 13 7 6 8 5 9 4 10 3 11 2 12 1 13
REMARK H PARENT
REMARK Flexibility Score: inf
ROOT
ATOM      1  C   UNL     1       9.344  18.585  30.673  1.00  0.00     0.000 C 
ENDROOT
BRANCH   1   2
ATOM      2  C   UNL     1       9.597  17.946  32.046  1.00  0.00     0.000 C 
BRANCH   2   3
ATOM      3  C   UNL     1       9.105  18.821  33.212  1.00  0.00     0.006 C 
BRANCH   3   4
ATOM      4  C   UNL     1       7.962  18.200  34.030  1.00  0.00     0.053 C 
BRANCH   4   5
ATOM      5  C   UNL     1       8.423  17.742  35.380  1.00  0.00     0.041 C 
ATOM      6  O   UNL     1       9.199  16.755  35.483  1.00  0.00    -0.550 OA
ATOM      7  O   UNL     1       8.024  18.425  36.521  1.00  0.00    -0.550 OA
ENDBRANCH   4   5
ENDBRANCH   3   4
ENDBRANCH   2   3
ENDBRANCH   1   2
BRANCH   1   8
ATOM      8  C   UNL     1       8.293  19.697  30.769  1.00  0.00     0.000 C 
BRANCH   8   9
ATOM      9  C   UNL     1       8.087  20.382  29.413  1.00  0.00    -0.000 C 
BRANCH   9  10
ATOM     10  C   UNL     1       7.884  21.894  29.585  1.00  0.00    -0.000 C 
BRANCH  10  11
ATOM     11  C   UNL     1       7.889  22.329  31.059  1.00  0.00    -0.000 C 
BRANCH  11  12
ATOM     12  C   UNL     1       9.178  23.066  31.453  1.00  0.00    -0.003 C 
ATOM     13  C   UNL     1       9.725  22.546  32.779  1.00  0.00     0.004 C 
ENDBRANCH  11  12
ENDBRANCH  10  11
ENDBRANCH   9  10
ENDBRANCH   8   9
ENDBRANCH   1   8
TORSDOF 9
ENDMDL
MODEL 4
REMARK VINA RESULT:    -4.344      2.650      4.450
REMARK INTER + INTRA:          -7.632
REMARK INTER:                  -6.832
REMARK INTRA:                  -0.801
REMARK UNBOUND:                -1.003
REMARK SMILES CCCCCCCCCCC(=O)[O-]
REMARK SMILES IDX 7 1 8 2 9 3 10 4 11 5 12 6 13 7 6 8 5 9 4 10 3 11 2 12 1 13
REMARK H PARENT
REMARK Flexibility Score: inf
ROOT
ATOM      1  C   UNL     1       7.876  22.174  31.064  1.00  0.00     0.000 C 
ENDROOT
BRANCH   1   2
ATOM      2  C   UNL     1       8.999  23.123  31.507  1.00  0.00     0.000 C 
BRANCH   2   3
ATOM      3  C   UNL     1       9.850  22.546  32.652  1.00  0.00     0.006 C 
BRANCH   3   4
ATOM      4  C   UNL     1       9.110  22.429  33.993  1.00  0.00     0.053 C 
BRANCH   4   5
ATOM      5  C   UNL     1       9.592  23.439  34.989  1.00  0.00     0.041 C 
ATOM      6  O   UNL     1       9.850  24.616  34.624  1.00  0.00    -0.550 OA
ATOM      7  O   UNL     1       9.725  23.089  36.326  1.00  0.00    -0.550 OA
ENDBRANCH   4   5
ENDBRANCH   3   4
ENDBRANCH   2   3
ENDBRANCH   1   2
BRANCH   1   8
ATOM      8  C   UNL     1       7.943  21.908  29.556  1.00  0.00     0.000 C 
BRANCH   8   9
ATOM      9  C   UNL     1       8.067  20.407  29.263  1.00  0.00    -0.000 C 
BRANCH   9  10
ATOM     10  C   UNL     1       8.450  19.629  30.530  1.00  0.00    -0.000 C 
BRANCH  10  11
ATOM     11  C   UNL     1       9.435  18.485  30.248  1.00  0.00    -0.000 C 
BRANCH  11  12
ATOM     12  C   UNL     1       9.876  17.755  31.526  1.00  0.00    -0.003 C 
ATOM     13  C   UNL     1       9.825  18.686  32.734  1.00  0.00     0.004 C 
ENDBRANCH  11  12
ENDBRANCH  10  11
ENDBRANCH   9  10
ENDBRANCH   8   9
ENDBRANCH   1   8
TORSDOF 9
ENDMDL
MODEL 5
REMARK VINA RESULT:    -4.340      1.742      3.030
REMARK INTER + INTRA:          -7.626
REMARK INTER:                  -6.642
REMARK INTRA:                  -0.984
REMARK UNBOUND:                -1.003
REMARK SMILES CCCCCCCCCCC(=O)[O-]
REMARK SMILES IDX 7 1 8 2 9 3 10 4 11 5 12 6 13 7 6 8 5 9 4 10 3 11 2 12 1 13
REMARK H PARENT
REMARK Flexibility Score: inf
ROOT
ATOM      1  C   UNL     1       9.753  17.718  31.440  1.00  0.00     0.000 C 
ENDROOT
BRANCH   1   2
ATOM      2  C   UNL     1       8.847  18.140  32.605  1.00  0.00     0.000 C 
BRANCH   2   3
ATOM      3  C   UNL     1       9.634  18.715  33.796  1.00  0.00     0.006 C 
BRANCH   3   4
ATOM      4  C   UNL     1       9.456  20.228  34.001  1.00  0.00     0.053 C 
BRANCH   4   5
ATOM      5  C   UNL     1      10.693  20.991  33.639  1.00  0.00     0.041 C 
ATOM      6  O   UNL     1      11.383  20.645  32.644  1.00  0.00    -0.550 OA
ATOM      7  O   UNL     1      11.065  22.105  34.381  1.00  0.00    -0.550 OA
ENDBRANCH   4   5
ENDBRANCH   3   4
ENDBRANCH   2   3
ENDBRANCH   1   2
BRANCH   1   8
ATOM      8  C   UNL     1       9.388  18.474  30.157  1.00  0.00     0.000 C 
BRANCH   8   9
ATOM      9  C   UNL     1       8.379  19.594  30.443  1.00  0.00    -0.000 C 
BRANCH   9  10
ATOM     10  C   UNL     1       8.081  20.404  29.173  1.00  0.00    -0.000 C 
BRANCH  10  11
ATOM     11  C   UNL     1       7.930  21.908  29.452  1.00  0.00    -0.000 C 
BRANCH  11  12
ATOM     12  C   UNL     1       8.036  22.245  30.947  1.00  0.00    -0.003 C 
ATOM     13  C   UNL     1       9.222  23.167  31.218  1.00  0.00     0.004 C 
ENDBRANCH  11  12
ENDBRANCH  10  11
ENDBRANCH   9  10
ENDBRANCH   8   9
ENDBRANCH   1   8
TORSDOF 9
ENDMDL
MODEL 6
REMARK VINA RESULT:    -4.300      1.468      2.685
REMARK INTER + INTRA:          -7.565
REMARK INTER:                  -6.797
REMARK INTRA:                  -0.769
REMARK UNBOUND:                -1.003
REMARK SMILES CCCCCCCCCCC(=O)[O-]
REMARK SMILES IDX 7 1 8 2 9 3 10 4 11 5 12 6 13 7 6 8 5 9 4 10 3 11 2 12 1 13
REMARK H PARENT
REMARK Flexibility Score: inf
ROOT
ATOM      1  C   UNL     1       7.875  21.838  29.652  1.00  0.00     0.000 C 
ENDROOT
BRANCH   1   2
ATOM      2  C   UNL     1       8.210  20.349  29.486  1.00  0.00     0.000 C 
BRANCH   2   3
ATOM      3  C   UNL     1       8.505  19.650  30.825  1.00  0.00     0.006 C 
BRANCH   3   4
ATOM      4  C   UNL     1       9.373  18.388  30.703  1.00  0.00     0.053 C 
BRANCH   4   5
ATOM      5  C   UNL     1      10.073  18.064  31.986  1.00  0.00     0.041 C 
ATOM      6  O   UNL     1      10.105  16.877  32.408  1.00  0.00    -0.550 OA
ATOM      7  O   UNL     1      10.719  19.065  32.700  1.00  0.00    -0.550 OA
ENDBRANCH   4   5
ENDBRANCH   3   4
ENDBRANCH   2   3
ENDBRANCH   1   2
BRANCH   1   8
ATOM      8  C   UNL     1       8.112  22.298  31.095  1.00  0.00     0.000 C 
BRANCH   8   9
ATOM      9  C   UNL     1       9.450  23.035  31.228  1.00  0.00    -0.000 C 
BRANCH   9  10
ATOM     10  C   UNL     1      10.135  22.696  32.560  1.00  0.00    -0.000 C 
BRANCH  10  11
ATOM     11  C   UNL     1       9.156  22.139  33.605  1.00  0.00    -0.000 C 
BRANCH  11  12
ATOM     12  C   UNL     1       9.054  23.029  34.853  1.00  0.00    -0.003 C 
ATOM     13  C   UNL     1       9.969  24.244  34.737  1.00  0.00     0.004 C 
ENDBRANCH  11  12
ENDBRANCH  10  11
ENDBRANCH   9  10
ENDBRANCH   8   9
ENDBRANCH   1   8
TORSDOF 9
ENDMDL
MODEL 7
REMARK VINA RESULT:    -4.279      1.608      3.373
REMARK INTER + INTRA:          -7.534
REMARK INTER:                  -6.343
REMARK INTRA:                  -1.192
REMARK UNBOUND:                -1.003
REMARK SMILES CCCCCCCCCCC(=O)[O-]
REMARK SMILES IDX 7 1 8 2 9 3 10 4 11 5 12 6 13 7 6 8 5 9 4 10 3 11 2 12 1 13
REMARK H PARENT
REMARK Flexibility Score: inf
ROOT
ATOM      1  C   UNL     1      11.099  20.074  33.327  1.00  0.00     0.000 C 
ENDROOT
BRANCH   1   2
ATOM      2  C   UNL     1      11.511  19.148  34.481  1.00  0.00     0.000 C 
BRANCH   2   3
ATOM      3  C   UNL     1      11.247  17.662  34.177  1.00  0.00     0.006 C 
BRANCH   3   4
ATOM      4  C   UNL     1       9.790  17.223  34.388  1.00  0.00     0.053 C 
BRANCH   4   5
ATOM      5  C   UNL     1       9.386  17.298  35.829  1.00  0.00     0.041 C 
ATOM      6  O   UNL     1       9.977  16.595  36.690  1.00  0.00    -0.550 OA
ATOM      7  O   UNL     1       8.379  18.169  36.225  1.00  0.00    -0.550 OA
ENDBRANCH   4   5
ENDBRANCH   3   4
ENDBRANCH   2   3
ENDBRANCH   1   2
BRANCH   1   8
ATOM      8  C   UNL     1       9.872  20.912  33.706  1.00  0.00     0.000 C 
BRANCH   8   9
ATOM      9  C   UNL     1       8.614  20.404  32.990  1.00  0.00    -0.000 C 
BRANCH   9  10
ATOM     10  C   UNL     1       8.536  20.953  31.558  1.00  0.00    -0.000 C 
BRANCH  10  11
ATOM     11  C   UNL     1       8.571  19.844  30.495  1.00  0.00    -0.000 C 
BRANCH  11  12
ATOM     12  C   UNL     1       8.750  18.446  31.106  1.00  0.00    -0.003 C 
ATOM     13  C   UNL     1       9.889  17.691  30.426  1.00  0.00     0.004 C 
ENDBRANCH  11  12
ENDBRANCH  10  11
ENDBRANCH   9  10
ENDBRANCH   8   9
ENDBRANCH   1   8
TORSDOF 9
ENDMDL
MODEL 8
REMARK VINA RESULT:    -4.175      3.210      4.940
REMARK INTER + INTRA:          -7.374
REMARK INTER:                  -6.444
REMARK INTRA:                  -0.930
REMARK UNBOUND:                -1.003
REMARK SMILES CCCCCCCCCCC(=O)[O-]
REMARK SMILES IDX 7 1 8 2 9 3 10 4 11 5 12 6 13 7 6 8 5 9 4 10 3 11 2 12 1 13
REMARK H PARENT
REMARK Flexibility Score: inf
ROOT
ATOM      1  C   UNL     1       8.219  20.141  29.677  1.00  0.00     0.000 C 
ENDROOT
BRANCH   1   2
ATOM      2  C   UNL     1       7.888  21.036  30.880  1.00  0.00     0.000 C 
BRANCH   2   3
ATOM      3  C   UNL     1       8.604  22.397  30.826  1.00  0.00     0.006 C 
BRANCH   3   4
ATOM      4  C   UNL     1       9.642  22.610  31.939  1.00  0.00     0.053 C 
BRANCH   4   5
ATOM      5  C   UNL     1      10.063  24.043  32.046  1.00  0.00     0.041 C 
ATOM      6  O   UNL     1      10.902  24.520  31.236  1.00  0.00    -0.550 OA
ATOM      7  O   UNL     1       9.505  24.862  33.019  1.00  0.00    -0.550 OA
ENDBRANCH   4   5
ENDBRANCH   3   4
ENDBRANCH   2   3
ENDBRANCH   1   2
BRANCH   1   8
ATOM      8  C   UNL     1       9.034  18.917  30.111  1.00  0.00     0.000 C 
BRANCH   8   9
ATOM      9  C   UNL     1       8.588  18.417  31.491  1.00  0.00    -0.000 C 
BRANCH   9  10
ATOM     10  C   UNL     1       9.798  18.170  32.404  1.00  0.00    -0.000 C 
BRANCH  10  11
ATOM     11  C   UNL     1       9.736  18.987  33.704  1.00  0.00    -0.000 C 
BRANCH  11  12
ATOM     12  C   UNL     1       8.296  19.308  34.132  1.00  0.00    -0.003 C 
ATOM     13  C   UNL     1       7.875  18.454  35.325  1.00  0.00     0.004 C 
ENDBRANCH  11  12
ENDBRANCH  10  11
ENDBRANCH   9  10
ENDBRANCH   8   9
ENDBRANCH   1   8
TORSDOF 9
ENDMDL
