MODEL 1
REMARK VINA RESULT:    -3.422      0.000      0.000
REMARK INTER + INTRA:          -4.428
REMARK INTER:                  -4.222
REMARK INTRA:                  -0.206
REMARK UNBOUND:                -0.206
REMARK SMILES CCCCCC(=O)[O-]
REMARK SMILES IDX 4 1 5 2 6 3 7 4 8 5 3 6 2 7 1 8
REMARK H PARENT
REMARK Flexibility Score: inf
ROOT
ATOM      1  C   UNL     1       4.083  12.511   6.749  1.00  0.00     0.006 C 
ENDROOT
BRANCH   1   2
ATOM      2  C   UNL     1       4.692  13.868   6.385  1.00  0.00     0.053 C 
BRANCH   2   3
ATOM      3  C   UNL     1       5.718  14.272   7.397  1.00  0.00     0.041 C 
ATOM      4  O   UNL     1       6.615  15.101   7.093  1.00  0.00    -0.550 OA
ATOM      5  O   UNL     1       5.652  13.772   8.691  1.00  0.00    -0.550 OA
ENDBRANCH   2   3
ENDBRANCH   1   2
BRANCH   1   6
ATOM      6  C   UNL     1       4.917  11.361   6.167  1.00  0.00     0.000 C 
BRANCH   6   7
ATOM      7  C   UNL     1       5.243  10.280   7.210  1.00  0.00    -0.003 C 
ATOM      8  C   UNL     1       4.218  10.225   8.343  1.00  0.00     0.004 C 
ENDBRANCH   6   7
ENDBRANCH   1   6
TORSDOF 4
ENDMDL
MODEL 2
REMARK VINA RESULT:    -3.364      1.342      2.186
REMARK INTER + INTRA:          -4.357
REMARK INTER:                  -4.221
REMARK INTRA:                  -0.136
REMARK UNBOUND:                -0.206
REMARK SMILES CCCCCC(=O)[O-]
REMARK SMILES IDX 4 1 5 2 6 3 7 4 8 5 3 6 2 7 1 8
REMARK H PARENT
REMARK Flexibility Score: inf
ROOT
ATOM      1  C   UNL     1       4.979  10.810   6.543  1.00  0.00     0.006 C 
ENDROOT
BRANCH   1   2
ATOM      2  C   UNL     1       3.973  11.907   6.903  1.00  0.00     0.053 C 
BRANCH   2   3
ATOM      3  C   UNL     1       4.656  13.234   7.004  1.00  0.00     0.041 C 
ATOM      4  O   UNL     1       5.217  13.577   8.078  1.00  0.00    -0.550 OA
ATOM      5  O   UNL     1       4.718  14.070   5.898  1.00  0.00    -0.550 OA
ENDBRANCH   2   3
ENDBRANCH   1   2
BRANCH   1   6
ATOM      6  C   UNL     1       5.360   9.986   7.781  1.00  0.00     0.000 C 
BRANCH   6   7
ATOM      7  C   UNL     1       4.135   9.536   8.592  1.00  0.00    -0.003 C 
ATOM      8  C   UNL     1       4.163   8.045   8.928  1.00  0.00     0.004 C 
ENDBRANCH   6   7
ENDBRANCH   1   6
TORSDOF 4
ENDMDL
MODEL 3
REMARK VINA RESULT:    -3.260      2.381      4.001
REMARK INTER + INTRA:          -4.229
REMARK INTER:                  -4.133
REMARK INTRA:                  -0.096
REMARK UNBOUND:                -0.206
REMARK SMILES CCCCCC(=O)[O-]
REMARK SMILES IDX 4 1 5 2 6 3 7 4 8 5 3 6 2 7 1 8
REMARK H PARENT
REMARK Flexibility Score: inf
ROOT
ATOM      1  C   UNL     1       5.101  11.176   6.316  1.00  0.00     0.006 C 
ENDROOT
BRANCH   1   2
ATOM      2  C   UNL     1       5.859  10.587   7.509  1.00  0.00     0.053 C 
BRANCH   2   3
ATOM      3  C   UNL     1       4.911   9.934   8.465  1.00  0.00     0.041 C 
ATOM      4  O   UNL     1       4.621  10.497   9.553  1.00  0.00    -0.550 OA
ATOM      5  O   UNL     1       4.308   8.729   8.131  1.00  0.00    -0.550 OA
ENDBRANCH   2   3
ENDBRANCH   1   2
BRANCH   1   6
ATOM      6  C   UNL     1       4.073  12.218   6.779  1.00  0.00     0.000 C 
BRANCH   6   7
ATOM      7  C   UNL     1       4.526  13.660   6.498  1.00  0.00    -0.003 C 
ATOM      8  C   UNL     1       5.349  14.254   7.640  1.00  0.00     0.004 C 
ENDBRANCH   6   7
ENDBRANCH   1   6
TORSDOF 4
ENDMDL
MODEL 4
REMARK VINA RESULT:    -3.202     17.008     17.550
REMARK INTER + INTRA:          -4.157
REMARK INTER:                  -4.023
REMARK INTRA:                  -0.134
REMARK UNBOUND:                -0.206
REMARK SMILES CCCCCC(=O)[O-]
REMARK SMILES IDX 4 1 5 2 6 3 7 4 8 5 3 6 2 7 1 8
REMARK H PARENT
REMARK Flexibility Score: inf
ROOT
ATOM      1  C   UNL     1       4.849   1.911  -7.675  1.00  0.00     0.006 C 
ENDROOT
BRANCH   1   2
ATOM      2  C   UNL     1       6.333   2.244  -7.852  1.00  0.00     0.053 C 
BRANCH   2   3
ATOM      3  C   UNL     1       6.691   3.474  -7.079  1.00  0.00     0.041 C 
ATOM      4  O   UNL     1       6.204   4.589  -7.403  1.00  0.00    -0.550 OA
ATOM      5  O   UNL     1       7.522   3.381  -5.971  1.00  0.00    -0.550 OA
ENDBRANCH   2   3
ENDBRANCH   1   2
BRANCH   1   6
ATOM      6  C   UNL     1       4.520   1.633  -6.202  1.00  0.00     0.000 C 
BRANCH   6   7
ATOM      7  C   UNL     1       3.863   0.259  -5.991  1.00  0.00    -0.003 C 
ATOM      8  C   UNL     1       4.756  -0.710  -5.217  1.00  0.00     0.004 C 
ENDBRANCH   6   7
ENDBRANCH   1   6
TORSDOF 4
ENDMDL
MODEL 5
REMARK VINA RESULT:    -3.172      3.607      5.139
REMARK INTER + INTRA:          -4.120
REMARK INTER:                  -4.074
REMARK INTRA:                  -0.046
REMARK UNBOUND:                -0.206
REMARK SMILES CCCCCC(=O)[O-]
REMARK SMILES IDX 4 1 5 2 6 3 7 4 8 5 3 6 2 7 1 8
REMARK H PARENT
REMARK Flexibility Score: inf
ROOT
ATOM      1  C   UNL     1       4.732  10.156   7.754  1.00  0.00     0.006 C 
ENDROOT
BRANCH   1   2
ATOM      2  C   UNL     1       3.936   9.410   8.828  1.00  0.00     0.053 C 
BRANCH   2   3
ATOM      3  C   UNL     1       4.453   8.015   8.992  1.00  0.00     0.041 C 
ATOM      4  O   UNL     1       5.430   7.787   9.753  1.00  0.00    -0.550 OA
ATOM      5  O   UNL     1       3.825   6.960   8.343  1.00  0.00    -0.550 OA
ENDBRANCH   2   3
ENDBRANCH   1   2
BRANCH   1   6
ATOM      6  C   UNL     1       3.945  11.365   7.228  1.00  0.00     0.000 C 
BRANCH   6   7
ATOM      7  C   UNL     1       4.771  12.238   6.271  1.00  0.00    -0.003 C 
ATOM      8  C   UNL     1       4.592  13.733   6.530  1.00  0.00     0.004 C 
ENDBRANCH   6   7
ENDBRANCH   1   6
TORSDOF 4
ENDMDL
MODEL 6
REMARK VINA RESULT:    -3.045      2.140      3.476
REMARK INTER + INTRA:          -3.964
REMARK INTER:                  -3.746
REMARK INTRA:                  -0.218
REMARK UNBOUND:                -0.206
REMARK SMILES CCCCCC(=O)[O-]
REMARK SMILES IDX 4 1 5 2 6 3 7 4 8 5 3 6 2 7 1 8
REMARK H PARENT
REMARK Flexibility Score: inf
ROOT
ATOM      1  C   UNL     1       5.247  14.338   7.615  1.00  0.00     0.006 C 
ENDROOT
BRANCH   1   2
ATOM      2  C   UNL     1       4.584  13.659   6.413  1.00  0.00     0.053 C 
BRANCH   2   3
ATOM      3  C   UNL     1       4.504  12.179   6.624  1.00  0.00     0.041 C 
ATOM      4  O   UNL     1       4.523  11.398   5.637  1.00  0.00    -0.550 OA
ATOM      5  O   UNL     1       4.462  11.662   7.911  1.00  0.00    -0.550 OA
ENDBRANCH   2   3
ENDBRANCH   1   2
BRANCH   1   6
ATOM      6  C   UNL     1       6.582  14.981   7.214  1.00  0.00     0.000 C 
BRANCH   6   7
ATOM      7  C   UNL     1       7.786  14.068   7.494  1.00  0.00    -0.003 C 
ATOM      8  C   UNL     1       7.581  13.179   8.720  1.00  0.00     0.004 C 
ENDBRANCH   6   7
ENDBRANCH   1   6
TORSDOF 4
ENDMDL
MODEL 7
REMARK VINA RESULT:    -2.997     17.993     18.752
REMARK INTER + INTRA:          -3.904
REMARK INTER:                  -3.848
REMARK INTRA:                  -0.056
REMARK UNBOUND:                -0.206
REMARK SMILES CCCCCC(=O)[O-]
REMARK SMILES IDX 4 1 5 2 6 3 7 4 8 5 3 6 2 7 1 8
REMARK H PARENT
REMARK Flexibility Score: inf
ROOT
ATOM      1  C   UNL     1       5.105   2.415  -8.013  1.00  0.00     0.006 C 
ENDROOT
BRANCH   1   2
ATOM      2  C   UNL     1       4.917   0.909  -7.808  1.00  0.00     0.053 C 
BRANCH   2   3
ATOM      3  C   UNL     1       4.579   0.611  -6.381  1.00  0.00     0.041 C 
ATOM      4  O   UNL     1       3.621  -0.158  -6.104  1.00  0.00    -0.550 OA
ATOM      5  O   UNL     1       5.353   1.143  -5.358  1.00  0.00    -0.550 OA
ENDBRANCH   2   3
ENDBRANCH   1   2
BRANCH   1   6
ATOM      6  C   UNL     1       4.348   2.898  -9.259  1.00  0.00     0.000 C 
BRANCH   6   7
ATOM      7  C   UNL     1       3.713   4.284  -9.064  1.00  0.00    -0.003 C 
ATOM      8  C   UNL     1       2.270   4.349  -9.564  1.00  0.00     0.004 C 
ENDBRANCH   6   7
ENDBRANCH   1   6
TORSDOF 4
ENDMDL
MODEL 8
REMARK VINA RESULT:    -2.995     19.795     20.371
REMARK INTER + INTRA:          -3.902
REMARK INTER:                  -3.822
REMARK INTRA:                  -0.080
REMARK UNBOUND:                -0.206
REMARK SMILES CCCCCC(=O)[O-]
REMARK SMILES IDX 4 1 5 2 6 3 7 4 8 5 3 6 2 7 1 8
REMARK H PARENT
REMARK Flexibility Score: inf
ROOT
ATOM      1  C   UNL     1      -7.408   1.264  -3.727  1.00  0.00     0.006 C 
ENDROOT
BRANCH   1   2
ATOM      2  C   UNL     1      -6.799   2.266  -4.712  1.00  0.00     0.053 C 
BRANCH   2   3
ATOM      3  C   UNL     1      -6.623   1.638  -6.059  1.00  0.00     0.041 C 
ATOM      4  O   UNL     1      -5.681   0.829  -6.262  1.00  0.00    -0.550 OA
ATOM      5  O   UNL     1      -7.531   1.908  -7.074  1.00  0.00    -0.550 OA
ENDBRANCH   2   3
ENDBRANCH   1   2
BRANCH   1   6
ATOM      6  C   UNL     1      -6.419   0.929  -2.602  1.00  0.00     0.000 C 
BRANCH   6   7
ATOM      7  C   UNL     1      -6.866  -0.277  -1.761  1.00  0.00    -0.003 C 
ATOM      8  C   UNL     1      -7.608   0.132  -0.488  1.00  0.00     0.004 C 
ENDBRANCH   6   7
ENDBRANCH   1   6
TORSDOF 4
ENDMDL
MODEL 9
REMARK VINA RESULT:    -2.980      1.319      2.083
REMARK INTER + INTRA:          -3.883
REMARK INTER:                  -3.640
REMARK INTRA:                  -0.243
REMARK UNBOUND:                -0.206
REMARK SMILES CCCCCC(=O)[O-]
REMARK SMILES IDX 4 1 5 2 6 3 7 4 8 5 3 6 2 7 1 8
REMARK H PARENT
REMARK Flexibility Score: inf
ROOT
ATOM      1  C   UNL     1       4.889  14.072   7.174  1.00  0.00     0.006 C 
ENDROOT
BRANCH   1   2
ATOM      2  C   UNL     1       6.409  14.173   7.326  1.00  0.00     0.053 C 
BRANCH   2   3
ATOM      3  C   UNL     1       6.816  13.885   8.737  1.00  0.00     0.041 C 
ATOM      4  O   UNL     1       6.102  13.146   9.464  1.00  0.00    -0.550 OA
ATOM      5  O   UNL     1       8.011  14.391   9.232  1.00  0.00    -0.550 OA
ENDBRANCH   2   3
ENDBRANCH   1   2
BRANCH   1   6
ATOM      6  C   UNL     1       4.506  12.912   6.244  1.00  0.00     0.000 C 
BRANCH   6   7
ATOM      7  C   UNL     1       3.966  11.694   7.010  1.00  0.00    -0.003 C 
ATOM      8  C   UNL     1       4.993  10.569   7.131  1.00  0.00     0.004 C 
ENDBRANCH   6   7
ENDBRANCH   1   6
TORSDOF 4
ENDMDL
