MODEL 1
REMARK VINA RESULT:    -3.063      0.000      0.000
REMARK INTER + INTRA:          -3.331
REMARK INTER:                  -3.331
REMARK INTRA:                   0.000
REMARK UNBOUND:                 0.000
REMARK SMILES [NH3+]CC(=O)[O-]
REMARK SMILES IDX 2 1 1 2 3 6 4 7 5 8
REMARK H PARENT 1 3 1 4 1 5
REMARK Flexibility Score: inf
ROOT
ATOM      1  C   UNL     1     -42.870 117.745   7.534  1.00  0.00     0.312 C 
ENDROOT
BRANCH   1   2
ATOM      2  N   UNL     1     -43.215 118.289   6.221  1.00  0.00    -0.353 N 
ATOM      3  H   UNL     1     -42.657 117.811   5.477  1.00  0.00     0.344 HD
ATOM      4  H   UNL     1     -43.028 119.318   6.198  1.00  0.00     0.344 HD
ATOM      5  H   UNL     1     -44.232 118.125   6.041  1.00  0.00     0.344 HD
ENDBRANCH   1   2
BRANCH   1   6
ATOM      6  C   UNL     1     -42.274 118.807   8.406  1.00  0.00     0.096 C 
ATOM      7  O   UNL     1     -41.028 118.980   8.431  1.00  0.00    -0.544 OA
ATOM      8  O   UNL     1     -43.100 119.639   9.150  1.00  0.00    -0.544 OA
ENDBRANCH   1   6
TORSDOF 2
ENDMDL
MODEL 2
REMARK VINA RESULT:    -3.012      2.115      2.319
REMARK INTER + INTRA:          -3.276
REMARK INTER:                  -3.276
REMARK INTRA:                   0.000
REMARK UNBOUND:                 0.000
REMARK SMILES [NH3+]CC(=O)[O-]
REMARK SMILES IDX 2 1 1 2 3 6 4 7 5 8
REMARK H PARENT 1 3 1 4 1 5
REMARK Flexibility Score: inf
ROOT
ATOM      1  C   UNL     1     -43.260 118.959   9.110  1.00  0.00     0.312 C 
ENDROOT
BRANCH   1   2
ATOM      2  N   UNL     1     -43.282 120.377   9.466  1.00  0.00    -0.353 N 
ATOM      3  H   UNL     1     -42.682 120.922   8.805  1.00  0.00     0.344 HD
ATOM      4  H   UNL     1     -42.938 120.507  10.445  1.00  0.00     0.344 HD
ATOM      5  H   UNL     1     -44.264 120.730   9.402  1.00  0.00     0.344 HD
ENDBRANCH   1   2
BRANCH   1   6
ATOM      6  C   UNL     1     -42.187 118.684   8.102  1.00  0.00     0.096 C 
ATOM      7  O   UNL     1     -40.978 118.869   8.399  1.00  0.00    -0.544 OA
ATOM      8  O   UNL     1     -42.520 118.176   6.854  1.00  0.00    -0.544 OA
ENDBRANCH   1   6
TORSDOF 2
ENDMDL
MODEL 3
REMARK VINA RESULT:    -2.949     11.434     11.830
REMARK INTER + INTRA:          -3.207
REMARK INTER:                  -3.207
REMARK INTRA:                   0.000
REMARK UNBOUND:                 0.000
REMARK SMILES [NH3+]CC(=O)[O-]
REMARK SMILES IDX 2 1 1 2 3 6 4 7 5 8
REMARK H PARENT 1 3 1 4 1 5
REMARK Flexibility Score: inf
ROOT
ATOM      1  C   UNL     1     -33.537 116.253  16.047  1.00  0.00     0.312 C 
ENDROOT
BRANCH   1   2
ATOM      2  N   UNL     1     -32.315 115.451  16.090  1.00  0.00    -0.353 N 
ATOM      3  H   UNL     1     -32.538 114.473  16.387  1.00  0.00     0.344 HD
ATOM      4  H   UNL     1     -31.630 115.876  16.756  1.00  0.00     0.344 HD
ATOM      5  H   UNL     1     -31.889 115.427  15.135  1.00  0.00     0.344 HD
ENDBRANCH   1   2
BRANCH   1   6
ATOM      6  C   UNL     1     -33.818 116.713  14.649  1.00  0.00     0.096 C 
ATOM      7  O   UNL     1     -32.946 117.354  14.007  1.00  0.00    -0.544 OA
ATOM      8  O   UNL     1     -35.023 116.388  14.039  1.00  0.00    -0.544 OA
ENDBRANCH   1   6
TORSDOF 2
ENDMDL
MODEL 4
REMARK VINA RESULT:    -2.833     10.953     11.408
REMARK INTER + INTRA:          -3.082
REMARK INTER:                  -3.082
REMARK INTRA:                   0.000
REMARK UNBOUND:                 0.000
REMARK SMILES [NH3+]CC(=O)[O-]
REMARK SMILES IDX 2 1 1 2 3 6 4 7 5 8
REMARK H PARENT 1 3 1 4 1 5
REMARK Flexibility Score: inf
ROOT
ATOM      1  C   UNL     1     -34.257 116.701  14.289  1.00  0.00     0.312 C 
ENDROOT
BRANCH   1   2
ATOM      2  N   UNL     1     -35.636 116.419  13.893  1.00  0.00    -0.353 N 
ATOM      3  H   UNL     1     -36.206 116.171  14.734  1.00  0.00     0.344 HD
ATOM      4  H   UNL     1     -35.658 115.631  13.205  1.00  0.00     0.344 HD
ATOM      5  H   UNL     1     -36.044 117.271  13.445  1.00  0.00     0.344 HD
ENDBRANCH   1   2
BRANCH   1   6
ATOM      6  C   UNL     1     -33.971 116.135  15.645  1.00  0.00     0.096 C 
ATOM      7  O   UNL     1     -34.883 116.072  16.510  1.00  0.00    -0.544 OA
ATOM      8  O   UNL     1     -32.710 115.630  15.936  1.00  0.00    -0.544 OA
ENDBRANCH   1   6
TORSDOF 2
ENDMDL
MODEL 5
REMARK VINA RESULT:    -2.742      2.118      2.389
REMARK INTER + INTRA:          -2.982
REMARK INTER:                  -2.982
REMARK INTRA:                   0.000
REMARK UNBOUND:                 0.000
REMARK SMILES [NH3+]CC(=O)[O-]
REMARK SMILES IDX 2 1 1 2 3 6 4 7 5 8
REMARK H PARENT 1 3 1 4 1 5
REMARK Flexibility Score: inf
ROOT
ATOM      1  C   UNL     1     -42.782 117.882   5.725  1.00  0.00     0.312 C 
ENDROOT
BRANCH   1   2
ATOM      2  N   UNL     1     -42.224 119.231   5.645  1.00  0.00    -0.353 N 
ATOM      3  H   UNL     1     -42.605 119.822   6.420  1.00  0.00     0.344 HD
ATOM      4  H   UNL     1     -42.459 119.663   4.722  1.00  0.00     0.344 HD
ATOM      5  H   UNL     1     -41.184 119.177   5.739  1.00  0.00     0.344 HD
ENDBRANCH   1   2
BRANCH   1   6
ATOM      6  C   UNL     1     -42.900 117.443   7.152  1.00  0.00     0.096 C 
ATOM      7  O   UNL     1     -42.834 118.289   8.082  1.00  0.00    -0.544 OA
ATOM      8  O   UNL     1     -43.134 116.107   7.452  1.00  0.00    -0.544 OA
ENDBRANCH   1   6
TORSDOF 2
ENDMDL
MODEL 6
REMARK VINA RESULT:    -2.722     10.827     11.255
REMARK INTER + INTRA:          -2.961
REMARK INTER:                  -2.961
REMARK INTRA:                   0.000
REMARK UNBOUND:                 0.000
REMARK SMILES [NH3+]CC(=O)[O-]
REMARK SMILES IDX 2 1 1 2 3 6 4 7 5 8
REMARK H PARENT 1 3 1 4 1 5
REMARK Flexibility Score: inf
ROOT
ATOM      1  C   UNL     1     -35.050 116.270  14.329  1.00  0.00     0.312 C 
ENDROOT
BRANCH   1   2
ATOM      2  N   UNL     1     -35.849 115.857  15.481  1.00  0.00    -0.353 N 
ATOM      3  H   UNL     1     -35.970 116.660  16.140  1.00  0.00     0.344 HD
ATOM      4  H   UNL     1     -35.384 115.061  15.974  1.00  0.00     0.344 HD
ATOM      5  H   UNL     1     -36.791 115.545  15.149  1.00  0.00     0.344 HD
ENDBRANCH   1   2
BRANCH   1   6
ATOM      6  C   UNL     1     -33.643 116.574  14.744  1.00  0.00     0.096 C 
ATOM      7  O   UNL     1     -32.967 117.426  14.110  1.00  0.00    -0.544 OA
ATOM      8  O   UNL     1     -33.099 115.955  15.861  1.00  0.00    -0.544 OA
ENDBRANCH   1   6
TORSDOF 2
ENDMDL
MODEL 7
REMARK VINA RESULT:    -2.686      9.045      9.497
REMARK INTER + INTRA:          -2.922
REMARK INTER:                  -2.922
REMARK INTRA:                   0.000
REMARK UNBOUND:                 0.000
REMARK SMILES [NH3+]CC(=O)[O-]
REMARK SMILES IDX 2 1 1 2 3 6 4 7 5 8
REMARK H PARENT 1 3 1 4 1 5
REMARK Flexibility Score: inf
ROOT
ATOM      1  C   UNL     1     -44.127 124.745  14.111  1.00  0.00     0.312 C 
ENDROOT
BRANCH   1   2
ATOM      2  N   UNL     1     -43.563 124.416  12.802  1.00  0.00    -0.353 N 
ATOM      3  H   UNL     1     -43.456 123.380  12.708  1.00  0.00     0.344 HD
ATOM      4  H   UNL     1     -42.633 124.880  12.685  1.00  0.00     0.344 HD
ATOM      5  H   UNL     1     -44.210 124.760  12.056  1.00  0.00     0.344 HD
ENDBRANCH   1   2
BRANCH   1   6
ATOM      6  C   UNL     1     -45.014 125.948  14.016  1.00  0.00     0.096 C 
ATOM      7  O   UNL     1     -45.719 126.293  15.000  1.00  0.00    -0.544 OA
ATOM      8  O   UNL     1     -45.023 126.716  12.859  1.00  0.00    -0.544 OA
ENDBRANCH   1   6
TORSDOF 2
ENDMDL
MODEL 8
REMARK VINA RESULT:    -2.660      2.788      2.987
REMARK INTER + INTRA:          -2.893
REMARK INTER:                  -2.893
REMARK INTRA:                   0.000
REMARK UNBOUND:                 0.000
REMARK SMILES [NH3+]CC(=O)[O-]
REMARK SMILES IDX 2 1 1 2 3 6 4 7 5 8
REMARK H PARENT 1 3 1 4 1 5
REMARK Flexibility Score: inf
ROOT
ATOM      1  C   UNL     1     -43.269 115.667   7.378  1.00  0.00     0.312 C 
ENDROOT
BRANCH   1   2
ATOM      2  N   UNL     1     -43.967 114.798   6.430  1.00  0.00    -0.353 N 
ATOM      3  H   UNL     1     -43.307 114.082   6.048  1.00  0.00     0.344 HD
ATOM      4  H   UNL     1     -44.365 115.367   5.648  1.00  0.00     0.344 HD
ATOM      5  H   UNL     1     -44.748 114.310   6.926  1.00  0.00     0.344 HD
ENDBRANCH   1   2
BRANCH   1   6
ATOM      6  C   UNL     1     -43.019 117.014   6.773  1.00  0.00     0.096 C 
ATOM      7  O   UNL     1     -43.094 117.172   5.527  1.00  0.00    -0.544 OA
ATOM      8  O   UNL     1     -42.756 118.105   7.592  1.00  0.00    -0.544 OA
ENDBRANCH   1   6
TORSDOF 2
ENDMDL
MODEL 9
REMARK VINA RESULT:    -2.638      9.268      9.737
REMARK INTER + INTRA:          -2.869
REMARK INTER:                  -2.869
REMARK INTRA:                   0.000
REMARK UNBOUND:                 0.000
REMARK SMILES [NH3+]CC(=O)[O-]
REMARK SMILES IDX 2 1 1 2 3 6 4 7 5 8
REMARK H PARENT 1 3 1 4 1 5
REMARK Flexibility Score: inf
ROOT
ATOM      1  C   UNL     1     -44.453 126.450  13.075  1.00  0.00     0.312 C 
ENDROOT
BRANCH   1   2
ATOM      2  N   UNL     1     -45.439 126.435  11.995  1.00  0.00    -0.353 N 
ATOM      3  H   UNL     1     -44.994 126.743  11.100  1.00  0.00     0.344 HD
ATOM      4  H   UNL     1     -46.238 127.066  12.229  1.00  0.00     0.344 HD
ATOM      5  H   UNL     1     -45.800 125.460  11.877  1.00  0.00     0.344 HD
ENDBRANCH   1   2
BRANCH   1   6
ATOM      6  C   UNL     1     -44.958 125.688  14.261  1.00  0.00     0.096 C 
ATOM      7  O   UNL     1     -45.792 126.214  15.043  1.00  0.00    -0.544 OA
ATOM      8  O   UNL     1     -44.546 124.378  14.473  1.00  0.00    -0.544 OA
ENDBRANCH   1   6
TORSDOF 2
ENDMDL
