MODEL 1
REMARK VINA RESULT:    -4.547      0.000      0.000
REMARK INTER + INTRA:          -7.133
REMARK INTER:                  -5.611
REMARK INTRA:                  -1.522
REMARK UNBOUND:                -1.522
REMARK SMILES CC(C)=CCC[C@@H](C)c1ccc(C)cc1
REMARK SMILES IDX 6 1 7 2 8 3 9 4 13 5 12 6 11 7 14 8 10 9 15 10 5 11 4 12
REMARK SMILES IDX 2 13 1 14 3 15
REMARK H PARENT
REMARK Flexibility Score: inf
ROOT
ATOM      1  C   UNL     1      89.788  64.044  87.072  1.00  0.00     0.012 C 
ENDROOT
BRANCH   1   2
ATOM      2  C   UNL     1      89.489  65.270  87.966  1.00  0.00     0.016 C 
ATOM      3  C   UNL     1      88.341  66.101  87.382  1.00  0.00     0.013 C 
BRANCH   2   4
ATOM      4  C   UNL     1      89.183  64.872  89.400  1.00  0.00    -0.045 A 
ATOM      5  C   UNL     1      88.277  63.770  93.476  1.00  0.00     0.044 C 
ATOM      6  C   UNL     1      88.602  64.179  92.071  1.00  0.00    -0.051 A 
ATOM      7  C   UNL     1      87.635  64.812  91.277  1.00  0.00     0.004 A 
ATOM      8  C   UNL     1      89.853  63.872  91.517  1.00  0.00     0.004 A 
ATOM      9  C   UNL     1      87.925  65.161  89.955  1.00  0.00     0.004 A 
ATOM     10  C   UNL     1      90.145  64.221  90.196  1.00  0.00     0.004 A 
ENDBRANCH   2   4
ENDBRANCH   1   2
BRANCH   1  11
ATOM     11  C   UNL     1      88.675  62.981  87.088  1.00  0.00     0.028 C 
BRANCH  11  12
ATOM     12  C   UNL     1      89.155  61.657  87.636  1.00  0.00    -0.028 C 
ATOM     13  C   UNL     1      88.588  61.005  88.673  1.00  0.00    -0.080 C 
ATOM     14  C   UNL     1      89.159  59.670  89.079  1.00  0.00     0.039 C 
ATOM     15  C   UNL     1      87.424  61.581  89.444  1.00  0.00     0.039 C 
ENDBRANCH  11  12
ENDBRANCH   1  11
TORSDOF 4
ENDMDL
MODEL 2
REMARK VINA RESULT:    -4.517      2.690      4.810
REMARK INTER + INTRA:          -7.095
REMARK INTER:                  -6.210
REMARK INTRA:                  -0.885
REMARK UNBOUND:                -1.522
REMARK SMILES CC(C)=CCC[C@@H](C)c1ccc(C)cc1
REMARK SMILES IDX 6 1 7 2 8 3 9 4 13 5 12 6 11 7 14 8 10 9 15 10 5 11 4 12
REMARK SMILES IDX 2 13 1 14 3 15
REMARK H PARENT
REMARK Flexibility Score: inf
ROOT
ATOM      1  C   UNL     1      88.557  58.407  88.992  1.00  0.00     0.012 C 
ENDROOT
BRANCH   1   2
ATOM      2  C   UNL     1      87.882  59.693  88.458  1.00  0.00     0.016 C 
ATOM      3  C   UNL     1      86.368  59.650  88.696  1.00  0.00     0.013 C 
BRANCH   2   4
ATOM      4  C   UNL     1      88.482  60.949  89.067  1.00  0.00    -0.045 A 
ATOM      5  C   UNL     1      90.206  64.531  90.755  1.00  0.00     0.044 C 
ATOM      6  C   UNL     1      89.635  63.275  90.169  1.00  0.00    -0.051 A 
ATOM      7  C   UNL     1      89.512  63.136  88.779  1.00  0.00     0.004 A 
ATOM      8  C   UNL     1      89.157  62.257  91.007  1.00  0.00     0.004 A 
ATOM      9  C   UNL     1      88.947  61.981  88.232  1.00  0.00     0.004 A 
ATOM     10  C   UNL     1      88.592  61.101  90.462  1.00  0.00     0.004 A 
ENDBRANCH   2   4
ENDBRANCH   1   2
BRANCH   1  11
ATOM     11  C   UNL     1      87.560  57.299  89.374  1.00  0.00     0.028 C 
BRANCH  11  12
ATOM     12  C   UNL     1      87.994  56.538  90.605  1.00  0.00    -0.028 C 
ATOM     13  C   UNL     1      87.647  56.862  91.869  1.00  0.00    -0.080 C 
ATOM     14  C   UNL     1      88.128  55.980  92.993  1.00  0.00     0.039 C 
ATOM     15  C   UNL     1      86.817  58.084  92.186  1.00  0.00     0.039 C 
ENDBRANCH  11  12
ENDBRANCH   1  11
TORSDOF 4
ENDMDL
MODEL 3
REMARK VINA RESULT:    -4.429      3.436      6.557
REMARK INTER + INTRA:          -6.988
REMARK INTER:                  -5.493
REMARK INTRA:                  -1.495
REMARK UNBOUND:                -1.522
REMARK SMILES CC(C)=CCC[C@@H](C)c1ccc(C)cc1
REMARK SMILES IDX 6 1 7 2 8 3 9 4 13 5 12 6 11 7 14 8 10 9 15 10 5 11 4 12
REMARK SMILES IDX 2 13 1 14 3 15
REMARK H PARENT
REMARK Flexibility Score: inf
ROOT
ATOM      1  C   UNL     1      85.402  59.903  88.489  1.00  0.00     0.012 C 
ENDROOT
BRANCH   1   2
ATOM      2  C   UNL     1      85.405  58.357  88.434  1.00  0.00     0.016 C 
ATOM      3  C   UNL     1      85.989  57.863  87.105  1.00  0.00     0.013 C 
BRANCH   2   4
ATOM      4  C   UNL     1      86.153  57.745  89.605  1.00  0.00    -0.045 A 
ATOM      5  C   UNL     1      88.294  55.967  92.908  1.00  0.00     0.044 C 
ATOM      6  C   UNL     1      87.530  56.562  91.764  1.00  0.00    -0.051 A 
ATOM      7  C   UNL     1      87.836  56.199  90.444  1.00  0.00     0.004 A 
ATOM      8  C   UNL     1      86.550  57.537  91.999  1.00  0.00     0.004 A 
ATOM      9  C   UNL     1      87.149  56.780  89.375  1.00  0.00     0.004 A 
ATOM     10  C   UNL     1      85.861  58.118  90.931  1.00  0.00     0.004 A 
ENDBRANCH   2   4
ENDBRANCH   1   2
BRANCH   1  11
ATOM     11  C   UNL     1      86.764  60.537  88.153  1.00  0.00     0.028 C 
BRANCH  11  12
ATOM     12  C   UNL     1      87.345  61.297  89.322  1.00  0.00    -0.028 C 
ATOM     13  C   UNL     1      88.500  60.979  89.945  1.00  0.00    -0.080 C 
ATOM     14  C   UNL     1      88.971  61.860  91.074  1.00  0.00     0.039 C 
ATOM     15  C   UNL     1      89.313  59.766  89.560  1.00  0.00     0.039 C 
ENDBRANCH  11  12
ENDBRANCH   1  11
TORSDOF 4
ENDMDL
MODEL 4
REMARK VINA RESULT:    -4.400      1.387      4.390
REMARK INTER + INTRA:          -6.951
REMARK INTER:                  -5.506
REMARK INTRA:                  -1.445
REMARK UNBOUND:                -1.522
REMARK SMILES CC(C)=CCC[C@@H](C)c1ccc(C)cc1
REMARK SMILES IDX 6 1 7 2 8 3 9 4 13 5 12 6 11 7 14 8 10 9 15 10 5 11 4 12
REMARK SMILES IDX 2 13 1 14 3 15
REMARK H PARENT
REMARK Flexibility Score: inf
ROOT
ATOM      1  C   UNL     1      88.212  61.971  93.786  1.00  0.00     0.012 C 
ENDROOT
BRANCH   1   2
ATOM      2  C   UNL     1      87.709  63.401  93.474  1.00  0.00     0.016 C 
ATOM      3  C   UNL     1      88.063  64.360  94.616  1.00  0.00     0.013 C 
BRANCH   2   4
ATOM      4  C   UNL     1      88.249  63.922  92.153  1.00  0.00    -0.045 A 
ATOM      5  C   UNL     1      89.828  65.400  88.415  1.00  0.00     0.044 C 
ATOM      6  C   UNL     1      89.286  64.913  89.726  1.00  0.00    -0.051 A 
ATOM      7  C   UNL     1      90.122  64.244  90.632  1.00  0.00     0.004 A 
ATOM      8  C   UNL     1      87.925  65.063  90.027  1.00  0.00     0.004 A 
ATOM      9  C   UNL     1      89.609  63.759  91.838  1.00  0.00     0.004 A 
ATOM     10  C   UNL     1      87.411  64.579  91.233  1.00  0.00     0.004 A 
ENDBRANCH   2   4
ENDBRANCH   1   2
BRANCH   1  11
ATOM     11  C   UNL     1      87.478  60.872  92.997  1.00  0.00     0.028 C 
BRANCH  11  12
ATOM     12  C   UNL     1      88.334  60.286  91.899  1.00  0.00    -0.028 C 
ATOM     13  C   UNL     1      88.093  60.430  90.578  1.00  0.00    -0.080 C 
ATOM     14  C   UNL     1      89.064  59.817  89.602  1.00  0.00     0.039 C 
ATOM     15  C   UNL     1      86.877  61.160  90.059  1.00  0.00     0.039 C 
ENDBRANCH  11  12
ENDBRANCH   1  11
TORSDOF 4
ENDMDL
MODEL 5
REMARK VINA RESULT:    -4.377     11.487     13.977
REMARK INTER + INTRA:          -6.922
REMARK INTER:                  -6.323
REMARK INTRA:                  -0.599
REMARK UNBOUND:                -1.522
REMARK SMILES CC(C)=CCC[C@@H](C)c1ccc(C)cc1
REMARK SMILES IDX 6 1 7 2 8 3 9 4 13 5 12 6 11 7 14 8 10 9 15 10 5 11 4 12
REMARK SMILES IDX 2 13 1 14 3 15
REMARK H PARENT
REMARK Flexibility Score: inf
ROOT
ATOM      1  C   UNL     1      86.379  60.103 102.271  1.00  0.00     0.012 C 
ENDROOT
BRANCH   1   2
ATOM      2  C   UNL     1      86.622  60.714 103.671  1.00  0.00     0.016 C 
ATOM      3  C   UNL     1      86.667  59.616 104.741  1.00  0.00     0.013 C 
BRANCH   2   4
ATOM      4  C   UNL     1      87.886  61.555 103.717  1.00  0.00    -0.045 A 
ATOM      5  C   UNL     1      91.496  63.920 103.884  1.00  0.00     0.044 C 
ATOM      6  C   UNL     1      90.233  63.112 103.852  1.00  0.00    -0.051 A 
ATOM      7  C   UNL     1      90.189  61.845 104.450  1.00  0.00     0.004 A 
ATOM      8  C   UNL     1      89.107  63.588 103.164  1.00  0.00     0.004 A 
ATOM      9  C   UNL     1      89.024  61.076 104.389  1.00  0.00     0.004 A 
ATOM     10  C   UNL     1      87.941  62.821 103.104  1.00  0.00     0.004 A 
ENDBRANCH   2   4
ENDBRANCH   1   2
BRANCH   1  11
ATOM     11  C   UNL     1      86.917  58.670 102.119  1.00  0.00     0.028 C 
BRANCH  11  12
ATOM     12  C   UNL     1      85.969  57.780 101.350  1.00  0.00    -0.028 C 
ATOM     13  C   UNL     1      86.041  57.550 100.021  1.00  0.00    -0.080 C 
ATOM     14  C   UNL     1      85.044  56.604  99.403  1.00  0.00     0.039 C 
ATOM     15  C   UNL     1      87.069  58.225  99.144  1.00  0.00     0.039 C 
ENDBRANCH  11  12
ENDBRANCH   1  11
TORSDOF 4
ENDMDL
MODEL 6
REMARK VINA RESULT:    -4.329      1.304      4.834
REMARK INTER + INTRA:          -6.864
REMARK INTER:                  -5.341
REMARK INTRA:                  -1.523
REMARK UNBOUND:                -1.522
REMARK SMILES CC(C)=CCC[C@@H](C)c1ccc(C)cc1
REMARK SMILES IDX 6 1 7 2 8 3 9 4 13 5 12 6 11 7 14 8 10 9 15 10 5 11 4 12
REMARK SMILES IDX 2 13 1 14 3 15
REMARK H PARENT
REMARK Flexibility Score: inf
ROOT
ATOM      1  C   UNL     1      89.409  63.904  91.962  1.00  0.00     0.012 C 
ENDROOT
BRANCH   1   2
ATOM      2  C   UNL     1      89.066  62.403  92.113  1.00  0.00     0.016 C 
ATOM      3  C   UNL     1      88.186  62.169  93.347  1.00  0.00     0.013 C 
BRANCH   2   4
ATOM      4  C   UNL     1      88.399  61.842  90.869  1.00  0.00    -0.045 A 
ATOM      5  C   UNL     1      86.463  60.265  87.344  1.00  0.00     0.044 C 
ATOM      6  C   UNL     1      87.120  60.793  88.585  1.00  0.00    -0.051 A 
ATOM      7  C   UNL     1      86.561  61.879  89.274  1.00  0.00     0.004 A 
ATOM      8  C   UNL     1      88.334  60.249  89.028  1.00  0.00     0.004 A 
ATOM      9  C   UNL     1      87.191  62.394  90.409  1.00  0.00     0.004 A 
ATOM     10  C   UNL     1      88.965  60.763  90.164  1.00  0.00     0.004 A 
ENDBRANCH   2   4
ENDBRANCH   1   2
BRANCH   1  11
ATOM     11  C   UNL     1      90.311  64.215  90.755  1.00  0.00     0.028 C 
BRANCH  11  12
ATOM     12  C   UNL     1      89.632  65.115  89.749  1.00  0.00    -0.028 C 
ATOM     13  C   UNL     1      89.423  64.798  88.454  1.00  0.00    -0.080 C 
ATOM     14  C   UNL     1      88.694  65.788  87.582  1.00  0.00     0.039 C 
ATOM     15  C   UNL     1      89.915  63.501  87.855  1.00  0.00     0.039 C 
ENDBRANCH  11  12
ENDBRANCH   1  11
TORSDOF 4
ENDMDL
MODEL 7
REMARK VINA RESULT:    -4.269     12.115     14.445
REMARK INTER + INTRA:          -6.790
REMARK INTER:                  -6.065
REMARK INTRA:                  -0.725
REMARK UNBOUND:                -1.522
REMARK SMILES CC(C)=CCC[C@@H](C)c1ccc(C)cc1
REMARK SMILES IDX 6 1 7 2 8 3 9 4 13 5 12 6 11 7 14 8 10 9 15 10 5 11 4 12
REMARK SMILES IDX 2 13 1 14 3 15
REMARK H PARENT
REMARK Flexibility Score: inf
ROOT
ATOM      1  C   UNL     1      86.684  62.293 102.811  1.00  0.00     0.012 C 
ENDROOT
BRANCH   1   2
ATOM      2  C   UNL     1      86.539  60.875 103.412  1.00  0.00     0.016 C 
ATOM      3  C   UNL     1      85.384  60.829 104.421  1.00  0.00     0.013 C 
BRANCH   2   4
ATOM      4  C   UNL     1      86.353  59.814 102.341  1.00  0.00    -0.045 A 
ATOM      5  C   UNL     1      85.797  56.829  99.269  1.00  0.00     0.044 C 
ATOM      6  C   UNL     1      85.962  57.861 100.345  1.00  0.00    -0.051 A 
ATOM      7  C   UNL     1      85.704  59.213 100.073  1.00  0.00     0.004 A 
ATOM      8  C   UNL     1      86.440  57.493 101.610  1.00  0.00     0.004 A 
ATOM      9  C   UNL     1      85.891  60.180 101.064  1.00  0.00     0.004 A 
ATOM     10  C   UNL     1      86.627  58.459 102.603  1.00  0.00     0.004 A 
ENDBRANCH   2   4
ENDBRANCH   1   2
BRANCH   1  11
ATOM     11  C   UNL     1      88.040  62.955 103.108  1.00  0.00     0.028 C 
BRANCH  11  12
ATOM     12  C   UNL     1      88.961  62.048 103.890  1.00  0.00    -0.028 C 
ATOM     13  C   UNL     1      90.227  62.360 104.242  1.00  0.00    -0.080 C 
ATOM     14  C   UNL     1      91.009  61.363 105.059  1.00  0.00     0.039 C 
ATOM     15  C   UNL     1      90.881  63.656 103.825  1.00  0.00     0.039 C 
ENDBRANCH  11  12
ENDBRANCH   1  11
TORSDOF 4
ENDMDL
MODEL 8
REMARK VINA RESULT:    -4.197      1.530      4.558
REMARK INTER + INTRA:          -6.701
REMARK INTER:                  -5.537
REMARK INTRA:                  -1.164
REMARK UNBOUND:                -1.522
REMARK SMILES CC(C)=CCC[C@@H](C)c1ccc(C)cc1
REMARK SMILES IDX 6 1 7 2 8 3 9 4 13 5 12 6 11 7 14 8 10 9 15 10 5 11 4 12
REMARK SMILES IDX 2 13 1 14 3 15
REMARK H PARENT
REMARK Flexibility Score: inf
ROOT
ATOM      1  C   UNL     1      90.078  63.890  90.764  1.00  0.00     0.012 C 
ENDROOT
BRANCH   1   2
ATOM      2  C   UNL     1      89.025  63.101  91.579  1.00  0.00     0.016 C 
ATOM      3  C   UNL     1      87.708  63.882  91.662  1.00  0.00     0.013 C 
BRANCH   2   4
ATOM      4  C   UNL     1      88.787  61.712  91.013  1.00  0.00    -0.045 A 
ATOM      5  C   UNL     1      88.102  57.745  89.448  1.00  0.00     0.044 C 
ATOM      6  C   UNL     1      88.367  59.113  90.001  1.00  0.00    -0.051 A 
ATOM      7  C   UNL     1      87.954  59.443  91.301  1.00  0.00     0.004 A 
ATOM      8  C   UNL     1      88.968  60.095  89.201  1.00  0.00     0.004 A 
ATOM      9  C   UNL     1      88.168  60.728  91.804  1.00  0.00     0.004 A 
ATOM     10  C   UNL     1      89.184  61.381  89.704  1.00  0.00     0.004 A 
ENDBRANCH   2   4
ENDBRANCH   1   2
BRANCH   1  11
ATOM     11  C   UNL     1      89.484  65.045  89.940  1.00  0.00     0.028 C 
BRANCH  11  12
ATOM     12  C   UNL     1      89.813  64.928  88.470  1.00  0.00    -0.028 C 
ATOM     13  C   UNL     1      88.950  64.503  87.522  1.00  0.00    -0.080 C 
ATOM     14  C   UNL     1      89.416  64.479  86.089  1.00  0.00     0.039 C 
ATOM     15  C   UNL     1      87.554  64.035  87.859  1.00  0.00     0.039 C 
ENDBRANCH  11  12
ENDBRANCH   1  11
TORSDOF 4
ENDMDL
MODEL 9
REMARK VINA RESULT:    -4.195      1.749      2.739
REMARK INTER + INTRA:          -6.698
REMARK INTER:                  -5.153
REMARK INTRA:                  -1.545
REMARK UNBOUND:                -1.522
REMARK SMILES CC(C)=CCC[C@@H](C)c1ccc(C)cc1
REMARK SMILES IDX 6 1 7 2 8 3 9 4 13 5 12 6 11 7 14 8 10 9 15 10 5 11 4 12
REMARK SMILES IDX 2 13 1 14 3 15
REMARK H PARENT
REMARK Flexibility Score: inf
ROOT
ATOM      1  C   UNL     1      88.896  62.882  87.599  1.00  0.00     0.012 C 
ENDROOT
BRANCH   1   2
ATOM      2  C   UNL     1      89.840  63.635  88.566  1.00  0.00     0.016 C 
ATOM      3  C   UNL     1      89.768  65.147  88.325  1.00  0.00     0.013 C 
BRANCH   2   4
ATOM      4  C   UNL     1      89.545  63.312  90.021  1.00  0.00    -0.045 A 
ATOM      5  C   UNL     1      88.680  62.357  94.143  1.00  0.00     0.044 C 
ATOM      6  C   UNL     1      88.952  62.698  92.708  1.00  0.00    -0.051 A 
ATOM      7  C   UNL     1      88.774  61.734  91.706  1.00  0.00     0.004 A 
ATOM      8  C   UNL     1      89.451  63.963  92.365  1.00  0.00     0.004 A 
ATOM      9  C   UNL     1      89.061  62.040  90.373  1.00  0.00     0.004 A 
ATOM     10  C   UNL     1      89.738  64.271  91.033  1.00  0.00     0.004 A 
ENDBRANCH   2   4
ENDBRANCH   1   2
BRANCH   1  11
ATOM     11  C   UNL     1      87.580  63.627  87.313  1.00  0.00     0.028 C 
BRANCH  11  12
ATOM     12  C   UNL     1      86.417  63.054  88.089  1.00  0.00    -0.028 C 
ATOM     13  C   UNL     1      85.824  63.660  89.140  1.00  0.00    -0.080 C 
ATOM     14  C   UNL     1      84.646  62.979  89.787  1.00  0.00     0.039 C 
ATOM     15  C   UNL     1      86.317  64.977  89.691  1.00  0.00     0.039 C 
ENDBRANCH  11  12
ENDBRANCH   1  11
TORSDOF 4
ENDMDL
