MODEL 1
REMARK VINA RESULT:     0.000      0.000      0.000
REMARK INTER + INTRA:          -0.142
REMARK INTER:                   0.000
REMARK INTRA:                  -0.142
REMARK UNBOUND:                -0.142
REMARK SMILES CCCCC(=O)[O-]
REMARK SMILES IDX 4 1 5 2 6 3 7 4 3 5 2 6 1 7
REMARK H PARENT
REMARK Flexibility Score: inf
ROOT
ATOM      1  C   UNL     1     179.967 183.244 191.254  1.00  0.00     0.053 C 
ENDROOT
BRANCH   1   2
ATOM      2  C   UNL     1     181.228 183.873 190.747  1.00  0.00     0.041 C 
ATOM      3  O   UNL     1     181.656 183.600 189.595  1.00  0.00    -0.550 OA
ATOM      4  O   UNL     1     181.950 184.737 191.561  1.00  0.00    -0.550 OA
ENDBRANCH   1   2
BRANCH   1   5
ATOM      5  C   UNL     1     180.192 182.505 192.579  1.00  0.00     0.006 C 
BRANCH   5   6
ATOM      6  C   UNL     1     181.189 181.346 192.436  1.00  0.00    -0.003 C 
ATOM      7  C   UNL     1     182.333 181.477 193.436  1.00  0.00     0.004 C 
ENDBRANCH   5   6
ENDBRANCH   1   5
TORSDOF 3
ENDMDL
MODEL 2
REMARK VINA RESULT:     0.000      6.251      7.405
REMARK INTER + INTRA:          -0.142
REMARK INTER:                   0.000
REMARK INTRA:                  -0.142
REMARK UNBOUND:                -0.142
REMARK SMILES CCCCC(=O)[O-]
REMARK SMILES IDX 4 1 5 2 6 3 7 4 3 5 2 6 1 7
REMARK H PARENT
REMARK Flexibility Score: inf
ROOT
ATOM      1  C   UNL     1     175.712 186.849 189.891  1.00  0.00     0.053 C 
ENDROOT
BRANCH   1   2
ATOM      2  C   UNL     1     177.067 187.011 189.273  1.00  0.00     0.041 C 
ATOM      3  O   UNL     1     178.036 186.312 189.672  1.00  0.00    -0.550 OA
ATOM      4  O   UNL     1     177.268 187.959 188.277  1.00  0.00    -0.550 OA
ENDBRANCH   1   2
BRANCH   1   5
ATOM      5  C   UNL     1     175.175 188.176 190.441  1.00  0.00     0.006 C 
BRANCH   5   6
ATOM      6  C   UNL     1     176.062 188.742 191.560  1.00  0.00    -0.003 C 
ATOM      7  C   UNL     1     176.499 190.170 191.246  1.00  0.00     0.004 C 
ENDBRANCH   5   6
ENDBRANCH   1   5
TORSDOF 3
ENDMDL
MODEL 3
REMARK VINA RESULT:     0.000      5.540      6.190
REMARK INTER + INTRA:          -0.142
REMARK INTER:                   0.000
REMARK INTRA:                  -0.142
REMARK UNBOUND:                -0.142
REMARK SMILES CCCCC(=O)[O-]
REMARK SMILES IDX 4 1 5 2 6 3 7 4 3 5 2 6 1 7
REMARK H PARENT
REMARK Flexibility Score: inf
ROOT
ATOM      1  C   UNL     1     175.762 181.969 190.650  1.00  0.00     0.053 C 
ENDROOT
BRANCH   1   2
ATOM      2  C   UNL     1     174.951 180.723 190.826  1.00  0.00     0.041 C 
ATOM      3  O   UNL     1     173.747 180.794 191.187  1.00  0.00    -0.550 OA
ATOM      4  O   UNL     1     175.535 179.479 190.622  1.00  0.00    -0.550 OA
ENDBRANCH   1   2
BRANCH   1   5
ATOM      5  C   UNL     1     177.038 181.943 191.503  1.00  0.00     0.006 C 
BRANCH   5   6
ATOM      6  C   UNL     1     176.730 181.874 193.006  1.00  0.00    -0.003 C 
ATOM      7  C   UNL     1     177.437 180.689 193.657  1.00  0.00     0.004 C 
ENDBRANCH   5   6
ENDBRANCH   1   5
TORSDOF 3
ENDMDL
MODEL 4
REMARK VINA RESULT:     0.000      7.061      8.116
REMARK INTER + INTRA:          -0.142
REMARK INTER:                   0.000
REMARK INTRA:                  -0.142
REMARK UNBOUND:                -0.142
REMARK SMILES CCCCC(=O)[O-]
REMARK SMILES IDX 4 1 5 2 6 3 7 4 3 5 2 6 1 7
REMARK H PARENT
REMARK Flexibility Score: inf
ROOT
ATOM      1  C   UNL     1     184.509 184.858 197.239  1.00  0.00     0.053 C 
ENDROOT
BRANCH   1   2
ATOM      2  C   UNL     1     185.903 184.995 196.708  1.00  0.00     0.041 C 
ATOM      3  O   UNL     1     186.814 184.223 197.110  1.00  0.00    -0.550 OA
ATOM      4  O   UNL     1     186.204 185.996 195.793  1.00  0.00    -0.550 OA
ENDBRANCH   1   2
BRANCH   1   5
ATOM      5  C   UNL     1     184.001 186.171 197.848  1.00  0.00     0.006 C 
BRANCH   5   6
ATOM      6  C   UNL     1     184.845 186.618 199.051  1.00  0.00    -0.003 C 
ATOM      7  C   UNL     1     185.365 188.040 198.860  1.00  0.00     0.004 C 
ENDBRANCH   5   6
ENDBRANCH   1   5
TORSDOF 3
ENDMDL
MODEL 5
REMARK VINA RESULT:     0.000     10.286     11.466
REMARK INTER + INTRA:          -0.142
REMARK INTER:                   0.000
REMARK INTRA:                  -0.142
REMARK UNBOUND:                -0.142
REMARK SMILES CCCCC(=O)[O-]
REMARK SMILES IDX 4 1 5 2 6 3 7 4 3 5 2 6 1 7
REMARK H PARENT
REMARK Flexibility Score: inf
ROOT
ATOM      1  C   UNL     1     173.976 187.540 183.315  1.00  0.00     0.053 C 
ENDROOT
BRANCH   1   2
ATOM      2  C   UNL     1     173.963 186.644 182.116  1.00  0.00     0.041 C 
ATOM      3  O   UNL     1     172.871 186.299 181.592  1.00  0.00    -0.550 OA
ATOM      4  O   UNL     1     175.158 186.162 181.595  1.00  0.00    -0.550 OA
ENDBRANCH   1   2
BRANCH   1   5
ATOM      5  C   UNL     1     174.739 186.911 184.488  1.00  0.00     0.006 C 
BRANCH   5   6
ATOM      6  C   UNL     1     174.089 185.606 184.970  1.00  0.00    -0.003 C 
ATOM      7  C   UNL     1     175.093 184.457 184.968  1.00  0.00     0.004 C 
ENDBRANCH   5   6
ENDBRANCH   1   5
TORSDOF 3
ENDMDL
MODEL 6
REMARK VINA RESULT:     0.000      6.354      7.436
REMARK INTER + INTRA:          -0.142
REMARK INTER:                   0.000
REMARK INTRA:                  -0.142
REMARK UNBOUND:                -0.142
REMARK SMILES CCCCC(=O)[O-]
REMARK SMILES IDX 4 1 5 2 6 3 7 4 3 5 2 6 1 7
REMARK H PARENT
REMARK Flexibility Score: inf
ROOT
ATOM      1  C   UNL     1     177.238 188.545 193.185  1.00  0.00     0.053 C 
ENDROOT
BRANCH   1   2
ATOM      2  C   UNL     1     177.608 187.169 193.644  1.00  0.00     0.041 C 
ATOM      3  O   UNL     1     178.167 186.363 192.853  1.00  0.00    -0.550 OA
ATOM      4  O   UNL     1     177.307 186.763 194.938  1.00  0.00    -0.550 OA
ENDBRANCH   1   2
BRANCH   1   5
ATOM      5  C   UNL     1     175.746 188.833 193.394  1.00  0.00     0.006 C 
BRANCH   5   6
ATOM      6  C   UNL     1     174.852 187.886 192.580  1.00  0.00    -0.003 C 
ATOM      7  C   UNL     1     173.845 187.173 193.478  1.00  0.00     0.004 C 
ENDBRANCH   5   6
ENDBRANCH   1   5
TORSDOF 3
ENDMDL
MODEL 7
REMARK VINA RESULT:     0.000      5.105      6.437
REMARK INTER + INTRA:          -0.142
REMARK INTER:                   0.000
REMARK INTRA:                  -0.142
REMARK UNBOUND:                -0.142
REMARK SMILES CCCCC(=O)[O-]
REMARK SMILES IDX 4 1 5 2 6 3 7 4 3 5 2 6 1 7
REMARK H PARENT
REMARK Flexibility Score: inf
ROOT
ATOM      1  C   UNL     1     184.395 184.164 197.952  1.00  0.00     0.053 C 
ENDROOT
BRANCH   1   2
ATOM      2  C   UNL     1     183.305 185.086 197.500  1.00  0.00     0.041 C 
ATOM      3  O   UNL     1     182.127 184.931 197.919  1.00  0.00    -0.550 OA
ATOM      4  O   UNL     1     183.583 186.099 196.591  1.00  0.00    -0.550 OA
ENDBRANCH   1   2
BRANCH   1   5
ATOM      5  C   UNL     1     185.106 183.500 196.766  1.00  0.00     0.006 C 
BRANCH   5   6
ATOM      6  C   UNL     1     184.158 182.622 195.937  1.00  0.00    -0.003 C 
ATOM      7  C   UNL     1     184.174 183.029 194.467  1.00  0.00     0.004 C 
ENDBRANCH   5   6
ENDBRANCH   1   5
TORSDOF 3
ENDMDL
MODEL 8
REMARK VINA RESULT:     0.000      8.173      9.167
REMARK INTER + INTRA:          -0.142
REMARK INTER:                   0.000
REMARK INTRA:                  -0.142
REMARK UNBOUND:                -0.142
REMARK SMILES CCCCC(=O)[O-]
REMARK SMILES IDX 4 1 5 2 6 3 7 4 3 5 2 6 1 7
REMARK H PARENT
REMARK Flexibility Score: inf
ROOT
ATOM      1  C   UNL     1     173.258 187.951 193.500  1.00  0.00     0.053 C 
ENDROOT
BRANCH   1   2
ATOM      2  C   UNL     1     172.743 186.669 194.078  1.00  0.00     0.041 C 
ATOM      3  O   UNL     1     173.101 186.300 195.228  1.00  0.00    -0.550 OA
ATOM      4  O   UNL     1     171.890 185.863 193.333  1.00  0.00    -0.550 OA
ENDBRANCH   1   2
BRANCH   1   5
ATOM      5  C   UNL     1     173.943 187.729 192.145  1.00  0.00     0.006 C 
BRANCH   5   6
ATOM      6  C   UNL     1     175.173 186.818 192.259  1.00  0.00    -0.003 C 
ATOM      7  C   UNL     1     175.071 185.633 191.303  1.00  0.00     0.004 C 
ENDBRANCH   5   6
ENDBRANCH   1   5
TORSDOF 3
ENDMDL
MODEL 9
REMARK VINA RESULT:     0.000      5.566      6.665
REMARK INTER + INTRA:          -0.142
REMARK INTER:                   0.000
REMARK INTRA:                  -0.142
REMARK UNBOUND:                -0.142
REMARK SMILES CCCCC(=O)[O-]
REMARK SMILES IDX 4 1 5 2 6 3 7 4 3 5 2 6 1 7
REMARK H PARENT
REMARK Flexibility Score: inf
ROOT
ATOM      1  C   UNL     1     179.933 189.225 188.112  1.00  0.00     0.053 C 
ENDROOT
BRANCH   1   2
ATOM      2  C   UNL     1     179.954 189.402 189.599  1.00  0.00     0.041 C 
ATOM      3  O   UNL     1     181.044 189.353 190.230  1.00  0.00    -0.550 OA
ATOM      4  O   UNL     1     178.766 189.591 190.294  1.00  0.00    -0.550 OA
ENDBRANCH   1   2
BRANCH   1   5
ATOM      5  C   UNL     1     178.996 188.087 187.688  1.00  0.00     0.006 C 
BRANCH   5   6
ATOM      6  C   UNL     1     179.443 186.728 188.247  1.00  0.00    -0.003 C 
ATOM      7  C   UNL     1     178.317 186.058 189.029  1.00  0.00     0.004 C 
ENDBRANCH   5   6
ENDBRANCH   1   5
TORSDOF 3
ENDMDL
