MODEL 1
REMARK VINA RESULT:   -11.370      0.000      0.000
REMARK INTER + INTRA:         -15.664
REMARK INTER:                 -15.690
REMARK INTRA:                   0.026
REMARK UNBOUND:                 0.026
REMARK SMILES C=C(CC[C@@H](C(=O)[O-])[C@H]1CC[C@@]2(C)C3=C(CC[C@@]12C)[C@]1(C)CC[C@@H](O)C(C)(C)[C@H]1CC3)C(C)C
REMARK SMILES IDX 4 1 5 2 6 3 7 4 8 5 9 6 10 7 18 8 11 9 12 10 17 11 19 12
REMARK SMILES IDX 13 13 14 14 16 15 15 16 31 17 20 18 30 19 29 20 22 21 21 22
REMARK SMILES IDX 26 23 23 24 24 25 27 26 28 27 25 28 3 30 2 31 1 32 32 33
REMARK SMILES IDX 33 34 34 35
REMARK H PARENT 25 29
REMARK Flexibility Score: inf
ROOT
ATOM      1  C   UNL     1     -17.370 -37.242  23.925  1.00  0.00     0.014 C 
ENDROOT
BRANCH   1   2
ATOM      2  C   UNL     1     -17.639 -38.691  24.416  1.00  0.00     0.039 C 
BRANCH   2   3
ATOM      3  C   UNL     1     -17.226 -38.827  25.859  1.00  0.00     0.045 C 
ATOM      4  O   UNL     1     -17.701 -38.047  26.730  1.00  0.00    -0.550 OA
ATOM      5  O   UNL     1     -16.293 -39.789  26.241  1.00  0.00    -0.550 OA
ENDBRANCH   2   3
BRANCH   2   6
ATOM      6  C   UNL     1     -19.155 -39.071  24.253  1.00  0.00     0.004 C 
ATOM      7  C   UNL     1     -19.611 -39.105  22.786  1.00  0.00     0.006 C 
ATOM      8  C   UNL     1     -19.634 -40.440  24.847  1.00  0.00    -0.020 C 
ATOM      9  C   UNL     1     -20.700 -40.167  22.661  1.00  0.00     0.012 C 
ATOM     10  C   UNL     1     -20.977 -40.721  24.076  1.00  0.00    -0.006 C 
ATOM     11  C   UNL     1     -18.625 -41.565  24.520  1.00  0.00     0.012 C 
ATOM     12  C   UNL     1     -19.830 -40.364  26.388  1.00  0.00     0.012 C 
ATOM     13  C   UNL     1     -22.153 -39.910  24.708  1.00  0.00     0.017 C 
ATOM     14  C   UNL     1     -21.380 -42.219  23.974  1.00  0.00    -0.064 C 
ATOM     15  C   UNL     1     -19.157 -42.935  24.919  1.00  0.00     0.032 C 
ATOM     16  C   UNL     1     -20.535 -43.241  24.344  1.00  0.00    -0.064 C 
ATOM     17  C   UNL     1     -22.651 -42.522  23.179  1.00  0.00     0.032 C 
ATOM     18  C   UNL     1     -21.067 -44.699  24.459  1.00  0.00    -0.008 C 
ATOM     19  C   UNL     1     -23.215 -43.927  23.356  1.00  0.00     0.009 C 
ATOM     20  C   UNL     1     -22.086 -44.965  23.293  1.00  0.00     0.007 C 
ATOM     21  C   UNL     1     -19.910 -45.732  24.338  1.00  0.00     0.014 C 
ATOM     22  C   UNL     1     -21.689 -44.804  25.878  1.00  0.00     0.016 C 
ATOM     23  C   UNL     1     -22.571 -46.460  23.078  1.00  0.00    -0.006 C 
ATOM     24  C   UNL     1     -20.389 -47.183  24.255  1.00  0.00     0.033 C 
ATOM     25  C   UNL     1     -21.323 -47.400  23.052  1.00  0.00     0.120 C 
ATOM     26  C   UNL     1     -23.256 -46.583  21.686  1.00  0.00     0.014 C 
ATOM     27  C   UNL     1     -23.605 -46.948  24.133  1.00  0.00     0.014 C 
BRANCH  25  28
ATOM     28  O   UNL     1     -21.732 -48.747  23.008  1.00  0.00    -0.393 OA
ATOM     29  H   UNL     1     -22.527 -48.791  22.412  1.00  0.00     0.210 HD
ENDBRANCH  25  28
ENDBRANCH   2   6
ENDBRANCH   1   2
BRANCH   1  30
ATOM     30  C   UNL     1     -15.879 -36.834  23.881  1.00  0.00     0.031 C 
BRANCH  30  31
ATOM     31  C   UNL     1     -15.378 -36.148  25.147  1.00  0.00    -0.075 C 
ATOM     32  C   UNL     1     -16.174 -35.247  25.757  1.00  0.00     0.008 C 
BRANCH  31  33
ATOM     33  C   UNL     1     -13.955 -36.334  25.699  1.00  0.00     0.008 C 
ATOM     34  C   UNL     1     -13.735 -37.794  26.133  1.00  0.00     0.012 C 
ATOM     35  C   UNL     1     -13.577 -35.410  26.870  1.00  0.00     0.012 C 
ENDBRANCH  31  33
ENDBRANCH  30  31
ENDBRANCH   1  30
TORSDOF 7
ENDMDL
MODEL 2
REMARK VINA RESULT:    -9.467      1.117      1.334
REMARK INTER + INTRA:         -13.039
REMARK INTER:                 -12.266
REMARK INTRA:                  -0.773
REMARK UNBOUND:                 0.026
REMARK SMILES C=C(CC[C@@H](C(=O)[O-])[C@H]1CC[C@@]2(C)C3=C(CC[C@@]12C)[C@]1(C)CC[C@@H](O)C(C)(C)[C@H]1CC3)C(C)C
REMARK SMILES IDX 4 1 5 2 6 3 7 4 8 5 9 6 10 7 18 8 11 9 12 10 17 11 19 12
REMARK SMILES IDX 13 13 14 14 16 15 15 16 31 17 20 18 30 19 29 20 22 21 21 22
REMARK SMILES IDX 26 23 23 24 24 25 27 26 28 27 25 28 3 30 2 31 1 32 32 33
REMARK SMILES IDX 33 34 34 35
REMARK H PARENT 25 29
REMARK Flexibility Score: inf
ROOT
ATOM      1  C   UNL     1     -16.547 -38.253  24.546  1.00  0.00     0.014 C 
ENDROOT
BRANCH   1   2
ATOM      2  C   UNL     1     -17.618 -38.492  25.646  1.00  0.00     0.039 C 
BRANCH   2   3
ATOM      3  C   UNL     1     -17.784 -37.246  26.476  1.00  0.00     0.045 C 
ATOM      4  O   UNL     1     -18.323 -37.311  27.616  1.00  0.00    -0.550 OA
ATOM      5  O   UNL     1     -17.377 -36.008  25.983  1.00  0.00    -0.550 OA
ENDBRANCH   2   3
BRANCH   2   6
ATOM      6  C   UNL     1     -18.995 -38.904  25.013  1.00  0.00     0.004 C 
ATOM      7  C   UNL     1     -18.939 -39.031  23.482  1.00  0.00     0.006 C 
ATOM      8  C   UNL     1     -19.651 -40.244  25.496  1.00  0.00    -0.020 C 
ATOM      9  C   UNL     1     -19.929 -40.116  23.067  1.00  0.00     0.012 C 
ATOM     10  C   UNL     1     -20.662 -40.590  24.341  1.00  0.00    -0.006 C 
ATOM     11  C   UNL     1     -18.595 -41.370  25.590  1.00  0.00     0.012 C 
ATOM     12  C   UNL     1     -20.346 -40.081  26.877  1.00  0.00     0.012 C 
ATOM     13  C   UNL     1     -21.979 -39.763  24.498  1.00  0.00     0.017 C 
ATOM     14  C   UNL     1     -21.016 -42.098  24.202  1.00  0.00    -0.064 C 
ATOM     15  C   UNL     1     -19.235 -42.723  25.871  1.00  0.00     0.032 C 
ATOM     16  C   UNL     1     -20.346 -43.084  24.892  1.00  0.00    -0.064 C 
ATOM     17  C   UNL     1     -21.952 -42.467  23.051  1.00  0.00     0.032 C 
ATOM     18  C   UNL     1     -20.892 -44.540  24.912  1.00  0.00    -0.008 C 
ATOM     19  C   UNL     1     -22.549 -43.868  23.115  1.00  0.00     0.009 C 
ATOM     20  C   UNL     1     -21.468 -44.890  23.492  1.00  0.00     0.007 C 
ATOM     21  C   UNL     1     -19.764 -45.561  25.243  1.00  0.00     0.014 C 
ATOM     22  C   UNL     1     -21.950 -44.573  26.048  1.00  0.00     0.016 C 
ATOM     23  C   UNL     1     -21.860 -46.403  23.219  1.00  0.00    -0.006 C 
ATOM     24  C   UNL     1     -20.196 -47.021  25.093  1.00  0.00     0.033 C 
ATOM     25  C   UNL     1     -20.679 -47.323  23.664  1.00  0.00     0.120 C 
ATOM     26  C   UNL     1     -22.045 -46.617  21.689  1.00  0.00     0.014 C 
ATOM     27  C   UNL     1     -23.188 -46.845  23.899  1.00  0.00     0.014 C 
BRANCH  25  28
ATOM     28  O   UNL     1     -21.056 -48.677  23.568  1.00  0.00    -0.393 OA
ATOM     29  H   UNL     1     -20.327 -49.212  23.982  1.00  0.00     0.210 HD
ENDBRANCH  25  28
ENDBRANCH   2   6
ENDBRANCH   1   2
BRANCH   1  30
ATOM     30  C   UNL     1     -15.082 -38.351  25.030  1.00  0.00     0.031 C 
BRANCH  30  31
ATOM     31  C   UNL     1     -14.387 -37.005  25.208  1.00  0.00    -0.075 C 
ATOM     32  C   UNL     1     -14.607 -36.034  24.299  1.00  0.00     0.008 C 
BRANCH  31  33
ATOM     33  C   UNL     1     -13.345 -36.733  26.306  1.00  0.00     0.008 C 
ATOM     34  C   UNL     1     -13.838 -35.620  27.248  1.00  0.00     0.012 C 
ATOM     35  C   UNL     1     -11.939 -36.365  25.802  1.00  0.00     0.012 C 
ENDBRANCH  31  33
ENDBRANCH  30  31
ENDBRANCH   1  30
TORSDOF 7
ENDMDL
MODEL 3
REMARK VINA RESULT:    -9.015      1.915      9.390
REMARK INTER + INTRA:         -12.415
REMARK INTER:                 -11.537
REMARK INTRA:                  -0.878
REMARK UNBOUND:                 0.026
REMARK SMILES C=C(CC[C@@H](C(=O)[O-])[C@H]1CC[C@@]2(C)C3=C(CC[C@@]12C)[C@]1(C)CC[C@@H](O)C(C)(C)[C@H]1CC3)C(C)C
REMARK SMILES IDX 4 1 5 2 6 3 7 4 8 5 9 6 10 7 18 8 11 9 12 10 17 11 19 12
REMARK SMILES IDX 13 13 14 14 16 15 15 16 31 17 20 18 30 19 29 20 22 21 21 22
REMARK SMILES IDX 26 23 23 24 24 25 27 26 28 27 25 28 3 30 2 31 1 32 32 33
REMARK SMILES IDX 33 34 34 35
REMARK H PARENT 25 29
REMARK Flexibility Score: inf
ROOT
ATOM      1  C   UNL     1     -20.958 -44.879  23.120  1.00  0.00     0.014 C 
ENDROOT
BRANCH   1   2
ATOM      2  C   UNL     1     -21.711 -43.558  23.441  1.00  0.00     0.039 C 
BRANCH   2   3
ATOM      3  C   UNL     1     -23.177 -43.842  23.642  1.00  0.00     0.045 C 
ATOM      4  O   UNL     1     -24.040 -43.252  22.936  1.00  0.00    -0.550 OA
ATOM      5  O   UNL     1     -23.597 -44.732  24.629  1.00  0.00    -0.550 OA
ENDBRANCH   2   3
BRANCH   2   6
ATOM      6  C   UNL     1     -21.118 -42.866  24.721  1.00  0.00     0.004 C 
ATOM      7  C   UNL     1     -19.879 -43.588  25.274  1.00  0.00     0.006 C 
ATOM      8  C   UNL     1     -20.681 -41.365  24.605  1.00  0.00    -0.020 C 
ATOM      9  C   UNL     1     -18.969 -42.537  25.905  1.00  0.00     0.012 C 
ATOM     10  C   UNL     1     -19.699 -41.178  25.820  1.00  0.00    -0.006 C 
ATOM     11  C   UNL     1     -19.904 -41.118  23.290  1.00  0.00     0.012 C 
ATOM     12  C   UNL     1     -21.901 -40.403  24.663  1.00  0.00     0.012 C 
ATOM     13  C   UNL     1     -20.498 -40.956  27.144  1.00  0.00     0.017 C 
ATOM     14  C   UNL     1     -18.652 -40.039  25.654  1.00  0.00    -0.064 C 
ATOM     15  C   UNL     1     -19.306 -39.719  23.242  1.00  0.00     0.032 C 
ATOM     16  C   UNL     1     -18.457 -39.379  24.461  1.00  0.00    -0.064 C 
ATOM     17  C   UNL     1     -17.649 -39.875  26.797  1.00  0.00     0.032 C 
ATOM     18  C   UNL     1     -17.584 -38.093  24.408  1.00  0.00    -0.008 C 
ATOM     19  C   UNL     1     -16.851 -38.576  26.786  1.00  0.00     0.009 C 
ATOM     20  C   UNL     1     -16.352 -38.270  25.367  1.00  0.00     0.007 C 
ATOM     21  C   UNL     1     -17.046 -37.836  22.970  1.00  0.00     0.014 C 
ATOM     22  C   UNL     1     -18.533 -36.929  24.806  1.00  0.00     0.016 C 
ATOM     23  C   UNL     1     -15.206 -37.176  25.289  1.00  0.00    -0.006 C 
ATOM     24  C   UNL     1     -16.031 -36.694  22.890  1.00  0.00     0.033 C 
ATOM     25  C   UNL     1     -14.813 -36.958  23.792  1.00  0.00     0.120 C 
ATOM     26  C   UNL     1     -13.937 -37.709  26.014  1.00  0.00     0.014 C 
ATOM     27  C   UNL     1     -15.575 -35.823  25.964  1.00  0.00     0.014 C 
BRANCH  25  28
ATOM     28  O   UNL     1     -13.902 -35.889  23.682  1.00  0.00    -0.393 OA
ATOM     29  H   UNL     1     -14.438 -35.052  23.651  1.00  0.00     0.210 HD
ENDBRANCH  25  28
ENDBRANCH   2   6
ENDBRANCH   1   2
BRANCH   1  30
ATOM     30  C   UNL     1     -21.591 -45.735  21.999  1.00  0.00     0.031 C 
BRANCH  30  31
ATOM     31  C   UNL     1     -22.226 -47.033  22.482  1.00  0.00    -0.075 C 
ATOM     32  C   UNL     1     -23.502 -47.301  22.137  1.00  0.00     0.008 C 
BRANCH  31  33
ATOM     33  C   UNL     1     -21.531 -48.002  23.453  1.00  0.00     0.008 C 
ATOM     34  C   UNL     1     -21.827 -47.605  24.910  1.00  0.00     0.012 C 
ATOM     35  C   UNL     1     -20.007 -48.129  23.278  1.00  0.00     0.012 C 
ENDBRANCH  31  33
ENDBRANCH  30  31
ENDBRANCH   1  30
TORSDOF 7
ENDMDL
