MODEL 1
REMARK VINA RESULT:    -5.489      0.000      0.000
REMARK INTER + INTRA:          -6.775
REMARK INTER:                  -6.612
REMARK INTRA:                  -0.163
REMARK UNBOUND:                -0.163
REMARK SMILES O=c1c(O)c(-c2ccc(O)c(O)c2)oc2cc(O)cc(O)c12
REMARK SMILES IDX 5 1 3 2 2 3 1 4 22 5 20 6 19 7 17 8 16 9 15 10 14 11 6 12
REMARK SMILES IDX 7 13 8 14 9 15 13 16 11 17 10 18 12 20 4 22 21 24 18 26
REMARK H PARENT 10 19 12 21 4 23 21 25 18 27
REMARK Flexibility Score: inf
ROOT
ATOM      1  C   UNL     1      42.198  11.036  37.075  1.00  0.00     0.180 A 
ATOM      2  C   UNL     1      42.631  11.959  36.103  1.00  0.00     0.208 A 
ATOM      3  C   UNL     1      42.810  11.520  34.782  1.00  0.00     0.238 A 
ATOM      4  O   UNL     1      43.208  12.336  33.906  1.00  0.00    -0.285 OA
ATOM      5  C   UNL     1      42.535  10.177  34.450  1.00  0.00     0.111 A 
ATOM      6  C   UNL     1      42.687   9.656  33.142  1.00  0.00     0.134 A 
ATOM      7  C   UNL     1      42.385   8.310  32.891  1.00  0.00     0.093 A 
ATOM      8  C   UNL     1      41.934   7.477  33.920  1.00  0.00     0.123 A 
ATOM      9  C   UNL     1      41.784   7.985  35.212  1.00  0.00     0.094 A 
ATOM     10  C   UNL     1      42.082   9.324  35.483  1.00  0.00     0.146 A 
ATOM     11  O   UNL     1      41.935   9.781  36.721  1.00  0.00    -0.452 OA
ENDROOT
BRANCH   1  12
ATOM     12  C   UNL     1      42.004  11.417  38.491  1.00  0.00     0.025 A 
ATOM     13  C   UNL     1      41.027  12.355  38.870  1.00  0.00     0.016 A 
ATOM     14  C   UNL     1      40.878  12.718  40.211  1.00  0.00     0.051 A 
ATOM     15  C   UNL     1      41.711  12.160  41.190  1.00  0.00     0.157 A 
ATOM     16  C   UNL     1      42.850  10.878  39.475  1.00  0.00     0.062 A 
ATOM     17  C   UNL     1      42.700  11.241  40.821  1.00  0.00     0.158 A 
BRANCH  15  18
ATOM     18  O   UNL     1      41.564  12.519  42.530  1.00  0.00    -0.504 OA
ATOM     19  H   UNL     1      42.229  12.221  43.233  1.00  0.00     0.293 HD
ENDBRANCH  15  18
BRANCH  17  20
ATOM     20  O   UNL     1      43.532  10.694  41.796  1.00  0.00    -0.504 OA
ATOM     21  H   UNL     1      43.416   9.740  42.118  1.00  0.00     0.293 HD
ENDBRANCH  17  20
ENDBRANCH   1  12
BRANCH   2  22
ATOM     22  O   UNL     1      42.847  13.296  36.447  1.00  0.00    -0.502 OA
ATOM     23  H   UNL     1      42.300  14.053  36.055  1.00  0.00     0.293 HD
ENDBRANCH   2  22
BRANCH   6  24
ATOM     24  O   UNL     1      43.134  10.463  32.095  1.00  0.00    -0.507 OA
ATOM     25  H   UNL     1      43.838  10.145  31.439  1.00  0.00     0.293 HD
ENDBRANCH   6  24
BRANCH   8  26
ATOM     26  O   UNL     1      41.634   6.139  33.671  1.00  0.00    -0.508 OA
ATOM     27  H   UNL     1      42.361   5.436  33.606  1.00  0.00     0.293 HD
ENDBRANCH   8  26
TORSDOF 6
ENDMDL
MODEL 2
REMARK VINA RESULT:    -5.487      2.530      4.824
REMARK INTER + INTRA:          -6.773
REMARK INTER:                  -6.767
REMARK INTRA:                  -0.005
REMARK UNBOUND:                -0.163
REMARK SMILES O=c1c(O)c(-c2ccc(O)c(O)c2)oc2cc(O)cc(O)c12
REMARK SMILES IDX 5 1 3 2 2 3 1 4 22 5 20 6 19 7 17 8 16 9 15 10 14 11 6 12
REMARK SMILES IDX 7 13 8 14 9 15 13 16 11 17 10 18 12 20 4 22 21 24 18 26
REMARK H PARENT 10 19 12 21 4 23 21 25 18 27
REMARK Flexibility Score: inf
ROOT
ATOM      1  C   UNL     1      42.068  10.494  36.728  1.00  0.00     0.180 A 
ATOM      2  C   UNL     1      42.478  10.331  35.390  1.00  0.00     0.208 A 
ATOM      3  C   UNL     1      42.642  11.471  34.588  1.00  0.00     0.238 A 
ATOM      4  O   UNL     1      42.997  11.337  33.384  1.00  0.00    -0.285 OA
ATOM      5  C   UNL     1      42.414  12.750  35.137  1.00  0.00     0.111 A 
ATOM      6  C   UNL     1      42.560  13.948  34.397  1.00  0.00     0.134 A 
ATOM      7  C   UNL     1      42.325  15.183  35.019  1.00  0.00     0.093 A 
ATOM      8  C   UNL     1      41.946  15.242  36.365  1.00  0.00     0.123 A 
ATOM      9  C   UNL     1      41.800  14.063  37.098  1.00  0.00     0.094 A 
ATOM     10  C   UNL     1      42.029  12.822  36.496  1.00  0.00     0.146 A 
ATOM     11  O   UNL     1      41.878  11.717  37.216  1.00  0.00    -0.452 OA
ENDROOT
BRANCH   1  12
ATOM     12  C   UNL     1      41.856   9.341  37.632  1.00  0.00     0.025 A 
ATOM     13  C   UNL     1      41.085   8.234  37.237  1.00  0.00     0.016 A 
ATOM     14  C   UNL     1      40.878   7.167  38.117  1.00  0.00     0.051 A 
ATOM     15  C   UNL     1      41.426   7.198  39.405  1.00  0.00     0.157 A 
ATOM     16  C   UNL     1      42.385   9.376  38.933  1.00  0.00     0.062 A 
ATOM     17  C   UNL     1      42.178   8.306  39.815  1.00  0.00     0.158 A 
BRANCH  15  18
ATOM     18  O   UNL     1      41.224   6.136  40.285  1.00  0.00    -0.504 OA
ATOM     19  H   UNL     1      41.988   5.734  40.815  1.00  0.00     0.293 HD
ENDBRANCH  15  18
BRANCH  17  20
ATOM     20  O   UNL     1      42.716   8.338  41.101  1.00  0.00    -0.504 OA
ATOM     21  H   UNL     1      42.596   7.565  41.745  1.00  0.00     0.293 HD
ENDBRANCH  17  20
ENDBRANCH   1  12
BRANCH   2  22
ATOM     22  O   UNL     1      42.745   9.057  34.885  1.00  0.00    -0.502 OA
ATOM     23  H   UNL     1      42.791   8.237  35.477  1.00  0.00     0.293 HD
ENDBRANCH   2  22
BRANCH   6  24
ATOM     24  O   UNL     1      42.937  13.920  33.054  1.00  0.00    -0.507 OA
ATOM     25  H   UNL     1      42.499  13.292  32.389  1.00  0.00     0.293 HD
ENDBRANCH   6  24
BRANCH   8  26
ATOM     26  O   UNL     1      41.712  16.468  36.982  1.00  0.00    -0.508 OA
ATOM     27  H   UNL     1      42.408  17.204  36.981  1.00  0.00     0.293 HD
ENDBRANCH   8  26
TORSDOF 6
ENDMDL
MODEL 3
REMARK VINA RESULT:    -5.373      2.847      7.340
REMARK INTER + INTRA:          -6.636
REMARK INTER:                  -6.386
REMARK INTRA:                  -0.250
REMARK UNBOUND:                -0.163
REMARK SMILES O=c1c(O)c(-c2ccc(O)c(O)c2)oc2cc(O)cc(O)c12
REMARK SMILES IDX 5 1 3 2 2 3 1 4 22 5 20 6 19 7 17 8 16 9 15 10 14 11 6 12
REMARK SMILES IDX 7 13 8 14 9 15 13 16 11 17 10 18 12 20 4 22 21 24 18 26
REMARK H PARENT 10 19 12 21 4 23 21 25 18 27
REMARK Flexibility Score: inf
ROOT
ATOM      1  C   UNL     1      42.524  13.633  35.780  1.00  0.00     0.180 A 
ATOM      2  C   UNL     1      42.304  14.912  35.231  1.00  0.00     0.208 A 
ATOM      3  C   UNL     1      42.074  15.992  36.097  1.00  0.00     0.238 A 
ATOM      4  O   UNL     1      41.864  17.139  35.616  1.00  0.00    -0.285 OA
ATOM      5  C   UNL     1      42.087  15.783  37.492  1.00  0.00     0.111 A 
ATOM      6  C   UNL     1      41.868  16.818  38.432  1.00  0.00     0.134 A 
ATOM      7  C   UNL     1      41.907  16.531  39.805  1.00  0.00     0.093 A 
ATOM      8  C   UNL     1      42.160  15.230  40.253  1.00  0.00     0.123 A 
ATOM      9  C   UNL     1      42.376  14.205  39.330  1.00  0.00     0.094 A 
ATOM     10  C   UNL     1      42.340  14.471  37.957  1.00  0.00     0.146 A 
ATOM     11  O   UNL     1      42.544  13.478  37.101  1.00  0.00    -0.452 OA
ENDROOT
BRANCH   1  12
ATOM     12  C   UNL     1      42.755  12.442  34.933  1.00  0.00     0.025 A 
ATOM     13  C   UNL     1      41.778  11.440  34.796  1.00  0.00     0.016 A 
ATOM     14  C   UNL     1      42.029  10.312  34.010  1.00  0.00     0.051 A 
ATOM     15  C   UNL     1      43.261  10.163  33.361  1.00  0.00     0.157 A 
ATOM     16  C   UNL     1      43.997  12.277  34.297  1.00  0.00     0.062 A 
ATOM     17  C   UNL     1      44.248  11.146  33.508  1.00  0.00     0.158 A 
BRANCH  15  18
ATOM     18  O   UNL     1      43.514   9.040  32.574  1.00  0.00    -0.504 OA
ATOM     19  H   UNL     1      44.266   9.027  31.896  1.00  0.00     0.293 HD
ENDBRANCH  15  18
BRANCH  17  20
ATOM     20  O   UNL     1      45.477  10.991  32.867  1.00  0.00    -0.504 OA
ATOM     21  H   UNL     1      46.069  11.785  32.657  1.00  0.00     0.293 HD
ENDBRANCH  17  20
ENDBRANCH   1  12
BRANCH   2  22
ATOM     22  O   UNL     1      42.345  15.102  33.848  1.00  0.00    -0.502 OA
ATOM     23  H   UNL     1      43.207  15.051  33.318  1.00  0.00     0.293 HD
ENDBRANCH   2  22
BRANCH   6  24
ATOM     24  O   UNL     1      41.614  18.125  38.015  1.00  0.00    -0.507 OA
ATOM     25  H   UNL     1      42.350  18.820  37.957  1.00  0.00     0.293 HD
ENDBRANCH   6  24
BRANCH   8  26
ATOM     26  O   UNL     1      42.199  14.944  41.616  1.00  0.00    -0.508 OA
ATOM     27  H   UNL     1      42.719  15.523  42.265  1.00  0.00     0.293 HD
ENDBRANCH   8  26
TORSDOF 6
ENDMDL
MODEL 4
REMARK VINA RESULT:    -5.295      2.170      7.067
REMARK INTER + INTRA:          -6.542
REMARK INTER:                  -6.282
REMARK INTRA:                  -0.260
REMARK UNBOUND:                -0.163
REMARK SMILES O=c1c(O)c(-c2ccc(O)c(O)c2)oc2cc(O)cc(O)c12
REMARK SMILES IDX 5 1 3 2 2 3 1 4 22 5 20 6 19 7 17 8 16 9 15 10 14 11 6 12
REMARK SMILES IDX 7 13 8 14 9 15 13 16 11 17 10 18 12 20 4 22 21 24 18 26
REMARK H PARENT 10 19 12 21 4 23 21 25 18 27
REMARK Flexibility Score: inf
ROOT
ATOM      1  C   UNL     1      42.331  13.006  36.180  1.00  0.00     0.180 A 
ATOM      2  C   UNL     1      42.113  14.381  35.968  1.00  0.00     0.208 A 
ATOM      3  C   UNL     1      41.790  15.194  37.065  1.00  0.00     0.238 A 
ATOM      4  O   UNL     1      41.580  16.425  36.885  1.00  0.00    -0.285 OA
ATOM      5  C   UNL     1      41.711  14.627  38.354  1.00  0.00     0.111 A 
ATOM      6  C   UNL     1      41.394  15.377  39.512  1.00  0.00     0.134 A 
ATOM      7  C   UNL     1      41.344  14.740  40.761  1.00  0.00     0.093 A 
ATOM      8  C   UNL     1      41.604  13.370  40.873  1.00  0.00     0.123 A 
ATOM      9  C   UNL     1      41.916  12.626  39.734  1.00  0.00     0.094 A 
ATOM     10  C   UNL     1      41.969  13.242  38.480  1.00  0.00     0.146 A 
ATOM     11  O   UNL     1      42.263  12.509  37.412  1.00  0.00    -0.452 OA
ENDROOT
BRANCH   1  12
ATOM     12  C   UNL     1      42.658  12.081  35.072  1.00  0.00     0.025 A 
ATOM     13  C   UNL     1      41.714  11.160  34.585  1.00  0.00     0.016 A 
ATOM     14  C   UNL     1      42.053  10.279  33.554  1.00  0.00     0.051 A 
ATOM     15  C   UNL     1      43.341  10.297  33.004  1.00  0.00     0.157 A 
ATOM     16  C   UNL     1      43.955  12.080  34.531  1.00  0.00     0.062 A 
ATOM     17  C   UNL     1      44.295  11.197  33.496  1.00  0.00     0.158 A 
BRANCH  15  18
ATOM     18  O   UNL     1      43.682   9.422  31.974  1.00  0.00    -0.504 OA
ATOM     19  H   UNL     1      43.006   9.134  31.278  1.00  0.00     0.293 HD
ENDBRANCH  15  18
BRANCH  17  20
ATOM     20  O   UNL     1      45.578  11.208  32.953  1.00  0.00    -0.504 OA
ATOM     21  H   UNL     1      46.403  11.158  33.540  1.00  0.00     0.293 HD
ENDBRANCH  17  20
ENDBRANCH   1  12
BRANCH   2  22
ATOM     22  O   UNL     1      42.246  14.927  34.689  1.00  0.00    -0.502 OA
ATOM     23  H   UNL     1      42.895  14.556  34.005  1.00  0.00     0.293 HD
ENDBRANCH   2  22
BRANCH   6  24
ATOM     24  O   UNL     1      41.131  16.745  39.432  1.00  0.00    -0.507 OA
ATOM     25  H   UNL     1      41.689  17.426  39.934  1.00  0.00     0.293 HD
ENDBRANCH   6  24
BRANCH   8  26
ATOM     26  O   UNL     1      41.554  12.738  42.113  1.00  0.00    -0.508 OA
ATOM     27  H   UNL     1      41.001  13.110  42.877  1.00  0.00     0.293 HD
ENDBRANCH   8  26
TORSDOF 6
ENDMDL
MODEL 5
REMARK VINA RESULT:    -5.234      1.359      2.963
REMARK INTER + INTRA:          -6.468
REMARK INTER:                  -6.198
REMARK INTRA:                  -0.270
REMARK UNBOUND:                -0.163
REMARK SMILES O=c1c(O)c(-c2ccc(O)c(O)c2)oc2cc(O)cc(O)c12
REMARK SMILES IDX 5 1 3 2 2 3 1 4 22 5 20 6 19 7 17 8 16 9 15 10 14 11 6 12
REMARK SMILES IDX 7 13 8 14 9 15 13 16 11 17 10 18 12 20 4 22 21 24 18 26
REMARK H PARENT 10 19 12 21 4 23 21 25 18 27
REMARK Flexibility Score: inf
ROOT
ATOM      1  C   UNL     1      41.976  10.188  37.816  1.00  0.00     0.180 A 
ATOM      2  C   UNL     1      41.431   8.902  38.002  1.00  0.00     0.208 A 
ATOM      3  C   UNL     1      41.372   8.026  36.906  1.00  0.00     0.238 A 
ATOM      4  O   UNL     1      40.875   6.876  37.058  1.00  0.00    -0.285 OA
ATOM      5  C   UNL     1      41.874   8.439  35.655  1.00  0.00     0.111 A 
ATOM      6  C   UNL     1      41.855   7.616  34.503  1.00  0.00     0.134 A 
ATOM      7  C   UNL     1      42.383   8.097  33.296  1.00  0.00     0.093 A 
ATOM      8  C   UNL     1      42.929   9.383  33.219  1.00  0.00     0.123 A 
ATOM      9  C   UNL     1      42.950  10.199  34.352  1.00  0.00     0.094 A 
ATOM     10  C   UNL     1      42.426   9.738  35.564  1.00  0.00     0.146 A 
ATOM     11  O   UNL     1      42.454  10.536  36.625  1.00  0.00    -0.452 OA
ENDROOT
BRANCH   1  12
ATOM     12  C   UNL     1      42.057  11.174  38.917  1.00  0.00     0.025 A 
ATOM     13  C   UNL     1      41.187  12.276  38.977  1.00  0.00     0.016 A 
ATOM     14  C   UNL     1      41.298  13.209  40.013  1.00  0.00     0.051 A 
ATOM     15  C   UNL     1      42.286  13.060  40.994  1.00  0.00     0.157 A 
ATOM     16  C   UNL     1      43.060  11.042  39.892  1.00  0.00     0.062 A 
ATOM     17  C   UNL     1      43.171  11.976  40.931  1.00  0.00     0.158 A 
BRANCH  15  18
ATOM     18  O   UNL     1      42.398  13.986  42.030  1.00  0.00    -0.504 OA
ATOM     19  H   UNL     1      41.769  13.971  42.824  1.00  0.00     0.293 HD
ENDBRANCH  15  18
BRANCH  17  20
ATOM     20  O   UNL     1      44.158  11.834  41.905  1.00  0.00    -0.504 OA
ATOM     21  H   UNL     1      43.949  11.460  42.823  1.00  0.00     0.293 HD
ENDBRANCH  17  20
ENDBRANCH   1  12
BRANCH   2  22
ATOM     22  O   UNL     1      40.986   8.500  39.263  1.00  0.00    -0.502 OA
ATOM     23  H   UNL     1      40.139   8.863  39.681  1.00  0.00     0.293 HD
ENDBRANCH   2  22
BRANCH   6  24
ATOM     24  O   UNL     1      41.318   6.329  34.549  1.00  0.00    -0.507 OA
ATOM     25  H   UNL     1      41.615   5.604  33.906  1.00  0.00     0.293 HD
ENDBRANCH   6  24
BRANCH   8  26
ATOM     26  O   UNL     1      43.454   9.861  32.021  1.00  0.00    -0.508 OA
ATOM     27  H   UNL     1      44.103  10.639  31.999  1.00  0.00     0.293 HD
ENDBRANCH   8  26
TORSDOF 6
ENDMDL
MODEL 6
REMARK VINA RESULT:    -5.185      2.147      6.607
REMARK INTER + INTRA:          -6.410
REMARK INTER:                  -6.618
REMARK INTRA:                   0.209
REMARK UNBOUND:                -0.163
REMARK SMILES O=c1c(O)c(-c2ccc(O)c(O)c2)oc2cc(O)cc(O)c12
REMARK SMILES IDX 5 1 3 2 2 3 1 4 22 5 20 6 19 7 17 8 16 9 15 10 14 11 6 12
REMARK SMILES IDX 7 13 8 14 9 15 13 16 11 17 10 18 12 20 4 22 21 24 18 26
REMARK H PARENT 10 19 12 21 4 23 21 25 18 27
REMARK Flexibility Score: inf
ROOT
ATOM      1  C   UNL     1      42.227  10.878  37.195  1.00  0.00     0.180 A 
ATOM      2  C   UNL     1      41.579   9.633  37.076  1.00  0.00     0.208 A 
ATOM      3  C   UNL     1      41.478   8.809  38.208  1.00  0.00     0.238 A 
ATOM      4  O   UNL     1      40.910   7.687  38.110  1.00  0.00    -0.285 OA
ATOM      5  C   UNL     1      42.006   9.249  39.440  1.00  0.00     0.111 A 
ATOM      6  C   UNL     1      41.943   8.481  40.628  1.00  0.00     0.134 A 
ATOM      7  C   UNL     1      42.484   8.993  41.816  1.00  0.00     0.093 A 
ATOM      8  C   UNL     1      43.085  10.256  41.839  1.00  0.00     0.123 A 
ATOM      9  C   UNL     1      43.151  11.017  40.670  1.00  0.00     0.094 A 
ATOM     10  C   UNL     1      42.619  10.523  39.475  1.00  0.00     0.146 A 
ATOM     11  O   UNL     1      42.699  11.265  38.377  1.00  0.00    -0.452 OA
ENDROOT
BRANCH   1  12
ATOM     12  C   UNL     1      42.389  11.794  36.044  1.00  0.00     0.025 A 
ATOM     13  C   UNL     1      42.236  13.184  36.188  1.00  0.00     0.016 A 
ATOM     14  C   UNL     1      42.370  14.028  35.081  1.00  0.00     0.051 A 
ATOM     15  C   UNL     1      42.645  13.494  33.815  1.00  0.00     0.157 A 
ATOM     16  C   UNL     1      42.644  11.263  34.769  1.00  0.00     0.062 A 
ATOM     17  C   UNL     1      42.779  12.108  33.659  1.00  0.00     0.158 A 
BRANCH  15  18
ATOM     18  O   UNL     1      42.781  14.332  32.710  1.00  0.00    -0.504 OA
ATOM     19  H   UNL     1      43.405  14.102  31.945  1.00  0.00     0.293 HD
ENDBRANCH  15  18
BRANCH  17  20
ATOM     20  O   UNL     1      43.045  11.579  32.397  1.00  0.00    -0.504 OA
ATOM     21  H   UNL     1      42.628  11.970  31.559  1.00  0.00     0.293 HD
ENDBRANCH  17  20
ENDBRANCH   1  12
BRANCH   2  22
ATOM     22  O   UNL     1      41.021   9.243  35.857  1.00  0.00    -0.502 OA
ATOM     23  H   UNL     1      40.161   9.642  35.501  1.00  0.00     0.293 HD
ENDBRANCH   2  22
BRANCH   6  24
ATOM     24  O   UNL     1      41.349   7.219  40.635  1.00  0.00    -0.507 OA
ATOM     25  H   UNL     1      40.449   7.055  41.075  1.00  0.00     0.293 HD
ENDBRANCH   6  24
BRANCH   8  26
ATOM     26  O   UNL     1      43.622  10.765  43.020  1.00  0.00    -0.508 OA
ATOM     27  H   UNL     1      44.489  10.408  43.405  1.00  0.00     0.293 HD
ENDBRANCH   8  26
TORSDOF 6
ENDMDL
MODEL 7
REMARK VINA RESULT:    -5.140      2.374      7.458
REMARK INTER + INTRA:          -6.355
REMARK INTER:                  -6.154
REMARK INTRA:                  -0.201
REMARK UNBOUND:                -0.163
REMARK SMILES O=c1c(O)c(-c2ccc(O)c(O)c2)oc2cc(O)cc(O)c12
REMARK SMILES IDX 5 1 3 2 2 3 1 4 22 5 20 6 19 7 17 8 16 9 15 10 14 11 6 12
REMARK SMILES IDX 7 13 8 14 9 15 13 16 11 17 10 18 12 20 4 22 21 24 18 26
REMARK H PARENT 10 19 12 21 4 23 21 25 18 27
REMARK Flexibility Score: inf
ROOT
ATOM      1  C   UNL     1      42.324  12.429  36.471  1.00  0.00     0.180 A 
ATOM      2  C   UNL     1      42.110  11.770  37.698  1.00  0.00     0.208 A 
ATOM      3  C   UNL     1      41.838  12.536  38.842  1.00  0.00     0.238 A 
ATOM      4  O   UNL     1      41.657  11.957  39.948  1.00  0.00    -0.285 OA
ATOM      5  C   UNL     1      41.764  13.940  38.739  1.00  0.00     0.111 A 
ATOM      6  C   UNL     1      41.491  14.785  39.842  1.00  0.00     0.134 A 
ATOM      7  C   UNL     1      41.425  16.173  39.656  1.00  0.00     0.093 A 
ATOM      8  C   UNL     1      41.625  16.733  38.389  1.00  0.00     0.123 A 
ATOM      9  C   UNL     1      41.896  15.905  37.298  1.00  0.00     0.094 A 
ATOM     10  C   UNL     1      41.968  14.518  37.464  1.00  0.00     0.146 A 
ATOM     11  O   UNL     1      42.231  13.754  36.410  1.00  0.00    -0.452 OA
ENDROOT
BRANCH   1  12
ATOM     12  C   UNL     1      42.634  11.692  35.226  1.00  0.00     0.025 A 
ATOM     13  C   UNL     1      41.680  10.865  34.608  1.00  0.00     0.016 A 
ATOM     14  C   UNL     1      42.004  10.160  33.445  1.00  0.00     0.051 A 
ATOM     15  C   UNL     1      43.287  10.261  32.892  1.00  0.00     0.157 A 
ATOM     16  C   UNL     1      43.926  11.772  34.679  1.00  0.00     0.062 A 
ATOM     17  C   UNL     1      44.250  11.066  33.512  1.00  0.00     0.158 A 
BRANCH  15  18
ATOM     18  O   UNL     1      43.612   9.560  31.731  1.00  0.00    -0.504 OA
ATOM     19  H   UNL     1      43.205   8.656  31.527  1.00  0.00     0.293 HD
ENDBRANCH  15  18
BRANCH  17  20
ATOM     20  O   UNL     1      45.529  11.158  32.964  1.00  0.00    -0.504 OA
ATOM     21  H   UNL     1      45.743  10.774  32.051  1.00  0.00     0.293 HD
ENDBRANCH  17  20
ENDBRANCH   1  12
BRANCH   2  22
ATOM     22  O   UNL     1      42.140  10.375  37.763  1.00  0.00    -0.502 OA
ATOM     23  H   UNL     1      42.251   9.795  36.940  1.00  0.00     0.293 HD
ENDBRANCH   2  22
BRANCH   6  24
ATOM     24  O   UNL     1      41.286  14.256  41.117  1.00  0.00    -0.507 OA
ATOM     25  H   UNL     1      40.401  14.360  41.602  1.00  0.00     0.293 HD
ENDBRANCH   6  24
BRANCH   8  26
ATOM     26  O   UNL     1      41.560  18.112  38.204  1.00  0.00    -0.508 OA
ATOM     27  H   UNL     1      41.727  18.758  38.967  1.00  0.00     0.293 HD
ENDBRANCH   8  26
TORSDOF 6
ENDMDL
MODEL 8
REMARK VINA RESULT:    -5.095      1.560      3.226
REMARK INTER + INTRA:          -6.300
REMARK INTER:                  -6.347
REMARK INTRA:                   0.047
REMARK UNBOUND:                -0.163
REMARK SMILES O=c1c(O)c(-c2ccc(O)c(O)c2)oc2cc(O)cc(O)c12
REMARK SMILES IDX 5 1 3 2 2 3 1 4 22 5 20 6 19 7 17 8 16 9 15 10 14 11 6 12
REMARK SMILES IDX 7 13 8 14 9 15 13 16 11 17 10 18 12 20 4 22 21 24 18 26
REMARK H PARENT 10 19 12 21 4 23 21 25 18 27
REMARK Flexibility Score: inf
ROOT
ATOM      1  C   UNL     1      41.959  10.149  37.847  1.00  0.00     0.180 A 
ATOM      2  C   UNL     1      41.838   8.897  37.213  1.00  0.00     0.208 A 
ATOM      3  C   UNL     1      41.969   8.828  35.817  1.00  0.00     0.238 A 
ATOM      4  O   UNL     1      41.851   7.714  35.236  1.00  0.00    -0.285 OA
ATOM      5  C   UNL     1      42.238  10.002  35.083  1.00  0.00     0.111 A 
ATOM      6  C   UNL     1      42.387  10.018  33.675  1.00  0.00     0.134 A 
ATOM      7  C   UNL     1      42.663  11.227  33.019  1.00  0.00     0.093 A 
ATOM      8  C   UNL     1      42.792  12.417  33.742  1.00  0.00     0.123 A 
ATOM      9  C   UNL     1      42.645  12.407  35.131  1.00  0.00     0.094 A 
ATOM     10  C   UNL     1      42.367  11.212  35.803  1.00  0.00     0.146 A 
ATOM     11  O   UNL     1      42.228  11.232  37.123  1.00  0.00    -0.452 OA
ENDROOT
BRANCH   1  12
ATOM     12  C   UNL     1      41.816  10.305  39.312  1.00  0.00     0.025 A 
ATOM     13  C   UNL     1      41.005  11.312  39.864  1.00  0.00     0.016 A 
ATOM     14  C   UNL     1      40.904  11.456  41.251  1.00  0.00     0.051 A 
ATOM     15  C   UNL     1      41.621  10.607  42.103  1.00  0.00     0.157 A 
ATOM     16  C   UNL     1      42.549   9.470  40.171  1.00  0.00     0.062 A 
ATOM     17  C   UNL     1      42.448   9.614  41.562  1.00  0.00     0.158 A 
BRANCH  15  18
ATOM     18  O   UNL     1      41.522  10.746  43.487  1.00  0.00    -0.504 OA
ATOM     19  H   UNL     1      41.673  11.639  43.941  1.00  0.00     0.293 HD
ENDBRANCH  15  18
BRANCH  17  20
ATOM     20  O   UNL     1      43.166   8.776  42.413  1.00  0.00    -0.504 OA
ATOM     21  H   UNL     1      43.219   7.776  42.252  1.00  0.00     0.293 HD
ENDBRANCH  17  20
ENDBRANCH   1  12
BRANCH   2  22
ATOM     22  O   UNL     1      41.622   7.742  37.967  1.00  0.00    -0.502 OA
ATOM     23  H   UNL     1      41.690   7.733  38.978  1.00  0.00     0.293 HD
ENDBRANCH   2  22
BRANCH   6  24
ATOM     24  O   UNL     1      42.264   8.847  32.927  1.00  0.00    -0.507 OA
ATOM     25  H   UNL     1      43.051   8.224  32.778  1.00  0.00     0.293 HD
ENDBRANCH   6  24
BRANCH   8  26
ATOM     26  O   UNL     1      43.065  13.618  33.091  1.00  0.00    -0.508 OA
ATOM     27  H   UNL     1      44.001  13.849  32.776  1.00  0.00     0.293 HD
ENDBRANCH   8  26
TORSDOF 6
ENDMDL
MODEL 9
REMARK VINA RESULT:    -5.079      3.022      3.886
REMARK INTER + INTRA:          -6.281
REMARK INTER:                  -5.958
REMARK INTRA:                  -0.323
REMARK UNBOUND:                -0.163
REMARK SMILES O=c1c(O)c(-c2ccc(O)c(O)c2)oc2cc(O)cc(O)c12
REMARK SMILES IDX 5 1 3 2 2 3 1 4 22 5 20 6 19 7 17 8 16 9 15 10 14 11 6 12
REMARK SMILES IDX 7 13 8 14 9 15 13 16 11 17 10 18 12 20 4 22 21 24 18 26
REMARK H PARENT 10 19 12 21 4 23 21 25 18 27
REMARK Flexibility Score: inf
ROOT
ATOM      1  C   UNL     1      42.393  12.788  35.532  1.00  0.00     0.180 A 
ATOM      2  C   UNL     1      42.950  12.491  34.272  1.00  0.00     0.208 A 
ATOM      3  C   UNL     1      43.008  11.152  33.854  1.00  0.00     0.238 A 
ATOM      4  O   UNL     1      43.514  10.873  32.733  1.00  0.00    -0.285 OA
ATOM      5  C   UNL     1      42.493  10.139  34.689  1.00  0.00     0.111 A 
ATOM      6  C   UNL     1      42.510   8.766  34.341  1.00  0.00     0.134 A 
ATOM      7  C   UNL     1      41.969   7.818  35.222  1.00  0.00     0.093 A 
ATOM      8  C   UNL     1      41.412   8.217  36.442  1.00  0.00     0.123 A 
ATOM      9  C   UNL     1      41.394   9.568  36.790  1.00  0.00     0.094 A 
ATOM     10  C   UNL     1      41.930  10.528  35.926  1.00  0.00     0.146 A 
ATOM     11  O   UNL     1      41.904  11.806  36.284  1.00  0.00    -0.452 OA
ENDROOT
BRANCH   1  12
ATOM     12  C   UNL     1      42.313  14.172  36.050  1.00  0.00     0.025 A 
ATOM     13  C   UNL     1      41.224  15.006  35.744  1.00  0.00     0.016 A 
ATOM     14  C   UNL     1      41.183  16.319  36.225  1.00  0.00     0.051 A 
ATOM     15  C   UNL     1      42.233  16.818  37.006  1.00  0.00     0.157 A 
ATOM     16  C   UNL     1      43.373  14.685  36.816  1.00  0.00     0.062 A 
ATOM     17  C   UNL     1      43.331  16.000  37.299  1.00  0.00     0.158 A 
BRANCH  15  18
ATOM     18  O   UNL     1      42.194  18.125  37.489  1.00  0.00    -0.504 OA
ATOM     19  H   UNL     1      41.769  18.874  36.956  1.00  0.00     0.293 HD
ENDBRANCH  15  18
BRANCH  17  20
ATOM     20  O   UNL     1      44.379  16.503  38.070  1.00  0.00    -0.504 OA
ATOM     21  H   UNL     1      45.267  16.759  37.656  1.00  0.00     0.293 HD
ENDBRANCH  17  20
ENDBRANCH   1  12
BRANCH   2  22
ATOM     22  O   UNL     1      43.407  13.518  33.444  1.00  0.00    -0.502 OA
ATOM     23  H   UNL     1      44.206  13.407  32.832  1.00  0.00     0.293 HD
ENDBRANCH   2  22
BRANCH   6  24
ATOM     24  O   UNL     1      43.057   8.339  33.130  1.00  0.00    -0.507 OA
ATOM     25  H   UNL     1      42.969   8.888  32.282  1.00  0.00     0.293 HD
ENDBRANCH   6  24
BRANCH   8  26
ATOM     26  O   UNL     1      40.875   7.276  37.318  1.00  0.00    -0.508 OA
ATOM     27  H   UNL     1      41.431   6.509  37.680  1.00  0.00     0.293 HD
ENDBRANCH   8  26
TORSDOF 6
ENDMDL
