MODEL 1
REMARK VINA RESULT:    -4.328      0.000      0.000
REMARK INTER + INTRA:          -6.700
REMARK INTER:                  -5.846
REMARK INTRA:                  -0.854
REMARK UNBOUND:                -0.854
REMARK SMILES CC(=O)OCC=C(C)CCC=C(C)C
REMARK SMILES IDX 7 1 6 2 8 3 9 4 10 5 11 6 13 7 12 8 14 9 5 10 4 11 2 12 3 13
REMARK SMILES IDX 1 14
REMARK H PARENT
REMARK Flexibility Score: inf
ROOT
ATOM      1  C   UNL     1     -14.184 -22.282  11.748  1.00  0.00    -0.074 C 
ATOM      2  C   UNL     1     -15.199 -22.178  12.635  1.00  0.00     0.013 C 
ATOM      3  C   UNL     1     -14.405 -22.086  10.267  1.00  0.00     0.039 C 
ENDROOT
BRANCH   1   4
ATOM      4  C   UNL     1     -12.794 -22.595  12.255  1.00  0.00     0.034 C 
BRANCH   4   5
ATOM      5  C   UNL     1     -12.048 -21.310  12.634  1.00  0.00     0.032 C 
BRANCH   5   6
ATOM      6  C   UNL     1     -11.731 -21.290  14.108  1.00  0.00    -0.028 C 
ATOM      7  C   UNL     1     -13.377 -19.465  14.598  1.00  0.00     0.039 C 
ATOM      8  C   UNL     1     -12.303 -20.450  15.000  1.00  0.00    -0.080 C 
ATOM      9  C   UNL     1     -11.858 -20.518  16.438  1.00  0.00     0.039 C 
ENDBRANCH   5   6
ENDBRANCH   4   5
ENDBRANCH   1   4
BRANCH   2  10
ATOM     10  C   UNL     1     -16.623 -21.866  12.251  1.00  0.00     0.260 C 
BRANCH  10  11
ATOM     11  O   UNL     1     -17.315 -21.240  13.331  1.00  0.00    -0.462 OA
BRANCH  11  12
ATOM     12  C   UNL     1     -17.094 -19.914  13.717  1.00  0.00     0.302 C 
ATOM     13  O   UNL     1     -16.962 -19.609  14.934  1.00  0.00    -0.253 OA
ATOM     14  C   UNL     1     -17.064 -18.844  12.681  1.00  0.00     0.139 C 
ENDBRANCH  11  12
ENDBRANCH  10  11
ENDBRANCH   2  10
TORSDOF 6
ENDMDL
MODEL 2
REMARK VINA RESULT:    -4.282      2.247      4.150
REMARK INTER + INTRA:          -6.638
REMARK INTER:                  -5.577
REMARK INTRA:                  -1.061
REMARK UNBOUND:                -0.854
REMARK SMILES CC(=O)OCC=C(C)CCC=C(C)C
REMARK SMILES IDX 7 1 6 2 8 3 9 4 10 5 11 6 13 7 12 8 14 9 5 10 4 11 2 12 3 13
REMARK SMILES IDX 1 14
REMARK H PARENT
REMARK Flexibility Score: inf
ROOT
ATOM      1  C   UNL     1     -15.651 -21.679  11.865  1.00  0.00    -0.074 C 
ATOM      2  C   UNL     1     -14.710 -22.256  12.645  1.00  0.00     0.013 C 
ATOM      3  C   UNL     1     -15.330 -21.186  10.473  1.00  0.00     0.039 C 
ENDROOT
BRANCH   1   4
ATOM      4  C   UNL     1     -17.058 -21.529  12.398  1.00  0.00     0.034 C 
BRANCH   4   5
ATOM      5  C   UNL     1     -17.082 -20.617  13.630  1.00  0.00     0.032 C 
BRANCH   5   6
ATOM      6  C   UNL     1     -16.691 -19.208  13.262  1.00  0.00    -0.028 C 
ATOM      7  C   UNL     1     -15.437 -18.828  15.397  1.00  0.00     0.039 C 
ATOM      8  C   UNL     1     -15.973 -18.383  14.055  1.00  0.00    -0.080 C 
ATOM      9  C   UNL     1     -15.691 -16.985  13.568  1.00  0.00     0.039 C 
ENDBRANCH   5   6
ENDBRANCH   4   5
ENDBRANCH   1   4
BRANCH   2  10
ATOM     10  C   UNL     1     -13.279 -22.465  12.223  1.00  0.00     0.260 C 
BRANCH  10  11
ATOM     11  O   UNL     1     -12.379 -21.998  13.227  1.00  0.00    -0.462 OA
BRANCH  11  12
ATOM     12  C   UNL     1     -12.421 -20.702  13.753  1.00  0.00     0.302 C 
ATOM     13  O   UNL     1     -12.366 -20.508  14.998  1.00  0.00    -0.253 OA
ATOM     14  C   UNL     1     -12.585 -19.543  12.832  1.00  0.00     0.139 C 
ENDBRANCH  11  12
ENDBRANCH  10  11
ENDBRANCH   2  10
TORSDOF 6
ENDMDL
MODEL 3
REMARK VINA RESULT:    -4.177     16.286     17.815
REMARK INTER + INTRA:          -6.496
REMARK INTER:                  -5.519
REMARK INTRA:                  -0.977
REMARK UNBOUND:                -0.854
REMARK SMILES CC(=O)OCC=C(C)CCC=C(C)C
REMARK SMILES IDX 7 1 6 2 8 3 9 4 10 5 11 6 13 7 12 8 14 9 5 10 4 11 2 12 3 13
REMARK SMILES IDX 1 14
REMARK H PARENT
REMARK Flexibility Score: inf
ROOT
ATOM      1  C   UNL     1     -19.178 -12.064  -1.611  1.00  0.00    -0.074 C 
ATOM      2  C   UNL     1     -20.228 -11.703  -0.840  1.00  0.00     0.013 C 
ATOM      3  C   UNL     1     -17.759 -11.995  -1.098  1.00  0.00     0.039 C 
ENDROOT
BRANCH   1   4
ATOM      4  C   UNL     1     -19.434 -12.553  -3.019  1.00  0.00     0.034 C 
BRANCH   4   5
ATOM      5  C   UNL     1     -20.335 -13.794  -3.012  1.00  0.00     0.032 C 
BRANCH   5   6
ATOM      6  C   UNL     1     -19.510 -15.056  -3.008  1.00  0.00    -0.028 C 
ATOM      7  C   UNL     1     -19.805 -15.430  -0.548  1.00  0.00     0.039 C 
ATOM      8  C   UNL     1     -19.242 -15.789  -1.904  1.00  0.00    -0.080 C 
ATOM      9  C   UNL     1     -18.368 -17.008  -2.047  1.00  0.00     0.039 C 
ENDBRANCH   5   6
ENDBRANCH   4   5
ENDBRANCH   1   4
BRANCH   2  10
ATOM     10  C   UNL     1     -20.099 -11.206   0.577  1.00  0.00     0.260 C 
BRANCH  10  11
ATOM     11  O   UNL     1     -20.221  -9.785   0.630  1.00  0.00    -0.462 OA
BRANCH  11  12
ATOM     12  C   UNL     1     -19.214  -8.948   1.123  1.00  0.00     0.302 C 
ATOM     13  O   UNL     1     -19.274  -8.487   2.296  1.00  0.00    -0.253 OA
ATOM     14  C   UNL     1     -18.086  -8.556   0.233  1.00  0.00     0.139 C 
ENDBRANCH  11  12
ENDBRANCH  10  11
ENDBRANCH   2  10
TORSDOF 6
ENDMDL
MODEL 4
REMARK VINA RESULT:    -4.146      1.699      3.647
REMARK INTER + INTRA:          -6.454
REMARK INTER:                  -5.750
REMARK INTRA:                  -0.704
REMARK UNBOUND:                -0.854
REMARK SMILES CC(=O)OCC=C(C)CCC=C(C)C
REMARK SMILES IDX 7 1 6 2 8 3 9 4 10 5 11 6 13 7 12 8 14 9 5 10 4 11 2 12 3 13
REMARK SMILES IDX 1 14
REMARK H PARENT
REMARK Flexibility Score: inf
ROOT
ATOM      1  C   UNL     1     -15.100 -18.588  14.328  1.00  0.00    -0.074 C 
ATOM      2  C   UNL     1     -16.035 -19.095  13.494  1.00  0.00     0.013 C 
ATOM      3  C   UNL     1     -15.193 -18.772  15.825  1.00  0.00     0.039 C 
ENDROOT
BRANCH   1   4
ATOM      4  C   UNL     1     -13.931 -17.825  13.746  1.00  0.00     0.034 C 
BRANCH   4   5
ATOM      5  C   UNL     1     -12.645 -18.656  13.818  1.00  0.00     0.032 C 
BRANCH   5   6
ATOM      6  C   UNL     1     -11.663 -18.040  14.782  1.00  0.00    -0.028 C 
ATOM      7  C   UNL     1     -11.725 -19.998  16.345  1.00  0.00     0.039 C 
ATOM      8  C   UNL     1     -11.258 -18.620  15.934  1.00  0.00    -0.080 C 
ATOM      9  C   UNL     1     -10.298 -17.866  16.819  1.00  0.00     0.039 C 
ENDBRANCH   5   6
ENDBRANCH   4   5
ENDBRANCH   1   4
BRANCH   2  10
ATOM     10  C   UNL     1     -17.239 -19.875  13.954  1.00  0.00     0.260 C 
BRANCH  10  11
ATOM     11  O   UNL     1     -17.162 -21.232  13.520  1.00  0.00    -0.462 OA
BRANCH  11  12
ATOM     12  C   UNL     1     -16.651 -21.612  12.274  1.00  0.00     0.302 C 
ATOM     13  O   UNL     1     -17.356 -21.521  11.232  1.00  0.00    -0.253 OA
ATOM     14  C   UNL     1     -15.275 -22.178  12.188  1.00  0.00     0.139 C 
ENDBRANCH  11  12
ENDBRANCH  10  11
ENDBRANCH   2  10
TORSDOF 6
ENDMDL
MODEL 5
REMARK VINA RESULT:    -4.142      1.925      4.042
REMARK INTER + INTRA:          -6.449
REMARK INTER:                  -5.430
REMARK INTRA:                  -1.019
REMARK UNBOUND:                -0.854
REMARK SMILES CC(=O)OCC=C(C)CCC=C(C)C
REMARK SMILES IDX 7 1 6 2 8 3 9 4 10 5 11 6 13 7 12 8 14 9 5 10 4 11 2 12 3 13
REMARK SMILES IDX 1 14
REMARK H PARENT
REMARK Flexibility Score: inf
ROOT
ATOM      1  C   UNL     1     -16.820 -19.927  13.273  1.00  0.00    -0.074 C 
ATOM      2  C   UNL     1     -16.388 -21.168  12.957  1.00  0.00     0.013 C 
ATOM      3  C   UNL     1     -17.333 -18.975  12.218  1.00  0.00     0.039 C 
ENDROOT
BRANCH   1   4
ATOM      4  C   UNL     1     -16.793 -19.485  14.719  1.00  0.00     0.034 C 
BRANCH   4   5
ATOM      5  C   UNL     1     -15.687 -18.450  14.955  1.00  0.00     0.032 C 
BRANCH   5   6
ATOM      6  C   UNL     1     -14.447 -19.107  15.506  1.00  0.00    -0.028 C 
ATOM      7  C   UNL     1     -13.228 -19.004  13.320  1.00  0.00     0.039 C 
ATOM      8  C   UNL     1     -13.343 -19.385  14.778  1.00  0.00    -0.080 C 
ATOM      9  C   UNL     1     -12.191 -20.081  15.457  1.00  0.00     0.039 C 
ENDBRANCH   5   6
ENDBRANCH   4   5
ENDBRANCH   1   4
BRANCH   2  10
ATOM     10  C   UNL     1     -16.371 -21.721  11.555  1.00  0.00     0.260 C 
BRANCH  10  11
ATOM     11  O   UNL     1     -15.103 -21.503  10.937  1.00  0.00    -0.462 OA
BRANCH  11  12
ATOM     12  C   UNL     1     -14.082 -22.459  10.923  1.00  0.00     0.302 C 
ATOM     13  O   UNL     1     -13.941 -23.240   9.942  1.00  0.00    -0.253 OA
ATOM     14  C   UNL     1     -13.184 -22.589  12.105  1.00  0.00     0.139 C 
ENDBRANCH  11  12
ENDBRANCH  10  11
ENDBRANCH   2  10
TORSDOF 6
ENDMDL
MODEL 6
REMARK VINA RESULT:    -4.130      2.037      4.758
REMARK INTER + INTRA:          -6.433
REMARK INTER:                  -5.576
REMARK INTRA:                  -0.857
REMARK UNBOUND:                -0.854
REMARK SMILES CC(=O)OCC=C(C)CCC=C(C)C
REMARK SMILES IDX 7 1 6 2 8 3 9 4 10 5 11 6 13 7 12 8 14 9 5 10 4 11 2 12 3 13
REMARK SMILES IDX 1 14
REMARK H PARENT
REMARK Flexibility Score: inf
ROOT
ATOM      1  C   UNL     1     -13.658 -21.356  12.494  1.00  0.00    -0.074 C 
ATOM      2  C   UNL     1     -12.931 -21.980  13.448  1.00  0.00     0.013 C 
ATOM      3  C   UNL     1     -13.338 -19.948  12.050  1.00  0.00     0.039 C 
ENDROOT
BRANCH   1   4
ATOM      4  C   UNL     1     -14.815 -22.090  11.854  1.00  0.00     0.034 C 
BRANCH   4   5
ATOM      5  C   UNL     1     -16.113 -21.852  12.634  1.00  0.00     0.032 C 
BRANCH   5   6
ATOM      6  C   UNL     1     -16.869 -20.676  12.069  1.00  0.00    -0.028 C 
ATOM      7  C   UNL     1     -16.448 -19.236  14.075  1.00  0.00     0.039 C 
ATOM      8  C   UNL     1     -17.050 -19.503  12.714  1.00  0.00    -0.080 C 
ATOM      9  C   UNL     1     -17.863 -18.429  12.038  1.00  0.00     0.039 C 
ENDBRANCH   5   6
ENDBRANCH   4   5
ENDBRANCH   1   4
BRANCH   2  10
ATOM     10  C   UNL     1     -11.755 -21.354  14.153  1.00  0.00     0.260 C 
BRANCH  10  11
ATOM     11  O   UNL     1     -12.058 -21.104  15.524  1.00  0.00    -0.462 OA
BRANCH  11  12
ATOM     12  C   UNL     1     -12.274 -19.821  16.040  1.00  0.00     0.302 C 
ATOM     13  O   UNL     1     -13.420 -19.465  16.429  1.00  0.00    -0.253 OA
ATOM     14  C   UNL     1     -11.145 -18.849  16.083  1.00  0.00     0.139 C 
ENDBRANCH  11  12
ENDBRANCH  10  11
ENDBRANCH   2  10
TORSDOF 6
ENDMDL
MODEL 7
REMARK VINA RESULT:    -4.107      2.763      5.798
REMARK INTER + INTRA:          -6.401
REMARK INTER:                  -5.479
REMARK INTRA:                  -0.922
REMARK UNBOUND:                -0.854
REMARK SMILES CC(=O)OCC=C(C)CCC=C(C)C
REMARK SMILES IDX 7 1 6 2 8 3 9 4 10 5 11 6 13 7 12 8 14 9 5 10 4 11 2 12 3 13
REMARK SMILES IDX 1 14
REMARK H PARENT
REMARK Flexibility Score: inf
ROOT
ATOM      1  C   UNL     1     -15.537 -19.698  13.790  1.00  0.00    -0.074 C 
ATOM      2  C   UNL     1     -14.603 -20.337  13.052  1.00  0.00     0.013 C 
ATOM      3  C   UNL     1     -15.154 -18.757  14.908  1.00  0.00     0.039 C 
ENDROOT
BRANCH   1   4
ATOM      4  C   UNL     1     -17.000 -19.927  13.484  1.00  0.00     0.034 C 
BRANCH   4   5
ATOM      5  C   UNL     1     -17.322 -19.541  12.035  1.00  0.00     0.032 C 
BRANCH   5   6
ATOM      6  C   UNL     1     -17.806 -18.114  11.956  1.00  0.00    -0.028 C 
ATOM      7  C   UNL     1     -15.645 -17.267  11.013  1.00  0.00     0.039 C 
ATOM      8  C   UNL     1     -17.056 -17.077  11.522  1.00  0.00    -0.080 C 
ATOM      9  C   UNL     1     -17.662 -15.698  11.535  1.00  0.00     0.039 C 
ENDBRANCH   5   6
ENDBRANCH   4   5
ENDBRANCH   1   4
BRANCH   2  10
ATOM     10  C   UNL     1     -13.118 -20.186  13.260  1.00  0.00     0.260 C 
BRANCH  10  11
ATOM     11  O   UNL     1     -12.626 -21.177  14.161  1.00  0.00    -0.462 OA
BRANCH  11  12
ATOM     12  C   UNL     1     -11.575 -20.946  15.055  1.00  0.00     0.302 C 
ATOM     13  O   UNL     1     -10.376 -21.128  14.704  1.00  0.00    -0.253 OA
ATOM     14  C   UNL     1     -11.880 -20.531  16.453  1.00  0.00     0.139 C 
ENDBRANCH  11  12
ENDBRANCH  10  11
ENDBRANCH   2  10
TORSDOF 6
ENDMDL
MODEL 8
REMARK VINA RESULT:    -4.088     15.660     17.573
REMARK INTER + INTRA:          -6.376
REMARK INTER:                  -5.701
REMARK INTRA:                  -0.675
REMARK UNBOUND:                -0.854
REMARK SMILES CC(=O)OCC=C(C)CCC=C(C)C
REMARK SMILES IDX 7 1 6 2 8 3 9 4 10 5 11 6 13 7 12 8 14 9 5 10 4 11 2 12 3 13
REMARK SMILES IDX 1 14
REMARK H PARENT
REMARK Flexibility Score: inf
ROOT
ATOM      1  C   UNL     1     -19.228  -8.878   1.183  1.00  0.00    -0.074 C 
ATOM      2  C   UNL     1     -19.151  -8.647   2.512  1.00  0.00     0.013 C 
ATOM      3  C   UNL     1     -18.061  -8.602   0.264  1.00  0.00     0.039 C 
ENDROOT
BRANCH   1   4
ATOM      4  C   UNL     1     -20.510  -9.433   0.606  1.00  0.00     0.034 C 
BRANCH   4   5
ATOM      5  C   UNL     1     -20.576 -10.955   0.781  1.00  0.00     0.032 C 
BRANCH   5   6
ATOM      6  C   UNL     1     -20.659 -11.645  -0.557  1.00  0.00    -0.028 C 
ATOM      7  C   UNL     1     -18.222 -12.227  -0.588  1.00  0.00     0.039 C 
ATOM      8  C   UNL     1     -19.606 -12.200  -1.197  1.00  0.00    -0.080 C 
ATOM      9  C   UNL     1     -19.834 -12.823  -2.550  1.00  0.00     0.039 C 
ENDBRANCH   5   6
ENDBRANCH   4   5
ENDBRANCH   1   4
BRANCH   2  10
ATOM     10  C   UNL     1     -17.927  -8.102   3.203  1.00  0.00     0.260 C 
BRANCH  10  11
ATOM     11  O   UNL     1     -18.291  -7.203   4.249  1.00  0.00    -0.462 OA
BRANCH  11  12
ATOM     12  C   UNL     1     -18.208  -7.531   5.606  1.00  0.00     0.302 C 
ATOM     13  O   UNL     1     -17.191  -7.222   6.285  1.00  0.00    -0.253 OA
ATOM     14  C   UNL     1     -19.314  -8.300   6.243  1.00  0.00     0.139 C 
ENDBRANCH  11  12
ENDBRANCH  10  11
ENDBRANCH   2  10
TORSDOF 6
ENDMDL
MODEL 9
REMARK VINA RESULT:    -4.037     14.921     16.622
REMARK INTER + INTRA:          -6.307
REMARK INTER:                  -5.559
REMARK INTRA:                  -0.748
REMARK UNBOUND:                -0.854
REMARK SMILES CC(=O)OCC=C(C)CCC=C(C)C
REMARK SMILES IDX 7 1 6 2 8 3 9 4 10 5 11 6 13 7 12 8 14 9 5 10 4 11 2 12 3 13
REMARK SMILES IDX 1 14
REMARK H PARENT
REMARK Flexibility Score: inf
ROOT
ATOM      1  C   UNL     1     -19.323  -9.356   3.114  1.00  0.00    -0.074 C 
ATOM      2  C   UNL     1     -18.984  -8.199   3.725  1.00  0.00     0.013 C 
ATOM      3  C   UNL     1     -19.382 -10.662   3.871  1.00  0.00     0.039 C 
ENDROOT
BRANCH   1   4
ATOM      4  C   UNL     1     -19.655  -9.338   1.639  1.00  0.00     0.034 C 
BRANCH   4   5
ATOM      5  C   UNL     1     -20.643 -10.456   1.287  1.00  0.00     0.032 C 
BRANCH   5   6
ATOM      6  C   UNL     1     -20.385 -10.982  -0.102  1.00  0.00    -0.028 C 
ATOM      7  C   UNL     1     -18.709 -12.673   0.676  1.00  0.00     0.039 C 
ATOM      8  C   UNL     1     -19.501 -11.961  -0.396  1.00  0.00    -0.080 C 
ATOM      9  C   UNL     1     -19.322 -12.357  -1.839  1.00  0.00     0.039 C 
ENDBRANCH   5   6
ENDBRANCH   4   5
ENDBRANCH   1   4
BRANCH   2  10
ATOM     10  C   UNL     1     -18.639  -8.089   5.188  1.00  0.00     0.260 C 
BRANCH  10  11
ATOM     11  O   UNL     1     -19.792  -7.759   5.960  1.00  0.00    -0.462 OA
BRANCH  11  12
ATOM     12  C   UNL     1     -20.337  -8.610   6.928  1.00  0.00     0.302 C 
ATOM     13  O   UNL     1     -19.750  -8.796   8.030  1.00  0.00    -0.253 OA
ATOM     14  C   UNL     1     -21.599  -9.344   6.631  1.00  0.00     0.139 C 
ENDBRANCH  11  12
ENDBRANCH  10  11
ENDBRANCH   2  10
TORSDOF 6
ENDMDL
