MODEL 1
REMARK VINA RESULT:    -3.557      0.000      0.000
REMARK INTER + INTRA:          -8.730
REMARK INTER:                  -6.468
REMARK INTRA:                  -2.262
REMARK UNBOUND:                -2.262
REMARK SMILES CCCCCCCCCCCCCCCC(=O)[O-]
REMARK SMILES IDX 9 1 10 2 11 3 12 4 13 5 14 6 15 7 16 8 17 9 18 10 8 11 7 12
REMARK SMILES IDX 6 13 5 14 4 15 3 16 2 17 1 18
REMARK H PARENT
REMARK Flexibility Score: inf
ROOT
ATOM      1  C   UNL     1     129.650 144.775 123.372  1.00  0.00     0.000 C 
ENDROOT
BRANCH   1   2
ATOM      2  C   UNL     1     130.410 146.114 123.256  1.00  0.00     0.000 C 
BRANCH   2   3
ATOM      3  C   UNL     1     131.443 146.100 122.116  1.00  0.00     0.000 C 
BRANCH   3   4
ATOM      4  C   UNL     1     130.867 146.595 120.778  1.00  0.00     0.000 C 
BRANCH   4   5
ATOM      5  C   UNL     1     131.843 146.531 119.589  1.00  0.00     0.000 C 
BRANCH   5   6
ATOM      6  C   UNL     1     133.160 145.821 119.935  1.00  0.00     0.006 C 
BRANCH   6   7
ATOM      7  C   UNL     1     134.351 146.524 119.277  1.00  0.00     0.053 C 
BRANCH   7   8
ATOM      8  C   UNL     1     135.481 146.658 120.247  1.00  0.00     0.041 C 
ATOM      9  O   UNL     1     136.671 146.697 119.835  1.00  0.00    -0.550 OA
ATOM     10  O   UNL     1     135.219 146.792 121.605  1.00  0.00    -0.550 OA
ENDBRANCH   7   8
ENDBRANCH   6   7
ENDBRANCH   5   6
ENDBRANCH   4   5
ENDBRANCH   3   4
ENDBRANCH   2   3
ENDBRANCH   1   2
BRANCH   1  11
ATOM     11  C   UNL     1     128.139 144.893 123.091  1.00  0.00     0.000 C 
BRANCH  11  12
ATOM     12  C   UNL     1     127.643 146.317 122.786  1.00  0.00    -0.000 C 
BRANCH  12  13
ATOM     13  C   UNL     1     127.035 146.447 121.378  1.00  0.00    -0.000 C 
BRANCH  13  14
ATOM     14  C   UNL     1     127.125 145.141 120.574  1.00  0.00    -0.000 C 
BRANCH  14  15
ATOM     15  C   UNL     1     127.980 145.280 119.306  1.00  0.00    -0.000 C 
BRANCH  15  16
ATOM     16  C   UNL     1     128.577 143.929 118.896  1.00  0.00    -0.000 C 
BRANCH  16  17
ATOM     17  C   UNL     1     129.488 143.373 119.997  1.00  0.00    -0.003 C 
ATOM     18  C   UNL     1     130.862 143.006 119.441  1.00  0.00     0.004 C 
ENDBRANCH  16  17
ENDBRANCH  15  16
ENDBRANCH  14  15
ENDBRANCH  13  14
ENDBRANCH  12  13
ENDBRANCH  11  12
ENDBRANCH   1  11
TORSDOF 14
ENDMDL
MODEL 2
REMARK VINA RESULT:    -3.516      1.301      3.300
REMARK INTER + INTRA:          -8.655
REMARK INTER:                  -6.031
REMARK INTRA:                  -2.624
REMARK UNBOUND:                -2.262
REMARK SMILES CCCCCCCCCCCCCCCC(=O)[O-]
REMARK SMILES IDX 9 1 10 2 11 3 12 4 13 5 14 6 15 7 16 8 17 9 18 10 8 11 7 12
REMARK SMILES IDX 6 13 5 14 4 15 3 16 2 17 1 18
REMARK H PARENT
REMARK Flexibility Score: inf
ROOT
ATOM      1  C   UNL     1     127.984 142.953 119.887  1.00  0.00     0.000 C 
ENDROOT
BRANCH   1   2
ATOM      2  C   UNL     1     129.125 143.750 119.220  1.00  0.00     0.000 C 
BRANCH   2   3
ATOM      3  C   UNL     1     130.510 143.330 119.743  1.00  0.00     0.000 C 
BRANCH   3   4
ATOM      4  C   UNL     1     131.511 144.497 119.797  1.00  0.00     0.000 C 
BRANCH   4   5
ATOM      5  C   UNL     1     130.873 145.898 119.809  1.00  0.00     0.000 C 
BRANCH   5   6
ATOM      6  C   UNL     1     131.823 146.982 120.340  1.00  0.00     0.006 C 
BRANCH   6   7
ATOM      7  C   UNL     1     132.844 146.387 121.314  1.00  0.00     0.053 C 
BRANCH   7   8
ATOM      8  C   UNL     1     134.233 146.562 120.789  1.00  0.00     0.041 C 
ATOM      9  O   UNL     1     135.163 146.918 121.560  1.00  0.00    -0.550 OA
ATOM     10  O   UNL     1     134.512 146.283 119.457  1.00  0.00    -0.550 OA
ENDBRANCH   7   8
ENDBRANCH   6   7
ENDBRANCH   5   6
ENDBRANCH   4   5
ENDBRANCH   3   4
ENDBRANCH   2   3
ENDBRANCH   1   2
BRANCH   1  11
ATOM     11  C   UNL     1     127.232 143.742 120.977  1.00  0.00     0.000 C 
BRANCH  11  12
ATOM     12  C   UNL     1     127.326 145.272 120.855  1.00  0.00    -0.000 C 
BRANCH  12  13
ATOM     13  C   UNL     1     127.327 145.980 122.222  1.00  0.00    -0.000 C 
BRANCH  13  14
ATOM     14  C   UNL     1     128.731 146.433 122.650  1.00  0.00    -0.000 C 
BRANCH  14  15
ATOM     15  C   UNL     1     129.301 145.593 123.803  1.00  0.00    -0.000 C 
BRANCH  15  16
ATOM     16  C   UNL     1     130.214 144.481 123.272  1.00  0.00    -0.000 C 
BRANCH  16  17
ATOM     17  C   UNL     1     129.670 143.097 123.646  1.00  0.00    -0.003 C 
ATOM     18  C   UNL     1     128.436 143.213 124.538  1.00  0.00     0.004 C 
ENDBRANCH  16  17
ENDBRANCH  15  16
ENDBRANCH  14  15
ENDBRANCH  13  14
ENDBRANCH  12  13
ENDBRANCH  11  12
ENDBRANCH   1  11
TORSDOF 14
ENDMDL
MODEL 3
REMARK VINA RESULT:    -3.465      3.259      6.022
REMARK INTER + INTRA:          -8.563
REMARK INTER:                  -6.752
REMARK INTRA:                  -1.811
REMARK UNBOUND:                -2.262
REMARK SMILES CCCCCCCCCCCCCCCC(=O)[O-]
REMARK SMILES IDX 9 1 10 2 11 3 12 4 13 5 14 6 15 7 16 8 17 9 18 10 8 11 7 12
REMARK SMILES IDX 6 13 5 14 4 15 3 16 2 17 1 18
REMARK H PARENT
REMARK Flexibility Score: inf
ROOT
ATOM      1  C   UNL     1     129.877 142.611 120.062  1.00  0.00     0.000 C 
ENDROOT
BRANCH   1   2
ATOM      2  C   UNL     1     128.413 143.097 120.042  1.00  0.00     0.000 C 
BRANCH   2   3
ATOM      3  C   UNL     1     128.133 144.052 118.868  1.00  0.00     0.000 C 
BRANCH   3   4
ATOM      4  C   UNL     1     127.100 145.139 119.211  1.00  0.00     0.000 C 
BRANCH   4   5
ATOM      5  C   UNL     1     127.654 146.331 120.012  1.00  0.00     0.000 C 
BRANCH   5   6
ATOM      6  C   UNL     1     127.166 146.349 121.468  1.00  0.00     0.006 C 
BRANCH   6   7
ATOM      7  C   UNL     1     128.324 146.095 122.437  1.00  0.00     0.053 C 
BRANCH   7   8
ATOM      8  C   UNL     1     127.881 145.215 123.563  1.00  0.00     0.041 C 
ATOM      9  O   UNL     1     127.606 144.004 123.351  1.00  0.00    -0.550 OA
ATOM     10  O   UNL     1     127.821 145.719 124.856  1.00  0.00    -0.550 OA
ENDBRANCH   7   8
ENDBRANCH   6   7
ENDBRANCH   5   6
ENDBRANCH   4   5
ENDBRANCH   3   4
ENDBRANCH   2   3
ENDBRANCH   1   2
BRANCH   1  11
ATOM     11  C   UNL     1     130.877 143.628 119.475  1.00  0.00     0.000 C 
BRANCH  11  12
ATOM     12  C   UNL     1     131.231 144.801 120.404  1.00  0.00    -0.000 C 
BRANCH  12  13
ATOM     13  C   UNL     1     131.119 146.168 119.707  1.00  0.00    -0.000 C 
BRANCH  13  14
ATOM     14  C   UNL     1     132.261 147.121 120.090  1.00  0.00    -0.000 C 
BRANCH  14  15
ATOM     15  C   UNL     1     133.192 146.534 121.161  1.00  0.00    -0.000 C 
BRANCH  15  16
ATOM     16  C   UNL     1     134.577 146.232 120.576  1.00  0.00    -0.000 C 
BRANCH  16  17
ATOM     17  C   UNL     1     134.592 146.443 119.058  1.00  0.00    -0.003 C 
ATOM     18  C   UNL     1     134.828 145.127 118.321  1.00  0.00     0.004 C 
ENDBRANCH  16  17
ENDBRANCH  15  16
ENDBRANCH  14  15
ENDBRANCH  13  14
ENDBRANCH  12  13
ENDBRANCH  11  12
ENDBRANCH   1  11
TORSDOF 14
ENDMDL
MODEL 4
REMARK VINA RESULT:    -3.462      1.897      4.250
REMARK INTER + INTRA:          -8.556
REMARK INTER:                  -6.841
REMARK INTRA:                  -1.715
REMARK UNBOUND:                -2.262
REMARK SMILES CCCCCCCCCCCCCCCC(=O)[O-]
REMARK SMILES IDX 9 1 10 2 11 3 12 4 13 5 14 6 15 7 16 8 17 9 18 10 8 11 7 12
REMARK SMILES IDX 6 13 5 14 4 15 3 16 2 17 1 18
REMARK H PARENT
REMARK Flexibility Score: inf
ROOT
ATOM      1  C   UNL     1     127.605 144.584 121.618  1.00  0.00     0.000 C 
ENDROOT
BRANCH   1   2
ATOM      2  C   UNL     1     127.744 144.171 120.138  1.00  0.00     0.000 C 
BRANCH   2   3
ATOM      3  C   UNL     1     128.553 145.195 119.322  1.00  0.00     0.000 C 
BRANCH   3   4
ATOM      4  C   UNL     1     130.027 145.278 119.755  1.00  0.00     0.000 C 
BRANCH   4   5
ATOM      5  C   UNL     1     130.613 146.701 119.787  1.00  0.00     0.000 C 
BRANCH   5   6
ATOM      6  C   UNL     1     131.823 146.827 120.726  1.00  0.00     0.006 C 
BRANCH   6   7
ATOM      7  C   UNL     1     132.878 145.765 120.405  1.00  0.00     0.053 C 
BRANCH   7   8
ATOM      8  C   UNL     1     134.207 146.405 120.156  1.00  0.00     0.041 C 
ATOM      9  O   UNL     1     134.894 146.835 121.119  1.00  0.00    -0.550 OA
ATOM     10  O   UNL     1     134.709 146.483 118.863  1.00  0.00    -0.550 OA
ENDBRANCH   7   8
ENDBRANCH   6   7
ENDBRANCH   5   6
ENDBRANCH   4   5
ENDBRANCH   3   4
ENDBRANCH   2   3
ENDBRANCH   1   2
BRANCH   1  11
ATOM     11  C   UNL     1     127.001 145.988 121.817  1.00  0.00     0.000 C 
BRANCH  11  12
ATOM     12  C   UNL     1     127.692 146.848 122.889  1.00  0.00    -0.000 C 
BRANCH  12  13
ATOM     13  C   UNL     1     129.084 146.317 123.272  1.00  0.00    -0.000 C 
BRANCH  13  14
ATOM     14  C   UNL     1     129.337 146.362 124.786  1.00  0.00    -0.000 C 
BRANCH  14  15
ATOM     15  C   UNL     1     129.430 144.964 125.416  1.00  0.00    -0.000 C 
BRANCH  15  16
ATOM     16  C   UNL     1     128.050 144.298 125.479  1.00  0.00    -0.000 C 
BRANCH  16  17
ATOM     17  C   UNL     1     127.040 145.192 126.207  1.00  0.00    -0.003 C 
ATOM     18  C   UNL     1     127.302 145.209 127.710  1.00  0.00     0.004 C 
ENDBRANCH  16  17
ENDBRANCH  15  16
ENDBRANCH  14  15
ENDBRANCH  13  14
ENDBRANCH  12  13
ENDBRANCH  11  12
ENDBRANCH   1  11
TORSDOF 14
ENDMDL
MODEL 5
REMARK VINA RESULT:    -3.455      1.394      2.102
REMARK INTER + INTRA:          -8.544
REMARK INTER:                  -6.021
REMARK INTRA:                  -2.523
REMARK UNBOUND:                -2.262
REMARK SMILES CCCCCCCCCCCCCCCC(=O)[O-]
REMARK SMILES IDX 9 1 10 2 11 3 12 4 13 5 14 6 15 7 16 8 17 9 18 10 8 11 7 12
REMARK SMILES IDX 6 13 5 14 4 15 3 16 2 17 1 18
REMARK H PARENT
REMARK Flexibility Score: inf
ROOT
ATOM      1  C   UNL     1     128.871 146.375 122.688  1.00  0.00     0.000 C 
ENDROOT
BRANCH   1   2
ATOM      2  C   UNL     1     129.598 145.539 123.762  1.00  0.00     0.000 C 
BRANCH   2   3
ATOM      3  C   UNL     1     130.310 144.313 123.162  1.00  0.00     0.000 C 
BRANCH   3   4
ATOM      4  C   UNL     1     131.743 144.621 122.694  1.00  0.00     0.000 C 
BRANCH   4   5
ATOM      5  C   UNL     1     132.023 144.309 121.213  1.00  0.00     0.000 C 
BRANCH   5   6
ATOM      6  C   UNL     1     131.617 145.456 120.275  1.00  0.00     0.006 C 
BRANCH   6   7
ATOM      7  C   UNL     1     132.345 146.751 120.647  1.00  0.00     0.053 C 
BRANCH   7   8
ATOM      8  C   UNL     1     133.805 146.637 120.343  1.00  0.00     0.041 C 
ATOM      9  O   UNL     1     134.192 146.401 119.168  1.00  0.00    -0.550 OA
ATOM     10  O   UNL     1     134.742 146.840 121.349  1.00  0.00    -0.550 OA
ENDBRANCH   7   8
ENDBRANCH   6   7
ENDBRANCH   5   6
ENDBRANCH   4   5
ENDBRANCH   3   4
ENDBRANCH   2   3
ENDBRANCH   1   2
BRANCH   1  11
ATOM     11  C   UNL     1     127.399 145.969 122.477  1.00  0.00     0.000 C 
BRANCH  11  12
ATOM     12  C   UNL     1     126.879 146.132 121.039  1.00  0.00    -0.000 C 
BRANCH  12  13
ATOM     13  C   UNL     1     128.008 146.124 119.993  1.00  0.00    -0.000 C 
BRANCH  13  14
ATOM     14  C   UNL     1     127.686 145.232 118.785  1.00  0.00    -0.000 C 
BRANCH  14  15
ATOM     15  C   UNL     1     127.575 143.745 119.156  1.00  0.00    -0.000 C 
BRANCH  15  16
ATOM     16  C   UNL     1     128.919 143.204 119.659  1.00  0.00    -0.000 C 
BRANCH  16  17
ATOM     17  C   UNL     1     128.714 142.042 120.637  1.00  0.00    -0.003 C 
ATOM     18  C   UNL     1     127.581 142.339 121.616  1.00  0.00     0.004 C 
ENDBRANCH  16  17
ENDBRANCH  15  16
ENDBRANCH  14  15
ENDBRANCH  13  14
ENDBRANCH  12  13
ENDBRANCH  11  12
ENDBRANCH   1  11
TORSDOF 14
ENDMDL
MODEL 6
REMARK VINA RESULT:    -3.443      0.974      3.064
REMARK INTER + INTRA:          -8.523
REMARK INTER:                  -6.202
REMARK INTRA:                  -2.321
REMARK UNBOUND:                -2.262
REMARK SMILES CCCCCCCCCCCCCCCC(=O)[O-]
REMARK SMILES IDX 9 1 10 2 11 3 12 4 13 5 14 6 15 7 16 8 17 9 18 10 8 11 7 12
REMARK SMILES IDX 6 13 5 14 4 15 3 16 2 17 1 18
REMARK H PARENT
REMARK Flexibility Score: inf
ROOT
ATOM      1  C   UNL     1     128.547 144.436 118.831  1.00  0.00     0.000 C 
ENDROOT
BRANCH   1   2
ATOM      2  C   UNL     1     129.696 143.747 119.597  1.00  0.00     0.000 C 
BRANCH   2   3
ATOM      3  C   UNL     1     130.912 144.673 119.776  1.00  0.00     0.000 C 
BRANCH   3   4
ATOM      4  C   UNL     1     130.521 146.149 119.966  1.00  0.00     0.000 C 
BRANCH   4   5
ATOM      5  C   UNL     1     131.705 147.114 120.156  1.00  0.00     0.000 C 
BRANCH   5   6
ATOM      6  C   UNL     1     133.068 146.433 119.960  1.00  0.00     0.006 C 
BRANCH   6   7
ATOM      7  C   UNL     1     133.905 146.505 121.241  1.00  0.00     0.053 C 
BRANCH   7   8
ATOM      8  C   UNL     1     135.361 146.590 120.910  1.00  0.00     0.041 C 
ATOM      9  O   UNL     1     136.185 146.993 121.773  1.00  0.00    -0.550 OA
ATOM     10  O   UNL     1     135.816 146.177 119.664  1.00  0.00    -0.550 OA
ENDBRANCH   7   8
ENDBRANCH   6   7
ENDBRANCH   5   6
ENDBRANCH   4   5
ENDBRANCH   3   4
ENDBRANCH   2   3
ENDBRANCH   1   2
BRANCH   1  11
ATOM     11  C   UNL     1     127.193 144.385 119.566  1.00  0.00     0.000 C 
BRANCH  11  12
ATOM     12  C   UNL     1     127.257 144.705 121.069  1.00  0.00    -0.000 C 
BRANCH  12  13
ATOM     13  C   UNL     1     126.941 146.179 121.379  1.00  0.00    -0.000 C 
BRANCH  13  14
ATOM     14  C   UNL     1     127.615 146.668 122.669  1.00  0.00    -0.000 C 
BRANCH  14  15
ATOM     15  C   UNL     1     128.575 145.630 123.270  1.00  0.00    -0.000 C 
BRANCH  15  16
ATOM     16  C   UNL     1     129.972 146.230 123.474  1.00  0.00    -0.000 C 
BRANCH  16  17
ATOM     17  C   UNL     1     131.032 145.129 123.589  1.00  0.00    -0.003 C 
ATOM     18  C   UNL     1     130.438 143.757 123.279  1.00  0.00     0.004 C 
ENDBRANCH  16  17
ENDBRANCH  15  16
ENDBRANCH  14  15
ENDBRANCH  13  14
ENDBRANCH  12  13
ENDBRANCH  11  12
ENDBRANCH   1  11
TORSDOF 14
ENDMDL
MODEL 7
REMARK VINA RESULT:    -3.438      2.240      3.619
REMARK INTER + INTRA:          -8.514
REMARK INTER:                  -6.238
REMARK INTRA:                  -2.276
REMARK UNBOUND:                -2.262
REMARK SMILES CCCCCCCCCCCCCCCC(=O)[O-]
REMARK SMILES IDX 9 1 10 2 11 3 12 4 13 5 14 6 15 7 16 8 17 9 18 10 8 11 7 12
REMARK SMILES IDX 6 13 5 14 4 15 3 16 2 17 1 18
REMARK H PARENT
REMARK Flexibility Score: inf
ROOT
ATOM      1  C   UNL     1     130.820 144.512 120.255  1.00  0.00     0.000 C 
ENDROOT
BRANCH   1   2
ATOM      2  C   UNL     1     130.926 145.968 119.752  1.00  0.00     0.000 C 
BRANCH   2   3
ATOM      3  C   UNL     1     131.902 146.805 120.598  1.00  0.00     0.000 C 
BRANCH   3   4
ATOM      4  C   UNL     1     133.355 146.309 120.505  1.00  0.00     0.000 C 
BRANCH   4   5
ATOM      5  C   UNL     1     133.991 146.423 119.108  1.00  0.00     0.000 C 
BRANCH   5   6
ATOM      6  C   UNL     1     134.878 145.220 118.756  1.00  0.00     0.006 C 
BRANCH   6   7
ATOM      7  C   UNL     1     134.600 144.041 119.694  1.00  0.00     0.053 C 
BRANCH   7   8
ATOM      8  C   UNL     1     134.190 142.835 118.911  1.00  0.00     0.041 C 
ATOM      9  O   UNL     1     134.774 141.733 119.090  1.00  0.00    -0.550 OA
ATOM     10  O   UNL     1     133.128 142.913 118.018  1.00  0.00    -0.550 OA
ENDBRANCH   7   8
ENDBRANCH   6   7
ENDBRANCH   5   6
ENDBRANCH   4   5
ENDBRANCH   3   4
ENDBRANCH   2   3
ENDBRANCH   1   2
BRANCH   1  11
ATOM     11  C   UNL     1     129.950 143.608 119.358  1.00  0.00     0.000 C 
BRANCH  11  12
ATOM     12  C   UNL     1     128.451 143.601 119.701  1.00  0.00    -0.000 C 
BRANCH  12  13
ATOM     13  C   UNL     1     127.656 144.661 118.918  1.00  0.00    -0.000 C 
BRANCH  13  14
ATOM     14  C   UNL     1     127.111 145.776 119.823  1.00  0.00    -0.000 C 
BRANCH  14  15
ATOM     15  C   UNL     1     127.223 145.438 121.318  1.00  0.00    -0.000 C 
BRANCH  15  16
ATOM     16  C   UNL     1     127.941 146.557 122.081  1.00  0.00    -0.000 C 
BRANCH  16  17
ATOM     17  C   UNL     1     128.989 145.984 123.042  1.00  0.00    -0.003 C 
ATOM     18  C   UNL     1     128.710 144.514 123.348  1.00  0.00     0.004 C 
ENDBRANCH  16  17
ENDBRANCH  15  16
ENDBRANCH  14  15
ENDBRANCH  13  14
ENDBRANCH  12  13
ENDBRANCH  11  12
ENDBRANCH   1  11
TORSDOF 14
ENDMDL
MODEL 8
REMARK VINA RESULT:    -3.415      1.318      3.141
REMARK INTER + INTRA:          -8.471
REMARK INTER:                  -6.086
REMARK INTRA:                  -2.385
REMARK UNBOUND:                -2.262
REMARK SMILES CCCCCCCCCCCCCCCC(=O)[O-]
REMARK SMILES IDX 9 1 10 2 11 3 12 4 13 5 14 6 15 7 16 8 17 9 18 10 8 11 7 12
REMARK SMILES IDX 6 13 5 14 4 15 3 16 2 17 1 18
REMARK H PARENT
REMARK Flexibility Score: inf
ROOT
ATOM      1  C   UNL     1     129.113 141.966 120.554  1.00  0.00     0.000 C 
ENDROOT
BRANCH   1   2
ATOM      2  C   UNL     1     130.023 142.497 121.681  1.00  0.00     0.000 C 
BRANCH   2   3
ATOM      3  C   UNL     1     131.449 142.796 121.185  1.00  0.00     0.000 C 
BRANCH   3   4
ATOM      4  C   UNL     1     131.617 142.574 119.672  1.00  0.00     0.000 C 
BRANCH   4   5
ATOM      5  C   UNL     1     132.730 143.409 119.014  1.00  0.00     0.000 C 
BRANCH   5   6
ATOM      6  C   UNL     1     133.365 144.422 119.978  1.00  0.00     0.006 C 
BRANCH   6   7
ATOM      7  C   UNL     1     134.135 145.501 119.211  1.00  0.00     0.053 C 
BRANCH   7   8
ATOM      8  C   UNL     1     134.842 146.416 120.160  1.00  0.00     0.041 C 
ATOM      9  O   UNL     1     135.983 146.867 119.877  1.00  0.00    -0.550 OA
ATOM     10  O   UNL     1     134.218 146.811 121.337  1.00  0.00    -0.550 OA
ENDBRANCH   7   8
ENDBRANCH   6   7
ENDBRANCH   5   6
ENDBRANCH   4   5
ENDBRANCH   3   4
ENDBRANCH   2   3
ENDBRANCH   1   2
BRANCH   1  11
ATOM     11  C   UNL     1     127.948 142.912 120.199  1.00  0.00     0.000 C 
BRANCH  11  12
ATOM     12  C   UNL     1     128.172 143.778 118.947  1.00  0.00    -0.000 C 
BRANCH  12  13
ATOM     13  C   UNL     1     127.503 145.160 119.051  1.00  0.00    -0.000 C 
BRANCH  13  14
ATOM     14  C   UNL     1     128.267 146.116 119.979  1.00  0.00    -0.000 C 
BRANCH  14  15
ATOM     15  C   UNL     1     129.785 146.086 119.746  1.00  0.00    -0.000 C 
BRANCH  15  16
ATOM     16  C   UNL     1     130.545 146.330 121.056  1.00  0.00    -0.000 C 
BRANCH  16  17
ATOM     17  C   UNL     1     129.635 146.112 122.269  1.00  0.00    -0.003 C 
ATOM     18  C   UNL     1     130.453 145.889 123.539  1.00  0.00     0.004 C 
ENDBRANCH  16  17
ENDBRANCH  15  16
ENDBRANCH  14  15
ENDBRANCH  13  14
ENDBRANCH  12  13
ENDBRANCH  11  12
ENDBRANCH   1  11
TORSDOF 14
ENDMDL
