MODEL 1
REMARK VINA RESULT:    -3.344      0.000      0.000
REMARK INTER + INTRA:          -3.969
REMARK INTER:                  -3.931
REMARK INTRA:                  -0.038
REMARK UNBOUND:                -0.038
REMARK SMILES O=C([O-])CCC(=O)[O-]
REMARK SMILES IDX 4 1 2 2 1 3 3 4 5 5 6 6 7 7 8 8
REMARK H PARENT
REMARK Flexibility Score: inf
ROOT
ATOM      1  C   UNL     1      27.285 -20.033 -34.690  1.00  0.00     0.059 C 
ENDROOT
BRANCH   1   2
ATOM      2  C   UNL     1      27.843 -21.287 -35.286  1.00  0.00     0.042 C 
ATOM      3  O   UNL     1      27.444 -21.685 -36.412  1.00  0.00    -0.550 OA
ATOM      4  O   UNL     1      28.838 -21.989 -34.620  1.00  0.00    -0.550 OA
ENDBRANCH   1   2
BRANCH   1   5
ATOM      5  C   UNL     1      26.197 -19.450 -35.592  1.00  0.00     0.059 C 
BRANCH   5   6
ATOM      6  C   UNL     1      25.529 -18.290 -34.924  1.00  0.00     0.042 C 
ATOM      7  O   UNL     1      26.201 -17.490 -34.221  1.00  0.00    -0.550 OA
ATOM      8  O   UNL     1      24.155 -18.121 -35.035  1.00  0.00    -0.550 OA
ENDBRANCH   5   6
ENDBRANCH   1   5
TORSDOF 3
ENDMDL
MODEL 2
REMARK VINA RESULT:    -3.317      1.410      2.304
REMARK INTER + INTRA:          -3.936
REMARK INTER:                  -3.868
REMARK INTRA:                  -0.068
REMARK UNBOUND:                -0.038
REMARK SMILES O=C([O-])CCC(=O)[O-]
REMARK SMILES IDX 4 1 2 2 1 3 3 4 5 5 6 6 7 7 8 8
REMARK H PARENT
REMARK Flexibility Score: inf
ROOT
ATOM      1  C   UNL     1      27.561 -21.787 -35.149  1.00  0.00     0.059 C 
ENDROOT
BRANCH   1   2
ATOM      2  C   UNL     1      28.865 -21.775 -34.416  1.00  0.00     0.042 C 
ATOM      3  O   UNL     1      28.916 -22.125 -33.208  1.00  0.00    -0.550 OA
ATOM      4  O   UNL     1      30.033 -21.425 -35.081  1.00  0.00    -0.550 OA
ENDBRANCH   1   2
BRANCH   1   5
ATOM      5  C   UNL     1      26.639 -20.688 -34.619  1.00  0.00     0.059 C 
BRANCH   5   6
ATOM      6  C   UNL     1      26.385 -19.662 -35.678  1.00  0.00     0.042 C 
ATOM      7  O   UNL     1      26.605 -19.932 -36.888  1.00  0.00    -0.550 OA
ATOM      8  O   UNL     1      25.954 -18.390 -35.323  1.00  0.00    -0.550 OA
ENDBRANCH   5   6
ENDBRANCH   1   5
TORSDOF 3
ENDMDL
MODEL 3
REMARK VINA RESULT:    -3.308      0.098      4.406
REMARK INTER + INTRA:          -3.926
REMARK INTER:                  -3.890
REMARK INTRA:                  -0.036
REMARK UNBOUND:                -0.038
REMARK SMILES O=C([O-])CCC(=O)[O-]
REMARK SMILES IDX 4 1 2 2 1 3 3 4 5 5 6 6 7 7 8 8
REMARK H PARENT
REMARK Flexibility Score: inf
ROOT
ATOM      1  C   UNL     1      26.244 -19.417 -35.624  1.00  0.00     0.059 C 
ENDROOT
BRANCH   1   2
ATOM      2  C   UNL     1      25.505 -18.317 -34.930  1.00  0.00     0.042 C 
ATOM      3  O   UNL     1      26.137 -17.427 -34.303  1.00  0.00    -0.550 OA
ATOM      4  O   UNL     1      24.121 -18.247 -35.018  1.00  0.00    -0.550 OA
ENDBRANCH   1   2
BRANCH   1   5
ATOM      5  C   UNL     1      27.188 -20.125 -34.652  1.00  0.00     0.059 C 
BRANCH   5   6
ATOM      6  C   UNL     1      27.839 -21.298 -35.313  1.00  0.00     0.042 C 
ATOM      7  O   UNL     1      27.505 -21.633 -36.480  1.00  0.00    -0.550 OA
ATOM      8  O   UNL     1      28.779 -22.052 -34.622  1.00  0.00    -0.550 OA
ENDBRANCH   5   6
ENDBRANCH   1   5
TORSDOF 3
ENDMDL
MODEL 4
REMARK VINA RESULT:    -3.277     16.389     17.221
REMARK INTER + INTRA:          -3.890
REMARK INTER:                  -3.803
REMARK INTRA:                  -0.087
REMARK UNBOUND:                -0.038
REMARK SMILES O=C([O-])CCC(=O)[O-]
REMARK SMILES IDX 4 1 2 2 1 3 3 4 5 5 6 6 7 7 8 8
REMARK H PARENT
REMARK Flexibility Score: inf
ROOT
ATOM      1  C   UNL     1      15.418 -10.120 -28.908  1.00  0.00     0.059 C 
ENDROOT
BRANCH   1   2
ATOM      2  C   UNL     1      14.610 -10.270 -27.658  1.00  0.00     0.042 C 
ATOM      3  O   UNL     1      13.432  -9.830 -27.608  1.00  0.00    -0.550 OA
ATOM      4  O   UNL     1      15.142 -10.940 -26.564  1.00  0.00    -0.550 OA
ENDBRANCH   1   2
BRANCH   1   5
ATOM      5  C   UNL     1      14.645  -9.313 -29.951  1.00  0.00     0.059 C 
BRANCH   5   6
ATOM      6  C   UNL     1      15.233  -7.945 -30.096  1.00  0.00     0.042 C 
ATOM      7  O   UNL     1      14.498  -6.927 -30.005  1.00  0.00    -0.550 OA
ATOM      8  O   UNL     1      16.585  -7.796 -30.382  1.00  0.00    -0.550 OA
ENDBRANCH   5   6
ENDBRANCH   1   5
TORSDOF 3
ENDMDL
MODEL 5
REMARK VINA RESULT:    -3.244     16.376     17.252
REMARK INTER + INTRA:          -3.851
REMARK INTER:                  -3.765
REMARK INTRA:                  -0.086
REMARK UNBOUND:                -0.038
REMARK SMILES O=C([O-])CCC(=O)[O-]
REMARK SMILES IDX 4 1 2 2 1 3 3 4 5 5 6 6 7 7 8 8
REMARK H PARENT
REMARK Flexibility Score: inf
ROOT
ATOM      1  C   UNL     1      15.427 -10.130 -28.873  1.00  0.00     0.059 C 
ENDROOT
BRANCH   1   2
ATOM      2  C   UNL     1      14.614 -10.282 -27.626  1.00  0.00     0.042 C 
ATOM      3  O   UNL     1      15.102 -10.859 -26.619  1.00  0.00    -0.550 OA
ATOM      4  O   UNL     1      13.337  -9.742 -27.559  1.00  0.00    -0.550 OA
ENDBRANCH   1   2
BRANCH   1   5
ATOM      5  C   UNL     1      14.633  -9.376 -29.941  1.00  0.00     0.059 C 
BRANCH   5   6
ATOM      6  C   UNL     1      15.226  -8.023 -30.177  1.00  0.00     0.042 C 
ATOM      7  O   UNL     1      16.431  -7.911 -30.523  1.00  0.00    -0.550 OA
ATOM      8  O   UNL     1      14.460  -6.883 -29.968  1.00  0.00    -0.550 OA
ENDBRANCH   5   6
ENDBRANCH   1   5
TORSDOF 3
ENDMDL
MODEL 6
REMARK VINA RESULT:    -3.239     16.316     17.294
REMARK INTER + INTRA:          -3.845
REMARK INTER:                  -3.760
REMARK INTRA:                  -0.085
REMARK UNBOUND:                -0.038
REMARK SMILES O=C([O-])CCC(=O)[O-]
REMARK SMILES IDX 4 1 2 2 1 3 3 4 5 5 6 6 7 7 8 8
REMARK H PARENT
REMARK Flexibility Score: inf
ROOT
ATOM      1  C   UNL     1      14.633  -9.312 -29.976  1.00  0.00     0.059 C 
ENDROOT
BRANCH   1   2
ATOM      2  C   UNL     1      15.261  -7.972 -30.196  1.00  0.00     0.042 C 
ATOM      3  O   UNL     1      14.576  -6.923 -30.068  1.00  0.00    -0.550 OA
ATOM      4  O   UNL     1      16.614  -7.879 -30.493  1.00  0.00    -0.550 OA
ENDBRANCH   1   2
BRANCH   1   5
ATOM      5  C   UNL     1      15.441 -10.122 -28.961  1.00  0.00     0.059 C 
BRANCH   5   6
ATOM      6  C   UNL     1      14.689 -10.247 -27.674  1.00  0.00     0.042 C 
ATOM      7  O   UNL     1      15.205 -10.848 -26.695  1.00  0.00    -0.550 OA
ATOM      8  O   UNL     1      13.399  -9.743 -27.570  1.00  0.00    -0.550 OA
ENDBRANCH   5   6
ENDBRANCH   1   5
TORSDOF 3
ENDMDL
MODEL 7
REMARK VINA RESULT:    -3.218     16.358     17.008
REMARK INTER + INTRA:          -3.821
REMARK INTER:                  -3.782
REMARK INTRA:                  -0.038
REMARK UNBOUND:                -0.038
REMARK SMILES O=C([O-])CCC(=O)[O-]
REMARK SMILES IDX 4 1 2 2 1 3 3 4 5 5 6 6 7 7 8 8
REMARK H PARENT
REMARK Flexibility Score: inf
ROOT
ATOM      1  C   UNL     1      14.723  -8.751 -29.876  1.00  0.00     0.059 C 
ENDROOT
BRANCH   1   2
ATOM      2  C   UNL     1      15.720  -8.139 -30.809  1.00  0.00     0.042 C 
ATOM      3  O   UNL     1      15.429  -7.964 -32.021  1.00  0.00    -0.550 OA
ATOM      4  O   UNL     1      16.953  -7.718 -30.329  1.00  0.00    -0.550 OA
ENDBRANCH   1   2
BRANCH   1   5
ATOM      5  C   UNL     1      15.346  -9.925 -29.121  1.00  0.00     0.059 C 
BRANCH   5   6
ATOM      6  C   UNL     1      14.586 -10.201 -27.862  1.00  0.00     0.042 C 
ATOM      7  O   UNL     1      13.413  -9.765 -27.722  1.00  0.00    -0.550 OA
ATOM      8  O   UNL     1      15.191 -10.897 -26.824  1.00  0.00    -0.550 OA
ENDBRANCH   5   6
ENDBRANCH   1   5
TORSDOF 3
ENDMDL
MODEL 8
REMARK VINA RESULT:    -3.125     16.522     17.150
REMARK INTER + INTRA:          -3.711
REMARK INTER:                  -3.602
REMARK INTRA:                  -0.109
REMARK UNBOUND:                -0.038
REMARK SMILES O=C([O-])CCC(=O)[O-]
REMARK SMILES IDX 4 1 2 2 1 3 3 4 5 5 6 6 7 7 8 8
REMARK H PARENT
REMARK Flexibility Score: inf
ROOT
ATOM      1  C   UNL     1      15.307  -9.889 -29.171  1.00  0.00     0.059 C 
ENDROOT
BRANCH   1   2
ATOM      2  C   UNL     1      14.602 -10.171 -27.882  1.00  0.00     0.042 C 
ATOM      3  O   UNL     1      13.415  -9.789 -27.712  1.00  0.00    -0.550 OA
ATOM      4  O   UNL     1      15.240 -10.900 -26.886  1.00  0.00    -0.550 OA
ENDBRANCH   1   2
BRANCH   1   5
ATOM      5  C   UNL     1      14.809  -8.577 -29.777  1.00  0.00     0.059 C 
BRANCH   5   6
ATOM      6  C   UNL     1      14.263  -8.808 -31.150  1.00  0.00     0.042 C 
ATOM      7  O   UNL     1      14.895  -8.399 -32.160  1.00  0.00    -0.550 OA
ATOM      8  O   UNL     1      13.032  -9.430 -31.313  1.00  0.00    -0.550 OA
ENDBRANCH   5   6
ENDBRANCH   1   5
TORSDOF 3
ENDMDL
MODEL 9
REMARK VINA RESULT:    -3.107      1.501      4.059
REMARK INTER + INTRA:          -3.690
REMARK INTER:                  -3.597
REMARK INTRA:                  -0.093
REMARK UNBOUND:                -0.038
REMARK SMILES O=C([O-])CCC(=O)[O-]
REMARK SMILES IDX 4 1 2 2 1 3 3 4 5 5 6 6 7 7 8 8
REMARK H PARENT
REMARK Flexibility Score: inf
ROOT
ATOM      1  C   UNL     1      27.166 -20.533 -36.070  1.00  0.00     0.059 C 
ENDROOT
BRANCH   1   2
ATOM      2  C   UNL     1      26.373 -19.555 -35.261  1.00  0.00     0.042 C 
ATOM      3  O   UNL     1      25.129 -19.458 -35.426  1.00  0.00    -0.550 OA
ATOM      4  O   UNL     1      27.001 -18.787 -34.290  1.00  0.00    -0.550 OA
ENDBRANCH   1   2
BRANCH   1   5
ATOM      5  C   UNL     1      27.395 -21.821 -35.279  1.00  0.00     0.059 C 
BRANCH   5   6
ATOM      6  C   UNL     1      28.706 -21.770 -34.562  1.00  0.00     0.042 C 
ATOM      7  O   UNL     1      29.755 -21.451 -35.181  1.00  0.00    -0.550 OA
ATOM      8  O   UNL     1      28.779 -22.124 -33.221  1.00  0.00    -0.550 OA
ENDBRANCH   5   6
ENDBRANCH   1   5
TORSDOF 3
ENDMDL
