MODEL 1
REMARK VINA RESULT:    -4.556      0.000      0.000
REMARK INTER + INTRA:         -12.922
REMARK INTER:                  -9.883
REMARK INTRA:                  -3.039
REMARK UNBOUND:                -3.039
REMARK SMILES CCCCCCCCCCCCCCCCCCCCCC(=O)[O-]
REMARK SMILES IDX 12 1 11 2 10 3 9 4 8 5 7 6 6 7 5 8 4 9 3 10 2 11 1 12 13 13
REMARK SMILES IDX 14 14 15 15 16 16 17 17 18 18 19 19 20 20 21 21 22 22 23 23
REMARK SMILES IDX 24 24
REMARK H PARENT
REMARK Flexibility Score: inf
ROOT
ATOM      1  C   UNL     1       5.893  -7.835 -22.553  1.00  0.00     0.000 C 
ENDROOT
BRANCH   1   2
ATOM      2  C   UNL     1       4.735  -7.403 -21.645  1.00  0.00     0.000 C 
BRANCH   2   3
ATOM      3  C   UNL     1       4.395  -8.497 -20.621  1.00  0.00     0.000 C 
BRANCH   3   4
ATOM      4  C   UNL     1       2.918  -8.939 -20.707  1.00  0.00    -0.000 C 
BRANCH   4   5
ATOM      5  C   UNL     1       2.260  -8.649 -22.070  1.00  0.00    -0.000 C 
BRANCH   5   6
ATOM      6  C   UNL     1       0.976  -7.805 -22.007  1.00  0.00    -0.000 C 
BRANCH   6   7
ATOM      7  C   UNL     1       0.773  -7.126 -20.642  1.00  0.00    -0.000 C 
BRANCH   7   8
ATOM      8  C   UNL     1       0.918  -5.595 -20.711  1.00  0.00    -0.000 C 
BRANCH   8   9
ATOM      9  C   UNL     1       2.264  -5.048 -20.196  1.00  0.00    -0.000 C 
BRANCH   9  10
ATOM     10  C   UNL     1       2.549  -5.440 -18.735  1.00  0.00    -0.000 C 
BRANCH  10  11
ATOM     11  C   UNL     1       4.051  -5.592 -18.448  1.00  0.00    -0.003 C 
ATOM     12  C   UNL     1       4.874  -4.413 -18.969  1.00  0.00     0.004 C 
ENDBRANCH  10  11
ENDBRANCH   9  10
ENDBRANCH   8   9
ENDBRANCH   7   8
ENDBRANCH   6   7
ENDBRANCH   5   6
ENDBRANCH   4   5
ENDBRANCH   3   4
ENDBRANCH   2   3
ENDBRANCH   1   2
BRANCH   1  13
ATOM     13  C   UNL     1       6.253  -9.309 -22.321  1.00  0.00     0.000 C 
BRANCH  13  14
ATOM     14  C   UNL     1       6.639 -10.043 -23.616  1.00  0.00     0.000 C 
BRANCH  14  15
ATOM     15  C   UNL     1       5.941 -11.408 -23.785  1.00  0.00     0.000 C 
BRANCH  15  16
ATOM     16  C   UNL     1       4.478 -11.375 -23.312  1.00  0.00     0.000 C 
BRANCH  16  17
ATOM     17  C   UNL     1       4.225 -12.443 -22.238  1.00  0.00     0.000 C 
BRANCH  17  18
ATOM     18  C   UNL     1       5.458 -13.324 -21.967  1.00  0.00     0.000 C 
BRANCH  18  19
ATOM     19  C   UNL     1       5.152 -14.809 -21.681  1.00  0.00     0.000 C 
BRANCH  19  20
ATOM     20  C   UNL     1       3.969 -15.397 -22.471  1.00  0.00     0.006 C 
BRANCH  20  21
ATOM     21  C   UNL     1       3.196 -16.462 -21.684  1.00  0.00     0.053 C 
BRANCH  21  22
ATOM     22  C   UNL     1       1.807 -15.989 -21.387  1.00  0.00     0.041 C 
ATOM     23  O   UNL     1       1.624 -14.863 -20.850  1.00  0.00    -0.550 OA
ATOM     24  O   UNL     1       0.720 -16.810 -21.652  1.00  0.00    -0.550 OA
ENDBRANCH  21  22
ENDBRANCH  20  21
ENDBRANCH  19  20
ENDBRANCH  18  19
ENDBRANCH  17  18
ENDBRANCH  16  17
ENDBRANCH  15  16
ENDBRANCH  14  15
ENDBRANCH  13  14
ENDBRANCH   1  13
TORSDOF 20
ENDMDL
MODEL 2
REMARK VINA RESULT:    -4.495      2.273      3.419
REMARK INTER + INTRA:         -12.790
REMARK INTER:                  -9.521
REMARK INTRA:                  -3.269
REMARK UNBOUND:                -3.039
REMARK SMILES CCCCCCCCCCCCCCCCCCCCCC(=O)[O-]
REMARK SMILES IDX 12 1 11 2 10 3 9 4 8 5 7 6 6 7 5 8 4 9 3 10 2 11 1 12 13 13
REMARK SMILES IDX 14 14 15 15 16 16 17 17 18 18 19 19 20 20 21 21 22 22 23 23
REMARK SMILES IDX 24 24
REMARK H PARENT
REMARK Flexibility Score: inf
ROOT
ATOM      1  C   UNL     1       6.838  -9.318 -23.196  1.00  0.00     0.000 C 
ENDROOT
BRANCH   1   2
ATOM      2  C   UNL     1       5.973  -8.635 -22.130  1.00  0.00     0.000 C 
BRANCH   2   3
ATOM      3  C   UNL     1       5.709  -7.164 -22.489  1.00  0.00     0.000 C 
BRANCH   3   4
ATOM      4  C   UNL     1       4.929  -6.424 -21.381  1.00  0.00    -0.000 C 
BRANCH   4   5
ATOM      5  C   UNL     1       4.454  -7.339 -20.236  1.00  0.00    -0.000 C 
BRANCH   5   6
ATOM      6  C   UNL     1       3.315  -6.768 -19.374  1.00  0.00    -0.000 C 
BRANCH   6   7
ATOM      7  C   UNL     1       2.369  -5.852 -20.167  1.00  0.00    -0.000 C 
BRANCH   7   8
ATOM      8  C   UNL     1       1.850  -4.666 -19.332  1.00  0.00    -0.000 C 
BRANCH   8   9
ATOM      9  C   UNL     1       2.902  -4.008 -18.419  1.00  0.00    -0.000 C 
BRANCH   9  10
ATOM     10  C   UNL     1       3.868  -3.088 -19.185  1.00  0.00    -0.000 C 
BRANCH  10  11
ATOM     11  C   UNL     1       5.343  -3.406 -18.892  1.00  0.00    -0.003 C 
ATOM     12  C   UNL     1       5.533  -4.169 -17.581  1.00  0.00     0.004 C 
ENDBRANCH  10  11
ENDBRANCH   9  10
ENDBRANCH   8   9
ENDBRANCH   7   8
ENDBRANCH   6   7
ENDBRANCH   5   6
ENDBRANCH   4   5
ENDBRANCH   3   4
ENDBRANCH   2   3
ENDBRANCH   1   2
BRANCH   1  13
ATOM     13  C   UNL     1       6.229 -10.662 -23.620  1.00  0.00     0.000 C 
BRANCH  13  14
ATOM     14  C   UNL     1       4.962 -11.022 -22.827  1.00  0.00     0.000 C 
BRANCH  14  15
ATOM     15  C   UNL     1       3.865 -11.688 -23.683  1.00  0.00     0.000 C 
BRANCH  15  16
ATOM     16  C   UNL     1       2.518 -10.956 -23.573  1.00  0.00     0.000 C 
BRANCH  16  17
ATOM     17  C   UNL     1       2.687  -9.595 -22.881  1.00  0.00     0.000 C 
BRANCH  17  18
ATOM     18  C   UNL     1       1.699  -9.387 -21.719  1.00  0.00     0.000 C 
BRANCH  18  19
ATOM     19  C   UNL     1       2.033 -10.161 -20.428  1.00  0.00     0.000 C 
BRANCH  19  20
ATOM     20  C   UNL     1       1.094 -11.339 -20.111  1.00  0.00     0.006 C 
BRANCH  20  21
ATOM     21  C   UNL     1      -0.209 -11.300 -20.920  1.00  0.00     0.053 C 
BRANCH  21  22
ATOM     22  C   UNL     1      -0.354 -12.544 -21.739  1.00  0.00     0.041 C 
ATOM     23  O   UNL     1      -0.161 -13.673 -21.214  1.00  0.00    -0.550 OA
ATOM     24  O   UNL     1      -0.648 -12.456 -23.093  1.00  0.00    -0.550 OA
ENDBRANCH  21  22
ENDBRANCH  20  21
ENDBRANCH  19  20
ENDBRANCH  18  19
ENDBRANCH  17  18
ENDBRANCH  16  17
ENDBRANCH  15  16
ENDBRANCH  14  15
ENDBRANCH  13  14
ENDBRANCH   1  13
TORSDOF 20
ENDMDL
MODEL 3
REMARK VINA RESULT:    -4.435      2.312      3.824
REMARK INTER + INTRA:         -12.660
REMARK INTER:                  -9.829
REMARK INTRA:                  -2.830
REMARK UNBOUND:                -3.039
REMARK SMILES CCCCCCCCCCCCCCCCCCCCCC(=O)[O-]
REMARK SMILES IDX 12 1 11 2 10 3 9 4 8 5 7 6 6 7 5 8 4 9 3 10 2 11 1 12 13 13
REMARK SMILES IDX 14 14 15 15 16 16 17 17 18 18 19 19 20 20 21 21 22 22 23 23
REMARK SMILES IDX 24 24
REMARK H PARENT
REMARK Flexibility Score: inf
ROOT
ATOM      1  C   UNL     1       5.884  -7.556 -22.384  1.00  0.00     0.000 C 
ENDROOT
BRANCH   1   2
ATOM      2  C   UNL     1       4.487  -7.208 -21.855  1.00  0.00     0.000 C 
BRANCH   2   3
ATOM      3  C   UNL     1       4.447  -7.256 -20.320  1.00  0.00     0.000 C 
BRANCH   3   4
ATOM      4  C   UNL     1       3.190  -6.567 -19.747  1.00  0.00    -0.000 C 
BRANCH   4   5
ATOM      5  C   UNL     1       3.465  -5.709 -18.497  1.00  0.00    -0.000 C 
BRANCH   5   6
ATOM      6  C   UNL     1       4.829  -4.998 -18.483  1.00  0.00    -0.000 C 
BRANCH   6   7
ATOM      7  C   UNL     1       4.966  -3.946 -19.596  1.00  0.00    -0.000 C 
BRANCH   7   8
ATOM      8  C   UNL     1       3.911  -2.829 -19.492  1.00  0.00    -0.000 C 
BRANCH   8   9
ATOM      9  C   UNL     1       3.163  -2.521 -20.803  1.00  0.00    -0.000 C 
BRANCH   9  10
ATOM     10  C   UNL     1       3.363  -3.606 -21.875  1.00  0.00    -0.000 C 
BRANCH  10  11
ATOM     11  C   UNL     1       4.141  -3.093 -23.097  1.00  0.00    -0.003 C 
ATOM     12  C   UNL     1       5.350  -3.967 -23.436  1.00  0.00     0.004 C 
ENDBRANCH  10  11
ENDBRANCH   9  10
ENDBRANCH   8   9
ENDBRANCH   7   8
ENDBRANCH   6   7
ENDBRANCH   5   6
ENDBRANCH   4   5
ENDBRANCH   3   4
ENDBRANCH   2   3
ENDBRANCH   1   2
BRANCH   1  13
ATOM     13  C   UNL     1       6.098  -9.075 -22.415  1.00  0.00     0.000 C 
BRANCH  13  14
ATOM     14  C   UNL     1       7.033  -9.526 -23.549  1.00  0.00     0.000 C 
BRANCH  14  15
ATOM     15  C   UNL     1       6.813 -10.988 -23.989  1.00  0.00     0.000 C 
BRANCH  15  16
ATOM     16  C   UNL     1       5.416 -11.504 -23.609  1.00  0.00     0.000 C 
BRANCH  16  17
ATOM     17  C   UNL     1       5.515 -12.749 -22.715  1.00  0.00     0.000 C 
BRANCH  17  18
ATOM     18  C   UNL     1       4.382 -12.831 -21.676  1.00  0.00     0.000 C 
BRANCH  18  19
ATOM     19  C   UNL     1       3.278 -11.765 -21.824  1.00  0.00     0.000 C 
BRANCH  19  20
ATOM     20  C   UNL     1       3.221 -10.721 -20.695  1.00  0.00     0.006 C 
BRANCH  20  21
ATOM     21  C   UNL     1       1.887  -9.966 -20.645  1.00  0.00     0.053 C 
BRANCH  21  22
ATOM     22  C   UNL     1       0.756 -10.918 -20.411  1.00  0.00     0.041 C 
ATOM     23  O   UNL     1      -0.137 -11.068 -21.289  1.00  0.00    -0.550 OA
ATOM     24  O   UNL     1       0.655 -11.599 -19.205  1.00  0.00    -0.550 OA
ENDBRANCH  21  22
ENDBRANCH  20  21
ENDBRANCH  19  20
ENDBRANCH  18  19
ENDBRANCH  17  18
ENDBRANCH  16  17
ENDBRANCH  15  16
ENDBRANCH  14  15
ENDBRANCH  13  14
ENDBRANCH   1  13
TORSDOF 20
ENDMDL
MODEL 4
REMARK VINA RESULT:    -4.395      4.061      7.631
REMARK INTER + INTRA:         -12.572
REMARK INTER:                  -9.498
REMARK INTRA:                  -3.074
REMARK UNBOUND:                -3.039
REMARK SMILES CCCCCCCCCCCCCCCCCCCCCC(=O)[O-]
REMARK SMILES IDX 12 1 11 2 10 3 9 4 8 5 7 6 6 7 5 8 4 9 3 10 2 11 1 12 13 13
REMARK SMILES IDX 14 14 15 15 16 16 17 17 18 18 19 19 20 20 21 21 22 22 23 23
REMARK SMILES IDX 24 24
REMARK H PARENT
REMARK Flexibility Score: inf
ROOT
ATOM      1  C   UNL     1       6.968 -10.050 -23.680  1.00  0.00     0.000 C 
ENDROOT
BRANCH   1   2
ATOM      2  C   UNL     1       6.553 -11.489 -24.010  1.00  0.00     0.000 C 
BRANCH   2   3
ATOM      3  C   UNL     1       5.244 -11.866 -23.301  1.00  0.00     0.000 C 
BRANCH   3   4
ATOM      4  C   UNL     1       5.396 -13.129 -22.426  1.00  0.00    -0.000 C 
BRANCH   4   5
ATOM      5  C   UNL     1       4.063 -13.665 -21.869  1.00  0.00    -0.000 C 
BRANCH   5   6
ATOM      6  C   UNL     1       2.810 -12.902 -22.330  1.00  0.00    -0.000 C 
BRANCH   6   7
ATOM      7  C   UNL     1       2.099 -12.172 -21.179  1.00  0.00    -0.000 C 
BRANCH   7   8
ATOM      8  C   UNL     1       2.685 -10.774 -20.907  1.00  0.00    -0.000 C 
BRANCH   8   9
ATOM      9  C   UNL     1       1.887  -9.607 -21.519  1.00  0.00    -0.000 C 
BRANCH   9  10
ATOM     10  C   UNL     1       2.393  -9.203 -22.916  1.00  0.00    -0.000 C 
BRANCH  10  11
ATOM     11  C   UNL     1       1.424  -8.258 -23.644  1.00  0.00    -0.003 C 
ATOM     12  C   UNL     1       0.182  -7.934 -22.815  1.00  0.00     0.004 C 
ENDBRANCH  10  11
ENDBRANCH   9  10
ENDBRANCH   8   9
ENDBRANCH   7   8
ENDBRANCH   6   7
ENDBRANCH   5   6
ENDBRANCH   4   5
ENDBRANCH   3   4
ENDBRANCH   2   3
ENDBRANCH   1   2
BRANCH   1  13
ATOM     13  C   UNL     1       6.035  -9.437 -22.626  1.00  0.00     0.000 C 
BRANCH  13  14
ATOM     14  C   UNL     1       6.191  -7.912 -22.502  1.00  0.00     0.000 C 
BRANCH  14  15
ATOM     15  C   UNL     1       5.110  -7.250 -21.623  1.00  0.00     0.000 C 
BRANCH  15  16
ATOM     16  C   UNL     1       4.860  -5.785 -22.015  1.00  0.00     0.000 C 
BRANCH  16  17
ATOM     17  C   UNL     1       3.396  -5.393 -21.770  1.00  0.00     0.000 C 
BRANCH  17  18
ATOM     18  C   UNL     1       2.732  -6.223 -20.656  1.00  0.00     0.000 C 
BRANCH  18  19
ATOM     19  C   UNL     1       1.810  -5.431 -19.709  1.00  0.00     0.000 C 
BRANCH  19  20
ATOM     20  C   UNL     1       2.534  -4.599 -18.635  1.00  0.00     0.006 C 
BRANCH  20  21
ATOM     21  C   UNL     1       3.863  -5.224 -18.192  1.00  0.00     0.053 C 
BRANCH  21  22
ATOM     22  C   UNL     1       4.956  -4.201 -18.218  1.00  0.00     0.041 C 
ATOM     23  O   UNL     1       5.040  -3.390 -19.180  1.00  0.00    -0.550 OA
ATOM     24  O   UNL     1       5.914  -4.178 -17.214  1.00  0.00    -0.550 OA
ENDBRANCH  21  22
ENDBRANCH  20  21
ENDBRANCH  19  20
ENDBRANCH  18  19
ENDBRANCH  17  18
ENDBRANCH  16  17
ENDBRANCH  15  16
ENDBRANCH  14  15
ENDBRANCH  13  14
ENDBRANCH   1  13
TORSDOF 20
ENDMDL
MODEL 5
REMARK VINA RESULT:    -4.381      4.043      9.029
REMARK INTER + INTRA:         -12.542
REMARK INTER:                 -10.193
REMARK INTRA:                  -2.349
REMARK UNBOUND:                -3.039
REMARK SMILES CCCCCCCCCCCCCCCCCCCCCC(=O)[O-]
REMARK SMILES IDX 12 1 11 2 10 3 9 4 8 5 7 6 6 7 5 8 4 9 3 10 2 11 1 12 13 13
REMARK SMILES IDX 14 14 15 15 16 16 17 17 18 18 19 19 20 20 21 21 22 22 23 23
REMARK SMILES IDX 24 24
REMARK H PARENT
REMARK Flexibility Score: inf
ROOT
ATOM      1  C   UNL     1       3.689  -9.826 -21.055  1.00  0.00     0.000 C 
ENDROOT
BRANCH   1   2
ATOM      2  C   UNL     1       3.289  -9.982 -22.528  1.00  0.00     0.000 C 
BRANCH   2   3
ATOM      3  C   UNL     1       3.545 -11.414 -23.023  1.00  0.00     0.000 C 
BRANCH   3   4
ATOM      4  C   UNL     1       4.949 -11.575 -23.644  1.00  0.00    -0.000 C 
BRANCH   4   5
ATOM      5  C   UNL     1       5.828 -12.622 -22.934  1.00  0.00    -0.000 C 
BRANCH   5   6
ATOM      6  C   UNL     1       5.139 -13.382 -21.788  1.00  0.00    -0.000 C 
BRANCH   6   7
ATOM      7  C   UNL     1       5.355 -14.902 -21.865  1.00  0.00    -0.000 C 
BRANCH   7   8
ATOM      8  C   UNL     1       4.040 -15.682 -22.052  1.00  0.00    -0.000 C 
BRANCH   8   9
ATOM      9  C   UNL     1       2.763 -14.888 -21.715  1.00  0.00    -0.000 C 
BRANCH   9  10
ATOM     10  C   UNL     1       1.739 -15.712 -20.915  1.00  0.00    -0.000 C 
BRANCH  10  11
ATOM     11  C   UNL     1       1.855 -17.221 -21.185  1.00  0.00    -0.003 C 
ATOM     12  C   UNL     1       1.923 -18.047 -19.901  1.00  0.00     0.004 C 
ENDBRANCH  10  11
ENDBRANCH   9  10
ENDBRANCH   8   9
ENDBRANCH   7   8
ENDBRANCH   6   7
ENDBRANCH   5   6
ENDBRANCH   4   5
ENDBRANCH   3   4
ENDBRANCH   2   3
ENDBRANCH   1   2
BRANCH   1  13
ATOM     13  C   UNL     1       4.682  -8.670 -20.875  1.00  0.00     0.000 C 
BRANCH  13  14
ATOM     14  C   UNL     1       5.610  -8.483 -22.086  1.00  0.00     0.000 C 
BRANCH  14  15
ATOM     15  C   UNL     1       5.568  -7.062 -22.685  1.00  0.00     0.000 C 
BRANCH  15  16
ATOM     16  C   UNL     1       5.546  -5.974 -21.598  1.00  0.00     0.000 C 
BRANCH  16  17
ATOM     17  C   UNL     1       4.704  -4.769 -22.044  1.00  0.00     0.000 C 
BRANCH  17  18
ATOM     18  C   UNL     1       3.198  -4.967 -21.798  1.00  0.00     0.000 C 
BRANCH  18  19
ATOM     19  C   UNL     1       2.836  -5.658 -20.468  1.00  0.00     0.000 C 
BRANCH  19  20
ATOM     20  C   UNL     1       2.885  -4.751 -19.226  1.00  0.00     0.006 C 
BRANCH  20  21
ATOM     21  C   UNL     1       3.950  -5.185 -18.211  1.00  0.00     0.053 C 
BRANCH  21  22
ATOM     22  C   UNL     1       5.032  -4.155 -18.115  1.00  0.00     0.041 C 
ATOM     23  O   UNL     1       5.887  -4.220 -17.190  1.00  0.00    -0.550 OA
ATOM     24  O   UNL     1       5.066  -3.094 -19.009  1.00  0.00    -0.550 OA
ENDBRANCH  21  22
ENDBRANCH  20  21
ENDBRANCH  19  20
ENDBRANCH  18  19
ENDBRANCH  17  18
ENDBRANCH  16  17
ENDBRANCH  15  16
ENDBRANCH  14  15
ENDBRANCH  13  14
ENDBRANCH   1  13
TORSDOF 20
ENDMDL
MODEL 6
REMARK VINA RESULT:    -4.372      1.842      4.621
REMARK INTER + INTRA:         -12.523
REMARK INTER:                  -8.936
REMARK INTRA:                  -3.587
REMARK UNBOUND:                -3.039
REMARK SMILES CCCCCCCCCCCCCCCCCCCCCC(=O)[O-]
REMARK SMILES IDX 12 1 11 2 10 3 9 4 8 5 7 6 6 7 5 8 4 9 3 10 2 11 1 12 13 13
REMARK SMILES IDX 14 14 15 15 16 16 17 17 18 18 19 19 20 20 21 21 22 22 23 23
REMARK SMILES IDX 24 24
REMARK H PARENT
REMARK Flexibility Score: inf
ROOT
ATOM      1  C   UNL     1       4.782  -3.567 -22.007  1.00  0.00     0.000 C 
ENDROOT
BRANCH   1   2
ATOM      2  C   UNL     1       3.716  -2.674 -21.359  1.00  0.00     0.000 C 
BRANCH   2   3
ATOM      3  C   UNL     1       4.030  -2.422 -19.876  1.00  0.00     0.000 C 
BRANCH   3   4
ATOM      4  C   UNL     1       5.333  -3.121 -19.429  1.00  0.00    -0.000 C 
BRANCH   4   5
ATOM      5  C   UNL     1       5.126  -4.173 -18.322  1.00  0.00    -0.000 C 
BRANCH   5   6
ATOM      6  C   UNL     1       4.405  -5.456 -18.769  1.00  0.00    -0.000 C 
BRANCH   6   7
ATOM      7  C   UNL     1       2.995  -5.588 -18.171  1.00  0.00    -0.000 C 
BRANCH   7   8
ATOM      8  C   UNL     1       1.883  -5.323 -19.203  1.00  0.00    -0.000 C 
BRANCH   8   9
ATOM      9  C   UNL     1       2.148  -5.906 -20.604  1.00  0.00    -0.000 C 
BRANCH   9  10
ATOM     10  C   UNL     1       1.670  -7.362 -20.747  1.00  0.00    -0.000 C 
BRANCH  10  11
ATOM     11  C   UNL     1       0.929  -7.612 -22.070  1.00  0.00    -0.003 C 
ATOM     12  C   UNL     1       1.869  -8.021 -23.204  1.00  0.00     0.004 C 
ENDBRANCH  10  11
ENDBRANCH   9  10
ENDBRANCH   8   9
ENDBRANCH   7   8
ENDBRANCH   6   7
ENDBRANCH   5   6
ENDBRANCH   4   5
ENDBRANCH   3   4
ENDBRANCH   2   3
ENDBRANCH   1   2
BRANCH   1  13
ATOM     13  C   UNL     1       4.175  -4.419 -23.130  1.00  0.00     0.000 C 
BRANCH  13  14
ATOM     14  C   UNL     1       4.846  -5.796 -23.266  1.00  0.00     0.000 C 
BRANCH  14  15
ATOM     15  C   UNL     1       5.576  -6.258 -21.988  1.00  0.00     0.000 C 
BRANCH  15  16
ATOM     16  C   UNL     1       5.209  -7.699 -21.598  1.00  0.00     0.000 C 
BRANCH  16  17
ATOM     17  C   UNL     1       5.972  -8.713 -22.464  1.00  0.00     0.000 C 
BRANCH  17  18
ATOM     18  C   UNL     1       5.272 -10.082 -22.540  1.00  0.00     0.000 C 
BRANCH  18  19
ATOM     19  C   UNL     1       4.085 -10.266 -21.573  1.00  0.00     0.000 C 
BRANCH  19  20
ATOM     20  C   UNL     1       3.157 -11.451 -21.894  1.00  0.00     0.006 C 
BRANCH  20  21
ATOM     21  C   UNL     1       3.837 -12.528 -22.749  1.00  0.00     0.053 C 
BRANCH  21  22
ATOM     22  C   UNL     1       4.199 -13.712 -21.909  1.00  0.00     0.041 C 
ATOM     23  O   UNL     1       3.395 -14.676 -21.794  1.00  0.00    -0.550 OA
ATOM     24  O   UNL     1       5.397 -13.730 -21.208  1.00  0.00    -0.550 OA
ENDBRANCH  21  22
ENDBRANCH  20  21
ENDBRANCH  19  20
ENDBRANCH  18  19
ENDBRANCH  17  18
ENDBRANCH  16  17
ENDBRANCH  15  16
ENDBRANCH  14  15
ENDBRANCH  13  14
ENDBRANCH   1  13
TORSDOF 20
ENDMDL
MODEL 7
REMARK VINA RESULT:    -4.353      2.288      3.441
REMARK INTER + INTRA:         -12.482
REMARK INTER:                  -9.407
REMARK INTRA:                  -3.075
REMARK UNBOUND:                -3.039
REMARK SMILES CCCCCCCCCCCCCCCCCCCCCC(=O)[O-]
REMARK SMILES IDX 12 1 11 2 10 3 9 4 8 5 7 6 6 7 5 8 4 9 3 10 2 11 1 12 13 13
REMARK SMILES IDX 14 14 15 15 16 16 17 17 18 18 19 19 20 20 21 21 22 22 23 23
REMARK SMILES IDX 24 24
REMARK H PARENT
REMARK Flexibility Score: inf
ROOT
ATOM      1  C   UNL     1       5.267  -7.925 -22.855  1.00  0.00     0.000 C 
ENDROOT
BRANCH   1   2
ATOM      2  C   UNL     1       4.830  -7.111 -21.632  1.00  0.00     0.000 C 
BRANCH   2   3
ATOM      3  C   UNL     1       5.598  -5.783 -21.545  1.00  0.00     0.000 C 
BRANCH   3   4
ATOM      4  C   UNL     1       5.140  -4.772 -22.619  1.00  0.00    -0.000 C 
BRANCH   4   5
ATOM      5  C   UNL     1       3.662  -4.924 -23.026  1.00  0.00    -0.000 C 
BRANCH   5   6
ATOM      6  C   UNL     1       2.660  -4.166 -22.138  1.00  0.00    -0.000 C 
BRANCH   6   7
ATOM      7  C   UNL     1       1.648  -5.096 -21.451  1.00  0.00    -0.000 C 
BRANCH   7   8
ATOM      8  C   UNL     1       1.654  -4.955 -19.918  1.00  0.00    -0.000 C 
BRANCH   8   9
ATOM      9  C   UNL     1       2.470  -6.029 -19.172  1.00  0.00    -0.000 C 
BRANCH   9  10
ATOM     10  C   UNL     1       3.475  -5.430 -18.173  1.00  0.00    -0.000 C 
BRANCH  10  11
ATOM     11  C   UNL     1       4.052  -4.087 -18.649  1.00  0.00    -0.003 C 
ATOM     12  C   UNL     1       5.434  -3.798 -18.062  1.00  0.00     0.004 C 
ENDBRANCH  10  11
ENDBRANCH   9  10
ENDBRANCH   8   9
ENDBRANCH   7   8
ENDBRANCH   6   7
ENDBRANCH   5   6
ENDBRANCH   4   5
ENDBRANCH   3   4
ENDBRANCH   2   3
ENDBRANCH   1   2
BRANCH   1  13
ATOM     13  C   UNL     1       6.271  -9.017 -22.459  1.00  0.00     0.000 C 
BRANCH  13  14
ATOM     14  C   UNL     1       7.100  -9.529 -23.648  1.00  0.00     0.000 C 
BRANCH  14  15
ATOM     15  C   UNL     1       6.833 -11.007 -23.998  1.00  0.00     0.000 C 
BRANCH  15  16
ATOM     16  C   UNL     1       5.377 -11.416 -23.722  1.00  0.00     0.000 C 
BRANCH  16  17
ATOM     17  C   UNL     1       5.313 -12.582 -22.725  1.00  0.00     0.000 C 
BRANCH  17  18
ATOM     18  C   UNL     1       4.121 -12.478 -21.756  1.00  0.00     0.000 C 
BRANCH  18  19
ATOM     19  C   UNL     1       3.296 -11.180 -21.870  1.00  0.00     0.000 C 
BRANCH  19  20
ATOM     20  C   UNL     1       3.265 -10.311 -20.600  1.00  0.00     0.006 C 
BRANCH  20  21
ATOM     21  C   UNL     1       2.007  -9.438 -20.504  1.00  0.00     0.053 C 
BRANCH  21  22
ATOM     22  C   UNL     1       0.781 -10.293 -20.426  1.00  0.00     0.041 C 
ATOM     23  O   UNL     1      -0.217 -10.035 -21.152  1.00  0.00    -0.550 OA
ATOM     24  O   UNL     1       0.717 -11.339 -19.516  1.00  0.00    -0.550 OA
ENDBRANCH  21  22
ENDBRANCH  20  21
ENDBRANCH  19  20
ENDBRANCH  18  19
ENDBRANCH  17  18
ENDBRANCH  16  17
ENDBRANCH  15  16
ENDBRANCH  14  15
ENDBRANCH  13  14
ENDBRANCH   1  13
TORSDOF 20
ENDMDL
MODEL 8
REMARK VINA RESULT:    -4.317      4.244      7.226
REMARK INTER + INTRA:         -12.404
REMARK INTER:                  -9.070
REMARK INTRA:                  -3.334
REMARK UNBOUND:                -3.039
REMARK SMILES CCCCCCCCCCCCCCCCCCCCCC(=O)[O-]
REMARK SMILES IDX 12 1 11 2 10 3 9 4 8 5 7 6 6 7 5 8 4 9 3 10 2 11 1 12 13 13
REMARK SMILES IDX 14 14 15 15 16 16 17 17 18 18 19 19 20 20 21 21 22 22 23 23
REMARK SMILES IDX 24 24
REMARK H PARENT
REMARK Flexibility Score: inf
ROOT
ATOM      1  C   UNL     1       3.624 -12.329 -22.850  1.00  0.00     0.000 C 
ENDROOT
BRANCH   1   2
ATOM      2  C   UNL     1       2.941 -12.142 -24.210  1.00  0.00     0.000 C 
BRANCH   2   3
ATOM      3  C   UNL     1       1.591 -11.424 -24.058  1.00  0.00     0.000 C 
BRANCH   3   4
ATOM      4  C   UNL     1       1.548 -10.091 -24.837  1.00  0.00    -0.000 C 
BRANCH   4   5
ATOM      5  C   UNL     1       0.992  -8.910 -24.019  1.00  0.00    -0.000 C 
BRANCH   5   6
ATOM      6  C   UNL     1       2.003  -8.237 -23.075  1.00  0.00    -0.000 C 
BRANCH   6   7
ATOM      7  C   UNL     1       1.332  -7.539 -21.881  1.00  0.00    -0.000 C 
BRANCH   7   8
ATOM      8  C   UNL     1      -0.117  -8.007 -21.655  1.00  0.00    -0.000 C 
BRANCH   8   9
ATOM      9  C   UNL     1      -0.313  -8.956 -20.457  1.00  0.00    -0.000 C 
BRANCH   9  10
ATOM     10  C   UNL     1      -0.485 -10.426 -20.880  1.00  0.00    -0.000 C 
BRANCH  10  11
ATOM     11  C   UNL     1       0.768 -11.271 -20.598  1.00  0.00    -0.003 C 
ATOM     12  C   UNL     1       1.847 -10.493 -19.846  1.00  0.00     0.004 C 
ENDBRANCH  10  11
ENDBRANCH   9  10
ENDBRANCH   8   9
ENDBRANCH   7   8
ENDBRANCH   6   7
ENDBRANCH   5   6
ENDBRANCH   4   5
ENDBRANCH   3   4
ENDBRANCH   2   3
ENDBRANCH   1   2
BRANCH   1  13
ATOM     13  C   UNL     1       4.371 -11.056 -22.429  1.00  0.00     0.000 C 
BRANCH  13  14
ATOM     14  C   UNL     1       5.645 -10.808 -23.255  1.00  0.00     0.000 C 
BRANCH  14  15
ATOM     15  C   UNL     1       6.379  -9.504 -22.883  1.00  0.00     0.000 C 
BRANCH  15  16
ATOM     16  C   UNL     1       5.549  -8.619 -21.939  1.00  0.00     0.000 C 
BRANCH  16  17
ATOM     17  C   UNL     1       5.555  -7.157 -22.411  1.00  0.00     0.000 C 
BRANCH  17  18
ATOM     18  C   UNL     1       5.011  -6.183 -21.350  1.00  0.00     0.000 C 
BRANCH  18  19
ATOM     19  C   UNL     1       4.404  -6.849 -20.099  1.00  0.00     0.000 C 
BRANCH  19  20
ATOM     20  C   UNL     1       4.053  -5.887 -18.950  1.00  0.00     0.006 C 
BRANCH  20  21
ATOM     21  C   UNL     1       4.124  -4.411 -19.364  1.00  0.00     0.053 C 
BRANCH  21  22
ATOM     22  C   UNL     1       5.188  -3.701 -18.588  1.00  0.00     0.041 C 
ATOM     23  O   UNL     1       5.654  -4.215 -17.536  1.00  0.00    -0.550 OA
ATOM     24  O   UNL     1       5.627  -2.447 -18.993  1.00  0.00    -0.550 OA
ENDBRANCH  21  22
ENDBRANCH  20  21
ENDBRANCH  19  20
ENDBRANCH  18  19
ENDBRANCH  17  18
ENDBRANCH  16  17
ENDBRANCH  15  16
ENDBRANCH  14  15
ENDBRANCH  13  14
ENDBRANCH   1  13
TORSDOF 20
ENDMDL
MODEL 9
REMARK VINA RESULT:    -4.305      4.590      8.333
REMARK INTER + INTRA:         -12.379
REMARK INTER:                  -8.832
REMARK INTRA:                  -3.547
REMARK UNBOUND:                -3.039
REMARK SMILES CCCCCCCCCCCCCCCCCCCCCC(=O)[O-]
REMARK SMILES IDX 12 1 11 2 10 3 9 4 8 5 7 6 6 7 5 8 4 9 3 10 2 11 1 12 13 13
REMARK SMILES IDX 14 14 15 15 16 16 17 17 18 18 19 19 20 20 21 21 22 22 23 23
REMARK SMILES IDX 24 24
REMARK H PARENT
REMARK Flexibility Score: inf
ROOT
ATOM      1  C   UNL     1       4.249  -7.034 -21.810  1.00  0.00     0.000 C 
ENDROOT
BRANCH   1   2
ATOM      2  C   UNL     1       5.557  -7.477 -22.477  1.00  0.00     0.000 C 
BRANCH   2   3
ATOM      3  C   UNL     1       5.896  -8.933 -22.121  1.00  0.00     0.000 C 
BRANCH   3   4
ATOM      4  C   UNL     1       6.658  -9.650 -23.257  1.00  0.00    -0.000 C 
BRANCH   4   5
ATOM      5  C   UNL     1       6.055 -11.013 -23.648  1.00  0.00    -0.000 C 
BRANCH   5   6
ATOM      6  C   UNL     1       4.717 -11.353 -22.969  1.00  0.00    -0.000 C 
BRANCH   6   7
ATOM      7  C   UNL     1       3.681 -11.930 -23.947  1.00  0.00    -0.000 C 
BRANCH   7   8
ATOM      8  C   UNL     1       2.261 -11.390 -23.697  1.00  0.00    -0.000 C 
BRANCH   8   9
ATOM      9  C   UNL     1       2.123  -9.859 -23.800  1.00  0.00    -0.000 C 
BRANCH   9  10
ATOM     10  C   UNL     1       1.560  -9.220 -22.518  1.00  0.00    -0.000 C 
BRANCH  10  11
ATOM     11  C   UNL     1       1.533 -10.200 -21.334  1.00  0.00    -0.003 C 
ATOM     12  C   UNL     1       2.577  -9.868 -20.269  1.00  0.00     0.004 C 
ENDBRANCH  10  11
ENDBRANCH   9  10
ENDBRANCH   8   9
ENDBRANCH   7   8
ENDBRANCH   6   7
ENDBRANCH   5   6
ENDBRANCH   4   5
ENDBRANCH   3   4
ENDBRANCH   2   3
ENDBRANCH   1   2
BRANCH   1  13
ATOM     13  C   UNL     1       3.502  -6.019 -22.686  1.00  0.00     0.000 C 
BRANCH  13  14
ATOM     14  C   UNL     1       2.248  -5.448 -22.005  1.00  0.00     0.000 C 
BRANCH  14  15
ATOM     15  C   UNL     1       1.998  -6.016 -20.593  1.00  0.00     0.000 C 
BRANCH  15  16
ATOM     16  C   UNL     1       1.440  -4.955 -19.630  1.00  0.00     0.000 C 
BRANCH  16  17
ATOM     17  C   UNL     1       2.308  -4.850 -18.367  1.00  0.00     0.000 C 
BRANCH  17  18
ATOM     18  C   UNL     1       3.671  -5.549 -18.517  1.00  0.00     0.000 C 
BRANCH  18  19
ATOM     19  C   UNL     1       4.877  -4.759 -17.971  1.00  0.00     0.000 C 
BRANCH  19  20
ATOM     20  C   UNL     1       5.271  -3.517 -18.791  1.00  0.00     0.006 C 
BRANCH  20  21
ATOM     21  C   UNL     1       5.005  -3.684 -20.293  1.00  0.00     0.053 C 
BRANCH  21  22
ATOM     22  C   UNL     1       4.233  -2.516 -20.820  1.00  0.00     0.041 C 
ATOM     23  O   UNL     1       3.375  -1.945 -20.094  1.00  0.00    -0.550 OA
ATOM     24  O   UNL     1       4.417  -2.091 -22.129  1.00  0.00    -0.550 OA
ENDBRANCH  21  22
ENDBRANCH  20  21
ENDBRANCH  19  20
ENDBRANCH  18  19
ENDBRANCH  17  18
ENDBRANCH  16  17
ENDBRANCH  15  16
ENDBRANCH  14  15
ENDBRANCH  13  14
ENDBRANCH   1  13
TORSDOF 20
ENDMDL
