MODEL 1
REMARK VINA RESULT:    -4.354      0.000      0.000
REMARK INTER + INTRA:          -6.444
REMARK INTER:                  -6.135
REMARK INTRA:                  -0.308
REMARK UNBOUND:                -0.308
REMARK SMILES CCCCCCCCC(=O)[O-]
REMARK SMILES IDX 6 1 7 2 8 3 9 4 10 5 11 6 5 7 4 8 3 9 2 10 1 11
REMARK H PARENT
REMARK Flexibility Score: inf
ROOT
ATOM      1  C   UNL     1       2.829 -37.863  19.477  1.00  0.00     0.000 C 
ENDROOT
BRANCH   1   2
ATOM      2  C   UNL     1       4.313 -37.535  19.234  1.00  0.00     0.006 C 
BRANCH   2   3
ATOM      3  C   UNL     1       5.148 -37.429  20.522  1.00  0.00     0.053 C 
BRANCH   3   4
ATOM      4  C   UNL     1       5.774 -36.078  20.695  1.00  0.00     0.041 C 
ATOM      5  O   UNL     1       6.114 -35.680  21.839  1.00  0.00    -0.550 OA
ATOM      6  O   UNL     1       6.014 -35.273  19.588  1.00  0.00    -0.550 OA
ENDBRANCH   3   4
ENDBRANCH   2   3
ENDBRANCH   1   2
BRANCH   1   7
ATOM      7  C   UNL     1       1.976 -37.780  18.205  1.00  0.00     0.000 C 
BRANCH   7   8
ATOM      8  C   UNL     1       2.841 -37.433  16.983  1.00  0.00    -0.000 C 
BRANCH   8   9
ATOM      9  C   UNL     1       2.052 -36.702  15.885  1.00  0.00    -0.000 C 
BRANCH   9  10
ATOM     10  C   UNL     1       2.807 -36.654  14.548  1.00  0.00    -0.003 C 
ATOM     11  C   UNL     1       3.893 -37.724  14.493  1.00  0.00     0.004 C 
ENDBRANCH   9  10
ENDBRANCH   8   9
ENDBRANCH   7   8
ENDBRANCH   1   7
TORSDOF 7
ENDMDL
MODEL 2
REMARK VINA RESULT:    -4.121      1.475      2.046
REMARK INTER + INTRA:          -6.115
REMARK INTER:                  -5.895
REMARK INTRA:                  -0.220
REMARK UNBOUND:                -0.308
REMARK SMILES CCCCCCCCC(=O)[O-]
REMARK SMILES IDX 6 1 7 2 8 3 9 4 10 5 11 6 5 7 4 8 3 9 2 10 1 11
REMARK H PARENT
REMARK Flexibility Score: inf
ROOT
ATOM      1  C   UNL     1       4.622 -37.374  19.999  1.00  0.00     0.000 C 
ENDROOT
BRANCH   1   2
ATOM      2  C   UNL     1       4.936 -35.889  20.255  1.00  0.00     0.006 C 
BRANCH   2   3
ATOM      3  C   UNL     1       6.115 -35.657  21.216  1.00  0.00     0.053 C 
BRANCH   3   4
ATOM      4  C   UNL     1       5.722 -35.801  22.656  1.00  0.00     0.041 C 
ATOM      5  O   UNL     1       4.998 -34.930  23.204  1.00  0.00    -0.550 OA
ATOM      6  O   UNL     1       6.125 -36.915  23.381  1.00  0.00    -0.550 OA
ENDBRANCH   3   4
ENDBRANCH   2   3
ENDBRANCH   1   2
BRANCH   1   7
ATOM      7  C   UNL     1       3.289 -37.593  19.270  1.00  0.00     0.000 C 
BRANCH   7   8
ATOM      8  C   UNL     1       3.443 -37.358  17.759  1.00  0.00    -0.000 C 
BRANCH   8   9
ATOM      9  C   UNL     1       2.092 -37.273  17.031  1.00  0.00    -0.000 C 
BRANCH   9  10
ATOM     10  C   UNL     1       2.144 -36.363  15.794  1.00  0.00    -0.003 C 
ATOM     11  C   UNL     1       3.094 -36.925  14.740  1.00  0.00     0.004 C 
ENDBRANCH   9  10
ENDBRANCH   8   9
ENDBRANCH   7   8
ENDBRANCH   1   7
TORSDOF 7
ENDMDL
MODEL 3
REMARK VINA RESULT:    -3.930      3.052      6.112
REMARK INTER + INTRA:          -5.847
REMARK INTER:                  -5.666
REMARK INTRA:                  -0.181
REMARK UNBOUND:                -0.308
REMARK SMILES CCCCCCCCC(=O)[O-]
REMARK SMILES IDX 6 1 7 2 8 3 9 4 10 5 11 6 5 7 4 8 3 9 2 10 1 11
REMARK H PARENT
REMARK Flexibility Score: inf
ROOT
ATOM      1  C   UNL     1       3.052 -37.500  19.350  1.00  0.00     0.000 C 
ENDROOT
BRANCH   1   2
ATOM      2  C   UNL     1       2.776 -37.876  17.883  1.00  0.00     0.006 C 
BRANCH   2   3
ATOM      3  C   UNL     1       3.171 -36.784  16.873  1.00  0.00     0.053 C 
BRANCH   3   4
ATOM      4  C   UNL     1       3.005 -37.227  15.451  1.00  0.00     0.041 C 
ATOM      5  O   UNL     1       2.103 -36.722  14.732  1.00  0.00    -0.550 OA
ATOM      6  O   UNL     1       3.866 -38.172  14.908  1.00  0.00    -0.550 OA
ENDBRANCH   3   4
ENDBRANCH   2   3
ENDBRANCH   1   2
BRANCH   1   7
ATOM      7  C   UNL     1       4.523 -37.154  19.618  1.00  0.00     0.000 C 
BRANCH   7   8
ATOM      8  C   UNL     1       4.643 -35.996  20.621  1.00  0.00    -0.000 C 
BRANCH   8   9
ATOM      9  C   UNL     1       5.932 -36.064  21.454  1.00  0.00    -0.000 C 
BRANCH   9  10
ATOM     10  C   UNL     1       5.824 -35.285  22.774  1.00  0.00    -0.003 C 
ATOM     11  C   UNL     1       6.125 -36.185  23.968  1.00  0.00     0.004 C 
ENDBRANCH   9  10
ENDBRANCH   8   9
ENDBRANCH   7   8
ENDBRANCH   1   7
TORSDOF 7
ENDMDL
MODEL 4
REMARK VINA RESULT:    -3.909      1.756      2.958
REMARK INTER + INTRA:          -5.817
REMARK INTER:                  -5.603
REMARK INTRA:                  -0.214
REMARK UNBOUND:                -0.308
REMARK SMILES CCCCCCCCC(=O)[O-]
REMARK SMILES IDX 6 1 7 2 8 3 9 4 10 5 11 6 5 7 4 8 3 9 2 10 1 11
REMARK H PARENT
REMARK Flexibility Score: inf
ROOT
ATOM      1  C   UNL     1       5.080 -35.855  20.113  1.00  0.00     0.000 C 
ENDROOT
BRANCH   1   2
ATOM      2  C   UNL     1       6.113 -35.628  21.231  1.00  0.00     0.006 C 
BRANCH   2   3
ATOM      3  C   UNL     1       5.803 -36.391  22.532  1.00  0.00     0.053 C 
BRANCH   3   4
ATOM      4  C   UNL     1       5.872 -35.513  23.745  1.00  0.00     0.041 C 
ATOM      5  O   UNL     1       5.733 -36.009  24.893  1.00  0.00    -0.550 OA
ATOM      6  O   UNL     1       6.125 -34.153  23.610  1.00  0.00    -0.550 OA
ENDBRANCH   3   4
ENDBRANCH   2   3
ENDBRANCH   1   2
BRANCH   1   7
ATOM      7  C   UNL     1       4.744 -37.336  19.893  1.00  0.00     0.000 C 
BRANCH   7   8
ATOM      8  C   UNL     1       3.364 -37.496  19.237  1.00  0.00    -0.000 C 
BRANCH   8   9
ATOM      9  C   UNL     1       3.432 -37.489  17.702  1.00  0.00    -0.000 C 
BRANCH   9  10
ATOM     10  C   UNL     1       2.090 -37.119  17.052  1.00  0.00    -0.003 C 
ATOM     11  C   UNL     1       2.276 -36.745  15.584  1.00  0.00     0.004 C 
ENDBRANCH   9  10
ENDBRANCH   8   9
ENDBRANCH   7   8
ENDBRANCH   1   7
TORSDOF 7
ENDMDL
MODEL 5
REMARK VINA RESULT:    -3.727      3.197      6.642
REMARK INTER + INTRA:          -5.561
REMARK INTER:                  -5.338
REMARK INTRA:                  -0.223
REMARK UNBOUND:                -0.308
REMARK SMILES CCCCCCCCC(=O)[O-]
REMARK SMILES IDX 6 1 7 2 8 3 9 4 10 5 11 6 5 7 4 8 3 9 2 10 1 11
REMARK H PARENT
REMARK Flexibility Score: inf
ROOT
ATOM      1  C   UNL     1       5.192 -36.245  19.927  1.00  0.00     0.000 C 
ENDROOT
BRANCH   1   2
ATOM      2  C   UNL     1       3.873 -37.017  19.738  1.00  0.00     0.006 C 
BRANCH   2   3
ATOM      3  C   UNL     1       3.667 -37.562  18.314  1.00  0.00     0.053 C 
BRANCH   3   4
ATOM      4  C   UNL     1       2.229 -37.542  17.891  1.00  0.00     0.041 C 
ATOM      5  O   UNL     1       1.912 -37.126  16.746  1.00  0.00    -0.550 OA
ATOM      6  O   UNL     1       1.243 -38.016  18.747  1.00  0.00    -0.550 OA
ENDBRANCH   3   4
ENDBRANCH   2   3
ENDBRANCH   1   2
BRANCH   1   7
ATOM      7  C   UNL     1       5.752 -36.346  21.352  1.00  0.00     0.000 C 
BRANCH   7   8
ATOM      8  C   UNL     1       5.169 -35.244  22.251  1.00  0.00    -0.000 C 
BRANCH   8   9
ATOM      9  C   UNL     1       5.873 -35.157  23.615  1.00  0.00    -0.000 C 
BRANCH   9  10
ATOM     10  C   UNL     1       6.125 -36.538  24.239  1.00  0.00    -0.003 C 
ATOM     11  C   UNL     1       5.278 -36.736  25.493  1.00  0.00     0.004 C 
ENDBRANCH   9  10
ENDBRANCH   8   9
ENDBRANCH   7   8
ENDBRANCH   1   7
TORSDOF 7
ENDMDL
MODEL 6
REMARK VINA RESULT:    -3.714      1.260      1.601
REMARK INTER + INTRA:          -5.542
REMARK INTER:                  -5.243
REMARK INTRA:                  -0.298
REMARK UNBOUND:                -0.308
REMARK SMILES CCCCCCCCC(=O)[O-]
REMARK SMILES IDX 6 1 7 2 8 3 9 4 10 5 11 6 5 7 4 8 3 9 2 10 1 11
REMARK H PARENT
REMARK Flexibility Score: inf
ROOT
ATOM      1  C   UNL     1       2.860 -37.503  19.708  1.00  0.00     0.000 C 
ENDROOT
BRANCH   1   2
ATOM      2  C   UNL     1       4.285 -36.938  19.573  1.00  0.00     0.006 C 
BRANCH   2   3
ATOM      3  C   UNL     1       5.393 -37.946  19.924  1.00  0.00     0.053 C 
BRANCH   3   4
ATOM      4  C   UNL     1       5.618 -38.064  21.401  1.00  0.00     0.041 C 
ATOM      5  O   UNL     1       5.593 -39.193  21.957  1.00  0.00    -0.550 OA
ATOM      6  O   UNL     1       5.892 -36.932  22.158  1.00  0.00    -0.550 OA
ENDBRANCH   3   4
ENDBRANCH   2   3
ENDBRANCH   1   2
BRANCH   1   7
ATOM      7  C   UNL     1       2.217 -37.852  18.359  1.00  0.00     0.000 C 
BRANCH   7   8
ATOM      8  C   UNL     1       3.032 -37.268  17.194  1.00  0.00    -0.000 C 
BRANCH   8   9
ATOM      9  C   UNL     1       2.166 -36.956  15.963  1.00  0.00    -0.000 C 
BRANCH   9  10
ATOM     10  C   UNL     1       3.005 -36.599  14.726  1.00  0.00    -0.003 C 
ATOM     11  C   UNL     1       3.930 -37.748  14.340  1.00  0.00     0.004 C 
ENDBRANCH   9  10
ENDBRANCH   8   9
ENDBRANCH   7   8
ENDBRANCH   1   7
TORSDOF 7
ENDMDL
MODEL 7
REMARK VINA RESULT:    -3.285      2.627      4.336
REMARK INTER + INTRA:          -4.938
REMARK INTER:                  -4.950
REMARK INTRA:                   0.012
REMARK UNBOUND:                -0.308
REMARK SMILES CCCCCCCCC(=O)[O-]
REMARK SMILES IDX 6 1 7 2 8 3 9 4 10 5 11 6 5 7 4 8 3 9 2 10 1 11
REMARK H PARENT
REMARK Flexibility Score: inf
ROOT
ATOM      1  C   UNL     1       5.976 -35.999  21.870  1.00  0.00     0.000 C 
ENDROOT
BRANCH   1   2
ATOM      2  C   UNL     1       5.556 -35.107  23.052  1.00  0.00     0.006 C 
BRANCH   2   3
ATOM      3  C   UNL     1       6.117 -35.565  24.409  1.00  0.00     0.053 C 
BRANCH   3   4
ATOM      4  C   UNL     1       5.494 -36.842  24.889  1.00  0.00     0.041 C 
ATOM      5  O   UNL     1       5.767 -37.931  24.320  1.00  0.00    -0.550 OA
ATOM      6  O   UNL     1       4.642 -36.834  25.986  1.00  0.00    -0.550 OA
ENDBRANCH   3   4
ENDBRANCH   2   3
ENDBRANCH   1   2
BRANCH   1   7
ATOM      7  C   UNL     1       5.029 -35.894  20.667  1.00  0.00     0.000 C 
BRANCH   7   8
ATOM      8  C   UNL     1       4.905 -37.245  19.945  1.00  0.00    -0.000 C 
BRANCH   8   9
ATOM      9  C   UNL     1       3.489 -37.502  19.407  1.00  0.00    -0.000 C 
BRANCH   9  10
ATOM     10  C   UNL     1       3.404 -37.370  17.878  1.00  0.00    -0.003 C 
ATOM     11  C   UNL     1       1.958 -37.451  17.400  1.00  0.00     0.004 C 
ENDBRANCH   9  10
ENDBRANCH   8   9
ENDBRANCH   7   8
ENDBRANCH   1   7
TORSDOF 7
ENDMDL
MODEL 8
REMARK VINA RESULT:    -2.804      2.945      5.529
REMARK INTER + INTRA:          -4.260
REMARK INTER:                  -4.060
REMARK INTRA:                  -0.200
REMARK UNBOUND:                -0.308
REMARK SMILES CCCCCCCCC(=O)[O-]
REMARK SMILES IDX 6 1 7 2 8 3 9 4 10 5 11 6 5 7 4 8 3 9 2 10 1 11
REMARK H PARENT
REMARK Flexibility Score: inf
ROOT
ATOM      1  C   UNL     1       4.265 -36.234  18.474  1.00  0.00     0.000 C 
ENDROOT
BRANCH   1   2
ATOM      2  C   UNL     1       3.388 -37.446  18.835  1.00  0.00     0.006 C 
BRANCH   2   3
ATOM      3  C   UNL     1       2.281 -37.743  17.809  1.00  0.00     0.053 C 
BRANCH   3   4
ATOM      4  C   UNL     1       2.627 -37.261  16.432  1.00  0.00     0.041 C 
ATOM      5  O   UNL     1       3.378 -37.949  15.691  1.00  0.00    -0.550 OA
ATOM      6  O   UNL     1       2.092 -36.072  15.953  1.00  0.00    -0.550 OA
ENDBRANCH   3   4
ENDBRANCH   2   3
ENDBRANCH   1   2
BRANCH   1   7
ATOM      7  C   UNL     1       5.362 -35.952  19.510  1.00  0.00     0.000 C 
BRANCH   7   8
ATOM      8  C   UNL     1       4.842 -36.179  20.938  1.00  0.00    -0.000 C 
BRANCH   8   9
ATOM      9  C   UNL     1       5.671 -37.214  21.714  1.00  0.00    -0.000 C 
BRANCH   9  10
ATOM     10  C   UNL     1       5.618 -38.611  21.077  1.00  0.00    -0.003 C 
ATOM     11  C   UNL     1       5.581 -39.700  22.145  1.00  0.00     0.004 C 
ENDBRANCH   9  10
ENDBRANCH   8   9
ENDBRANCH   7   8
ENDBRANCH   1   7
TORSDOF 7
ENDMDL
MODEL 9
REMARK VINA RESULT:    -2.356      1.877      2.877
REMARK INTER + INTRA:          -3.629
REMARK INTER:                  -3.285
REMARK INTRA:                  -0.344
REMARK UNBOUND:                -0.308
REMARK SMILES CCCCCCCCC(=O)[O-]
REMARK SMILES IDX 6 1 7 2 8 3 9 4 10 5 11 6 5 7 4 8 3 9 2 10 1 11
REMARK H PARENT
REMARK Flexibility Score: inf
ROOT
ATOM      1  C   UNL     1       4.681 -36.350  18.999  1.00  0.00     0.000 C 
ENDROOT
BRANCH   1   2
ATOM      2  C   UNL     1       5.158 -35.578  20.242  1.00  0.00     0.006 C 
BRANCH   2   3
ATOM      3  C   UNL     1       5.937 -36.439  21.251  1.00  0.00     0.053 C 
BRANCH   3   4
ATOM      4  C   UNL     1       5.692 -36.027  22.672  1.00  0.00     0.041 C 
ATOM      5  O   UNL     1       6.125 -36.734  23.619  1.00  0.00    -0.550 OA
ATOM      6  O   UNL     1       5.019 -34.844  22.950  1.00  0.00    -0.550 OA
ENDBRANCH   3   4
ENDBRANCH   2   3
ENDBRANCH   1   2
BRANCH   1   7
ATOM      7  C   UNL     1       4.326 -35.435  17.819  1.00  0.00     0.000 C 
BRANCH   7   8
ATOM      8  C   UNL     1       3.518 -36.196  16.757  1.00  0.00    -0.000 C 
BRANCH   8   9
ATOM      9  C   UNL     1       3.049 -37.576  17.244  1.00  0.00    -0.000 C 
BRANCH   9  10
ATOM     10  C   UNL     1       1.588 -37.571  17.719  1.00  0.00    -0.003 C 
ATOM     11  C   UNL     1       1.468 -38.137  19.130  1.00  0.00     0.004 C 
ENDBRANCH   9  10
ENDBRANCH   8   9
ENDBRANCH   7   8
ENDBRANCH   1   7
TORSDOF 7
ENDMDL
