MODEL 1
REMARK VINA RESULT:    -1.005      0.000      0.000
REMARK INTER + INTRA:          -2.871
REMARK INTER:                  -1.828
REMARK INTRA:                  -1.043
REMARK UNBOUND:                -1.043
REMARK SMILES CCCCCCCCCCCCCC[C@@H](C)C(=O)[O-]
REMARK SMILES IDX 9 1 10 2 11 3 12 4 13 5 14 6 15 7 16 8 17 9 18 10 19 11 8 12
REMARK SMILES IDX 7 13 6 14 5 15 4 16 3 17 2 18 1 19
REMARK H PARENT
REMARK Flexibility Score: inf
ROOT
ATOM      1  C   UNL     1      -5.661  33.774   0.772  1.00  0.00     0.000 C 
ENDROOT
BRANCH   1   2
ATOM      2  C   UNL     1      -7.165  33.654   1.092  1.00  0.00     0.000 C 
BRANCH   2   3
ATOM      3  C   UNL     1      -8.099  34.408   0.128  1.00  0.00     0.000 C 
BRANCH   3   4
ATOM      4  C   UNL     1      -8.423  35.833   0.607  1.00  0.00     0.000 C 
BRANCH   4   5
ATOM      5  C   UNL     1      -7.195  36.758   0.577  1.00  0.00     0.001 C 
BRANCH   5   6
ATOM      6  C   UNL     1      -7.354  37.925  -0.416  1.00  0.00     0.009 C 
BRANCH   6   7
ATOM      7  C   UNL     1      -7.061  37.493  -1.868  1.00  0.00     0.032 C 
ATOM      8  C   UNL     1      -8.077  38.114  -2.831  1.00  0.00     0.014 C 
BRANCH   7   9
ATOM      9  C   UNL     1      -5.665  37.881  -2.280  1.00  0.00     0.044 C 
ATOM     10  O   UNL     1      -4.776  38.065  -1.407  1.00  0.00    -0.550 OA
ATOM     11  O   UNL     1      -5.348  38.037  -3.625  1.00  0.00    -0.550 OA
ENDBRANCH   7   9
ENDBRANCH   6   7
ENDBRANCH   5   6
ENDBRANCH   4   5
ENDBRANCH   3   4
ENDBRANCH   2   3
ENDBRANCH   1   2
BRANCH   1  12
ATOM     12  C   UNL     1      -4.722  33.702   1.993  1.00  0.00     0.000 C 
BRANCH  12  13
ATOM     13  C   UNL     1      -3.876  34.964   2.244  1.00  0.00    -0.000 C 
BRANCH  13  14
ATOM     14  C   UNL     1      -4.209  36.109   1.272  1.00  0.00    -0.000 C 
BRANCH  14  15
ATOM     15  C   UNL     1      -4.006  37.501   1.897  1.00  0.00    -0.000 C 
BRANCH  15  16
ATOM     16  C   UNL     1      -4.601  37.684   3.309  1.00  0.00    -0.000 C 
BRANCH  16  17
ATOM     17  C   UNL     1      -6.120  37.930   3.351  1.00  0.00    -0.000 C 
BRANCH  17  18
ATOM     18  C   UNL     1      -6.671  38.014   4.781  1.00  0.00    -0.003 C 
ATOM     19  C   UNL     1      -8.193  38.121   4.778  1.00  0.00     0.004 C 
ENDBRANCH  17  18
ENDBRANCH  16  17
ENDBRANCH  15  16
ENDBRANCH  14  15
ENDBRANCH  13  14
ENDBRANCH  12  13
ENDBRANCH   1  12
TORSDOF 14
ENDMDL
MODEL 2
REMARK VINA RESULT:    -0.978     13.075     16.447
REMARK INTER + INTRA:          -2.821
REMARK INTER:                  -2.186
REMARK INTRA:                  -0.635
REMARK UNBOUND:                -1.043
REMARK SMILES CCCCCCCCCCCCCC[C@@H](C)C(=O)[O-]
REMARK SMILES IDX 9 1 10 2 11 3 12 4 13 5 14 6 15 7 16 8 17 9 18 10 19 11 8 12
REMARK SMILES IDX 7 13 6 14 5 15 4 16 3 17 2 18 1 19
REMARK H PARENT
REMARK Flexibility Score: inf
ROOT
ATOM      1  C   UNL     1     -18.783  34.344 -12.340  1.00  0.00     0.000 C 
ENDROOT
BRANCH   1   2
ATOM      2  C   UNL     1     -17.877  33.234 -12.910  1.00  0.00     0.000 C 
BRANCH   2   3
ATOM      3  C   UNL     1     -16.394  33.618 -13.065  1.00  0.00     0.000 C 
BRANCH   3   4
ATOM      4  C   UNL     1     -15.528  33.137 -11.888  1.00  0.00     0.000 C 
BRANCH   4   5
ATOM      5  C   UNL     1     -15.010  34.300 -11.026  1.00  0.00     0.001 C 
BRANCH   5   6
ATOM      6  C   UNL     1     -14.802  33.900  -9.553  1.00  0.00     0.009 C 
BRANCH   6   7
ATOM      7  C   UNL     1     -14.569  35.127  -8.647  1.00  0.00     0.032 C 
ATOM      8  C   UNL     1     -14.486  34.705  -7.177  1.00  0.00     0.014 C 
BRANCH   7   9
ATOM      9  C   UNL     1     -13.313  35.861  -9.037  1.00  0.00     0.044 C 
ATOM     10  O   UNL     1     -12.938  36.866  -8.377  1.00  0.00    -0.550 OA
ATOM     11  O   UNL     1     -12.561  35.436 -10.127  1.00  0.00    -0.550 OA
ENDBRANCH   7   9
ENDBRANCH   6   7
ENDBRANCH   5   6
ENDBRANCH   4   5
ENDBRANCH   3   4
ENDBRANCH   2   3
ENDBRANCH   1   2
BRANCH   1  12
ATOM     12  C   UNL     1     -18.510  34.726 -10.871  1.00  0.00     0.000 C 
BRANCH  12  13
ATOM     13  C   UNL     1     -18.592  33.563  -9.866  1.00  0.00    -0.000 C 
BRANCH  13  14
ATOM     14  C   UNL     1     -19.126  33.999  -8.491  1.00  0.00    -0.000 C 
BRANCH  14  15
ATOM     15  C   UNL     1     -20.393  33.232  -8.072  1.00  0.00    -0.000 C 
BRANCH  15  16
ATOM     16  C   UNL     1     -21.577  34.111  -7.618  1.00  0.00    -0.000 C 
BRANCH  16  17
ATOM     17  C   UNL     1     -22.941  33.398  -7.572  1.00  0.00    -0.000 C 
BRANCH  17  18
ATOM     18  C   UNL     1     -24.125  34.374  -7.616  1.00  0.00    -0.003 C 
ATOM     19  C   UNL     1     -23.745  35.668  -8.329  1.00  0.00     0.004 C 
ENDBRANCH  17  18
ENDBRANCH  16  17
ENDBRANCH  15  16
ENDBRANCH  14  15
ENDBRANCH  13  14
ENDBRANCH  12  13
ENDBRANCH   1  12
TORSDOF 14
ENDMDL
MODEL 3
REMARK VINA RESULT:    -0.546      2.957      4.937
REMARK INTER + INTRA:          -2.036
REMARK INTER:                  -1.459
REMARK INTRA:                  -0.577
REMARK UNBOUND:                -1.043
REMARK SMILES CCCCCCCCCCCCCC[C@@H](C)C(=O)[O-]
REMARK SMILES IDX 9 1 10 2 11 3 12 4 13 5 14 6 15 7 16 8 17 9 18 10 19 11 8 12
REMARK SMILES IDX 7 13 6 14 5 15 4 16 3 17 2 18 1 19
REMARK H PARENT
REMARK Flexibility Score: inf
ROOT
ATOM      1  C   UNL     1      -6.717  36.377   1.232  1.00  0.00     0.000 C 
ENDROOT
BRANCH   1   2
ATOM      2  C   UNL     1      -6.084  36.671  -0.143  1.00  0.00     0.000 C 
BRANCH   2   3
ATOM      3  C   UNL     1      -6.331  38.090  -0.686  1.00  0.00     0.000 C 
BRANCH   3   4
ATOM      4  C   UNL     1      -7.387  38.125  -1.804  1.00  0.00     0.000 C 
BRANCH   4   5
ATOM      5  C   UNL     1      -8.823  38.084  -1.258  1.00  0.00     0.001 C 
BRANCH   5   6
ATOM      6  C   UNL     1      -9.738  37.140  -2.061  1.00  0.00     0.009 C 
BRANCH   6   7
ATOM      7  C   UNL     1     -10.833  36.506  -1.179  1.00  0.00     0.032 C 
ATOM      8  C   UNL     1     -12.108  36.263  -1.994  1.00  0.00     0.014 C 
BRANCH   7   9
ATOM      9  C   UNL     1     -10.363  35.211  -0.572  1.00  0.00     0.044 C 
ATOM     10  O   UNL     1     -11.199  34.339  -0.216  1.00  0.00    -0.550 OA
ATOM     11  O   UNL     1      -9.004  34.968  -0.401  1.00  0.00    -0.550 OA
ENDBRANCH   7   9
ENDBRANCH   6   7
ENDBRANCH   5   6
ENDBRANCH   4   5
ENDBRANCH   3   4
ENDBRANCH   2   3
ENDBRANCH   1   2
BRANCH   1  12
ATOM     12  C   UNL     1      -5.787  35.684   2.248  1.00  0.00     0.000 C 
BRANCH  12  13
ATOM     13  C   UNL     1      -4.420  35.245   1.692  1.00  0.00    -0.000 C 
BRANCH  13  14
ATOM     14  C   UNL     1      -3.875  33.980   2.376  1.00  0.00    -0.000 C 
BRANCH  14  15
ATOM     15  C   UNL     1      -4.862  32.799   2.321  1.00  0.00    -0.000 C 
BRANCH  15  16
ATOM     16  C   UNL     1      -5.855  32.825   1.140  1.00  0.00    -0.000 C 
BRANCH  16  17
ATOM     17  C   UNL     1      -7.227  32.189   1.425  1.00  0.00    -0.000 C 
BRANCH  17  18
ATOM     18  C   UNL     1      -7.198  30.655   1.365  1.00  0.00    -0.003 C 
ATOM     19  C   UNL     1      -8.009  30.045   2.504  1.00  0.00     0.004 C 
ENDBRANCH  17  18
ENDBRANCH  16  17
ENDBRANCH  15  16
ENDBRANCH  14  15
ENDBRANCH  13  14
ENDBRANCH  12  13
ENDBRANCH   1  12
TORSDOF 14
ENDMDL
MODEL 4
REMARK VINA RESULT:    -0.453     13.371     16.451
REMARK INTER + INTRA:          -1.867
REMARK INTER:                  -1.735
REMARK INTRA:                  -0.132
REMARK UNBOUND:                -1.043
REMARK SMILES CCCCCCCCCCCCCC[C@@H](C)C(=O)[O-]
REMARK SMILES IDX 9 1 10 2 11 3 12 4 13 5 14 6 15 7 16 8 17 9 18 10 19 11 8 12
REMARK SMILES IDX 7 13 6 14 5 15 4 16 3 17 2 18 1 19
REMARK H PARENT
REMARK Flexibility Score: inf
ROOT
ATOM      1  C   UNL     1     -17.163  32.982 -12.388  1.00  0.00     0.000 C 
ENDROOT
BRANCH   1   2
ATOM      2  C   UNL     1     -18.363  33.950 -12.419  1.00  0.00     0.000 C 
BRANCH   2   3
ATOM      3  C   UNL     1     -18.841  34.440 -11.040  1.00  0.00     0.000 C 
BRANCH   3   4
ATOM      4  C   UNL     1     -18.526  33.444  -9.912  1.00  0.00     0.000 C 
BRANCH   4   5
ATOM      5  C   UNL     1     -19.098  33.891  -8.556  1.00  0.00     0.001 C 
BRANCH   5   6
ATOM      6  C   UNL     1     -20.464  33.251  -8.247  1.00  0.00     0.009 C 
BRANCH   6   7
ATOM      7  C   UNL     1     -21.406  34.224  -7.508  1.00  0.00     0.032 C 
ATOM      8  C   UNL     1     -21.407  35.595  -8.191  1.00  0.00     0.014 C 
BRANCH   7   9
ATOM      9  C   UNL     1     -22.810  33.684  -7.449  1.00  0.00     0.044 C 
ATOM     10  O   UNL     1     -23.042  32.590  -6.869  1.00  0.00    -0.550 OA
ATOM     11  O   UNL     1     -23.858  34.387  -8.032  1.00  0.00    -0.550 OA
ENDBRANCH   7   9
ENDBRANCH   6   7
ENDBRANCH   5   6
ENDBRANCH   4   5
ENDBRANCH   3   4
ENDBRANCH   2   3
ENDBRANCH   1   2
BRANCH   1  12
ATOM     12  C   UNL     1     -15.787  33.633 -12.635  1.00  0.00     0.000 C 
BRANCH  12  13
ATOM     13  C   UNL     1     -14.833  33.628 -11.426  1.00  0.00    -0.000 C 
BRANCH  13  14
ATOM     14  C   UNL     1     -15.538  33.994 -10.108  1.00  0.00    -0.000 C 
BRANCH  14  15
ATOM     15  C   UNL     1     -14.641  33.789  -8.874  1.00  0.00    -0.000 C 
BRANCH  15  16
ATOM     16  C   UNL     1     -14.939  34.719  -7.680  1.00  0.00    -0.000 C 
BRANCH  16  17
ATOM     17  C   UNL     1     -13.788  35.659  -7.279  1.00  0.00    -0.000 C 
BRANCH  17  18
ATOM     18  C   UNL     1     -13.294  36.527  -8.445  1.00  0.00    -0.003 C 
ATOM     19  C   UNL     1     -12.547  35.688  -9.477  1.00  0.00     0.004 C 
ENDBRANCH  17  18
ENDBRANCH  16  17
ENDBRANCH  15  16
ENDBRANCH  14  15
ENDBRANCH  13  14
ENDBRANCH  12  13
ENDBRANCH   1  12
TORSDOF 14
ENDMDL
MODEL 5
REMARK VINA RESULT:    -0.326     20.248     21.853
REMARK INTER + INTRA:          -1.636
REMARK INTER:                  -1.013
REMARK INTRA:                  -0.622
REMARK UNBOUND:                -1.043
REMARK SMILES CCCCCCCCCCCCCC[C@@H](C)C(=O)[O-]
REMARK SMILES IDX 9 1 10 2 11 3 12 4 13 5 14 6 15 7 16 8 17 9 18 10 19 11 8 12
REMARK SMILES IDX 7 13 6 14 5 15 4 16 3 17 2 18 1 19
REMARK H PARENT
REMARK Flexibility Score: inf
ROOT
ATOM      1  C   UNL     1     -23.404  25.470  -5.160  1.00  0.00     0.000 C 
ENDROOT
BRANCH   1   2
ATOM      2  C   UNL     1     -24.058  26.205  -3.973  1.00  0.00     0.000 C 
BRANCH   2   3
ATOM      3  C   UNL     1     -23.804  25.572  -2.593  1.00  0.00     0.000 C 
BRANCH   3   4
ATOM      4  C   UNL     1     -22.324  25.225  -2.360  1.00  0.00     0.000 C 
BRANCH   4   5
ATOM      5  C   UNL     1     -21.983  23.787  -2.786  1.00  0.00     0.001 C 
BRANCH   5   6
ATOM      6  C   UNL     1     -20.632  23.690  -3.519  1.00  0.00     0.009 C 
BRANCH   6   7
ATOM      7  C   UNL     1     -20.499  22.375  -4.315  1.00  0.00     0.032 C 
ATOM      8  C   UNL     1     -19.352  22.470  -5.326  1.00  0.00     0.014 C 
BRANCH   7   9
ATOM      9  C   UNL     1     -20.271  21.203  -3.397  1.00  0.00     0.044 C 
ATOM     10  O   UNL     1     -19.670  20.179  -3.817  1.00  0.00    -0.550 OA
ATOM     11  O   UNL     1     -20.722  21.243  -2.082  1.00  0.00    -0.550 OA
ENDBRANCH   7   9
ENDBRANCH   6   7
ENDBRANCH   5   6
ENDBRANCH   4   5
ENDBRANCH   3   4
ENDBRANCH   2   3
ENDBRANCH   1   2
BRANCH   1  12
ATOM     12  C   UNL     1     -22.273  26.244  -5.869  1.00  0.00     0.000 C 
BRANCH  12  13
ATOM     13  C   UNL     1     -21.182  25.367  -6.511  1.00  0.00    -0.000 C 
BRANCH  13  14
ATOM     14  C   UNL     1     -21.094  25.547  -8.036  1.00  0.00    -0.000 C 
BRANCH  14  15
ATOM     15  C   UNL     1     -22.470  25.495  -8.724  1.00  0.00    -0.000 C 
BRANCH  15  16
ATOM     16  C   UNL     1     -22.501  26.009 -10.178  1.00  0.00    -0.000 C 
BRANCH  16  17
ATOM     17  C   UNL     1     -23.907  26.213 -10.770  1.00  0.00    -0.000 C 
BRANCH  17  18
ATOM     18  C   UNL     1     -24.079  27.584 -11.439  1.00  0.00    -0.003 C 
ATOM     19  C   UNL     1     -23.013  28.566 -10.963  1.00  0.00     0.004 C 
ENDBRANCH  17  18
ENDBRANCH  16  17
ENDBRANCH  15  16
ENDBRANCH  14  15
ENDBRANCH  13  14
ENDBRANCH  12  13
ENDBRANCH   1  12
TORSDOF 14
ENDMDL
MODEL 6
REMARK VINA RESULT:     0.609      1.637      2.819
REMARK INTER + INTRA:           0.064
REMARK INTER:                  -1.984
REMARK INTRA:                   2.048
REMARK UNBOUND:                -1.043
REMARK SMILES CCCCCCCCCCCCCC[C@@H](C)C(=O)[O-]
REMARK SMILES IDX 9 1 10 2 11 3 12 4 13 5 14 6 15 7 16 8 17 9 18 10 19 11 8 12
REMARK SMILES IDX 7 13 6 14 5 15 4 16 3 17 2 18 1 19
REMARK H PARENT
REMARK Flexibility Score: inf
ROOT
ATOM      1  C   UNL     1      -6.390  34.825   0.780  1.00  0.00     0.000 C 
ENDROOT
BRANCH   1   2
ATOM      2  C   UNL     1      -5.240  35.380  -0.085  1.00  0.00     0.000 C 
BRANCH   2   3
ATOM      3  C   UNL     1      -5.126  36.915  -0.112  1.00  0.00     0.000 C 
BRANCH   3   4
ATOM      4  C   UNL     1      -4.037  37.414  -1.077  1.00  0.00     0.000 C 
BRANCH   4   5
ATOM      5  C   UNL     1      -4.624  38.103  -2.321  1.00  0.00     0.001 C 
BRANCH   5   6
ATOM      6  C   UNL     1      -5.843  37.355  -2.894  1.00  0.00     0.009 C 
BRANCH   6   7
ATOM      7  C   UNL     1      -7.159  38.123  -2.655  1.00  0.00     0.032 C 
ATOM      8  C   UNL     1      -8.122  37.922  -3.830  1.00  0.00     0.014 C 
BRANCH   7   9
ATOM      9  C   UNL     1      -7.820  37.687  -1.375  1.00  0.00     0.044 C 
ATOM     10  O   UNL     1      -8.820  36.922  -1.409  1.00  0.00    -0.550 OA
ATOM     11  O   UNL     1      -7.333  38.125  -0.148  1.00  0.00    -0.550 OA
ENDBRANCH   7   9
ENDBRANCH   6   7
ENDBRANCH   5   6
ENDBRANCH   4   5
ENDBRANCH   3   4
ENDBRANCH   2   3
ENDBRANCH   1   2
BRANCH   1  12
ATOM     12  C   UNL     1      -6.348  33.304   1.031  1.00  0.00     0.000 C 
BRANCH  12  13
ATOM     13  C   UNL     1      -5.064  32.787   1.705  1.00  0.00    -0.000 C 
BRANCH  13  14
ATOM     14  C   UNL     1      -3.987  33.876   1.853  1.00  0.00    -0.000 C 
BRANCH  14  15
ATOM     15  C   UNL     1      -4.309  34.885   2.971  1.00  0.00    -0.000 C 
BRANCH  15  16
ATOM     16  C   UNL     1      -3.877  36.339   2.690  1.00  0.00    -0.000 C 
BRANCH  16  17
ATOM     17  C   UNL     1      -4.475  37.393   3.639  1.00  0.00    -0.000 C 
BRANCH  17  18
ATOM     18  C   UNL     1      -5.888  37.830   3.230  1.00  0.00    -0.003 C 
ATOM     19  C   UNL     1      -6.896  37.537   4.337  1.00  0.00     0.004 C 
ENDBRANCH  17  18
ENDBRANCH  16  17
ENDBRANCH  15  16
ENDBRANCH  14  15
ENDBRANCH  13  14
ENDBRANCH  12  13
ENDBRANCH   1  12
TORSDOF 14
ENDMDL
MODEL 7
REMARK VINA RESULT:     0.996      2.736      5.147
REMARK INTER + INTRA:           0.769
REMARK INTER:                   1.616
REMARK INTRA:                  -0.848
REMARK UNBOUND:                -1.043
REMARK SMILES CCCCCCCCCCCCCC[C@@H](C)C(=O)[O-]
REMARK SMILES IDX 9 1 10 2 11 3 12 4 13 5 14 6 15 7 16 8 17 9 18 10 19 11 8 12
REMARK SMILES IDX 7 13 6 14 5 15 4 16 3 17 2 18 1 19
REMARK H PARENT
REMARK Flexibility Score: inf
ROOT
ATOM      1  C   UNL     1      -5.461  37.442   1.901  1.00  0.00     0.000 C 
ENDROOT
BRANCH   1   2
ATOM      2  C   UNL     1      -4.161  37.732   1.123  1.00  0.00     0.000 C 
BRANCH   2   3
ATOM      3  C   UNL     1      -4.215  37.412  -0.382  1.00  0.00     0.000 C 
BRANCH   3   4
ATOM      4  C   UNL     1      -5.373  38.125  -1.101  1.00  0.00     0.000 C 
BRANCH   4   5
ATOM      5  C   UNL     1      -6.595  37.213  -1.294  1.00  0.00     0.001 C 
BRANCH   5   6
ATOM      6  C   UNL     1      -7.813  37.668  -0.468  1.00  0.00     0.009 C 
BRANCH   6   7
ATOM      7  C   UNL     1      -9.105  37.698  -1.310  1.00  0.00     0.032 C 
ATOM      8  C   UNL     1      -8.774  37.791  -2.803  1.00  0.00     0.014 C 
BRANCH   7   9
ATOM      9  C   UNL     1      -9.952  36.480  -1.052  1.00  0.00     0.044 C 
ATOM     10  O   UNL     1      -9.453  35.472  -0.486  1.00  0.00    -0.550 OA
ATOM     11  O   UNL     1     -11.288  36.460  -1.436  1.00  0.00    -0.550 OA
ENDBRANCH   7   9
ENDBRANCH   6   7
ENDBRANCH   5   6
ENDBRANCH   4   5
ENDBRANCH   3   4
ENDBRANCH   2   3
ENDBRANCH   1   2
BRANCH   1  12
ATOM     12  C   UNL     1      -5.651  35.977   2.340  1.00  0.00     0.000 C 
BRANCH  12  13
ATOM     13  C   UNL     1      -4.852  34.940   1.528  1.00  0.00    -0.000 C 
BRANCH  13  14
ATOM     14  C   UNL     1      -5.516  33.553   1.516  1.00  0.00    -0.000 C 
BRANCH  14  15
ATOM     15  C   UNL     1      -6.930  33.573   0.907  1.00  0.00    -0.000 C 
BRANCH  15  16
ATOM     16  C   UNL     1      -7.713  32.248   1.013  1.00  0.00    -0.000 C 
BRANCH  16  17
ATOM     17  C   UNL     1      -6.888  31.036   1.480  1.00  0.00    -0.000 C 
BRANCH  17  18
ATOM     18  C   UNL     1      -7.668  29.717   1.401  1.00  0.00    -0.003 C 
ATOM     19  C   UNL     1      -8.043  29.386  -0.040  1.00  0.00     0.004 C 
ENDBRANCH  17  18
ENDBRANCH  16  17
ENDBRANCH  15  16
ENDBRANCH  14  15
ENDBRANCH  13  14
ENDBRANCH  12  13
ENDBRANCH   1  12
TORSDOF 14
ENDMDL
