MODEL 1
REMARK VINA RESULT:    -6.705      0.000      0.000
REMARK INTER + INTRA:         -11.292
REMARK INTER:                  -9.841
REMARK INTRA:                  -1.452
REMARK UNBOUND:                -1.452
REMARK SMILES O=c1c(O[C@@H]2O[C@H](CO)[C@@H](O)[C@@H](O)[C@H]2O)c(-c2ccc(O)c(O)c2)oc2cc(O)cc(O)c12
REMARK SMILES IDX 4 1 3 2 16 3 25 4 2 5 26 6 1 7 33 8 27 9 31 10 28 11 30 12
REMARK SMILES IDX 17 13 18 14 19 15 20 16 24 17 22 18 21 19 23 21 32 23 29 25
REMARK SMILES IDX 5 27 14 28 6 29 12 30 7 31 10 32 15 33 13 35 8 37 9 38 11 40
REMARK H PARENT 21 20 23 22 32 24 29 26 15 34 13 36 9 39 11 41
REMARK Flexibility Score: inf
ROOT
ATOM      1  O   UNL     1     -16.212  36.755  -1.797  1.00  0.00    -0.454 OA
ENDROOT
BRANCH   1   2
ATOM      2  C   UNL     1     -14.935  36.728  -2.380  1.00  0.00     0.214 A 
ATOM      3  C   UNL     1     -13.871  36.015  -1.781  1.00  0.00     0.180 A 
ATOM      4  O   UNL     1     -12.620  36.248  -2.151  1.00  0.00    -0.452 OA
ATOM      5  C   UNL     1     -14.633  37.590  -3.453  1.00  0.00     0.239 A 
ATOM      6  C   UNL     1     -12.289  37.096  -3.098  1.00  0.00     0.146 A 
ATOM      7  O   UNL     1     -15.562  38.254  -3.978  1.00  0.00    -0.285 OA
ATOM      8  C   UNL     1     -13.287  37.743  -3.881  1.00  0.00     0.111 A 
ATOM      9  C   UNL     1     -10.936  37.353  -3.321  1.00  0.00     0.094 A 
ATOM     10  C   UNL     1     -12.873  38.570  -4.960  1.00  0.00     0.134 A 
ATOM     11  C   UNL     1     -10.553  38.261  -4.296  1.00  0.00     0.123 A 
ATOM     12  C   UNL     1     -11.511  38.832  -5.141  1.00  0.00     0.093 A 
BRANCH   3  13
ATOM     13  C   UNL     1     -14.068  34.986  -0.740  1.00  0.00     0.025 A 
ATOM     14  C   UNL     1     -13.955  33.636  -1.093  1.00  0.00     0.016 A 
ATOM     15  C   UNL     1     -13.846  32.646  -0.117  1.00  0.00     0.051 A 
ATOM     16  C   UNL     1     -13.750  33.006   1.228  1.00  0.00     0.157 A 
ATOM     17  C   UNL     1     -14.030  35.334   0.612  1.00  0.00     0.062 A 
ATOM     18  C   UNL     1     -13.876  34.351   1.607  1.00  0.00     0.158 A 
BRANCH  16  19
ATOM     19  O   UNL     1     -13.440  32.020   2.158  1.00  0.00    -0.504 OA
ATOM     20  H   UNL     1     -13.857  32.009   3.080  1.00  0.00     0.293 HD
ENDBRANCH  16  19
BRANCH  18  21
ATOM     21  O   UNL     1     -13.737  34.730   2.944  1.00  0.00    -0.504 OA
ATOM     22  H   UNL     1     -12.848  35.093   3.264  1.00  0.00     0.293 HD
ENDBRANCH  18  21
ENDBRANCH   3  13
BRANCH  10  23
ATOM     23  O   UNL     1     -13.747  39.120  -5.894  1.00  0.00    -0.507 OA
ATOM     24  H   UNL     1     -13.554  39.157  -6.892  1.00  0.00     0.293 HD
ENDBRANCH  10  23
BRANCH  11  25
ATOM     25  O   UNL     1      -9.200  38.556  -4.456  1.00  0.00    -0.508 OA
ATOM     26  H   UNL     1      -8.852  39.005  -5.301  1.00  0.00     0.293 HD
ENDBRANCH  11  25
ENDBRANCH   1   2
BRANCH   1  27
ATOM     27  C   UNL     1     -16.593  37.437  -0.599  1.00  0.00     0.339 C 
ATOM     28  C   UNL     1     -17.398  38.728  -0.859  1.00  0.00     0.214 C 
ATOM     29  O   UNL     1     -17.351  36.592   0.234  1.00  0.00    -0.332 OA
ATOM     30  C   UNL     1     -18.159  39.172   0.434  1.00  0.00     0.180 C 
ATOM     31  C   UNL     1     -17.287  37.032   1.583  1.00  0.00     0.179 C 
ATOM     32  C   UNL     1     -17.579  38.568   1.741  1.00  0.00     0.177 C 
BRANCH  28  33
ATOM     33  O   UNL     1     -16.578  39.745  -1.372  1.00  0.00    -0.384 OA
ATOM     34  H   UNL     1     -15.690  39.358  -1.576  1.00  0.00     0.211 HD
ENDBRANCH  28  33
BRANCH  30  35
ATOM     35  O   UNL     1     -18.200  40.574   0.522  1.00  0.00    -0.387 OA
ATOM     36  H   UNL     1     -18.791  40.785   1.302  1.00  0.00     0.211 HD
ENDBRANCH  30  35
BRANCH  31  37
ATOM     37  C   UNL     1     -18.265  36.182   2.414  1.00  0.00     0.191 C 
BRANCH  37  38
ATOM     38  O   UNL     1     -18.604  34.992   1.750  1.00  0.00    -0.394 OA
ATOM     39  H   UNL     1     -17.761  34.479   1.661  1.00  0.00     0.210 HD
ENDBRANCH  37  38
ENDBRANCH  31  37
BRANCH  32  40
ATOM     40  O   UNL     1     -16.437  39.251   2.168  1.00  0.00    -0.387 OA
ATOM     41  H   UNL     1     -15.687  39.043   1.569  1.00  0.00     0.211 HD
ENDBRANCH  32  40
ENDBRANCH   1  27
TORSDOF 12
ENDMDL
MODEL 2
REMARK VINA RESULT:    -6.565      1.859      7.081
REMARK INTER + INTRA:         -11.088
REMARK INTER:                  -9.784
REMARK INTRA:                  -1.303
REMARK UNBOUND:                -1.452
REMARK SMILES O=c1c(O[C@@H]2O[C@H](CO)[C@@H](O)[C@@H](O)[C@H]2O)c(-c2ccc(O)c(O)c2)oc2cc(O)cc(O)c12
REMARK SMILES IDX 4 1 3 2 16 3 25 4 2 5 26 6 1 7 33 8 27 9 31 10 28 11 30 12
REMARK SMILES IDX 17 13 18 14 19 15 20 16 24 17 22 18 21 19 23 21 32 23 29 25
REMARK SMILES IDX 5 27 14 28 6 29 12 30 7 31 10 32 15 33 13 35 8 37 9 38 11 40
REMARK H PARENT 21 20 23 22 32 24 29 26 15 34 13 36 9 39 11 41
REMARK Flexibility Score: inf
ROOT
ATOM      1  O   UNL     1     -14.558  37.151  -3.670  1.00  0.00    -0.454 OA
ENDROOT
BRANCH   1   2
ATOM      2  C   UNL     1     -14.876  36.357  -2.558  1.00  0.00     0.214 A 
ATOM      3  C   UNL     1     -15.703  36.846  -1.520  1.00  0.00     0.180 A 
ATOM      4  O   UNL     1     -15.740  36.227  -0.348  1.00  0.00    -0.452 OA
ATOM      5  C   UNL     1     -14.200  35.138  -2.347  1.00  0.00     0.239 A 
ATOM      6  C   UNL     1     -15.069  35.127  -0.087  1.00  0.00     0.146 A 
ATOM      7  O   UNL     1     -13.439  34.703  -3.247  1.00  0.00    -0.285 OA
ATOM      8  C   UNL     1     -14.339  34.456  -1.108  1.00  0.00     0.111 A 
ATOM      9  C   UNL     1     -15.086  34.630   1.216  1.00  0.00     0.094 A 
ATOM     10  C   UNL     1     -13.718  33.217  -0.796  1.00  0.00     0.134 A 
ATOM     11  C   UNL     1     -14.369  33.486   1.533  1.00  0.00     0.123 A 
ATOM     12  C   UNL     1     -13.726  32.758   0.526  1.00  0.00     0.093 A 
BRANCH   3  13
ATOM     13  C   UNL     1     -16.564  38.037  -1.662  1.00  0.00     0.025 A 
ATOM     14  C   UNL     1     -17.335  38.180  -2.821  1.00  0.00     0.016 A 
ATOM     15  C   UNL     1     -18.367  39.116  -2.886  1.00  0.00     0.051 A 
ATOM     16  C   UNL     1     -18.703  39.857  -1.751  1.00  0.00     0.157 A 
ATOM     17  C   UNL     1     -16.869  38.823  -0.549  1.00  0.00     0.062 A 
ATOM     18  C   UNL     1     -17.935  39.742  -0.583  1.00  0.00     0.158 A 
BRANCH  16  19
ATOM     19  O   UNL     1     -19.857  40.631  -1.784  1.00  0.00    -0.504 OA
ATOM     20  H   UNL     1     -20.576  40.484  -2.481  1.00  0.00     0.293 HD
ENDBRANCH  16  19
BRANCH  18  21
ATOM     21  O   UNL     1     -18.287  40.442   0.573  1.00  0.00    -0.504 OA
ATOM     22  H   UNL     1     -19.154  40.214   1.044  1.00  0.00     0.293 HD
ENDBRANCH  18  21
ENDBRANCH   3  13
BRANCH  10  23
ATOM     23  O   UNL     1     -13.120  32.390  -1.743  1.00  0.00    -0.507 OA
ATOM     24  H   UNL     1     -12.339  31.771  -1.536  1.00  0.00     0.293 HD
ENDBRANCH  10  23
BRANCH  11  25
ATOM     25  O   UNL     1     -14.342  33.045   2.854  1.00  0.00    -0.508 OA
ATOM     26  H   UNL     1     -13.615  33.347   3.500  1.00  0.00     0.293 HD
ENDBRANCH  11  25
ENDBRANCH   1   2
BRANCH   1  27
ATOM     27  C   UNL     1     -13.543  38.156  -3.743  1.00  0.00     0.339 C 
ATOM     28  C   UNL     1     -12.400  37.800  -4.719  1.00  0.00     0.214 C 
ATOM     29  O   UNL     1     -14.094  39.394  -4.126  1.00  0.00    -0.332 OA
ATOM     30  C   UNL     1     -11.584  39.080  -5.100  1.00  0.00     0.180 C 
ATOM     31  C   UNL     1     -13.260  40.464  -3.707  1.00  0.00     0.179 C 
ATOM     32  C   UNL     1     -11.752  40.253  -4.096  1.00  0.00     0.177 C 
BRANCH  28  33
ATOM     33  O   UNL     1     -11.585  36.783  -4.200  1.00  0.00    -0.384 OA
ATOM     34  H   UNL     1     -11.196  37.099  -3.347  1.00  0.00     0.211 HD
ENDBRANCH  28  33
BRANCH  30  35
ATOM     35  O   UNL     1     -10.223  38.766  -5.258  1.00  0.00    -0.387 OA
ATOM     36  H   UNL     1     -10.196  37.874  -5.711  1.00  0.00     0.211 HD
ENDBRANCH  30  35
BRANCH  31  37
ATOM     37  C   UNL     1     -13.819  41.770  -4.298  1.00  0.00     0.191 C 
BRANCH  37  38
ATOM     38  O   UNL     1     -14.588  42.472  -3.356  1.00  0.00    -0.394 OA
ATOM     39  H   UNL     1     -15.399  41.925  -3.204  1.00  0.00     0.210 HD
ENDBRANCH  37  38
ENDBRANCH  31  37
BRANCH  32  40
ATOM     40  O   UNL     1     -10.963  40.078  -2.956  1.00  0.00    -0.387 OA
ATOM     41  H   UNL     1     -11.282  39.298  -2.452  1.00  0.00     0.211 HD
ENDBRANCH  32  40
ENDBRANCH   1  27
TORSDOF 12
ENDMDL
MODEL 3
REMARK VINA RESULT:    -6.528      1.912      6.213
REMARK INTER + INTRA:         -11.032
REMARK INTER:                  -9.629
REMARK INTRA:                  -1.404
REMARK UNBOUND:                -1.452
REMARK SMILES O=c1c(O[C@@H]2O[C@H](CO)[C@@H](O)[C@@H](O)[C@H]2O)c(-c2ccc(O)c(O)c2)oc2cc(O)cc(O)c12
REMARK SMILES IDX 4 1 3 2 16 3 25 4 2 5 26 6 1 7 33 8 27 9 31 10 28 11 30 12
REMARK SMILES IDX 17 13 18 14 19 15 20 16 24 17 22 18 21 19 23 21 32 23 29 25
REMARK SMILES IDX 5 27 14 28 6 29 12 30 7 31 10 32 15 33 13 35 8 37 9 38 11 40
REMARK H PARENT 21 20 23 22 32 24 29 26 15 34 13 36 9 39 11 41
REMARK Flexibility Score: inf
ROOT
ATOM      1  O   UNL     1     -14.327  35.038  -2.577  1.00  0.00    -0.454 OA
ENDROOT
BRANCH   1   2
ATOM      2  C   UNL     1     -14.843  35.972  -1.666  1.00  0.00     0.214 A 
ATOM      3  C   UNL     1     -14.780  35.747  -0.271  1.00  0.00     0.180 A 
ATOM      4  O   UNL     1     -15.534  36.459   0.554  1.00  0.00    -0.452 OA
ATOM      5  C   UNL     1     -15.630  37.045  -2.129  1.00  0.00     0.239 A 
ATOM      6  C   UNL     1     -16.335  37.422   0.157  1.00  0.00     0.146 A 
ATOM      7  O   UNL     1     -15.720  37.242  -3.367  1.00  0.00    -0.285 OA
ATOM      8  C   UNL     1     -16.352  37.845  -1.202  1.00  0.00     0.111 A 
ATOM      9  C   UNL     1     -17.173  38.023   1.097  1.00  0.00     0.094 A 
ATOM     10  C   UNL     1     -17.160  38.959  -1.557  1.00  0.00     0.134 A 
ATOM     11  C   UNL     1     -18.049  39.025   0.707  1.00  0.00     0.123 A 
ATOM     12  C   UNL     1     -18.012  39.522  -0.600  1.00  0.00     0.093 A 
BRANCH   3  13
ATOM     13  C   UNL     1     -13.893  34.743   0.350  1.00  0.00     0.025 A 
ATOM     14  C   UNL     1     -12.681  35.164   0.910  1.00  0.00     0.016 A 
ATOM     15  C   UNL     1     -11.949  34.326   1.750  1.00  0.00     0.051 A 
ATOM     16  C   UNL     1     -12.473  33.086   2.119  1.00  0.00     0.157 A 
ATOM     17  C   UNL     1     -14.382  33.477   0.678  1.00  0.00     0.062 A 
ATOM     18  C   UNL     1     -13.678  32.636   1.560  1.00  0.00     0.158 A 
BRANCH  16  19
ATOM     19  O   UNL     1     -11.822  32.360   3.111  1.00  0.00    -0.504 OA
ATOM     20  H   UNL     1     -11.478  32.803   3.954  1.00  0.00     0.293 HD
ENDBRANCH  16  19
BRANCH  18  21
ATOM     21  O   UNL     1     -14.235  31.417   1.954  1.00  0.00    -0.504 OA
ATOM     22  H   UNL     1     -13.687  30.786   2.524  1.00  0.00     0.293 HD
ENDBRANCH  18  21
ENDBRANCH   3  13
BRANCH  10  23
ATOM     23  O   UNL     1     -17.135  39.567  -2.810  1.00  0.00    -0.507 OA
ATOM     24  H   UNL     1     -16.279  39.866  -3.272  1.00  0.00     0.293 HD
ENDBRANCH  10  23
BRANCH  11  25
ATOM     25  O   UNL     1     -18.927  39.564   1.646  1.00  0.00    -0.508 OA
ATOM     26  H   UNL     1     -19.933  39.443   1.561  1.00  0.00     0.293 HD
ENDBRANCH  11  25
ENDBRANCH   1   2
BRANCH   1  27
ATOM     27  C   UNL     1     -13.008  35.019  -3.131  1.00  0.00     0.339 C 
ATOM     28  C   UNL     1     -12.437  36.428  -3.398  1.00  0.00     0.214 C 
ATOM     29  O   UNL     1     -12.123  34.325  -2.285  1.00  0.00    -0.332 OA
ATOM     30  C   UNL     1     -10.882  36.369  -3.562  1.00  0.00     0.180 C 
ATOM     31  C   UNL     1     -11.002  33.849  -3.016  1.00  0.00     0.179 C 
ATOM     32  C   UNL     1     -10.342  34.956  -3.914  1.00  0.00     0.177 C 
BRANCH  28  33
ATOM     33  O   UNL     1     -13.067  37.034  -4.495  1.00  0.00    -0.384 OA
ATOM     34  H   UNL     1     -13.855  37.535  -4.166  1.00  0.00     0.211 HD
ENDBRANCH  28  33
BRANCH  30  35
ATOM     35  O   UNL     1     -10.453  37.306  -4.517  1.00  0.00    -0.387 OA
ATOM     36  H   UNL     1     -11.283  37.662  -4.948  1.00  0.00     0.211 HD
ENDBRANCH  30  35
BRANCH  31  37
ATOM     37  C   UNL     1      -9.993  33.254  -2.018  1.00  0.00     0.191 C 
BRANCH  37  38
ATOM     38  O   UNL     1      -9.707  34.153  -0.979  1.00  0.00    -0.394 OA
ATOM     39  H   UNL     1      -9.564  33.600  -0.170  1.00  0.00     0.210 HD
ENDBRANCH  37  38
ENDBRANCH  31  37
BRANCH  32  40
ATOM     40  O   UNL     1     -10.506  34.661  -5.271  1.00  0.00    -0.387 OA
ATOM     41  H   UNL     1     -11.457  34.514  -5.462  1.00  0.00     0.211 HD
ENDBRANCH  32  40
ENDBRANCH   1  27
TORSDOF 12
ENDMDL
MODEL 4
REMARK VINA RESULT:    -6.414      1.831      5.033
REMARK INTER + INTRA:         -10.865
REMARK INTER:                  -9.537
REMARK INTRA:                  -1.328
REMARK UNBOUND:                -1.452
REMARK SMILES O=c1c(O[C@@H]2O[C@H](CO)[C@@H](O)[C@@H](O)[C@H]2O)c(-c2ccc(O)c(O)c2)oc2cc(O)cc(O)c12
REMARK SMILES IDX 4 1 3 2 16 3 25 4 2 5 26 6 1 7 33 8 27 9 31 10 28 11 30 12
REMARK SMILES IDX 17 13 18 14 19 15 20 16 24 17 22 18 21 19 23 21 32 23 29 25
REMARK SMILES IDX 5 27 14 28 6 29 12 30 7 31 10 32 15 33 13 35 8 37 9 38 11 40
REMARK H PARENT 21 20 23 22 32 24 29 26 15 34 13 36 9 39 11 41
REMARK Flexibility Score: inf
ROOT
ATOM      1  O   UNL     1     -14.325  35.072  -2.177  1.00  0.00    -0.454 OA
ENDROOT
BRANCH   1   2
ATOM      2  C   UNL     1     -13.534  36.124  -2.665  1.00  0.00     0.214 A 
ATOM      3  C   UNL     1     -14.104  37.373  -3.004  1.00  0.00     0.180 A 
ATOM      4  O   UNL     1     -13.427  38.236  -3.747  1.00  0.00    -0.452 OA
ATOM      5  C   UNL     1     -12.196  35.885  -3.035  1.00  0.00     0.239 A 
ATOM      6  C   UNL     1     -12.201  38.023  -4.172  1.00  0.00     0.146 A 
ATOM      7  O   UNL     1     -11.682  34.770  -2.766  1.00  0.00    -0.285 OA
ATOM      8  C   UNL     1     -11.471  36.875  -3.752  1.00  0.00     0.111 A 
ATOM      9  C   UNL     1     -11.629  38.945  -5.049  1.00  0.00     0.094 A 
ATOM     10  C   UNL     1     -10.116  36.747  -4.158  1.00  0.00     0.134 A 
ATOM     11  C   UNL     1     -10.348  38.737  -5.537  1.00  0.00     0.123 A 
ATOM     12  C   UNL     1      -9.578  37.671  -5.061  1.00  0.00     0.093 A 
BRANCH   3  13
ATOM     13  C   UNL     1     -15.448  37.798  -2.563  1.00  0.00     0.025 A 
ATOM     14  C   UNL     1     -15.557  38.701  -1.499  1.00  0.00     0.016 A 
ATOM     15  C   UNL     1     -16.761  39.352  -1.230  1.00  0.00     0.051 A 
ATOM     16  C   UNL     1     -17.849  39.178  -2.088  1.00  0.00     0.157 A 
ATOM     17  C   UNL     1     -16.559  37.586  -3.382  1.00  0.00     0.062 A 
ATOM     18  C   UNL     1     -17.768  38.267  -3.151  1.00  0.00     0.158 A 
BRANCH  16  19
ATOM     19  O   UNL     1     -18.965  39.989  -1.914  1.00  0.00    -0.504 OA
ATOM     20  H   UNL     1     -18.888  40.997  -1.867  1.00  0.00     0.293 HD
ENDBRANCH  16  19
BRANCH  18  21
ATOM     21  O   UNL     1     -18.833  38.117  -4.043  1.00  0.00    -0.504 OA
ATOM     22  H   UNL     1     -18.637  37.975  -5.025  1.00  0.00     0.293 HD
ENDBRANCH  18  21
ENDBRANCH   3  13
BRANCH  10  23
ATOM     23  O   UNL     1      -9.254  35.762  -3.680  1.00  0.00    -0.507 OA
ATOM     24  H   UNL     1      -8.477  35.953  -3.052  1.00  0.00     0.293 HD
ENDBRANCH  10  23
BRANCH  11  25
ATOM     25  O   UNL     1      -9.821  39.633  -6.465  1.00  0.00    -0.508 OA
ATOM     26  H   UNL     1      -9.370  40.497  -6.172  1.00  0.00     0.293 HD
ENDBRANCH  11  25
ENDBRANCH   1   2
BRANCH   1  27
ATOM     27  C   UNL     1     -14.609  34.778  -0.807  1.00  0.00     0.339 C 
ATOM     28  C   UNL     1     -13.434  35.094   0.143  1.00  0.00     0.214 C 
ATOM     29  O   UNL     1     -15.745  35.487  -0.371  1.00  0.00    -0.332 OA
ATOM     30  C   UNL     1     -13.933  35.188   1.623  1.00  0.00     0.180 C 
ATOM     31  C   UNL     1     -16.336  34.843   0.748  1.00  0.00     0.179 C 
ATOM     32  C   UNL     1     -15.296  34.488   1.871  1.00  0.00     0.177 C 
BRANCH  28  33
ATOM     33  O   UNL     1     -12.392  34.167  -0.010  1.00  0.00    -0.384 OA
ATOM     34  H   UNL     1     -12.531  33.430   0.636  1.00  0.00     0.211 HD
ENDBRANCH  28  33
BRANCH  30  35
ATOM     35  O   UNL     1     -12.960  34.685   2.503  1.00  0.00    -0.387 OA
ATOM     36  H   UNL     1     -12.721  35.441   3.114  1.00  0.00     0.211 HD
ENDBRANCH  30  35
BRANCH  31  37
ATOM     37  C   UNL     1     -17.461  35.746   1.285  1.00  0.00     0.191 C 
BRANCH  37  38
ATOM     38  O   UNL     1     -18.516  34.991   1.820  1.00  0.00    -0.394 OA
ATOM     39  H   UNL     1     -19.344  35.490   1.610  1.00  0.00     0.210 HD
ENDBRANCH  37  38
ENDBRANCH  31  37
BRANCH  32  40
ATOM     40  O   UNL     1     -15.153  33.103   1.998  1.00  0.00    -0.387 OA
ATOM     41  H   UNL     1     -14.433  32.905   2.635  1.00  0.00     0.211 HD
ENDBRANCH  32  40
ENDBRANCH   1  27
TORSDOF 12
ENDMDL
MODEL 5
REMARK VINA RESULT:    -6.409      2.360      6.821
REMARK INTER + INTRA:         -10.859
REMARK INTER:                  -9.112
REMARK INTRA:                  -1.747
REMARK UNBOUND:                -1.452
REMARK SMILES O=c1c(O[C@@H]2O[C@H](CO)[C@@H](O)[C@@H](O)[C@H]2O)c(-c2ccc(O)c(O)c2)oc2cc(O)cc(O)c12
REMARK SMILES IDX 4 1 3 2 16 3 25 4 2 5 26 6 1 7 33 8 27 9 31 10 28 11 30 12
REMARK SMILES IDX 17 13 18 14 19 15 20 16 24 17 22 18 21 19 23 21 32 23 29 25
REMARK SMILES IDX 5 27 14 28 6 29 12 30 7 31 10 32 15 33 13 35 8 37 9 38 11 40
REMARK H PARENT 21 20 23 22 32 24 29 26 15 34 13 36 9 39 11 41
REMARK Flexibility Score: inf
ROOT
ATOM      1  O   UNL     1     -15.083  38.547  -3.691  1.00  0.00    -0.454 OA
ENDROOT
BRANCH   1   2
ATOM      2  C   UNL     1     -15.374  38.296  -2.341  1.00  0.00     0.214 A 
ATOM      3  C   UNL     1     -14.778  37.215  -1.651  1.00  0.00     0.180 A 
ATOM      4  O   UNL     1     -15.284  36.798  -0.500  1.00  0.00    -0.452 OA
ATOM      5  C   UNL     1     -16.430  38.983  -1.710  1.00  0.00     0.239 A 
ATOM      6  C   UNL     1     -16.313  37.366   0.089  1.00  0.00     0.146 A 
ATOM      7  O   UNL     1     -16.990  39.928  -2.320  1.00  0.00    -0.285 OA
ATOM      8  C   UNL     1     -16.884  38.562  -0.431  1.00  0.00     0.111 A 
ATOM      9  C   UNL     1     -16.838  36.770   1.236  1.00  0.00     0.094 A 
ATOM     10  C   UNL     1     -17.927  39.190   0.302  1.00  0.00     0.134 A 
ATOM     11  C   UNL     1     -17.939  37.328   1.867  1.00  0.00     0.123 A 
ATOM     12  C   UNL     1     -18.453  38.554   1.432  1.00  0.00     0.093 A 
BRANCH   3  13
ATOM     13  C   UNL     1     -13.583  36.499  -2.142  1.00  0.00     0.025 A 
ATOM     14  C   UNL     1     -13.736  35.536  -3.146  1.00  0.00     0.016 A 
ATOM     15  C   UNL     1     -12.633  35.043  -3.842  1.00  0.00     0.051 A 
ATOM     16  C   UNL     1     -11.367  35.582  -3.605  1.00  0.00     0.157 A 
ATOM     17  C   UNL     1     -12.305  36.992  -1.870  1.00  0.00     0.062 A 
ATOM     18  C   UNL     1     -11.186  36.537  -2.593  1.00  0.00     0.158 A 
BRANCH  16  19
ATOM     19  O   UNL     1     -10.323  35.218  -4.449  1.00  0.00    -0.504 OA
ATOM     20  H   UNL     1     -10.388  35.333  -5.453  1.00  0.00     0.293 HD
ENDBRANCH  16  19
BRANCH  18  21
ATOM     21  O   UNL     1      -9.935  37.117  -2.376  1.00  0.00    -0.504 OA
ATOM     22  H   UNL     1      -9.101  36.574  -2.563  1.00  0.00     0.293 HD
ENDBRANCH  18  21
ENDBRANCH   3  13
BRANCH  10  23
ATOM     23  O   UNL     1     -18.450  40.442  -0.013  1.00  0.00    -0.507 OA
ATOM     24  H   UNL     1     -17.913  41.305   0.040  1.00  0.00     0.293 HD
ENDBRANCH  10  23
BRANCH  11  25
ATOM     25  O   UNL     1     -18.491  36.680   2.971  1.00  0.00    -0.508 OA
ATOM     26  H   UNL     1     -19.327  36.106   2.885  1.00  0.00     0.293 HD
ENDBRANCH  11  25
ENDBRANCH   1   2
BRANCH   1  27
ATOM     27  C   UNL     1     -14.110  39.461  -4.203  1.00  0.00     0.339 C 
ATOM     28  C   UNL     1     -13.714  40.561  -3.194  1.00  0.00     0.214 C 
ATOM     29  O   UNL     1     -12.946  38.777  -4.604  1.00  0.00    -0.332 OA
ATOM     30  C   UNL     1     -12.365  41.233  -3.614  1.00  0.00     0.180 C 
ATOM     31  C   UNL     1     -12.222  39.540  -5.557  1.00  0.00     0.179 C 
ATOM     32  C   UNL     1     -12.002  41.030  -5.111  1.00  0.00     0.177 C 
BRANCH  28  33
ATOM     33  O   UNL     1     -14.747  41.497  -3.030  1.00  0.00    -0.384 OA
ATOM     34  H   UNL     1     -14.952  41.895  -3.913  1.00  0.00     0.211 HD
ENDBRANCH  28  33
BRANCH  30  35
ATOM     35  O   UNL     1     -12.377  42.601  -3.297  1.00  0.00    -0.387 OA
ATOM     36  H   UNL     1     -11.695  43.030  -3.891  1.00  0.00     0.211 HD
ENDBRANCH  30  35
BRANCH  31  37
ATOM     37  C   UNL     1     -10.884  38.828  -5.828  1.00  0.00     0.191 C 
BRANCH  37  38
ATOM     38  O   UNL     1     -10.006  38.954  -4.741  1.00  0.00    -0.394 OA
ATOM     39  H   UNL     1      -9.831  39.923  -4.642  1.00  0.00     0.210 HD
ENDBRANCH  37  38
ENDBRANCH  31  37
BRANCH  32  40
ATOM     40  O   UNL     1     -12.707  41.908  -5.939  1.00  0.00    -0.387 OA
ATOM     41  H   UNL     1     -12.765  42.789  -5.510  1.00  0.00     0.211 HD
ENDBRANCH  32  40
ENDBRANCH   1  27
TORSDOF 12
ENDMDL
MODEL 6
REMARK VINA RESULT:    -6.402      2.060      5.776
REMARK INTER + INTRA:         -10.847
REMARK INTER:                  -9.875
REMARK INTRA:                  -0.972
REMARK UNBOUND:                -1.452
REMARK SMILES O=c1c(O[C@@H]2O[C@H](CO)[C@@H](O)[C@@H](O)[C@H]2O)c(-c2ccc(O)c(O)c2)oc2cc(O)cc(O)c12
REMARK SMILES IDX 4 1 3 2 16 3 25 4 2 5 26 6 1 7 33 8 27 9 31 10 28 11 30 12
REMARK SMILES IDX 17 13 18 14 19 15 20 16 24 17 22 18 21 19 23 21 32 23 29 25
REMARK SMILES IDX 5 27 14 28 6 29 12 30 7 31 10 32 15 33 13 35 8 37 9 38 11 40
REMARK H PARENT 21 20 23 22 32 24 29 26 15 34 13 36 9 39 11 41
REMARK Flexibility Score: inf
ROOT
ATOM      1  O   UNL     1     -14.058  36.365  -2.948  1.00  0.00    -0.454 OA
ENDROOT
BRANCH   1   2
ATOM      2  C   UNL     1     -13.685  37.681  -3.260  1.00  0.00     0.214 A 
ATOM      3  C   UNL     1     -14.539  38.772  -2.977  1.00  0.00     0.180 A 
ATOM      4  O   UNL     1     -14.330  39.949  -3.549  1.00  0.00    -0.452 OA
ATOM      5  C   UNL     1     -12.550  37.919  -4.060  1.00  0.00     0.239 A 
ATOM      6  C   UNL     1     -13.323  40.194  -4.358  1.00  0.00     0.146 A 
ATOM      7  O   UNL     1     -11.795  36.955  -4.345  1.00  0.00    -0.285 OA
ATOM      8  C   UNL     1     -12.310  39.220  -4.580  1.00  0.00     0.111 A 
ATOM      9  C   UNL     1     -13.270  41.432  -4.998  1.00  0.00     0.094 A 
ATOM     10  C   UNL     1     -11.191  39.574  -5.381  1.00  0.00     0.134 A 
ATOM     11  C   UNL     1     -12.235  41.715  -5.878  1.00  0.00     0.123 A 
ATOM     12  C   UNL     1     -11.178  40.811  -6.034  1.00  0.00     0.093 A 
BRANCH   3  13
ATOM     13  C   UNL     1     -15.684  38.686  -2.049  1.00  0.00     0.025 A 
ATOM     14  C   UNL     1     -15.438  38.477  -0.687  1.00  0.00     0.016 A 
ATOM     15  C   UNL     1     -16.440  38.673   0.263  1.00  0.00     0.051 A 
ATOM     16  C   UNL     1     -17.680  39.175  -0.133  1.00  0.00     0.157 A 
ATOM     17  C   UNL     1     -16.947  39.134  -2.443  1.00  0.00     0.062 A 
ATOM     18  C   UNL     1     -17.957  39.378  -1.493  1.00  0.00     0.158 A 
BRANCH  16  19
ATOM     19  O   UNL     1     -18.588  39.550   0.852  1.00  0.00    -0.504 OA
ATOM     20  H   UNL     1     -18.964  38.879   1.510  1.00  0.00     0.293 HD
ENDBRANCH  16  19
BRANCH  18  21
ATOM     21  O   UNL     1     -19.177  39.922  -1.899  1.00  0.00    -0.504 OA
ATOM     22  H   UNL     1     -19.318  40.142  -2.877  1.00  0.00     0.293 HD
ENDBRANCH  18  21
ENDBRANCH   3  13
BRANCH  10  23
ATOM     23  O   UNL     1     -10.063  38.772  -5.535  1.00  0.00    -0.507 OA
ATOM     24  H   UNL     1      -9.482  38.774  -6.370  1.00  0.00     0.293 HD
ENDBRANCH  10  23
BRANCH  11  25
ATOM     25  O   UNL     1     -12.236  42.930  -6.561  1.00  0.00    -0.508 OA
ATOM     26  H   UNL     1     -11.453  43.209  -7.147  1.00  0.00     0.293 HD
ENDBRANCH  11  25
ENDBRANCH   1   2
BRANCH   1  27
ATOM     27  C   UNL     1     -13.520  35.546  -1.905  1.00  0.00     0.339 C 
ATOM     28  C   UNL     1     -14.536  34.528  -1.342  1.00  0.00     0.214 C 
ATOM     29  O   UNL     1     -12.384  34.847  -2.356  1.00  0.00    -0.332 OA
ATOM     30  C   UNL     1     -13.799  33.391  -0.560  1.00  0.00     0.180 C 
ATOM     31  C   UNL     1     -11.562  34.470  -1.261  1.00  0.00     0.179 C 
ATOM     32  C   UNL     1     -12.364  33.770  -0.105  1.00  0.00     0.177 C 
BRANCH  28  33
ATOM     33  O   UNL     1     -15.515  35.163  -0.563  1.00  0.00    -0.384 OA
ATOM     34  H   UNL     1     -15.062  35.675   0.153  1.00  0.00     0.211 HD
ENDBRANCH  28  33
BRANCH  30  35
ATOM     35  O   UNL     1     -14.566  32.976   0.542  1.00  0.00    -0.387 OA
ATOM     36  H   UNL     1     -14.368  32.003   0.667  1.00  0.00     0.211 HD
ENDBRANCH  30  35
BRANCH  31  37
ATOM     37  C   UNL     1     -10.434  33.568  -1.794  1.00  0.00     0.191 C 
BRANCH  37  38
ATOM     38  O   UNL     1     -10.718  33.099  -3.086  1.00  0.00    -0.394 OA
ATOM     39  H   UNL     1      -9.983  33.425  -3.663  1.00  0.00     0.210 HD
ENDBRANCH  37  38
ENDBRANCH  31  37
BRANCH  32  40
ATOM     40  O   UNL     1     -12.377  34.565   1.044  1.00  0.00    -0.387 OA
ATOM     41  H   UNL     1     -11.767  35.325   0.925  1.00  0.00     0.211 HD
ENDBRANCH  32  40
ENDBRANCH   1  27
TORSDOF 12
ENDMDL
MODEL 7
REMARK VINA RESULT:    -6.267      1.835      5.229
REMARK INTER + INTRA:         -10.649
REMARK INTER:                  -9.883
REMARK INTRA:                  -0.766
REMARK UNBOUND:                -1.452
REMARK SMILES O=c1c(O[C@@H]2O[C@H](CO)[C@@H](O)[C@@H](O)[C@H]2O)c(-c2ccc(O)c(O)c2)oc2cc(O)cc(O)c12
REMARK SMILES IDX 4 1 3 2 16 3 25 4 2 5 26 6 1 7 33 8 27 9 31 10 28 11 30 12
REMARK SMILES IDX 17 13 18 14 19 15 20 16 24 17 22 18 21 19 23 21 32 23 29 25
REMARK SMILES IDX 5 27 14 28 6 29 12 30 7 31 10 32 15 33 13 35 8 37 9 38 11 40
REMARK H PARENT 21 20 23 22 32 24 29 26 15 34 13 36 9 39 11 41
REMARK Flexibility Score: inf
ROOT
ATOM      1  O   UNL     1     -14.703  36.130  -2.882  1.00  0.00    -0.454 OA
ENDROOT
BRANCH   1   2
ATOM      2  C   UNL     1     -14.166  37.392  -3.178  1.00  0.00     0.214 A 
ATOM      3  C   UNL     1     -14.853  38.580  -2.836  1.00  0.00     0.180 A 
ATOM      4  O   UNL     1     -14.507  39.734  -3.388  1.00  0.00    -0.452 OA
ATOM      5  C   UNL     1     -13.039  37.498  -4.017  1.00  0.00     0.239 A 
ATOM      6  C   UNL     1     -13.506  39.865  -4.230  1.00  0.00     0.146 A 
ATOM      7  O   UNL     1     -12.432  36.450  -4.353  1.00  0.00    -0.285 OA
ATOM      8  C   UNL     1     -12.643  38.769  -4.515  1.00  0.00     0.111 A 
ATOM      9  C   UNL     1     -13.308  41.102  -4.843  1.00  0.00     0.094 A 
ATOM     10  C   UNL     1     -11.516  38.993  -5.351  1.00  0.00     0.134 A 
ATOM     11  C   UNL     1     -12.277  41.267  -5.756  1.00  0.00     0.123 A 
ATOM     12  C   UNL     1     -11.359  40.235  -5.975  1.00  0.00     0.093 A 
BRANCH   3  13
ATOM     13  C   UNL     1     -15.965  38.623  -1.865  1.00  0.00     0.025 A 
ATOM     14  C   UNL     1     -15.681  38.472  -0.502  1.00  0.00     0.016 A 
ATOM     15  C   UNL     1     -16.631  38.787   0.469  1.00  0.00     0.051 A 
ATOM     16  C   UNL     1     -17.850  39.351   0.088  1.00  0.00     0.157 A 
ATOM     17  C   UNL     1     -17.210  39.134  -2.240  1.00  0.00     0.062 A 
ATOM     18  C   UNL     1     -18.164  39.498  -1.271  1.00  0.00     0.158 A 
BRANCH  16  19
ATOM     19  O   UNL     1     -18.692  39.839   1.081  1.00  0.00    -0.504 OA
ATOM     20  H   UNL     1     -18.484  39.712   2.064  1.00  0.00     0.293 HD
ENDBRANCH  16  19
BRANCH  18  21
ATOM     21  O   UNL     1     -19.360  40.101  -1.665  1.00  0.00    -0.504 OA
ATOM     22  H   UNL     1     -19.972  40.490  -0.958  1.00  0.00     0.293 HD
ENDBRANCH  18  21
ENDBRANCH   3  13
BRANCH  10  23
ATOM     23  O   UNL     1     -10.514  38.050  -5.568  1.00  0.00    -0.507 OA
ATOM     24  H   UNL     1     -10.695  37.100  -5.883  1.00  0.00     0.293 HD
ENDBRANCH  10  23
BRANCH  11  25
ATOM     25  O   UNL     1     -12.138  42.490  -6.409  1.00  0.00    -0.508 OA
ATOM     26  H   UNL     1     -11.426  42.632  -7.122  1.00  0.00     0.293 HD
ENDBRANCH  11  25
ENDBRANCH   1   2
BRANCH   1  27
ATOM     27  C   UNL     1     -14.363  35.293  -1.773  1.00  0.00     0.339 C 
ATOM     28  C   UNL     1     -12.867  35.355  -1.395  1.00  0.00     0.214 C 
ATOM     29  O   UNL     1     -15.129  35.630  -0.641  1.00  0.00    -0.332 OA
ATOM     30  C   UNL     1     -12.642  34.804   0.052  1.00  0.00     0.180 C 
ATOM     31  C   UNL     1     -15.201  34.534   0.259  1.00  0.00     0.179 C 
ATOM     32  C   UNL     1     -13.796  33.900   0.565  1.00  0.00     0.177 C 
BRANCH  28  33
ATOM     33  O   UNL     1     -12.074  34.697  -2.346  1.00  0.00    -0.384 OA
ATOM     34  H   UNL     1     -12.276  33.729  -2.307  1.00  0.00     0.211 HD
ENDBRANCH  28  33
BRANCH  30  35
ATOM     35  O   UNL     1     -11.417  34.121   0.132  1.00  0.00    -0.387 OA
ATOM     36  H   UNL     1     -10.705  34.823   0.084  1.00  0.00     0.211 HD
ENDBRANCH  30  35
BRANCH  31  37
ATOM     37  C   UNL     1     -15.899  35.012   1.545  1.00  0.00     0.191 C 
BRANCH  37  38
ATOM     38  O   UNL     1     -16.098  33.953   2.445  1.00  0.00    -0.394 OA
ATOM     39  H   UNL     1     -15.881  34.312   3.342  1.00  0.00     0.210 HD
ENDBRANCH  37  38
ENDBRANCH  31  37
BRANCH  32  40
ATOM     40  O   UNL     1     -13.710  32.605   0.048  1.00  0.00    -0.387 OA
ATOM     41  H   UNL     1     -14.163  31.979   0.654  1.00  0.00     0.211 HD
ENDBRANCH  32  40
ENDBRANCH   1  27
TORSDOF 12
ENDMDL
MODEL 8
REMARK VINA RESULT:    -6.165      2.724      5.839
REMARK INTER + INTRA:         -10.500
REMARK INTER:                  -8.675
REMARK INTRA:                  -1.824
REMARK UNBOUND:                -1.452
REMARK SMILES O=c1c(O[C@@H]2O[C@H](CO)[C@@H](O)[C@@H](O)[C@H]2O)c(-c2ccc(O)c(O)c2)oc2cc(O)cc(O)c12
REMARK SMILES IDX 4 1 3 2 16 3 25 4 2 5 26 6 1 7 33 8 27 9 31 10 28 11 30 12
REMARK SMILES IDX 17 13 18 14 19 15 20 16 24 17 22 18 21 19 23 21 32 23 29 25
REMARK SMILES IDX 5 27 14 28 6 29 12 30 7 31 10 32 15 33 13 35 8 37 9 38 11 40
REMARK H PARENT 21 20 23 22 32 24 29 26 15 34 13 36 9 39 11 41
REMARK Flexibility Score: inf
ROOT
ATOM      1  O   UNL     1     -13.383  37.389  -4.871  1.00  0.00    -0.454 OA
ENDROOT
BRANCH   1   2
ATOM      2  C   UNL     1     -13.359  38.759  -4.567  1.00  0.00     0.214 A 
ATOM      3  C   UNL     1     -14.318  39.335  -3.701  1.00  0.00     0.180 A 
ATOM      4  O   UNL     1     -14.485  40.649  -3.669  1.00  0.00    -0.452 OA
ATOM      5  C   UNL     1     -12.515  39.625  -5.290  1.00  0.00     0.239 A 
ATOM      6  C   UNL     1     -13.766  41.489  -4.381  1.00  0.00     0.146 A 
ATOM      7  O   UNL     1     -11.676  39.132  -6.085  1.00  0.00    -0.285 OA
ATOM      8  C   UNL     1     -12.664  41.032  -5.157  1.00  0.00     0.111 A 
ATOM      9  C   UNL     1     -14.108  42.841  -4.361  1.00  0.00     0.094 A 
ATOM     10  C   UNL     1     -11.858  41.995  -5.824  1.00  0.00     0.134 A 
ATOM     11  C   UNL     1     -13.388  43.751  -5.120  1.00  0.00     0.123 A 
ATOM     12  C   UNL     1     -12.243  43.340  -5.811  1.00  0.00     0.093 A 
BRANCH   3  13
ATOM     13  C   UNL     1     -15.171  38.542  -2.793  1.00  0.00     0.025 A 
ATOM     14  C   UNL     1     -16.233  37.806  -3.332  1.00  0.00     0.016 A 
ATOM     15  C   UNL     1     -16.883  36.828  -2.581  1.00  0.00     0.051 A 
ATOM     16  C   UNL     1     -16.412  36.506  -1.306  1.00  0.00     0.157 A 
ATOM     17  C   UNL     1     -14.742  38.253  -1.495  1.00  0.00     0.062 A 
ATOM     18  C   UNL     1     -15.359  37.239  -0.739  1.00  0.00     0.158 A 
BRANCH  16  19
ATOM     19  O   UNL     1     -16.948  35.396  -0.663  1.00  0.00    -0.504 OA
ATOM     20  H   UNL     1     -17.933  35.170  -0.725  1.00  0.00     0.293 HD
ENDBRANCH  16  19
BRANCH  18  21
ATOM     21  O   UNL     1     -14.849  36.899   0.515  1.00  0.00    -0.504 OA
ATOM     22  H   UNL     1     -15.297  37.264   1.346  1.00  0.00     0.293 HD
ENDBRANCH  18  21
ENDBRANCH   3  13
BRANCH  10  23
ATOM     23  O   UNL     1     -10.665  41.689  -6.474  1.00  0.00    -0.507 OA
ATOM     24  H   UNL     1     -10.577  40.954  -7.171  1.00  0.00     0.293 HD
ENDBRANCH  10  23
BRANCH  11  25
ATOM     25  O   UNL     1     -13.788  45.086  -5.142  1.00  0.00    -0.508 OA
ATOM     26  H   UNL     1     -13.579  45.689  -5.934  1.00  0.00     0.293 HD
ENDBRANCH  11  25
ENDBRANCH   1   2
BRANCH   1  27
ATOM     27  C   UNL     1     -12.688  36.346  -4.183  1.00  0.00     0.339 C 
ATOM     28  C   UNL     1     -11.497  36.855  -3.342  1.00  0.00     0.214 C 
ATOM     29  O   UNL     1     -13.564  35.635  -3.341  1.00  0.00    -0.332 OA
ATOM     30  C   UNL     1     -11.071  35.783  -2.286  1.00  0.00     0.180 C 
ATOM     31  C   UNL     1     -13.057  34.335  -3.075  1.00  0.00     0.179 C 
ATOM     32  C   UNL     1     -11.553  34.345  -2.622  1.00  0.00     0.177 C 
BRANCH  28  33
ATOM     33  O   UNL     1     -10.429  37.252  -4.160  1.00  0.00    -0.384 OA
ATOM     34  H   UNL     1     -10.579  38.191  -4.437  1.00  0.00     0.211 HD
ENDBRANCH  28  33
BRANCH  30  35
ATOM     35  O   UNL     1      -9.678  35.800  -2.103  1.00  0.00    -0.387 OA
ATOM     36  H   UNL     1      -9.297  36.226  -2.925  1.00  0.00     0.211 HD
ENDBRANCH  30  35
BRANCH  31  37
ATOM     37  C   UNL     1     -13.961  33.672  -2.021  1.00  0.00     0.191 C 
BRANCH  37  38
ATOM     38  O   UNL     1     -13.848  34.307  -0.774  1.00  0.00    -0.394 OA
ATOM     39  H   UNL     1     -14.772  34.399  -0.430  1.00  0.00     0.210 HD
ENDBRANCH  37  38
ENDBRANCH  31  37
BRANCH  32  40
ATOM     40  O   UNL     1     -10.739  33.737  -3.582  1.00  0.00    -0.387 OA
ATOM     41  H   UNL     1     -10.668  32.776  -3.391  1.00  0.00     0.211 HD
ENDBRANCH  32  40
ENDBRANCH   1  27
TORSDOF 12
ENDMDL
MODEL 9
REMARK VINA RESULT:    -6.034      2.115      4.736
REMARK INTER + INTRA:         -10.308
REMARK INTER:                  -8.751
REMARK INTRA:                  -1.557
REMARK UNBOUND:                -1.452
REMARK SMILES O=c1c(O[C@@H]2O[C@H](CO)[C@@H](O)[C@@H](O)[C@H]2O)c(-c2ccc(O)c(O)c2)oc2cc(O)cc(O)c12
REMARK SMILES IDX 4 1 3 2 16 3 25 4 2 5 26 6 1 7 33 8 27 9 31 10 28 11 30 12
REMARK SMILES IDX 17 13 18 14 19 15 20 16 24 17 22 18 21 19 23 21 32 23 29 25
REMARK SMILES IDX 5 27 14 28 6 29 12 30 7 31 10 32 15 33 13 35 8 37 9 38 11 40
REMARK H PARENT 21 20 23 22 32 24 29 26 15 34 13 36 9 39 11 41
REMARK Flexibility Score: inf
ROOT
ATOM      1  O   UNL     1     -15.272  36.444  -2.261  1.00  0.00    -0.454 OA
ENDROOT
BRANCH   1   2
ATOM      2  C   UNL     1     -14.757  37.730  -2.486  1.00  0.00     0.214 A 
ATOM      3  C   UNL     1     -15.132  38.823  -1.670  1.00  0.00     0.180 A 
ATOM      4  O   UNL     1     -14.902  40.065  -2.071  1.00  0.00    -0.452 OA
ATOM      5  C   UNL     1     -14.029  38.000  -3.662  1.00  0.00     0.239 A 
ATOM      6  C   UNL     1     -14.289  40.363  -3.195  1.00  0.00     0.146 A 
ATOM      7  O   UNL     1     -13.712  37.044  -4.412  1.00  0.00    -0.285 OA
ATOM      8  C   UNL     1     -13.720  39.343  -4.010  1.00  0.00     0.111 A 
ATOM      9  C   UNL     1     -14.208  41.702  -3.575  1.00  0.00     0.094 A 
ATOM     10  C   UNL     1     -12.979  39.728  -5.160  1.00  0.00     0.134 A 
ATOM     11  C   UNL     1     -13.591  42.050  -4.768  1.00  0.00     0.123 A 
ATOM     12  C   UNL     1     -12.941  41.076  -5.533  1.00  0.00     0.093 A 
BRANCH   3  13
ATOM     13  C   UNL     1     -15.780  38.667  -0.353  1.00  0.00     0.025 A 
ATOM     14  C   UNL     1     -17.137  38.325  -0.301  1.00  0.00     0.016 A 
ATOM     15  C   UNL     1     -17.723  37.888   0.887  1.00  0.00     0.051 A 
ATOM     16  C   UNL     1     -16.930  37.694   2.019  1.00  0.00     0.157 A 
ATOM     17  C   UNL     1     -15.006  38.525   0.802  1.00  0.00     0.062 A 
ATOM     18  C   UNL     1     -15.572  38.043   1.997  1.00  0.00     0.158 A 
BRANCH  16  19
ATOM     19  O   UNL     1     -17.497  37.070   3.125  1.00  0.00    -0.504 OA
ATOM     20  H   UNL     1     -18.341  36.516   3.047  1.00  0.00     0.293 HD
ENDBRANCH  16  19
BRANCH  18  21
ATOM     21  O   UNL     1     -14.759  37.813   3.108  1.00  0.00    -0.504 OA
ATOM     22  H   UNL     1     -14.407  36.879   3.277  1.00  0.00     0.293 HD
ENDBRANCH  18  21
ENDBRANCH   3  13
BRANCH  10  23
ATOM     23  O   UNL     1     -12.241  38.840  -5.938  1.00  0.00    -0.507 OA
ATOM     24  H   UNL     1     -11.942  37.923  -5.614  1.00  0.00     0.293 HD
ENDBRANCH  10  23
BRANCH  11  25
ATOM     25  O   UNL     1     -13.581  43.386  -5.164  1.00  0.00    -0.508 OA
ATOM     26  H   UNL     1     -13.178  43.672  -6.053  1.00  0.00     0.293 HD
ENDBRANCH  11  25
ENDBRANCH   1   2
BRANCH   1  27
ATOM     27  C   UNL     1     -14.665  35.399  -1.495  1.00  0.00     0.339 C 
ATOM     28  C   UNL     1     -13.123  35.398  -1.576  1.00  0.00     0.214 C 
ATOM     29  O   UNL     1     -15.046  35.488  -0.142  1.00  0.00    -0.332 OA
ATOM     30  C   UNL     1     -12.512  34.562  -0.403  1.00  0.00     0.180 C 
ATOM     31  C   UNL     1     -14.906  34.230   0.500  1.00  0.00     0.179 C 
ATOM     32  C   UNL     1     -13.509  33.561   0.240  1.00  0.00     0.177 C 
BRANCH  28  33
ATOM     33  O   UNL     1     -12.680  34.958  -2.832  1.00  0.00    -0.384 OA
ATOM     34  H   UNL     1     -12.233  35.714  -3.289  1.00  0.00     0.211 HD
ENDBRANCH  28  33
BRANCH  30  35
ATOM     35  O   UNL     1     -11.354  33.891  -0.831  1.00  0.00    -0.387 OA
ATOM     36  H   UNL     1     -10.947  34.465  -1.542  1.00  0.00     0.211 HD
ENDBRANCH  30  35
BRANCH  31  37
ATOM     37  C   UNL     1     -15.169  34.425   2.004  1.00  0.00     0.191 C 
BRANCH  37  38
ATOM     38  O   UNL     1     -16.528  34.262   2.313  1.00  0.00    -0.394 OA
ATOM     39  H   UNL     1     -17.003  34.222   1.445  1.00  0.00     0.210 HD
ENDBRANCH  37  38
ENDBRANCH  31  37
BRANCH  32  40
ATOM     40  O   UNL     1     -13.646  32.400  -0.527  1.00  0.00    -0.387 OA
ATOM     41  H   UNL     1     -13.465  32.606  -1.470  1.00  0.00     0.211 HD
ENDBRANCH  32  40
ENDBRANCH   1  27
TORSDOF 12
ENDMDL
