MODEL 1
REMARK VINA RESULT:    -5.246      0.000      0.000
REMARK INTER + INTRA:          -6.630
REMARK INTER:                  -6.319
REMARK INTRA:                  -0.310
REMARK UNBOUND:                -0.310
REMARK SMILES Oc1cc(O)c2cc(O)c(-c3ccc(O)c(O)c3)[o+]c2c1
REMARK SMILES IDX 10 1 19 2 20 3 21 4 2 5 3 6 4 7 6 8 7 9 8 10 11 11 12 12
REMARK SMILES IDX 13 13 14 14 18 15 16 16 15 17 17 19 9 21 1 23 5 25
REMARK H PARENT 15 18 17 20 9 22 1 24 5 26
REMARK Flexibility Score: inf
ROOT
ATOM      1  C   UNL     1      16.922  -6.153  27.505  1.00  0.00     0.402 A 
ATOM      2  O   UNL     1      18.138  -5.614  27.514  1.00  0.00    -0.202 OA
ATOM      3  C   UNL     1      18.437  -4.497  28.170  1.00  0.00     0.368 A 
ATOM      4  C   UNL     1      19.747  -4.010  28.121  1.00  0.00     0.162 A 
ATOM      5  C   UNL     1      20.089  -2.840  28.804  1.00  0.00     0.128 A 
ATOM      6  C   UNL     1      19.119  -2.154  29.539  1.00  0.00     0.093 A 
ATOM      7  C   UNL     1      17.800  -2.622  29.604  1.00  0.00     0.136 A 
ATOM      8  C   UNL     1      17.447  -3.809  28.911  1.00  0.00     0.125 A 
ATOM      9  C   UNL     1      16.148  -4.343  28.908  1.00  0.00     0.078 A 
ATOM     10  C   UNL     1      15.874  -5.515  28.195  1.00  0.00     0.223 A 
ENDROOT
BRANCH   1  11
ATOM     11  C   UNL     1      16.717  -7.406  26.745  1.00  0.00     0.087 A 
ATOM     12  C   UNL     1      17.132  -8.649  27.255  1.00  0.00     0.022 A 
ATOM     13  C   UNL     1      16.949  -9.816  26.509  1.00  0.00     0.051 A 
ATOM     14  C   UNL     1      16.363  -9.758  25.238  1.00  0.00     0.157 A 
ATOM     15  C   UNL     1      16.149  -7.351  25.461  1.00  0.00     0.068 A 
ATOM     16  C   UNL     1      15.964  -8.518  24.711  1.00  0.00     0.158 A 
BRANCH  14  17
ATOM     17  O   UNL     1      16.179 -10.925  24.497  1.00  0.00    -0.504 OA
ATOM     18  H   UNL     1      16.681 -11.777  24.716  1.00  0.00     0.293 HD
ENDBRANCH  14  17
BRANCH  16  19
ATOM     19  O   UNL     1      15.384  -8.425  23.446  1.00  0.00    -0.504 OA
ATOM     20  H   UNL     1      14.383  -8.334  23.318  1.00  0.00     0.293 HD
ENDBRANCH  16  19
ENDBRANCH   1  11
BRANCH  10  21
ATOM     21  O   UNL     1      14.575  -6.019  28.152  1.00  0.00    -0.500 OA
ATOM     22  H   UNL     1      13.776  -5.419  27.980  1.00  0.00     0.294 HD
ENDBRANCH  10  21
BRANCH   5  23
ATOM     23  O   UNL     1      21.391  -2.348  28.761  1.00  0.00    -0.507 OA
ATOM     24  H   UNL     1      21.609  -1.463  28.315  1.00  0.00     0.293 HD
ENDBRANCH   5  23
BRANCH   7  25
ATOM     25  O   UNL     1      16.891  -1.880  30.363  1.00  0.00    -0.507 OA
ATOM     26  H   UNL     1      16.842  -1.896  31.372  1.00  0.00     0.293 HD
ENDBRANCH   7  25
TORSDOF 6
ENDMDL
MODEL 2
REMARK VINA RESULT:    -5.230      7.764     10.726
REMARK INTER + INTRA:          -6.611
REMARK INTER:                  -6.268
REMARK INTRA:                  -0.343
REMARK UNBOUND:                -0.310
REMARK SMILES Oc1cc(O)c2cc(O)c(-c3ccc(O)c(O)c3)[o+]c2c1
REMARK SMILES IDX 10 1 19 2 20 3 21 4 2 5 3 6 4 7 6 8 7 9 8 10 11 11 12 12
REMARK SMILES IDX 13 13 14 14 18 15 16 16 15 17 17 19 9 21 1 23 5 25
REMARK H PARENT 15 18 17 20 9 22 1 24 5 26
REMARK Flexibility Score: inf
ROOT
ATOM      1  C   UNL     1      23.489   0.981  28.311  1.00  0.00     0.402 A 
ATOM      2  O   UNL     1      22.438   1.300  29.062  1.00  0.00    -0.202 OA
ATOM      3  C   UNL     1      21.870   0.458  29.920  1.00  0.00     0.368 A 
ATOM      4  C   UNL     1      20.770   0.888  30.667  1.00  0.00     0.162 A 
ATOM      5  C   UNL     1      20.156   0.024  31.578  1.00  0.00     0.128 A 
ATOM      6  C   UNL     1      20.643  -1.275  31.742  1.00  0.00     0.093 A 
ATOM      7  C   UNL     1      21.744  -1.730  31.005  1.00  0.00     0.136 A 
ATOM      8  C   UNL     1      22.370  -0.857  30.078  1.00  0.00     0.125 A 
ATOM      9  C   UNL     1      23.469  -1.231  29.287  1.00  0.00     0.078 A 
ATOM     10  C   UNL     1      24.030  -0.317  28.389  1.00  0.00     0.223 A 
ENDROOT
BRANCH   1  11
ATOM     11  C   UNL     1      24.038   2.011  27.401  1.00  0.00     0.087 A 
ATOM     12  C   UNL     1      25.166   2.773  27.753  1.00  0.00     0.022 A 
ATOM     13  C   UNL     1      25.653   3.756  26.888  1.00  0.00     0.051 A 
ATOM     14  C   UNL     1      25.013   4.002  25.666  1.00  0.00     0.157 A 
ATOM     15  C   UNL     1      23.389   2.275  26.184  1.00  0.00     0.068 A 
ATOM     16  C   UNL     1      23.874   3.259  25.314  1.00  0.00     0.158 A 
BRANCH  14  17
ATOM     17  O   UNL     1      25.503   4.981  24.803  1.00  0.00    -0.504 OA
ATOM     18  H   UNL     1      26.015   4.741  23.962  1.00  0.00     0.293 HD
ENDBRANCH  14  17
BRANCH  16  19
ATOM     19  O   UNL     1      23.211   3.483  24.109  1.00  0.00    -0.504 OA
ATOM     20  H   UNL     1      22.219   3.305  23.999  1.00  0.00     0.293 HD
ENDBRANCH  16  19
ENDBRANCH   1  11
BRANCH  10  21
ATOM     21  O   UNL     1      25.090  -0.702  27.569  1.00  0.00    -0.500 OA
ATOM     22  H   UNL     1      26.033  -0.366  27.725  1.00  0.00     0.294 HD
ENDBRANCH  10  21
BRANCH   5  23
ATOM     23  O   UNL     1      19.059   0.445  32.327  1.00  0.00    -0.507 OA
ATOM     24  H   UNL     1      18.870   1.429  32.482  1.00  0.00     0.293 HD
ENDBRANCH   5  23
BRANCH   7  25
ATOM     25  O   UNL     1      22.172  -3.041  31.230  1.00  0.00    -0.507 OA
ATOM     26  H   UNL     1      23.137  -3.315  31.341  1.00  0.00     0.293 HD
ENDBRANCH   7  25
TORSDOF 6
ENDMDL
MODEL 3
REMARK VINA RESULT:    -4.962      7.106      9.886
REMARK INTER + INTRA:          -6.288
REMARK INTER:                  -5.957
REMARK INTRA:                  -0.330
REMARK UNBOUND:                -0.310
REMARK SMILES Oc1cc(O)c2cc(O)c(-c3ccc(O)c(O)c3)[o+]c2c1
REMARK SMILES IDX 10 1 19 2 20 3 21 4 2 5 3 6 4 7 6 8 7 9 8 10 11 11 12 12
REMARK SMILES IDX 13 13 14 14 18 15 16 16 15 17 17 19 9 21 1 23 5 25
REMARK H PARENT 15 18 17 20 9 22 1 24 5 26
REMARK Flexibility Score: inf
ROOT
ATOM      1  C   UNL     1      22.195   1.560  28.581  1.00  0.00     0.402 A 
ATOM      2  O   UNL     1      22.853   1.627  27.426  1.00  0.00    -0.202 OA
ATOM      3  C   UNL     1      22.773   2.666  26.600  1.00  0.00     0.368 A 
ATOM      4  C   UNL     1      23.506   2.645  25.409  1.00  0.00     0.162 A 
ATOM      5  C   UNL     1      23.442   3.725  24.524  1.00  0.00     0.128 A 
ATOM      6  C   UNL     1      22.644   4.829  24.830  1.00  0.00     0.093 A 
ATOM      7  C   UNL     1      21.900   4.874  26.016  1.00  0.00     0.136 A 
ATOM      8  C   UNL     1      21.960   3.780  26.918  1.00  0.00     0.125 A 
ATOM      9  C   UNL     1      21.239   3.732  28.122  1.00  0.00     0.078 A 
ATOM     10  C   UNL     1      21.343   2.615  28.957  1.00  0.00     0.223 A 
ENDROOT
BRANCH   1  11
ATOM     11  C   UNL     1      22.375   0.354  29.419  1.00  0.00     0.087 A 
ATOM     12  C   UNL     1      23.223   0.361  30.541  1.00  0.00     0.022 A 
ATOM     13  C   UNL     1      23.395  -0.797  31.304  1.00  0.00     0.051 A 
ATOM     14  C   UNL     1      22.735  -1.981  30.952  1.00  0.00     0.157 A 
ATOM     15  C   UNL     1      21.732  -0.842  29.058  1.00  0.00     0.068 A 
ATOM     16  C   UNL     1      21.902  -2.003  29.821  1.00  0.00     0.158 A 
BRANCH  14  17
ATOM     17  O   UNL     1      22.907  -3.133  31.717  1.00  0.00    -0.504 OA
ATOM     18  H   UNL     1      23.792  -3.625  31.745  1.00  0.00     0.293 HD
ENDBRANCH  14  17
BRANCH  16  19
ATOM     19  O   UNL     1      21.236  -3.167  29.438  1.00  0.00    -0.504 OA
ATOM     20  H   UNL     1      20.726  -3.739  30.102  1.00  0.00     0.293 HD
ENDBRANCH  16  19
ENDBRANCH   1  11
BRANCH  10  21
ATOM     21  O   UNL     1      20.591   2.546  30.129  1.00  0.00    -0.500 OA
ATOM     22  H   UNL     1      20.971   2.156  30.984  1.00  0.00     0.294 HD
ENDBRANCH  10  21
BRANCH   5  23
ATOM     23  O   UNL     1      24.169   3.712  23.336  1.00  0.00    -0.507 OA
ATOM     24  H   UNL     1      24.489   2.844  22.920  1.00  0.00     0.293 HD
ENDBRANCH   5  23
BRANCH   7  25
ATOM     25  O   UNL     1      21.129   6.016  26.250  1.00  0.00    -0.507 OA
ATOM     26  H   UNL     1      21.505   6.948  26.349  1.00  0.00     0.293 HD
ENDBRANCH   7  25
TORSDOF 6
ENDMDL
MODEL 4
REMARK VINA RESULT:    -4.961      1.352      7.118
REMARK INTER + INTRA:          -6.286
REMARK INTER:                  -5.990
REMARK INTRA:                  -0.296
REMARK UNBOUND:                -0.310
REMARK SMILES Oc1cc(O)c2cc(O)c(-c3ccc(O)c(O)c3)[o+]c2c1
REMARK SMILES IDX 10 1 19 2 20 3 21 4 2 5 3 6 4 7 6 8 7 9 8 10 11 11 12 12
REMARK SMILES IDX 13 13 14 14 18 15 16 16 15 17 17 19 9 21 1 23 5 25
REMARK H PARENT 15 18 17 20 9 22 1 24 5 26
REMARK Flexibility Score: inf
ROOT
ATOM      1  C   UNL     1      17.642  -6.600  27.812  1.00  0.00     0.402 A 
ATOM      2  O   UNL     1      17.055  -6.656  26.619  1.00  0.00    -0.202 OA
ATOM      3  C   UNL     1      16.611  -7.786  26.077  1.00  0.00     0.368 A 
ATOM      4  C   UNL     1      16.005  -7.743  24.818  1.00  0.00     0.162 A 
ATOM      5  C   UNL     1      15.527  -8.915  24.226  1.00  0.00     0.128 A 
ATOM      6  C   UNL     1      15.654 -10.134  24.894  1.00  0.00     0.093 A 
ATOM      7  C   UNL     1      16.257 -10.204  26.157  1.00  0.00     0.136 A 
ATOM      8  C   UNL     1      16.747  -9.017  26.761  1.00  0.00     0.125 A 
ATOM      9  C   UNL     1      17.377  -8.994  28.016  1.00  0.00     0.078 A 
ATOM     10  C   UNL     1      17.839  -7.785  28.546  1.00  0.00     0.223 A 
ENDROOT
BRANCH   1  11
ATOM     11  C   UNL     1      18.085  -5.279  28.312  1.00  0.00     0.087 A 
ATOM     12  C   UNL     1      17.165  -4.340  28.813  1.00  0.00     0.022 A 
ATOM     13  C   UNL     1      17.604  -3.090  29.258  1.00  0.00     0.051 A 
ATOM     14  C   UNL     1      18.963  -2.755  29.199  1.00  0.00     0.157 A 
ATOM     15  C   UNL     1      19.443  -4.930  28.236  1.00  0.00     0.068 A 
ATOM     16  C   UNL     1      19.886  -3.680  28.683  1.00  0.00     0.158 A 
BRANCH  14  17
ATOM     17  O   UNL     1      19.397  -1.509  29.647  1.00  0.00    -0.504 OA
ATOM     18  H   UNL     1      20.096  -1.420  30.375  1.00  0.00     0.293 HD
ENDBRANCH  14  17
BRANCH  16  19
ATOM     19  O   UNL     1      21.244  -3.375  28.603  1.00  0.00    -0.504 OA
ATOM     20  H   UNL     1      21.595  -2.627  28.017  1.00  0.00     0.293 HD
ENDBRANCH  16  19
ENDBRANCH   1  11
BRANCH  10  21
ATOM     21  O   UNL     1      18.509  -7.768  29.769  1.00  0.00    -0.500 OA
ATOM     22  H   UNL     1      19.425  -8.185  29.881  1.00  0.00     0.294 HD
ENDBRANCH  10  21
BRANCH   5  23
ATOM     23  O   UNL     1      14.921  -8.880  22.972  1.00  0.00    -0.507 OA
ATOM     24  H   UNL     1      15.446  -9.071  22.125  1.00  0.00     0.293 HD
ENDBRANCH   5  23
BRANCH   7  25
ATOM     25  O   UNL     1      16.343 -11.461  26.760  1.00  0.00    -0.507 OA
ATOM     26  H   UNL     1      15.618 -11.871  27.332  1.00  0.00     0.293 HD
ENDBRANCH   7  25
TORSDOF 6
ENDMDL
MODEL 5
REMARK VINA RESULT:    -4.900      0.870      1.565
REMARK INTER + INTRA:          -6.213
REMARK INTER:                  -5.865
REMARK INTRA:                  -0.348
REMARK UNBOUND:                -0.310
REMARK SMILES Oc1cc(O)c2cc(O)c(-c3ccc(O)c(O)c3)[o+]c2c1
REMARK SMILES IDX 10 1 19 2 20 3 21 4 2 5 3 6 4 7 6 8 7 9 8 10 11 11 12 12
REMARK SMILES IDX 13 13 14 14 18 15 16 16 15 17 17 19 9 21 1 23 5 25
REMARK H PARENT 15 18 17 20 9 22 1 24 5 26
REMARK Flexibility Score: inf
ROOT
ATOM      1  C   UNL     1      16.843  -6.548  27.085  1.00  0.00     0.402 A 
ATOM      2  O   UNL     1      18.052  -5.995  27.150  1.00  0.00    -0.202 OA
ATOM      3  C   UNL     1      18.321  -4.911  27.870  1.00  0.00     0.368 A 
ATOM      4  C   UNL     1      19.624  -4.405  27.876  1.00  0.00     0.162 A 
ATOM      5  C   UNL     1      19.935  -3.268  28.627  1.00  0.00     0.128 A 
ATOM      6  C   UNL     1      18.940  -2.634  29.374  1.00  0.00     0.093 A 
ATOM      7  C   UNL     1      17.626  -3.120  29.384  1.00  0.00     0.136 A 
ATOM      8  C   UNL     1      17.305  -4.274  28.622  1.00  0.00     0.125 A 
ATOM      9  C   UNL     1      16.014  -4.823  28.561  1.00  0.00     0.078 A 
ATOM     10  C   UNL     1      15.772  -5.959  27.783  1.00  0.00     0.223 A 
ENDROOT
BRANCH   1  11
ATOM     11  C   UNL     1      16.672  -7.762  26.256  1.00  0.00     0.087 A 
ATOM     12  C   UNL     1      16.361  -7.677  24.887  1.00  0.00     0.022 A 
ATOM     13  C   UNL     1      16.181  -8.837  24.130  1.00  0.00     0.051 A 
ATOM     14  C   UNL     1      16.298 -10.098  24.729  1.00  0.00     0.157 A 
ATOM     15  C   UNL     1      16.767  -9.029  26.856  1.00  0.00     0.068 A 
ATOM     16  C   UNL     1      16.590 -10.193  26.100  1.00  0.00     0.158 A 
BRANCH  14  17
ATOM     17  O   UNL     1      16.122 -11.253  23.970  1.00  0.00    -0.504 OA
ATOM     18  H   UNL     1      15.867 -11.211  22.990  1.00  0.00     0.293 HD
ENDBRANCH  14  17
BRANCH  16  19
ATOM     19  O   UNL     1      16.705 -11.433  26.728  1.00  0.00    -0.504 OA
ATOM     20  H   UNL     1      16.310 -11.611  27.643  1.00  0.00     0.293 HD
ENDBRANCH  16  19
ENDBRANCH   1  11
BRANCH  10  21
ATOM     21  O   UNL     1      14.480  -6.477  27.684  1.00  0.00    -0.500 OA
ATOM     22  H   UNL     1      14.080  -7.053  28.415  1.00  0.00     0.294 HD
ENDBRANCH  10  21
BRANCH   5  23
ATOM     23  O   UNL     1      21.232  -2.759  28.639  1.00  0.00    -0.507 OA
ATOM     24  H   UNL     1      21.818  -2.783  27.812  1.00  0.00     0.293 HD
ENDBRANCH   5  23
BRANCH   7  25
ATOM     25  O   UNL     1      16.691  -2.430  30.158  1.00  0.00    -0.507 OA
ATOM     26  H   UNL     1      15.723  -2.298  29.901  1.00  0.00     0.293 HD
ENDBRANCH   7  25
TORSDOF 6
ENDMDL
MODEL 6
REMARK VINA RESULT:    -4.884      9.155     12.491
REMARK INTER + INTRA:          -6.194
REMARK INTER:                  -6.104
REMARK INTRA:                  -0.091
REMARK UNBOUND:                -0.310
REMARK SMILES Oc1cc(O)c2cc(O)c(-c3ccc(O)c(O)c3)[o+]c2c1
REMARK SMILES IDX 10 1 19 2 20 3 21 4 2 5 3 6 4 7 6 8 7 9 8 10 11 11 12 12
REMARK SMILES IDX 13 13 14 14 18 15 16 16 15 17 17 19 9 21 1 23 5 25
REMARK H PARENT 15 18 17 20 9 22 1 24 5 26
REMARK Flexibility Score: inf
ROOT
ATOM      1  C   UNL     1      23.755   3.818  25.902  1.00  0.00     0.402 A 
ATOM      2  O   UNL     1      24.234   2.667  26.369  1.00  0.00    -0.202 OA
ATOM      3  C   UNL     1      23.664   1.989  27.361  1.00  0.00     0.368 A 
ATOM      4  C   UNL     1      24.241   0.786  27.780  1.00  0.00     0.162 A 
ATOM      5  C   UNL     1      23.661   0.052  28.818  1.00  0.00     0.128 A 
ATOM      6  C   UNL     1      22.501   0.520  29.439  1.00  0.00     0.093 A 
ATOM      7  C   UNL     1      21.903   1.722  29.036  1.00  0.00     0.136 A 
ATOM      8  C   UNL     1      22.490   2.473  27.984  1.00  0.00     0.125 A 
ATOM      9  C   UNL     1      21.969   3.694  27.525  1.00  0.00     0.078 A 
ATOM     10  C   UNL     1      22.605   4.380  26.487  1.00  0.00     0.223 A 
ENDROOT
BRANCH   1  11
ATOM     11  C   UNL     1      24.474   4.473  24.787  1.00  0.00     0.087 A 
ATOM     12  C   UNL     1      24.935   5.798  24.890  1.00  0.00     0.022 A 
ATOM     13  C   UNL     1      25.591   6.403  23.815  1.00  0.00     0.051 A 
ATOM     14  C   UNL     1      25.786   5.701  22.618  1.00  0.00     0.157 A 
ATOM     15  C   UNL     1      24.654   3.781  23.578  1.00  0.00     0.068 A 
ATOM     16  C   UNL     1      25.312   4.384  22.499  1.00  0.00     0.158 A 
BRANCH  14  17
ATOM     17  O   UNL     1      26.444   6.307  21.550  1.00  0.00    -0.504 OA
ATOM     18  H   UNL     1      26.058   6.295  20.613  1.00  0.00     0.293 HD
ENDBRANCH  14  17
BRANCH  16  19
ATOM     19  O   UNL     1      25.483   3.660  21.320  1.00  0.00    -0.504 OA
ATOM     20  H   UNL     1      26.367   3.636  20.826  1.00  0.00     0.293 HD
ENDBRANCH  16  19
ENDBRANCH   1  11
BRANCH  10  21
ATOM     21  O   UNL     1      22.116   5.616  26.063  1.00  0.00    -0.500 OA
ATOM     22  H   UNL     1      21.636   5.723  25.177  1.00  0.00     0.294 HD
ENDBRANCH  10  21
BRANCH   5  23
ATOM     23  O   UNL     1      24.229  -1.147  29.242  1.00  0.00    -0.507 OA
ATOM     24  H   UNL     1      23.656  -1.927  29.545  1.00  0.00     0.293 HD
ENDBRANCH   5  23
BRANCH   7  25
ATOM     25  O   UNL     1      20.743   2.119  29.705  1.00  0.00    -0.507 OA
ATOM     26  H   UNL     1      20.633   3.003  30.182  1.00  0.00     0.293 HD
ENDBRANCH   7  25
TORSDOF 6
ENDMDL
MODEL 7
REMARK VINA RESULT:    -4.670     10.544     13.016
REMARK INTER + INTRA:          -5.936
REMARK INTER:                  -5.620
REMARK INTRA:                  -0.316
REMARK UNBOUND:                -0.310
REMARK SMILES Oc1cc(O)c2cc(O)c(-c3ccc(O)c(O)c3)[o+]c2c1
REMARK SMILES IDX 10 1 19 2 20 3 21 4 2 5 3 6 4 7 6 8 7 9 8 10 11 11 12 12
REMARK SMILES IDX 13 13 14 14 18 15 16 16 15 17 17 19 9 21 1 23 5 25
REMARK H PARENT 15 18 17 20 9 22 1 24 5 26
REMARK Flexibility Score: inf
ROOT
ATOM      1  C   UNL     1      24.315   4.044  26.281  1.00  0.00     0.402 A 
ATOM      2  O   UNL     1      23.084   4.338  26.693  1.00  0.00    -0.202 OA
ATOM      3  C   UNL     1      22.543   3.830  27.796  1.00  0.00     0.368 A 
ATOM      4  C   UNL     1      21.243   4.202  28.149  1.00  0.00     0.162 A 
ATOM      5  C   UNL     1      20.651   3.685  29.304  1.00  0.00     0.128 A 
ATOM      6  C   UNL     1      21.361   2.793  30.111  1.00  0.00     0.093 A 
ATOM      7  C   UNL     1      22.666   2.404  29.779  1.00  0.00     0.136 A 
ATOM      8  C   UNL     1      23.270   2.925  28.605  1.00  0.00     0.125 A 
ATOM      9  C   UNL     1      24.567   2.581  28.188  1.00  0.00     0.078 A 
ATOM     10  C   UNL     1      25.094   3.131  27.015  1.00  0.00     0.223 A 
ENDROOT
BRANCH   1  11
ATOM     11  C   UNL     1      24.809   4.684  25.041  1.00  0.00     0.087 A 
ATOM     12  C   UNL     1      25.271   6.012  25.036  1.00  0.00     0.022 A 
ATOM     13  C   UNL     1      25.711   6.603  23.848  1.00  0.00     0.051 A 
ATOM     14  C   UNL     1      25.683   5.882  22.647  1.00  0.00     0.157 A 
ATOM     15  C   UNL     1      24.764   3.973  23.830  1.00  0.00     0.068 A 
ATOM     16  C   UNL     1      25.205   4.561  22.639  1.00  0.00     0.158 A 
BRANCH  14  17
ATOM     17  O   UNL     1      26.125   6.473  21.465  1.00  0.00    -0.504 OA
ATOM     18  H   UNL     1      26.342   5.921  20.643  1.00  0.00     0.293 HD
ENDBRANCH  14  17
BRANCH  16  19
ATOM     19  O   UNL     1      25.157   3.818  21.460  1.00  0.00    -0.504 OA
ATOM     20  H   UNL     1      24.285   3.481  21.071  1.00  0.00     0.293 HD
ENDBRANCH  16  19
ENDBRANCH   1  11
BRANCH  10  21
ATOM     21  O   UNL     1      26.362   2.753  26.574  1.00  0.00    -0.500 OA
ATOM     22  H   UNL     1      26.487   2.100  25.809  1.00  0.00     0.294 HD
ENDBRANCH  10  21
BRANCH   5  23
ATOM     23  O   UNL     1      19.356   4.051  29.663  1.00  0.00    -0.507 OA
ATOM     24  H   UNL     1      19.145   4.981  30.009  1.00  0.00     0.293 HD
ENDBRANCH   5  23
BRANCH   7  25
ATOM     25  O   UNL     1      23.309   1.511  30.639  1.00  0.00    -0.507 OA
ATOM     26  H   UNL     1      24.023   1.772  31.304  1.00  0.00     0.293 HD
ENDBRANCH   7  25
TORSDOF 6
ENDMDL
MODEL 8
REMARK VINA RESULT:    -4.643      6.688     10.379
REMARK INTER + INTRA:          -5.904
REMARK INTER:                  -5.551
REMARK INTRA:                  -0.353
REMARK UNBOUND:                -0.310
REMARK SMILES Oc1cc(O)c2cc(O)c(-c3ccc(O)c(O)c3)[o+]c2c1
REMARK SMILES IDX 10 1 19 2 20 3 21 4 2 5 3 6 4 7 6 8 7 9 8 10 11 11 12 12
REMARK SMILES IDX 13 13 14 14 18 15 16 16 15 17 17 19 9 21 1 23 5 25
REMARK H PARENT 15 18 17 20 9 22 1 24 5 26
REMARK Flexibility Score: inf
ROOT
ATOM      1  C   UNL     1      22.279   1.624  28.529  1.00  0.00     0.402 A 
ATOM      2  O   UNL     1      22.232   0.297  28.616  1.00  0.00    -0.202 OA
ATOM      3  C   UNL     1      21.552  -0.349  29.558  1.00  0.00     0.368 A 
ATOM      4  C   UNL     1      21.560  -1.747  29.564  1.00  0.00     0.162 A 
ATOM      5  C   UNL     1      20.852  -2.452  30.541  1.00  0.00     0.128 A 
ATOM      6  C   UNL     1      20.131  -1.757  31.515  1.00  0.00     0.093 A 
ATOM      7  C   UNL     1      20.106  -0.356  31.531  1.00  0.00     0.136 A 
ATOM      8  C   UNL     1      20.826   0.364  30.542  1.00  0.00     0.125 A 
ATOM      9  C   UNL     1      20.870   1.767  30.488  1.00  0.00     0.078 A 
ATOM     10  C   UNL     1      21.606   2.407  29.486  1.00  0.00     0.223 A 
ENDROOT
BRANCH   1  11
ATOM     11  C   UNL     1      23.063   2.226  27.428  1.00  0.00     0.087 A 
ATOM     12  C   UNL     1      22.453   2.614  26.221  1.00  0.00     0.022 A 
ATOM     13  C   UNL     1      23.217   3.158  25.186  1.00  0.00     0.051 A 
ATOM     14  C   UNL     1      24.602   3.312  25.335  1.00  0.00     0.157 A 
ATOM     15  C   UNL     1      24.454   2.363  27.563  1.00  0.00     0.068 A 
ATOM     16  C   UNL     1      25.223   2.909  26.529  1.00  0.00     0.158 A 
BRANCH  14  17
ATOM     17  O   UNL     1      25.361   3.858  24.301  1.00  0.00    -0.504 OA
ATOM     18  H   UNL     1      25.779   4.778  24.378  1.00  0.00     0.293 HD
ENDBRANCH  14  17
BRANCH  16  19
ATOM     19  O   UNL     1      26.599   3.042  26.706  1.00  0.00    -0.504 OA
ATOM     20  H   UNL     1      27.028   3.026  27.624  1.00  0.00     0.293 HD
ENDBRANCH  16  19
ENDBRANCH   1  11
BRANCH  10  21
ATOM     21  O   UNL     1      21.689   3.799  29.461  1.00  0.00    -0.500 OA
ATOM     22  H   UNL     1      21.393   4.335  28.654  1.00  0.00     0.294 HD
ENDBRANCH  10  21
BRANCH   5  23
ATOM     23  O   UNL     1      20.855  -3.845  30.554  1.00  0.00    -0.507 OA
ATOM     24  H   UNL     1      21.314  -4.380  29.825  1.00  0.00     0.293 HD
ENDBRANCH   5  23
BRANCH   7  25
ATOM     25  O   UNL     1      19.360   0.263  32.536  1.00  0.00    -0.507 OA
ATOM     26  H   UNL     1      19.388   0.002  33.511  1.00  0.00     0.293 HD
ENDBRANCH   7  25
TORSDOF 6
ENDMDL
MODEL 9
REMARK VINA RESULT:    -4.537      6.944     10.495
REMARK INTER + INTRA:          -5.776
REMARK INTER:                  -5.452
REMARK INTRA:                  -0.324
REMARK UNBOUND:                -0.310
REMARK SMILES Oc1cc(O)c2cc(O)c(-c3ccc(O)c(O)c3)[o+]c2c1
REMARK SMILES IDX 10 1 19 2 20 3 21 4 2 5 3 6 4 7 6 8 7 9 8 10 11 11 12 12
REMARK SMILES IDX 13 13 14 14 18 15 16 16 15 17 17 19 9 21 1 23 5 25
REMARK H PARENT 15 18 17 20 9 22 1 24 5 26
REMARK Flexibility Score: inf
ROOT
ATOM      1  C   UNL     1      22.426   2.020  28.182  1.00  0.00     0.402 A 
ATOM      2  O   UNL     1      22.433   0.695  28.307  1.00  0.00    -0.202 OA
ATOM      3  C   UNL     1      21.772   0.048  29.261  1.00  0.00     0.368 A 
ATOM      4  C   UNL     1      21.838  -1.347  29.308  1.00  0.00     0.162 A 
ATOM      5  C   UNL     1      21.150  -2.052  30.300  1.00  0.00     0.128 A 
ATOM      6  C   UNL     1      20.393  -1.360  31.248  1.00  0.00     0.093 A 
ATOM      7  C   UNL     1      20.310   0.038  31.222  1.00  0.00     0.136 A 
ATOM      8  C   UNL     1      21.009   0.759  30.218  1.00  0.00     0.125 A 
ATOM      9  C   UNL     1      20.995   2.160  30.124  1.00  0.00     0.078 A 
ATOM     10  C   UNL     1      21.713   2.801  29.111  1.00  0.00     0.223 A 
ENDROOT
BRANCH   1  11
ATOM     11  C   UNL     1      23.195   2.622  27.070  1.00  0.00     0.087 A 
ATOM     12  C   UNL     1      24.583   2.831  27.167  1.00  0.00     0.022 A 
ATOM     13  C   UNL     1      25.283   3.422  26.113  1.00  0.00     0.051 A 
ATOM     14  C   UNL     1      24.609   3.824  24.952  1.00  0.00     0.157 A 
ATOM     15  C   UNL     1      22.521   3.046  25.913  1.00  0.00     0.068 A 
ATOM     16  C   UNL     1      23.220   3.637  24.854  1.00  0.00     0.158 A 
BRANCH  14  17
ATOM     17  O   UNL     1      25.312   4.411  23.901  1.00  0.00    -0.504 OA
ATOM     18  H   UNL     1      25.763   5.312  24.002  1.00  0.00     0.293 HD
ENDBRANCH  14  17
BRANCH  16  19
ATOM     19  O   UNL     1      22.518   4.032  23.716  1.00  0.00    -0.504 OA
ATOM     20  H   UNL     1      21.597   3.671  23.499  1.00  0.00     0.293 HD
ENDBRANCH  16  19
ENDBRANCH   1  11
BRANCH  10  21
ATOM     21  O   UNL     1      21.740   4.194  29.045  1.00  0.00    -0.500 OA
ATOM     22  H   UNL     1      21.429   4.695  28.220  1.00  0.00     0.294 HD
ENDBRANCH  10  21
BRANCH   5  23
ATOM     23  O   UNL     1      21.211  -3.443  30.353  1.00  0.00    -0.507 OA
ATOM     24  H   UNL     1      20.506  -4.021  29.909  1.00  0.00     0.293 HD
ENDBRANCH   5  23
BRANCH   7  25
ATOM     25  O   UNL     1      19.530   0.655  32.203  1.00  0.00    -0.507 OA
ATOM     26  H   UNL     1      19.422   1.654  32.303  1.00  0.00     0.293 HD
ENDBRANCH   7  25
TORSDOF 6
ENDMDL
