MODEL 1
REMARK VINA RESULT:    -2.441      0.000      0.000
REMARK INTER + INTRA:          -6.636
REMARK INTER:                  -5.296
REMARK INTRA:                  -1.340
REMARK UNBOUND:                -1.340
REMARK SMILES CCCCCCCCCCCCCCCCCCCCCC(=O)[O-]
REMARK SMILES IDX 12 1 11 2 10 3 9 4 8 5 7 6 6 7 5 8 4 9 3 10 2 11 1 12 13 13
REMARK SMILES IDX 14 14 15 15 16 16 17 17 18 18 19 19 20 20 21 21 22 22 23 23
REMARK SMILES IDX 24 24
REMARK H PARENT
REMARK Flexibility Score: inf
ROOT
ATOM      1  C   UNL     1     -10.355  -3.221  -2.091  1.00  0.00     0.000 C 
ENDROOT
BRANCH   1   2
ATOM      2  C   UNL     1      -8.826  -3.212  -2.234  1.00  0.00     0.000 C 
BRANCH   2   3
ATOM      3  C   UNL     1      -8.172  -2.486  -1.051  1.00  0.00     0.000 C 
BRANCH   3   4
ATOM      4  C   UNL     1      -7.724  -1.075  -1.448  1.00  0.00    -0.000 C 
BRANCH   4   5
ATOM      5  C   UNL     1      -8.554  -0.010  -0.721  1.00  0.00    -0.000 C 
BRANCH   5   6
ATOM      6  C   UNL     1      -7.812   1.333  -0.671  1.00  0.00    -0.000 C 
BRANCH   6   7
ATOM      7  C   UNL     1      -8.755   2.532  -0.460  1.00  0.00    -0.000 C 
BRANCH   7   8
ATOM      8  C   UNL     1      -8.380   3.450   0.718  1.00  0.00    -0.000 C 
BRANCH   8   9
ATOM      9  C   UNL     1      -8.601   4.940   0.407  1.00  0.00    -0.000 C 
BRANCH   9  10
ATOM     10  C   UNL     1      -9.112   5.181  -1.024  1.00  0.00    -0.000 C 
BRANCH  10  11
ATOM     11  C   UNL     1      -9.090   6.653  -1.475  1.00  0.00    -0.003 C 
ATOM     12  C   UNL     1      -8.922   7.633  -0.314  1.00  0.00     0.004 C 
ENDBRANCH  10  11
ENDBRANCH   9  10
ENDBRANCH   8   9
ENDBRANCH   7   8
ENDBRANCH   6   7
ENDBRANCH   5   6
ENDBRANCH   4   5
ENDBRANCH   3   4
ENDBRANCH   2   3
ENDBRANCH   1   2
BRANCH   1  13
ATOM     13  C   UNL     1     -11.072  -3.583  -3.403  1.00  0.00     0.000 C 
BRANCH  13  14
ATOM     14  C   UNL     1     -10.127  -4.231  -4.431  1.00  0.00     0.000 C 
BRANCH  14  15
ATOM     15  C   UNL     1     -10.879  -4.838  -5.626  1.00  0.00     0.000 C 
BRANCH  15  16
ATOM     16  C   UNL     1     -10.735  -3.996  -6.906  1.00  0.00     0.000 C 
BRANCH  16  17
ATOM     17  C   UNL     1     -10.581  -4.855  -8.175  1.00  0.00     0.000 C 
BRANCH  17  18
ATOM     18  C   UNL     1      -9.352  -4.533  -9.045  1.00  0.00     0.000 C 
BRANCH  18  19
ATOM     19  C   UNL     1      -8.277  -5.633  -8.996  1.00  0.00     0.000 C 
BRANCH  19  20
ATOM     20  C   UNL     1      -7.428  -5.586  -7.713  1.00  0.00     0.006 C 
BRANCH  20  21
ATOM     21  C   UNL     1      -7.860  -6.601  -6.638  1.00  0.00     0.053 C 
BRANCH  21  22
ATOM     22  C   UNL     1      -6.923  -6.644  -5.470  1.00  0.00     0.041 C 
ATOM     23  O   UNL     1      -5.705  -6.913  -5.641  1.00  0.00    -0.550 OA
ATOM     24  O   UNL     1      -7.402  -6.417  -4.186  1.00  0.00    -0.550 OA
ENDBRANCH  21  22
ENDBRANCH  20  21
ENDBRANCH  19  20
ENDBRANCH  18  19
ENDBRANCH  17  18
ENDBRANCH  16  17
ENDBRANCH  15  16
ENDBRANCH  14  15
ENDBRANCH  13  14
ENDBRANCH   1  13
TORSDOF 20
ENDMDL
MODEL 2
REMARK VINA RESULT:    -2.438      4.421     10.995
REMARK INTER + INTRA:          -6.628
REMARK INTER:                  -5.342
REMARK INTRA:                  -1.287
REMARK UNBOUND:                -1.340
REMARK SMILES CCCCCCCCCCCCCCCCCCCCCC(=O)[O-]
REMARK SMILES IDX 12 1 11 2 10 3 9 4 8 5 7 6 6 7 5 8 4 9 3 10 2 11 1 12 13 13
REMARK SMILES IDX 14 14 15 15 16 16 17 17 18 18 19 19 20 20 21 21 22 22 23 23
REMARK SMILES IDX 24 24
REMARK H PARENT
REMARK Flexibility Score: inf
ROOT
ATOM      1  C   UNL     1      -9.397  -3.353  -1.125  1.00  0.00     0.000 C 
ENDROOT
BRANCH   1   2
ATOM      2  C   UNL     1     -10.840  -3.370  -1.653  1.00  0.00     0.000 C 
BRANCH   2   3
ATOM      3  C   UNL     1     -10.859  -3.460  -3.184  1.00  0.00     0.000 C 
BRANCH   3   4
ATOM      4  C   UNL     1     -10.113  -4.707  -3.674  1.00  0.00    -0.000 C 
BRANCH   4   5
ATOM      5  C   UNL     1     -10.842  -5.351  -4.860  1.00  0.00    -0.000 C 
BRANCH   5   6
ATOM      6  C   UNL     1     -10.901  -4.395  -6.059  1.00  0.00    -0.000 C 
BRANCH   6   7
ATOM      7  C   UNL     1     -10.535  -5.077  -7.390  1.00  0.00    -0.000 C 
BRANCH   7   8
ATOM      8  C   UNL     1     -10.077  -6.541  -7.263  1.00  0.00    -0.000 C 
BRANCH   8   9
ATOM      9  C   UNL     1      -8.760  -6.821  -8.005  1.00  0.00    -0.000 C 
BRANCH   9  10
ATOM     10  C   UNL     1      -7.560  -6.078  -7.393  1.00  0.00    -0.000 C 
BRANCH  10  11
ATOM     11  C   UNL     1      -7.492  -6.123  -5.856  1.00  0.00    -0.003 C 
ATOM     12  C   UNL     1      -7.188  -7.517  -5.310  1.00  0.00     0.004 C 
ENDBRANCH  10  11
ENDBRANCH   9  10
ENDBRANCH   8   9
ENDBRANCH   7   8
ENDBRANCH   6   7
ENDBRANCH   5   6
ENDBRANCH   4   5
ENDBRANCH   3   4
ENDBRANCH   2   3
ENDBRANCH   1   2
BRANCH   1  13
ATOM     13  C   UNL     1      -8.505  -2.346  -1.871  1.00  0.00     0.000 C 
BRANCH  13  14
ATOM     14  C   UNL     1      -8.003  -1.214  -0.957  1.00  0.00     0.000 C 
BRANCH  14  15
ATOM     15  C   UNL     1      -6.874  -0.392  -1.599  1.00  0.00     0.000 C 
BRANCH  15  16
ATOM     16  C   UNL     1      -6.915   1.091  -1.192  1.00  0.00     0.000 C 
BRANCH  16  17
ATOM     17  C   UNL     1      -8.204   1.473  -0.443  1.00  0.00     0.000 C 
BRANCH  17  18
ATOM     18  C   UNL     1      -8.633   2.947  -0.575  1.00  0.00     0.000 C 
BRANCH  18  19
ATOM     19  C   UNL     1      -8.333   3.774   0.688  1.00  0.00     0.000 C 
BRANCH  19  20
ATOM     20  C   UNL     1      -8.834   5.226   0.587  1.00  0.00     0.006 C 
BRANCH  20  21
ATOM     21  C   UNL     1      -9.068   5.709  -0.857  1.00  0.00     0.053 C 
BRANCH  21  22
ATOM     22  C   UNL     1      -9.044   7.202  -0.980  1.00  0.00     0.041 C 
ATOM     23  O   UNL     1      -8.853   7.922   0.035  1.00  0.00    -0.550 OA
ATOM     24  O   UNL     1      -9.265   7.801  -2.215  1.00  0.00    -0.550 OA
ENDBRANCH  21  22
ENDBRANCH  20  21
ENDBRANCH  19  20
ENDBRANCH  18  19
ENDBRANCH  17  18
ENDBRANCH  16  17
ENDBRANCH  15  16
ENDBRANCH  14  15
ENDBRANCH  13  14
ENDBRANCH   1  13
TORSDOF 20
ENDMDL
MODEL 3
REMARK VINA RESULT:    -2.387      5.099      7.812
REMARK INTER + INTRA:          -6.518
REMARK INTER:                  -4.993
REMARK INTRA:                  -1.525
REMARK UNBOUND:                -1.340
REMARK SMILES CCCCCCCCCCCCCCCCCCCCCC(=O)[O-]
REMARK SMILES IDX 12 1 11 2 10 3 9 4 8 5 7 6 6 7 5 8 4 9 3 10 2 11 1 12 13 13
REMARK SMILES IDX 14 14 15 15 16 16 17 17 18 18 19 19 20 20 21 21 22 22 23 23
REMARK SMILES IDX 24 24
REMARK H PARENT
REMARK Flexibility Score: inf
ROOT
ATOM      1  C   UNL     1      -8.086  -6.336  -8.258  1.00  0.00     0.000 C 
ENDROOT
BRANCH   1   2
ATOM      2  C   UNL     1      -9.300  -6.900  -7.505  1.00  0.00     0.000 C 
BRANCH   2   3
ATOM      3  C   UNL     1      -9.001  -7.029  -6.006  1.00  0.00     0.000 C 
BRANCH   3   4
ATOM      4  C   UNL     1      -7.668  -7.750  -5.768  1.00  0.00    -0.000 C 
BRANCH   4   5
ATOM      5  C   UNL     1      -6.821  -7.006  -4.728  1.00  0.00    -0.000 C 
BRANCH   5   6
ATOM      6  C   UNL     1      -6.485  -5.585  -5.202  1.00  0.00    -0.000 C 
BRANCH   6   7
ATOM      7  C   UNL     1      -5.301  -5.544  -6.185  1.00  0.00    -0.000 C 
BRANCH   7   8
ATOM      8  C   UNL     1      -3.941  -5.939  -5.580  1.00  0.00    -0.000 C 
BRANCH   8   9
ATOM      9  C   UNL     1      -2.802  -4.999  -6.008  1.00  0.00    -0.000 C 
BRANCH   9  10
ATOM     10  C   UNL     1      -2.620  -3.808  -5.052  1.00  0.00    -0.000 C 
BRANCH  10  11
ATOM     11  C   UNL     1      -3.458  -2.566  -5.406  1.00  0.00    -0.003 C 
ATOM     12  C   UNL     1      -2.623  -1.426  -5.988  1.00  0.00     0.004 C 
ENDBRANCH  10  11
ENDBRANCH   9  10
ENDBRANCH   8   9
ENDBRANCH   7   8
ENDBRANCH   6   7
ENDBRANCH   5   6
ENDBRANCH   4   5
ENDBRANCH   3   4
ENDBRANCH   2   3
ENDBRANCH   1   2
BRANCH   1  13
ATOM     13  C   UNL     1      -8.441  -5.844  -9.671  1.00  0.00     0.000 C 
BRANCH  13  14
ATOM     14  C   UNL     1      -9.838  -6.307 -10.123  1.00  0.00     0.000 C 
BRANCH  14  15
ATOM     15  C   UNL     1     -10.916  -5.234  -9.901  1.00  0.00     0.000 C 
BRANCH  15  16
ATOM     16  C   UNL     1     -10.332  -3.902  -9.399  1.00  0.00     0.000 C 
BRANCH  16  17
ATOM     17  C   UNL     1     -11.004  -3.400  -8.108  1.00  0.00     0.000 C 
BRANCH  17  18
ATOM     18  C   UNL     1     -10.863  -4.327  -6.886  1.00  0.00     0.000 C 
BRANCH  18  19
ATOM     19  C   UNL     1     -10.935  -3.572  -5.548  1.00  0.00     0.000 C 
BRANCH  19  20
ATOM     20  C   UNL     1     -10.659  -4.476  -4.333  1.00  0.00     0.006 C 
BRANCH  20  21
ATOM     21  C   UNL     1     -10.618  -3.723  -2.989  1.00  0.00     0.053 C 
BRANCH  21  22
ATOM     22  C   UNL     1      -9.243  -3.670  -2.397  1.00  0.00     0.041 C 
ATOM     23  O   UNL     1      -8.394  -2.847  -2.831  1.00  0.00    -0.550 OA
ATOM     24  O   UNL     1      -8.888  -4.553  -1.384  1.00  0.00    -0.550 OA
ENDBRANCH  21  22
ENDBRANCH  20  21
ENDBRANCH  19  20
ENDBRANCH  18  19
ENDBRANCH  17  18
ENDBRANCH  16  17
ENDBRANCH  15  16
ENDBRANCH  14  15
ENDBRANCH  13  14
ENDBRANCH   1  13
TORSDOF 20
ENDMDL
MODEL 4
REMARK VINA RESULT:    -2.129      2.013      2.475
REMARK INTER + INTRA:          -5.958
REMARK INTER:                  -4.850
REMARK INTRA:                  -1.109
REMARK UNBOUND:                -1.340
REMARK SMILES CCCCCCCCCCCCCCCCCCCCCC(=O)[O-]
REMARK SMILES IDX 12 1 11 2 10 3 9 4 8 5 7 6 6 7 5 8 4 9 3 10 2 11 1 12 13 13
REMARK SMILES IDX 14 14 15 15 16 16 17 17 18 18 19 19 20 20 21 21 22 22 23 23
REMARK SMILES IDX 24 24
REMARK H PARENT
REMARK Flexibility Score: inf
ROOT
ATOM      1  C   UNL     1      -9.874  -3.800  -2.184  1.00  0.00     0.000 C 
ENDROOT
BRANCH   1   2
ATOM      2  C   UNL     1      -8.514  -3.087  -2.205  1.00  0.00     0.000 C 
BRANCH   2   3
ATOM      3  C   UNL     1      -8.292  -2.297  -0.909  1.00  0.00     0.000 C 
BRANCH   3   4
ATOM      4  C   UNL     1      -7.634  -0.941  -1.193  1.00  0.00    -0.000 C 
BRANCH   4   5
ATOM      5  C   UNL     1      -8.502   0.210  -0.669  1.00  0.00    -0.000 C 
BRANCH   5   6
ATOM      6  C   UNL     1      -7.715   1.527  -0.639  1.00  0.00    -0.000 C 
BRANCH   6   7
ATOM      7  C   UNL     1      -8.622   2.766  -0.525  1.00  0.00    -0.000 C 
BRANCH   7   8
ATOM      8  C   UNL     1      -8.234   3.753   0.591  1.00  0.00    -0.000 C 
BRANCH   8   9
ATOM      9  C   UNL     1      -8.866   5.143   0.406  1.00  0.00    -0.000 C 
BRANCH   9  10
ATOM     10  C   UNL     1      -8.964   5.561  -1.071  1.00  0.00    -0.000 C 
BRANCH  10  11
ATOM     11  C   UNL     1      -9.180   7.069  -1.300  1.00  0.00    -0.003 C 
ATOM     12  C   UNL     1      -8.693   7.928  -0.134  1.00  0.00     0.004 C 
ENDBRANCH  10  11
ENDBRANCH   9  10
ENDBRANCH   8   9
ENDBRANCH   7   8
ENDBRANCH   6   7
ENDBRANCH   5   6
ENDBRANCH   4   5
ENDBRANCH   3   4
ENDBRANCH   2   3
ENDBRANCH   1   2
BRANCH   1  13
ATOM     13  C   UNL     1     -10.888  -3.175  -3.156  1.00  0.00     0.000 C 
BRANCH  13  14
ATOM     14  C   UNL     1     -11.108  -4.036  -4.413  1.00  0.00     0.000 C 
BRANCH  14  15
ATOM     15  C   UNL     1     -10.400  -5.397  -4.328  1.00  0.00     0.000 C 
BRANCH  15  16
ATOM     16  C   UNL     1      -9.395  -5.614  -5.474  1.00  0.00     0.000 C 
BRANCH  16  17
ATOM     17  C   UNL     1      -9.052  -7.098  -5.699  1.00  0.00     0.000 C 
BRANCH  17  18
ATOM     18  C   UNL     1      -7.549  -7.436  -5.694  1.00  0.00     0.000 C 
BRANCH  18  19
ATOM     19  C   UNL     1      -6.693  -6.357  -5.008  1.00  0.00     0.000 C 
BRANCH  19  20
ATOM     20  C   UNL     1      -5.254  -6.296  -5.552  1.00  0.00     0.006 C 
BRANCH  20  21
ATOM     21  C   UNL     1      -4.850  -4.916  -6.103  1.00  0.00     0.053 C 
BRANCH  21  22
ATOM     22  C   UNL     1      -3.485  -4.490  -5.656  1.00  0.00     0.041 C 
ATOM     23  O   UNL     1      -2.544  -5.325  -5.602  1.00  0.00    -0.550 OA
ATOM     24  O   UNL     1      -3.259  -3.175  -5.269  1.00  0.00    -0.550 OA
ENDBRANCH  21  22
ENDBRANCH  20  21
ENDBRANCH  19  20
ENDBRANCH  18  19
ENDBRANCH  17  18
ENDBRANCH  16  17
ENDBRANCH  15  16
ENDBRANCH  14  15
ENDBRANCH  13  14
ENDBRANCH   1  13
TORSDOF 20
ENDMDL
MODEL 5
REMARK VINA RESULT:    -2.091      4.491     10.392
REMARK INTER + INTRA:          -5.876
REMARK INTER:                  -4.981
REMARK INTRA:                  -0.895
REMARK UNBOUND:                -1.340
REMARK SMILES CCCCCCCCCCCCCCCCCCCCCC(=O)[O-]
REMARK SMILES IDX 12 1 11 2 10 3 9 4 8 5 7 6 6 7 5 8 4 9 3 10 2 11 1 12 13 13
REMARK SMILES IDX 14 14 15 15 16 16 17 17 18 18 19 19 20 20 21 21 22 22 23 23
REMARK SMILES IDX 24 24
REMARK H PARENT
REMARK Flexibility Score: inf
ROOT
ATOM      1  C   UNL     1     -10.757  -4.350  -2.588  1.00  0.00     0.000 C 
ENDROOT
BRANCH   1   2
ATOM      2  C   UNL     1     -11.081  -3.372  -3.726  1.00  0.00     0.000 C 
BRANCH   2   3
ATOM      3  C   UNL     1     -10.840  -4.026  -5.092  1.00  0.00     0.000 C 
BRANCH   3   4
ATOM      4  C   UNL     1     -10.333  -5.465  -4.935  1.00  0.00    -0.000 C 
BRANCH   4   5
ATOM      5  C   UNL     1      -9.468  -5.875  -6.133  1.00  0.00    -0.000 C 
BRANCH   5   6
ATOM      6  C   UNL     1      -8.358  -6.847  -5.708  1.00  0.00    -0.000 C 
BRANCH   6   7
ATOM      7  C   UNL     1      -7.024  -6.590  -6.433  1.00  0.00    -0.000 C 
BRANCH   7   8
ATOM      8  C   UNL     1      -5.834  -6.274  -5.509  1.00  0.00    -0.000 C 
BRANCH   8   9
ATOM      9  C   UNL     1      -4.967  -5.115  -6.026  1.00  0.00    -0.000 C 
BRANCH   9  10
ATOM     10  C   UNL     1      -3.460  -5.382  -5.872  1.00  0.00    -0.000 C 
BRANCH  10  11
ATOM     11  C   UNL     1      -2.656  -4.209  -5.282  1.00  0.00    -0.003 C 
ATOM     12  C   UNL     1      -3.339  -2.856  -5.477  1.00  0.00     0.004 C 
ENDBRANCH  10  11
ENDBRANCH   9  10
ENDBRANCH   8   9
ENDBRANCH   7   8
ENDBRANCH   6   7
ENDBRANCH   5   6
ENDBRANCH   4   5
ENDBRANCH   3   4
ENDBRANCH   2   3
ENDBRANCH   1   2
BRANCH   1  13
ATOM     13  C   UNL     1      -9.437  -4.012  -1.874  1.00  0.00     0.000 C 
BRANCH  13  14
ATOM     14  C   UNL     1      -9.276  -2.504  -1.614  1.00  0.00     0.000 C 
BRANCH  14  15
ATOM     15  C   UNL     1      -7.879  -2.140  -1.086  1.00  0.00     0.000 C 
BRANCH  15  16
ATOM     16  C   UNL     1      -7.475  -0.695  -1.427  1.00  0.00     0.000 C 
BRANCH  16  17
ATOM     17  C   UNL     1      -8.147   0.348  -0.516  1.00  0.00     0.000 C 
BRANCH  17  18
ATOM     18  C   UNL     1      -7.702   1.806  -0.740  1.00  0.00     0.000 C 
BRANCH  18  19
ATOM     19  C   UNL     1      -8.517   2.815   0.086  1.00  0.00     0.000 C 
BRANCH  19  20
ATOM     20  C   UNL     1      -8.832   4.109  -0.688  1.00  0.00     0.006 C 
BRANCH  20  21
ATOM     21  C   UNL     1      -8.828   5.378   0.185  1.00  0.00     0.053 C 
BRANCH  21  22
ATOM     22  C   UNL     1      -8.900   6.638  -0.623  1.00  0.00     0.041 C 
ATOM     23  O   UNL     1      -8.899   7.760  -0.052  1.00  0.00    -0.550 OA
ATOM     24  O   UNL     1      -9.002   6.571  -2.007  1.00  0.00    -0.550 OA
ENDBRANCH  21  22
ENDBRANCH  20  21
ENDBRANCH  19  20
ENDBRANCH  18  19
ENDBRANCH  17  18
ENDBRANCH  16  17
ENDBRANCH  15  16
ENDBRANCH  14  15
ENDBRANCH  13  14
ENDBRANCH   1  13
TORSDOF 20
ENDMDL
MODEL 6
REMARK VINA RESULT:    -1.962      1.966      2.629
REMARK INTER + INTRA:          -5.596
REMARK INTER:                  -4.313
REMARK INTRA:                  -1.282
REMARK UNBOUND:                -1.340
REMARK SMILES CCCCCCCCCCCCCCCCCCCCCC(=O)[O-]
REMARK SMILES IDX 12 1 11 2 10 3 9 4 8 5 7 6 6 7 5 8 4 9 3 10 2 11 1 12 13 13
REMARK SMILES IDX 14 14 15 15 16 16 17 17 18 18 19 19 20 20 21 21 22 22 23 23
REMARK SMILES IDX 24 24
REMARK H PARENT
REMARK Flexibility Score: inf
ROOT
ATOM      1  C   UNL     1      -8.650  -3.848  -1.647  1.00  0.00     0.000 C 
ENDROOT
BRANCH   1   2
ATOM      2  C   UNL     1      -8.461  -2.408  -2.147  1.00  0.00     0.000 C 
BRANCH   2   3
ATOM      3  C   UNL     1      -7.553  -1.617  -1.197  1.00  0.00     0.000 C 
BRANCH   3   4
ATOM      4  C   UNL     1      -8.332  -0.507  -0.482  1.00  0.00    -0.000 C 
BRANCH   4   5
ATOM      5  C   UNL     1      -7.725   0.870  -0.779  1.00  0.00    -0.000 C 
BRANCH   5   6
ATOM      6  C   UNL     1      -8.745   1.990  -0.534  1.00  0.00    -0.000 C 
BRANCH   6   7
ATOM      7  C   UNL     1      -8.095   3.382  -0.432  1.00  0.00    -0.000 C 
BRANCH   7   8
ATOM      8  C   UNL     1      -8.537   4.216   0.785  1.00  0.00    -0.000 C 
BRANCH   8   9
ATOM      9  C   UNL     1      -8.984   5.637   0.405  1.00  0.00    -0.000 C 
BRANCH   9  10
ATOM     10  C   UNL     1      -9.209   5.807  -1.107  1.00  0.00    -0.000 C 
BRANCH  10  11
ATOM     11  C   UNL     1      -9.119   7.259  -1.611  1.00  0.00    -0.003 C 
ATOM     12  C   UNL     1      -8.875   8.269  -0.490  1.00  0.00     0.004 C 
ENDBRANCH  10  11
ENDBRANCH   9  10
ENDBRANCH   8   9
ENDBRANCH   7   8
ENDBRANCH   6   7
ENDBRANCH   5   6
ENDBRANCH   4   5
ENDBRANCH   3   4
ENDBRANCH   2   3
ENDBRANCH   1   2
BRANCH   1  13
ATOM     13  C   UNL     1     -10.073  -4.113  -1.129  1.00  0.00     0.000 C 
BRANCH  13  14
ATOM     14  C   UNL     1     -11.125  -4.086  -2.252  1.00  0.00     0.000 C 
BRANCH  14  15
ATOM     15  C   UNL     1     -10.784  -5.043  -3.405  1.00  0.00     0.000 C 
BRANCH  15  16
ATOM     16  C   UNL     1     -10.931  -4.382  -4.787  1.00  0.00     0.000 C 
BRANCH  16  17
ATOM     17  C   UNL     1     -10.061  -5.050  -5.868  1.00  0.00     0.000 C 
BRANCH  17  18
ATOM     18  C   UNL     1      -8.926  -5.949  -5.340  1.00  0.00     0.000 C 
BRANCH  18  19
ATOM     19  C   UNL     1      -8.250  -6.774  -6.448  1.00  0.00     0.000 C 
BRANCH  19  20
ATOM     20  C   UNL     1      -7.624  -5.901  -7.551  1.00  0.00     0.006 C 
BRANCH  20  21
ATOM     21  C   UNL     1      -8.324  -6.021  -8.917  1.00  0.00     0.053 C 
BRANCH  21  22
ATOM     22  C   UNL     1      -8.648  -4.689  -9.523  1.00  0.00     0.041 C 
ATOM     23  O   UNL     1      -7.725  -3.926  -9.912  1.00  0.00    -0.550 OA
ATOM     24  O   UNL     1      -9.970  -4.276  -9.628  1.00  0.00    -0.550 OA
ENDBRANCH  21  22
ENDBRANCH  20  21
ENDBRANCH  19  20
ENDBRANCH  18  19
ENDBRANCH  17  18
ENDBRANCH  16  17
ENDBRANCH  15  16
ENDBRANCH  14  15
ENDBRANCH  13  14
ENDBRANCH   1  13
TORSDOF 20
ENDMDL
MODEL 7
REMARK VINA RESULT:    -1.961      1.269      3.066
REMARK INTER + INTRA:          -5.594
REMARK INTER:                  -4.031
REMARK INTRA:                  -1.563
REMARK UNBOUND:                -1.340
REMARK SMILES CCCCCCCCCCCCCCCCCCCCCC(=O)[O-]
REMARK SMILES IDX 12 1 11 2 10 3 9 4 8 5 7 6 6 7 5 8 4 9 3 10 2 11 1 12 13 13
REMARK SMILES IDX 14 14 15 15 16 16 17 17 18 18 19 19 20 20 21 21 22 22 23 23
REMARK SMILES IDX 24 24
REMARK H PARENT
REMARK Flexibility Score: inf
ROOT
ATOM      1  C   UNL     1     -10.274  -5.532  -4.908  1.00  0.00     0.000 C 
ENDROOT
BRANCH   1   2
ATOM      2  C   UNL     1     -11.124  -5.212  -3.670  1.00  0.00     0.000 C 
BRANCH   2   3
ATOM      3  C   UNL     1     -10.796  -3.814  -3.130  1.00  0.00     0.000 C 
BRANCH   3   4
ATOM      4  C   UNL     1     -10.934  -3.764  -1.604  1.00  0.00    -0.000 C 
BRANCH   4   5
ATOM      5  C   UNL     1      -9.667  -3.191  -0.957  1.00  0.00    -0.000 C 
BRANCH   5   6
ATOM      6  C   UNL     1      -8.776  -2.501  -2.001  1.00  0.00    -0.000 C 
BRANCH   6   7
ATOM      7  C   UNL     1      -7.666  -1.643  -1.369  1.00  0.00    -0.000 C 
BRANCH   7   8
ATOM      8  C   UNL     1      -8.165  -0.480  -0.491  1.00  0.00    -0.000 C 
BRANCH   8   9
ATOM      9  C   UNL     1      -7.740   0.897  -1.025  1.00  0.00    -0.000 C 
BRANCH   9  10
ATOM     10  C   UNL     1      -7.926   2.021   0.008  1.00  0.00    -0.000 C 
BRANCH  10  11
ATOM     11  C   UNL     1      -8.473   3.340  -0.568  1.00  0.00    -0.003 C 
ATOM     12  C   UNL     1      -8.814   4.369   0.509  1.00  0.00     0.004 C 
ENDBRANCH  10  11
ENDBRANCH   9  10
ENDBRANCH   8   9
ENDBRANCH   7   8
ENDBRANCH   6   7
ENDBRANCH   5   6
ENDBRANCH   4   5
ENDBRANCH   3   4
ENDBRANCH   2   3
ENDBRANCH   1   2
BRANCH   1  13
ATOM     13  C   UNL     1     -11.124  -5.749  -6.171  1.00  0.00     0.000 C 
BRANCH  13  14
ATOM     14  C   UNL     1     -11.058  -4.554  -7.139  1.00  0.00     0.000 C 
BRANCH  14  15
ATOM     15  C   UNL     1     -11.065  -4.987  -8.614  1.00  0.00     0.000 C 
BRANCH  15  16
ATOM     16  C   UNL     1     -10.471  -3.917  -9.548  1.00  0.00     0.000 C 
BRANCH  16  17
ATOM     17  C   UNL     1      -9.054  -4.267 -10.038  1.00  0.00     0.000 C 
BRANCH  17  18
ATOM     18  C   UNL     1      -8.545  -5.665  -9.639  1.00  0.00     0.000 C 
BRANCH  18  19
ATOM     19  C   UNL     1      -7.037  -5.690  -9.335  1.00  0.00     0.000 C 
BRANCH  19  20
ATOM     20  C   UNL     1      -6.717  -5.391  -7.859  1.00  0.00     0.006 C 
BRANCH  20  21
ATOM     21  C   UNL     1      -7.494  -6.269  -6.860  1.00  0.00     0.053 C 
BRANCH  21  22
ATOM     22  C   UNL     1      -6.680  -6.636  -5.656  1.00  0.00     0.041 C 
ATOM     23  O   UNL     1      -5.542  -6.127  -5.478  1.00  0.00    -0.550 OA
ATOM     24  O   UNL     1      -7.167  -7.567  -4.746  1.00  0.00    -0.550 OA
ENDBRANCH  21  22
ENDBRANCH  20  21
ENDBRANCH  19  20
ENDBRANCH  18  19
ENDBRANCH  17  18
ENDBRANCH  16  17
ENDBRANCH  15  16
ENDBRANCH  14  15
ENDBRANCH  13  14
ENDBRANCH   1  13
TORSDOF 20
ENDMDL
MODEL 8
REMARK VINA RESULT:    -1.579      4.333     11.339
REMARK INTER + INTRA:          -4.766
REMARK INTER:                  -3.743
REMARK INTRA:                  -1.023
REMARK UNBOUND:                -1.340
REMARK SMILES CCCCCCCCCCCCCCCCCCCCCC(=O)[O-]
REMARK SMILES IDX 12 1 11 2 10 3 9 4 8 5 7 6 6 7 5 8 4 9 3 10 2 11 1 12 13 13
REMARK SMILES IDX 14 14 15 15 16 16 17 17 18 18 19 19 20 20 21 21 22 22 23 23
REMARK SMILES IDX 24 24
REMARK H PARENT
REMARK Flexibility Score: inf
ROOT
ATOM      1  C   UNL     1      -9.351  -3.569  -2.802  1.00  0.00     0.000 C 
ENDROOT
BRANCH   1   2
ATOM      2  C   UNL     1     -10.727  -3.966  -3.359  1.00  0.00     0.000 C 
BRANCH   2   3
ATOM      3  C   UNL     1     -10.714  -3.969  -4.892  1.00  0.00     0.000 C 
BRANCH   3   4
ATOM      4  C   UNL     1     -10.451  -5.377  -5.441  1.00  0.00    -0.000 C 
BRANCH   4   5
ATOM      5  C   UNL     1      -9.044  -5.858  -5.064  1.00  0.00    -0.000 C 
BRANCH   5   6
ATOM      6  C   UNL     1      -8.471  -6.790  -6.140  1.00  0.00    -0.000 C 
BRANCH   6   7
ATOM      7  C   UNL     1      -7.394  -6.113  -7.008  1.00  0.00    -0.000 C 
BRANCH   7   8
ATOM      8  C   UNL     1      -7.935  -5.327  -8.216  1.00  0.00    -0.000 C 
BRANCH   8   9
ATOM      9  C   UNL     1      -7.745  -6.073  -9.548  1.00  0.00    -0.000 C 
BRANCH   9  10
ATOM     10  C   UNL     1      -8.759  -7.214  -9.741  1.00  0.00    -0.000 C 
BRANCH  10  11
ATOM     11  C   UNL     1     -10.222  -6.829  -9.457  1.00  0.00    -0.003 C 
ATOM     12  C   UNL     1     -11.038  -7.975  -8.860  1.00  0.00     0.004 C 
ENDBRANCH  10  11
ENDBRANCH   9  10
ENDBRANCH   8   9
ENDBRANCH   7   8
ENDBRANCH   6   7
ENDBRANCH   5   6
ENDBRANCH   4   5
ENDBRANCH   3   4
ENDBRANCH   2   3
ENDBRANCH   1   2
BRANCH   1  13
ATOM     13  C   UNL     1      -9.440  -2.912  -1.414  1.00  0.00     0.000 C 
BRANCH  13  14
ATOM     14  C   UNL     1      -8.088  -2.351  -0.940  1.00  0.00     0.000 C 
BRANCH  14  15
ATOM     15  C   UNL     1      -7.798  -0.951  -1.504  1.00  0.00     0.000 C 
BRANCH  15  16
ATOM     16  C   UNL     1      -8.603   0.152  -0.794  1.00  0.00     0.000 C 
BRANCH  16  17
ATOM     17  C   UNL     1      -7.752   1.387  -0.445  1.00  0.00     0.000 C 
BRANCH  17  18
ATOM     18  C   UNL     1      -8.478   2.741  -0.556  1.00  0.00     0.000 C 
BRANCH  18  19
ATOM     19  C   UNL     1      -8.511   3.514   0.773  1.00  0.00     0.000 C 
BRANCH  19  20
ATOM     20  C   UNL     1      -8.569   5.041   0.578  1.00  0.00     0.006 C 
BRANCH  20  21
ATOM     21  C   UNL     1      -9.196   5.479  -0.758  1.00  0.00     0.053 C 
BRANCH  21  22
ATOM     22  C   UNL     1      -9.050   6.947  -1.014  1.00  0.00     0.041 C 
ATOM     23  O   UNL     1      -8.878   7.747  -0.056  1.00  0.00    -0.550 OA
ATOM     24  O   UNL     1      -9.137   7.439  -2.311  1.00  0.00    -0.550 OA
ENDBRANCH  21  22
ENDBRANCH  20  21
ENDBRANCH  19  20
ENDBRANCH  18  19
ENDBRANCH  17  18
ENDBRANCH  16  17
ENDBRANCH  15  16
ENDBRANCH  14  15
ENDBRANCH  13  14
ENDBRANCH   1  13
TORSDOF 20
ENDMDL
