MODEL 1
REMARK VINA RESULT:    -4.255      0.000      0.000
REMARK INTER + INTRA:          -4.648
REMARK INTER:                  -4.503
REMARK INTRA:                  -0.144
REMARK UNBOUND:                -0.144
REMARK SMILES C=C(C)[C@@H]1CC=C(C)C(=O)C1
REMARK SMILES IDX 8 1 7 2 6 3 5 4 4 5 11 6 9 7 10 8 2 9 1 10 3 11
REMARK H PARENT
REMARK Flexibility Score: inf
ROOT
ATOM      1  C   UNL     1      88.790  29.290  64.788  1.00  0.00     0.048 C 
ATOM      2  C   UNL     1      87.657  30.280  64.774  1.00  0.00    -0.012 C 
ATOM      3  C   UNL     1      86.419  29.883  65.104  1.00  0.00    -0.019 C 
ATOM      4  C   UNL     1      85.255  30.833  65.070  1.00  0.00     0.036 C 
ATOM      5  C   UNL     1      85.659  32.239  65.549  1.00  0.00     0.025 C 
ATOM      6  C   UNL     1      86.861  32.759  64.725  1.00  0.00     0.089 C 
ATOM      7  C   UNL     1      87.933  31.716  64.531  1.00  0.00     0.158 C 
ATOM      8  O   UNL     1      89.076  32.083  64.147  1.00  0.00    -0.295 OA
ENDROOT
BRANCH   5   9
ATOM      9  C   UNL     1      85.844  32.276  67.069  1.00  0.00    -0.077 C 
ATOM     10  C   UNL     1      84.758  32.175  67.854  1.00  0.00     0.008 C 
ATOM     11  C   UNL     1      87.187  32.407  67.750  1.00  0.00     0.039 C 
ENDBRANCH   5   9
TORSDOF 1
ENDMDL
MODEL 2
REMARK VINA RESULT:    -4.200      2.092      3.776
REMARK INTER + INTRA:          -4.590
REMARK INTER:                  -4.385
REMARK INTRA:                  -0.204
REMARK UNBOUND:                -0.144
REMARK SMILES C=C(C)[C@@H]1CC=C(C)C(=O)C1
REMARK SMILES IDX 8 1 7 2 6 3 5 4 4 5 11 6 9 7 10 8 2 9 1 10 3 11
REMARK H PARENT
REMARK Flexibility Score: inf
ROOT
ATOM      1  C   UNL     1      83.556  31.881  65.363  1.00  0.00     0.048 C 
ATOM      2  C   UNL     1      84.948  31.464  65.755  1.00  0.00    -0.012 C 
ATOM      3  C   UNL     1      85.708  30.776  64.890  1.00  0.00    -0.019 C 
ATOM      4  C   UNL     1      87.090  30.313  65.255  1.00  0.00     0.036 C 
ATOM      5  C   UNL     1      87.828  31.357  66.113  1.00  0.00     0.025 C 
ATOM      6  C   UNL     1      86.984  31.715  67.360  1.00  0.00     0.089 C 
ATOM      7  C   UNL     1      85.526  31.930  67.038  1.00  0.00     0.158 C 
ATOM      8  O   UNL     1      84.795  32.510  67.885  1.00  0.00    -0.295 OA
ENDROOT
BRANCH   5   9
ATOM      9  C   UNL     1      88.283  32.549  65.267  1.00  0.00    -0.077 C 
ATOM     10  C   UNL     1      89.118  32.329  64.238  1.00  0.00     0.008 C 
ATOM     11  C   UNL     1      87.837  33.973  65.512  1.00  0.00     0.039 C 
ENDBRANCH   5   9
TORSDOF 1
ENDMDL
MODEL 3
REMARK VINA RESULT:    -4.193      1.937      4.042
REMARK INTER + INTRA:          -4.583
REMARK INTER:                  -4.364
REMARK INTRA:                  -0.219
REMARK UNBOUND:                -0.144
REMARK SMILES C=C(C)[C@@H]1CC=C(C)C(=O)C1
REMARK SMILES IDX 8 1 7 2 6 3 5 4 4 5 11 6 9 7 10 8 2 9 1 10 3 11
REMARK H PARENT
REMARK Flexibility Score: inf
ROOT
ATOM      1  C   UNL     1      84.206  32.047  68.101  1.00  0.00     0.048 C 
ATOM      2  C   UNL     1      85.175  32.188  66.959  1.00  0.00    -0.012 C 
ATOM      3  C   UNL     1      86.487  32.319  67.208  1.00  0.00    -0.019 C 
ATOM      4  C   UNL     1      87.483  32.496  66.097  1.00  0.00     0.036 C 
ATOM      5  C   UNL     1      87.114  31.647  64.866  1.00  0.00     0.025 C 
ATOM      6  C   UNL     1      85.670  31.964  64.412  1.00  0.00     0.089 C 
ATOM      7  C   UNL     1      84.698  32.046  65.563  1.00  0.00     0.158 C 
ATOM      8  O   UNL     1      83.462  32.000  65.320  1.00  0.00    -0.295 OA
ENDROOT
BRANCH   5   9
ATOM      9  C   UNL     1      87.413  30.164  65.106  1.00  0.00    -0.077 C 
ATOM     10  C   UNL     1      88.657  29.807  65.469  1.00  0.00     0.008 C 
ATOM     11  C   UNL     1      86.383  29.066  64.972  1.00  0.00     0.039 C 
ENDBRANCH   5   9
TORSDOF 1
ENDMDL
MODEL 4
REMARK VINA RESULT:    -4.059      1.761      3.555
REMARK INTER + INTRA:          -4.440
REMARK INTER:                  -4.218
REMARK INTRA:                  -0.223
REMARK UNBOUND:                -0.144
REMARK SMILES C=C(C)[C@@H]1CC=C(C)C(=O)C1
REMARK SMILES IDX 8 1 7 2 6 3 5 4 4 5 11 6 9 7 10 8 2 9 1 10 3 11
REMARK H PARENT
REMARK Flexibility Score: inf
ROOT
ATOM      1  C   UNL     1      83.961  31.574  65.123  1.00  0.00     0.048 C 
ATOM      2  C   UNL     1      85.311  32.089  65.543  1.00  0.00    -0.012 C 
ATOM      3  C   UNL     1      85.877  31.637  66.671  1.00  0.00    -0.019 C 
ATOM      4  C   UNL     1      87.208  32.152  67.142  1.00  0.00     0.036 C 
ATOM      5  C   UNL     1      88.167  32.401  65.963  1.00  0.00     0.025 C 
ATOM      6  C   UNL     1      87.508  33.345  64.930  1.00  0.00     0.089 C 
ATOM      7  C   UNL     1      86.071  32.988  64.642  1.00  0.00     0.158 C 
ATOM      8  O   UNL     1      85.516  33.475  63.621  1.00  0.00    -0.295 OA
ENDROOT
BRANCH   5   9
ATOM      9  C   UNL     1      88.702  31.083  65.395  1.00  0.00    -0.077 C 
ATOM     10  C   UNL     1      89.125  30.136  66.250  1.00  0.00     0.008 C 
ATOM     11  C   UNL     1      88.774  30.771  63.918  1.00  0.00     0.039 C 
ENDBRANCH   5   9
TORSDOF 1
ENDMDL
MODEL 5
REMARK VINA RESULT:    -3.976      1.772      2.839
REMARK INTER + INTRA:          -4.353
REMARK INTER:                  -4.151
REMARK INTRA:                  -0.202
REMARK UNBOUND:                -0.144
REMARK SMILES C=C(C)[C@@H]1CC=C(C)C(=O)C1
REMARK SMILES IDX 8 1 7 2 6 3 5 4 4 5 11 6 9 7 10 8 2 9 1 10 3 11
REMARK H PARENT
REMARK Flexibility Score: inf
ROOT
ATOM      1  C   UNL     1      88.759  29.030  64.723  1.00  0.00     0.048 C 
ATOM      2  C   UNL     1      88.014  30.079  65.503  1.00  0.00    -0.012 C 
ATOM      3  C   UNL     1      88.694  31.035  66.154  1.00  0.00    -0.019 C 
ATOM      4  C   UNL     1      87.988  32.081  66.971  1.00  0.00     0.036 C 
ATOM      5  C   UNL     1      86.673  32.527  66.305  1.00  0.00     0.025 C 
ATOM      6  C   UNL     1      85.774  31.299  66.027  1.00  0.00     0.089 C 
ATOM      7  C   UNL     1      86.534  30.137  65.439  1.00  0.00     0.158 C 
ATOM      8  O   UNL     1      85.889  29.201  64.894  1.00  0.00    -0.295 OA
ENDROOT
BRANCH   5   9
ATOM      9  C   UNL     1      86.941  33.429  65.097  1.00  0.00    -0.077 C 
ATOM     10  C   UNL     1      86.160  33.300  64.010  1.00  0.00     0.008 C 
ATOM     11  C   UNL     1      88.031  34.474  65.052  1.00  0.00     0.039 C 
ENDBRANCH   5   9
TORSDOF 1
ENDMDL
MODEL 6
REMARK VINA RESULT:    -3.852      1.316      2.195
REMARK INTER + INTRA:          -4.222
REMARK INTER:                  -4.142
REMARK INTRA:                  -0.080
REMARK UNBOUND:                -0.144
REMARK SMILES C=C(C)[C@@H]1CC=C(C)C(=O)C1
REMARK SMILES IDX 8 1 7 2 6 3 5 4 4 5 11 6 9 7 10 8 2 9 1 10 3 11
REMARK H PARENT
REMARK Flexibility Score: inf
ROOT
ATOM      1  C   UNL     1      85.186  28.240  64.749  1.00  0.00     0.048 C 
ATOM      2  C   UNL     1      85.546  29.699  64.811  1.00  0.00    -0.012 C 
ATOM      3  C   UNL     1      84.578  30.627  64.825  1.00  0.00    -0.019 C 
ATOM      4  C   UNL     1      84.898  32.095  64.853  1.00  0.00     0.036 C 
ATOM      5  C   UNL     1      86.123  32.391  65.738  1.00  0.00     0.025 C 
ATOM      6  C   UNL     1      87.330  31.539  65.279  1.00  0.00     0.089 C 
ATOM      7  C   UNL     1      86.961  30.104  64.995  1.00  0.00     0.158 C 
ATOM      8  O   UNL     1      87.879  29.246  64.907  1.00  0.00    -0.295 OA
ENDROOT
BRANCH   5   9
ATOM      9  C   UNL     1      85.773  32.281  67.225  1.00  0.00    -0.077 C 
ATOM     10  C   UNL     1      86.770  32.293  68.125  1.00  0.00     0.008 C 
ATOM     11  C   UNL     1      84.360  32.170  67.750  1.00  0.00     0.039 C 
ENDBRANCH   5   9
TORSDOF 1
ENDMDL
MODEL 7
REMARK VINA RESULT:    -3.747      1.788      2.685
REMARK INTER + INTRA:          -4.110
REMARK INTER:                  -4.443
REMARK INTRA:                   0.333
REMARK UNBOUND:                -0.144
REMARK SMILES C=C(C)[C@@H]1CC=C(C)C(=O)C1
REMARK SMILES IDX 8 1 7 2 6 3 5 4 4 5 11 6 9 7 10 8 2 9 1 10 3 11
REMARK H PARENT
REMARK Flexibility Score: inf
ROOT
ATOM      1  C   UNL     1      89.082  34.177  66.934  1.00  0.00     0.048 C 
ATOM      2  C   UNL     1      88.203  33.234  66.158  1.00  0.00    -0.012 C 
ATOM      3  C   UNL     1      88.115  31.948  66.526  1.00  0.00    -0.019 C 
ATOM      4  C   UNL     1      87.274  30.968  65.757  1.00  0.00     0.036 C 
ATOM      5  C   UNL     1      85.970  31.613  65.254  1.00  0.00     0.025 C 
ATOM      6  C   UNL     1      86.287  32.884  64.430  1.00  0.00     0.089 C 
ATOM      7  C   UNL     1      87.333  33.756  65.077  1.00  0.00     0.158 C 
ATOM      8  O   UNL     1      87.468  34.944  64.677  1.00  0.00    -0.295 OA
ENDROOT
BRANCH   5   9
ATOM      9  C   UNL     1      84.971  31.809  66.398  1.00  0.00    -0.077 C 
ATOM     10  C   UNL     1      83.659  31.669  66.141  1.00  0.00     0.008 C 
ATOM     11  C   UNL     1      85.372  32.142  67.817  1.00  0.00     0.039 C 
ENDBRANCH   5   9
TORSDOF 1
ENDMDL
MODEL 8
REMARK VINA RESULT:    -3.719      1.783      3.246
REMARK INTER + INTRA:          -4.080
REMARK INTER:                  -4.076
REMARK INTRA:                  -0.005
REMARK UNBOUND:                -0.144
REMARK SMILES C=C(C)[C@@H]1CC=C(C)C(=O)C1
REMARK SMILES IDX 8 1 7 2 6 3 5 4 4 5 11 6 9 7 10 8 2 9 1 10 3 11
REMARK H PARENT
REMARK Flexibility Score: inf
ROOT
ATOM      1  C   UNL     1      83.670  31.213  65.118  1.00  0.00     0.048 C 
ATOM      2  C   UNL     1      85.125  31.485  64.849  1.00  0.00    -0.012 C 
ATOM      3  C   UNL     1      85.540  32.742  64.631  1.00  0.00    -0.019 C 
ATOM      4  C   UNL     1      86.979  33.052  64.325  1.00  0.00     0.036 C 
ATOM      5  C   UNL     1      87.934  32.161  65.140  1.00  0.00     0.025 C 
ATOM      6  C   UNL     1      87.597  30.668  64.912  1.00  0.00     0.089 C 
ATOM      7  C   UNL     1      86.116  30.388  64.960  1.00  0.00     0.158 C 
ATOM      8  O   UNL     1      85.726  29.197  65.088  1.00  0.00    -0.295 OA
ENDROOT
BRANCH   5   9
ATOM      9  C   UNL     1      87.989  32.602  66.606  1.00  0.00    -0.077 C 
ATOM     10  C   UNL     1      88.814  33.607  66.947  1.00  0.00     0.008 C 
ATOM     11  C   UNL     1      87.157  31.980  67.703  1.00  0.00     0.039 C 
ENDBRANCH   5   9
TORSDOF 1
ENDMDL
MODEL 9
REMARK VINA RESULT:    -3.700      1.537      2.595
REMARK INTER + INTRA:          -4.061
REMARK INTER:                  -3.936
REMARK INTRA:                  -0.124
REMARK UNBOUND:                -0.144
REMARK SMILES C=C(C)[C@@H]1CC=C(C)C(=O)C1
REMARK SMILES IDX 8 1 7 2 6 3 5 4 4 5 11 6 9 7 10 8 2 9 1 10 3 11
REMARK H PARENT
REMARK Flexibility Score: inf
ROOT
ATOM      1  C   UNL     1      89.120  30.883  63.458  1.00  0.00     0.048 C 
ATOM      2  C   UNL     1      88.186  31.490  64.470  1.00  0.00    -0.012 C 
ATOM      3  C   UNL     1      87.424  32.539  64.130  1.00  0.00    -0.019 C 
ATOM      4  C   UNL     1      86.503  33.194  65.121  1.00  0.00     0.036 C 
ATOM      5  C   UNL     1      85.844  32.159  66.050  1.00  0.00     0.025 C 
ATOM      6  C   UNL     1      86.927  31.296  66.741  1.00  0.00     0.089 C 
ATOM      7  C   UNL     1      88.009  30.844  65.793  1.00  0.00     0.158 C 
ATOM      8  O   UNL     1      88.775  29.908  66.146  1.00  0.00    -0.295 OA
ENDROOT
BRANCH   5   9
ATOM      9  C   UNL     1      84.751  31.373  65.319  1.00  0.00    -0.077 C 
ATOM     10  C   UNL     1      83.591  31.991  65.037  1.00  0.00     0.008 C 
ATOM     11  C   UNL     1      84.900  29.935  64.880  1.00  0.00     0.039 C 
ENDBRANCH   5   9
TORSDOF 1
ENDMDL
