MODEL 1
REMARK VINA RESULT:    -4.134      0.000      0.000
REMARK INTER + INTRA:          -5.753
REMARK INTER:                  -5.463
REMARK INTRA:                  -0.290
REMARK UNBOUND:                -0.290
REMARK SMILES C=CCC[C@H](O)CCC
REMARK SMILES IDX 4 1 5 2 7 3 8 4 9 5 6 6 3 8 2 9 1 10
REMARK H PARENT 6 7
REMARK Flexibility Score: inf
ROOT
ATOM      1  C   UNL     1      -1.286  16.128  47.629  1.00  0.00     0.036 C 
ENDROOT
BRANCH   1   2
ATOM      2  C   UNL     1      -1.797  17.113  48.704  1.00  0.00     0.114 C 
BRANCH   2   3
ATOM      3  C   UNL     1      -3.172  17.709  48.334  1.00  0.00     0.031 C 
BRANCH   3   4
ATOM      4  C   UNL     1      -3.164  19.245  48.241  1.00  0.00    -0.001 C 
ATOM      5  C   UNL     1      -2.230  19.903  49.256  1.00  0.00     0.004 C 
ENDBRANCH   3   4
ENDBRANCH   2   3
BRANCH   2   6
ATOM      6  O   UNL     1      -1.877  16.467  49.948  1.00  0.00    -0.393 OA
ATOM      7  H   UNL     1      -1.687  15.506  49.786  1.00  0.00     0.210 HD
ENDBRANCH   2   6
ENDBRANCH   1   2
BRANCH   1   8
ATOM      8  C   UNL     1      -1.688  16.527  46.198  1.00  0.00     0.029 C 
BRANCH   8   9
ATOM      9  C   UNL     1      -0.476  16.831  45.360  1.00  0.00    -0.035 C 
ATOM     10  C   UNL     1       0.020  15.942  44.494  1.00  0.00     0.004 C 
ENDBRANCH   8   9
ENDBRANCH   1   8
TORSDOF 6
ENDMDL
MODEL 2
REMARK VINA RESULT:    -4.077      1.041      4.192
REMARK INTER + INTRA:          -5.678
REMARK INTER:                  -5.319
REMARK INTRA:                  -0.359
REMARK UNBOUND:                -0.290
REMARK SMILES C=CCC[C@H](O)CCC
REMARK SMILES IDX 4 1 5 2 7 3 8 4 9 5 6 6 3 8 2 9 1 10
REMARK H PARENT 6 7
REMARK Flexibility Score: inf
ROOT
ATOM      1  C   UNL     1      -2.258  16.997  48.875  1.00  0.00     0.036 C 
ENDROOT
BRANCH   1   2
ATOM      2  C   UNL     1      -1.315  16.281  47.882  1.00  0.00     0.114 C 
BRANCH   2   3
ATOM      3  C   UNL     1      -1.699  16.566  46.414  1.00  0.00     0.031 C 
BRANCH   3   4
ATOM      4  C   UNL     1      -0.502  16.990  45.544  1.00  0.00    -0.001 C 
ATOM      5  C   UNL     1      -0.125  15.948  44.492  1.00  0.00     0.004 C 
ENDBRANCH   3   4
ENDBRANCH   2   3
BRANCH   2   6
ATOM      6  O   UNL     1       0.013  16.674  48.113  1.00  0.00    -0.393 OA
ATOM      7  H   UNL     1      -0.023  17.524  48.625  1.00  0.00     0.210 HD
ENDBRANCH   2   6
ENDBRANCH   1   2
BRANCH   1   8
ATOM      8  C   UNL     1      -1.596  18.187  49.591  1.00  0.00     0.029 C 
BRANCH   8   9
ATOM      9  C   UNL     1      -2.305  19.475  49.271  1.00  0.00    -0.035 C 
ATOM     10  C   UNL     1      -3.122  19.585  48.220  1.00  0.00     0.004 C 
ENDBRANCH   8   9
ENDBRANCH   1   8
TORSDOF 6
ENDMDL
MODEL 3
REMARK VINA RESULT:    -3.876      2.006      3.013
REMARK INTER + INTRA:          -5.413
REMARK INTER:                  -4.738
REMARK INTRA:                  -0.675
REMARK UNBOUND:                -0.290
REMARK SMILES C=CCC[C@H](O)CCC
REMARK SMILES IDX 4 1 5 2 7 3 8 4 9 5 6 6 3 8 2 9 1 10
REMARK H PARENT 6 7
REMARK Flexibility Score: inf
ROOT
ATOM      1  C   UNL     1      -3.012  17.716  48.707  1.00  0.00     0.036 C 
ENDROOT
BRANCH   1   2
ATOM      2  C   UNL     1      -2.742  19.230  48.846  1.00  0.00     0.114 C 
BRANCH   2   3
ATOM      3  C   UNL     1      -1.298  19.518  49.313  1.00  0.00     0.031 C 
BRANCH   3   4
ATOM      4  C   UNL     1      -0.433  20.194  48.234  1.00  0.00    -0.001 C 
ATOM      5  C   UNL     1       0.689  19.296  47.714  1.00  0.00     0.004 C 
ENDBRANCH   3   4
ENDBRANCH   2   3
BRANCH   2   6
ATOM      6  O   UNL     1      -2.985  19.876  47.623  1.00  0.00    -0.393 OA
ATOM      7  H   UNL     1      -2.572  20.777  47.686  1.00  0.00     0.210 HD
ENDBRANCH   2   6
ENDBRANCH   1   2
BRANCH   1   8
ATOM      8  C   UNL     1      -1.813  16.843  49.117  1.00  0.00     0.029 C 
BRANCH   8   9
ATOM      9  C   UNL     1      -1.278  16.071  47.943  1.00  0.00    -0.035 C 
ATOM     10  C   UNL     1      -1.545  16.430  46.684  1.00  0.00     0.004 C 
ENDBRANCH   8   9
ENDBRANCH   1   8
TORSDOF 6
ENDMDL
MODEL 4
REMARK VINA RESULT:    -3.867      2.396      4.083
REMARK INTER + INTRA:          -5.401
REMARK INTER:                  -4.776
REMARK INTRA:                  -0.625
REMARK UNBOUND:                -0.290
REMARK SMILES C=CCC[C@H](O)CCC
REMARK SMILES IDX 4 1 5 2 7 3 8 4 9 5 6 6 3 8 2 9 1 10
REMARK H PARENT 6 7
REMARK Flexibility Score: inf
ROOT
ATOM      1  C   UNL     1      -1.864  16.663  47.162  1.00  0.00     0.036 C 
ENDROOT
BRANCH   1   2
ATOM      2  C   UNL     1      -0.943  17.311  46.103  1.00  0.00     0.114 C 
BRANCH   2   3
ATOM      3  C   UNL     1       0.508  16.795  46.207  1.00  0.00     0.031 C 
BRANCH   3   4
ATOM      4  C   UNL     1       1.373  17.606  47.188  1.00  0.00    -0.001 C 
ATOM      5  C   UNL     1       0.947  19.070  47.296  1.00  0.00     0.004 C 
ENDBRANCH   3   4
ENDBRANCH   2   3
BRANCH   2   6
ATOM      6  O   UNL     1      -1.445  17.064  44.815  1.00  0.00    -0.393 OA
ATOM      7  H   UNL     1      -1.810  16.141  44.820  1.00  0.00     0.210 HD
ENDBRANCH   2   6
ENDBRANCH   1   2
BRANCH   1   8
ATOM      8  C   UNL     1      -2.722  17.684  47.928  1.00  0.00     0.029 C 
BRANCH   8   9
ATOM      9  C   UNL     1      -2.208  17.882  49.328  1.00  0.00    -0.035 C 
ATOM     10  C   UNL     1      -1.256  17.100  49.844  1.00  0.00     0.004 C 
ENDBRANCH   8   9
ENDBRANCH   1   8
TORSDOF 6
ENDMDL
MODEL 5
REMARK VINA RESULT:    -3.834      1.086      3.620
REMARK INTER + INTRA:          -5.357
REMARK INTER:                  -4.654
REMARK INTRA:                  -0.703
REMARK UNBOUND:                -0.290
REMARK SMILES C=CCC[C@H](O)CCC
REMARK SMILES IDX 4 1 5 2 7 3 8 4 9 5 6 6 3 8 2 9 1 10
REMARK H PARENT 6 7
REMARK Flexibility Score: inf
ROOT
ATOM      1  C   UNL     1      -3.209  18.133  48.402  1.00  0.00     0.036 C 
ENDROOT
BRANCH   1   2
ATOM      2  C   UNL     1      -2.287  17.106  49.095  1.00  0.00     0.114 C 
BRANCH   2   3
ATOM      3  C   UNL     1      -1.207  16.561  48.136  1.00  0.00     0.031 C 
BRANCH   3   4
ATOM      4  C   UNL     1      -1.646  16.563  46.661  1.00  0.00    -0.001 C 
ATOM      5  C   UNL     1      -0.661  17.285  45.742  1.00  0.00     0.004 C 
ENDBRANCH   3   4
ENDBRANCH   2   3
BRANCH   2   6
ATOM      6  O   UNL     1      -1.677  17.689  50.217  1.00  0.00    -0.393 OA
ATOM      7  H   UNL     1      -2.330  17.632  50.963  1.00  0.00     0.210 HD
ENDBRANCH   2   6
ENDBRANCH   1   2
BRANCH   1   8
ATOM      8  C   UNL     1      -2.890  19.590  48.781  1.00  0.00     0.029 C 
BRANCH   8   9
ATOM      9  C   UNL     1      -2.033  20.247  47.733  1.00  0.00    -0.035 C 
ATOM     10  C   UNL     1      -0.710  20.361  47.878  1.00  0.00     0.004 C 
ENDBRANCH   8   9
ENDBRANCH   1   8
TORSDOF 6
ENDMDL
MODEL 6
REMARK VINA RESULT:    -3.814      1.592      3.715
REMARK INTER + INTRA:          -5.330
REMARK INTER:                  -4.719
REMARK INTRA:                  -0.611
REMARK UNBOUND:                -0.290
REMARK SMILES C=CCC[C@H](O)CCC
REMARK SMILES IDX 4 1 5 2 7 3 8 4 9 5 6 6 3 8 2 9 1 10
REMARK H PARENT 6 7
REMARK Flexibility Score: inf
ROOT
ATOM      1  C   UNL     1      -2.331  17.100  47.465  1.00  0.00     0.036 C 
ENDROOT
BRANCH   1   2
ATOM      2  C   UNL     1      -1.088  16.262  47.841  1.00  0.00     0.114 C 
BRANCH   2   3
ATOM      3  C   UNL     1       0.177  16.741  47.096  1.00  0.00     0.031 C 
BRANCH   3   4
ATOM      4  C   UNL     1       0.124  18.227  46.699  1.00  0.00    -0.001 C 
ATOM      5  C   UNL     1       0.845  19.140  47.690  1.00  0.00     0.004 C 
ENDBRANCH   3   4
ENDBRANCH   2   3
BRANCH   2   6
ATOM      6  O   UNL     1      -0.874  16.316  49.227  1.00  0.00    -0.393 OA
ATOM      7  H   UNL     1      -1.160  15.440  49.597  1.00  0.00     0.210 HD
ENDBRANCH   2   6
ENDBRANCH   1   2
BRANCH   1   8
ATOM      8  C   UNL     1      -2.982  17.797  48.672  1.00  0.00     0.029 C 
BRANCH   8   9
ATOM      9  C   UNL     1      -3.095  19.280  48.445  1.00  0.00    -0.035 C 
ATOM     10  C   UNL     1      -2.468  20.161  49.230  1.00  0.00     0.004 C 
ENDBRANCH   8   9
ENDBRANCH   1   8
TORSDOF 6
ENDMDL
MODEL 7
REMARK VINA RESULT:    -3.784      1.520      1.831
REMARK INTER + INTRA:          -5.291
REMARK INTER:                  -4.663
REMARK INTRA:                  -0.629
REMARK UNBOUND:                -0.290
REMARK SMILES C=CCC[C@H](O)CCC
REMARK SMILES IDX 4 1 5 2 7 3 8 4 9 5 6 6 3 8 2 9 1 10
REMARK H PARENT 6 7
REMARK Flexibility Score: inf
ROOT
ATOM      1  C   UNL     1      -1.328  16.405  47.457  1.00  0.00     0.036 C 
ENDROOT
BRANCH   1   2
ATOM      2  C   UNL     1      -1.772  17.126  48.749  1.00  0.00     0.114 C 
BRANCH   2   3
ATOM      3  C   UNL     1      -3.177  17.751  48.607  1.00  0.00     0.031 C 
BRANCH   3   4
ATOM      4  C   UNL     1      -3.144  19.239  48.215  1.00  0.00    -0.001 C 
ATOM      5  C   UNL     1      -2.414  20.113  49.233  1.00  0.00     0.004 C 
ENDBRANCH   3   4
ENDBRANCH   2   3
BRANCH   2   6
ATOM      6  O   UNL     1      -1.757  16.229  49.829  1.00  0.00    -0.393 OA
ATOM      7  H   UNL     1      -2.346  16.613  50.530  1.00  0.00     0.210 HD
ENDBRANCH   2   6
ENDBRANCH   1   2
BRANCH   1   8
ATOM      8  C   UNL     1      -0.229  17.158  46.687  1.00  0.00     0.029 C 
BRANCH   8   9
ATOM      9  C   UNL     1       0.486  18.135  47.580  1.00  0.00    -0.035 C 
ATOM     10  C   UNL     1       0.786  19.371  47.172  1.00  0.00     0.004 C 
ENDBRANCH   8   9
ENDBRANCH   1   8
TORSDOF 6
ENDMDL
MODEL 8
REMARK VINA RESULT:    -3.773     11.415     12.051
REMARK INTER + INTRA:          -5.277
REMARK INTER:                  -5.142
REMARK INTRA:                  -0.134
REMARK UNBOUND:                -0.290
REMARK SMILES C=CCC[C@H](O)CCC
REMARK SMILES IDX 4 1 5 2 7 3 8 4 9 5 6 6 3 8 2 9 1 10
REMARK H PARENT 6 7
REMARK Flexibility Score: inf
ROOT
ATOM      1  C   UNL     1       4.685  21.665  39.889  1.00  0.00     0.036 C 
ENDROOT
BRANCH   1   2
ATOM      2  C   UNL     1       3.612  22.319  38.990  1.00  0.00     0.114 C 
BRANCH   2   3
ATOM      3  C   UNL     1       3.372  23.799  39.362  1.00  0.00     0.031 C 
BRANCH   3   4
ATOM      4  C   UNL     1       2.855  24.645  38.185  1.00  0.00    -0.001 C 
ATOM      5  C   UNL     1       1.420  25.133  38.381  1.00  0.00     0.004 C 
ENDBRANCH   3   4
ENDBRANCH   2   3
BRANCH   2   6
ATOM      6  O   UNL     1       3.991  22.222  37.642  1.00  0.00    -0.393 OA
ATOM      7  H   UNL     1       3.921  23.135  37.257  1.00  0.00     0.210 HD
ENDBRANCH   2   6
ENDBRANCH   1   2
BRANCH   1   8
ATOM      8  C   UNL     1       5.796  20.958  39.093  1.00  0.00     0.029 C 
BRANCH   8   9
ATOM      9  C   UNL     1       7.136  21.141  39.752  1.00  0.00    -0.035 C 
ATOM     10  C   UNL     1       7.615  20.255  40.630  1.00  0.00     0.004 C 
ENDBRANCH   8   9
ENDBRANCH   1   8
TORSDOF 6
ENDMDL
MODEL 9
REMARK VINA RESULT:    -3.689      1.639      2.073
REMARK INTER + INTRA:          -5.166
REMARK INTER:                  -4.534
REMARK INTRA:                  -0.632
REMARK UNBOUND:                -0.290
REMARK SMILES C=CCC[C@H](O)CCC
REMARK SMILES IDX 4 1 5 2 7 3 8 4 9 5 6 6 3 8 2 9 1 10
REMARK H PARENT 6 7
REMARK Flexibility Score: inf
ROOT
ATOM      1  C   UNL     1      -1.920  16.935  48.300  1.00  0.00     0.036 C 
ENDROOT
BRANCH   1   2
ATOM      2  C   UNL     1      -3.128  17.868  48.533  1.00  0.00     0.114 C 
BRANCH   2   3
ATOM      3  C   UNL     1      -2.688  19.314  48.851  1.00  0.00     0.031 C 
BRANCH   3   4
ATOM      4  C   UNL     1      -1.310  19.395  49.529  1.00  0.00    -0.001 C 
ATOM      5  C   UNL     1      -0.397  20.453  48.909  1.00  0.00     0.004 C 
ENDBRANCH   3   4
ENDBRANCH   2   3
BRANCH   2   6
ATOM      6  O   UNL     1      -3.965  17.862  47.406  1.00  0.00    -0.393 OA
ATOM      7  H   UNL     1      -3.668  17.108  46.831  1.00  0.00     0.210 HD
ENDBRANCH   2   6
ENDBRANCH   1   2
BRANCH   1   8
ATOM      8  C   UNL     1      -1.661  16.636  46.813  1.00  0.00     0.029 C 
BRANCH   8   9
ATOM      9  C   UNL     1      -0.580  17.525  46.262  1.00  0.00    -0.035 C 
ATOM     10  C   UNL     1       0.641  17.567  46.803  1.00  0.00     0.004 C 
ENDBRANCH   8   9
ENDBRANCH   1   8
TORSDOF 6
ENDMDL
