MODEL 1
REMARK VINA RESULT:    -5.657      0.000      0.000
REMARK INTER + INTRA:         -10.899
REMARK INTER:                  -8.634
REMARK INTRA:                  -2.265
REMARK UNBOUND:                -2.265
REMARK SMILES COc1cc(C=CC(=O)CC(=O)C=Cc2ccc(O)c(OC)c2)ccc1O
REMARK SMILES IDX 10 1 8 2 9 3 7 4 6 5 5 6 3 7 26 8 4 9 25 10 24 11 2 12 1 13
REMARK SMILES IDX 27 14 11 16 12 17 13 18 14 19 15 20 23 21 16 22 20 23 17 24
REMARK SMILES IDX 18 25 21 26 22 27 19 28
REMARK H PARENT 27 15 19 29
REMARK Flexibility Score: inf
ROOT
ATOM      1  C   UNL     1       7.403  31.320  71.814  1.00  0.00     0.160 C 
ENDROOT
BRANCH   1   2
ATOM      2  C   UNL     1       6.849  30.463  70.714  1.00  0.00     0.163 C 
ATOM      3  O   UNL     1       5.694  29.975  70.845  1.00  0.00    -0.294 OA
BRANCH   2   4
ATOM      4  C   UNL     1       7.686  30.116  69.544  1.00  0.00     0.048 C 
ATOM      5  C   UNL     1       7.487  30.556  68.292  1.00  0.00     0.012 C 
BRANCH   5   6
ATOM      6  C   UNL     1       6.536  31.619  67.905  1.00  0.00    -0.022 A 
ATOM      7  C   UNL     1       4.249  32.410  67.545  1.00  0.00     0.161 A 
ATOM      8  C   UNL     1       4.748  33.701  67.296  1.00  0.00     0.157 A 
ATOM      9  C   UNL     1       5.152  31.373  67.857  1.00  0.00     0.058 A 
ATOM     10  C   UNL     1       6.123  33.948  67.371  1.00  0.00     0.051 A 
ATOM     11  C   UNL     1       7.011  32.918  67.685  1.00  0.00     0.012 A 
BRANCH   7  12
ATOM     12  O   UNL     1       2.862  32.195  67.481  1.00  0.00    -0.493 OA
ATOM     13  C   UNL     1       2.216  30.982  67.852  1.00  0.00     0.278 C 
ENDBRANCH   7  12
BRANCH   8  14
ATOM     14  O   UNL     1       3.891  34.756  66.978  1.00  0.00    -0.504 OA
ATOM     15  H   UNL     1       4.005  35.312  66.139  1.00  0.00     0.293 HD
ENDBRANCH   8  14
ENDBRANCH   5   6
ENDBRANCH   2   4
ENDBRANCH   1   2
BRANCH   1  16
ATOM     16  C   UNL     1       6.896  32.733  71.684  1.00  0.00     0.163 C 
ATOM     17  O   UNL     1       7.694  33.675  71.940  1.00  0.00    -0.294 OA
BRANCH  16  18
ATOM     18  C   UNL     1       5.538  33.087  71.208  1.00  0.00     0.048 C 
ATOM     19  C   UNL     1       5.063  34.340  71.142  1.00  0.00     0.012 C 
BRANCH  19  20
ATOM     20  C   UNL     1       3.699  34.674  70.659  1.00  0.00    -0.022 A 
ATOM     21  C   UNL     1       2.661  33.723  70.610  1.00  0.00     0.058 A 
ATOM     22  C   UNL     1       3.427  35.997  70.280  1.00  0.00     0.012 A 
ATOM     23  C   UNL     1       1.374  34.085  70.160  1.00  0.00     0.161 A 
ATOM     24  C   UNL     1       2.158  36.360  69.833  1.00  0.00     0.051 A 
ATOM     25  C   UNL     1       1.132  35.414  69.767  1.00  0.00     0.157 A 
BRANCH  23  26
ATOM     26  O   UNL     1       0.320  33.158  70.095  1.00  0.00    -0.493 OA
ATOM     27  C   UNL     1       0.285  31.921  70.798  1.00  0.00     0.278 C 
ENDBRANCH  23  26
BRANCH  25  28
ATOM     28  O   UNL     1      -0.125  35.814  69.313  1.00  0.00    -0.504 OA
ATOM     29  H   UNL     1      -0.958  35.732  69.884  1.00  0.00     0.293 HD
ENDBRANCH  25  28
ENDBRANCH  19  20
ENDBRANCH  16  18
ENDBRANCH   1  16
TORSDOF 10
ENDMDL
MODEL 2
REMARK VINA RESULT:    -5.460     15.289     18.557
REMARK INTER + INTRA:         -10.598
REMARK INTER:                  -9.791
REMARK INTRA:                  -0.807
REMARK UNBOUND:                -2.265
REMARK SMILES COc1cc(C=CC(=O)CC(=O)C=Cc2ccc(O)c(OC)c2)ccc1O
REMARK SMILES IDX 10 1 8 2 9 3 7 4 6 5 5 6 3 7 26 8 4 9 25 10 24 11 2 12 1 13
REMARK SMILES IDX 27 14 11 16 12 17 13 18 14 19 15 20 23 21 16 22 20 23 17 24
REMARK SMILES IDX 18 25 21 26 22 27 19 28
REMARK H PARENT 27 15 19 29
REMARK Flexibility Score: inf
ROOT
ATOM      1  C   UNL     1      15.874  45.889  73.355  1.00  0.00     0.160 C 
ENDROOT
BRANCH   1   2
ATOM      2  C   UNL     1      15.678  47.278  73.885  1.00  0.00     0.163 C 
ATOM      3  O   UNL     1      16.011  47.529  75.075  1.00  0.00    -0.294 OA
BRANCH   2   4
ATOM      4  C   UNL     1      15.012  48.308  73.057  1.00  0.00     0.048 C 
ATOM      5  C   UNL     1      13.763  48.761  73.242  1.00  0.00     0.012 C 
BRANCH   5   6
ATOM      6  C   UNL     1      12.918  48.470  74.419  1.00  0.00    -0.022 A 
ATOM      7  C   UNL     1      12.143  49.004  76.677  1.00  0.00     0.161 A 
ATOM      8  C   UNL     1      11.199  47.966  76.586  1.00  0.00     0.157 A 
ATOM      9  C   UNL     1      12.997  49.254  75.584  1.00  0.00     0.058 A 
ATOM     10  C   UNL     1      11.105  47.204  75.416  1.00  0.00     0.051 A 
ATOM     11  C   UNL     1      11.950  47.461  74.335  1.00  0.00     0.012 A 
BRANCH   7  12
ATOM     12  O   UNL     1      12.204  49.764  77.857  1.00  0.00    -0.493 OA
ATOM     13  C   UNL     1      13.405  50.083  78.552  1.00  0.00     0.278 C 
ENDBRANCH   7  12
BRANCH   8  14
ATOM     14  O   UNL     1      10.338  47.680  77.646  1.00  0.00    -0.504 OA
ATOM     15  H   UNL     1       9.336  47.598  77.522  1.00  0.00     0.293 HD
ENDBRANCH   8  14
ENDBRANCH   5   6
ENDBRANCH   2   4
ENDBRANCH   1   2
BRANCH   1  16
ATOM     16  C   UNL     1      15.323  44.874  74.323  1.00  0.00     0.163 C 
ATOM     17  O   UNL     1      14.155  45.048  74.763  1.00  0.00    -0.294 OA
BRANCH  16  18
ATOM     18  C   UNL     1      16.044  43.647  74.738  1.00  0.00     0.048 C 
ATOM     19  C   UNL     1      16.056  42.503  74.037  1.00  0.00     0.012 C 
BRANCH  19  20
ATOM     20  C   UNL     1      16.788  41.286  74.469  1.00  0.00    -0.022 A 
ATOM     21  C   UNL     1      17.879  41.336  75.359  1.00  0.00     0.058 A 
ATOM     22  C   UNL     1      16.344  40.038  74.007  1.00  0.00     0.012 A 
ATOM     23  C   UNL     1      18.536  40.154  75.758  1.00  0.00     0.161 A 
ATOM     24  C   UNL     1      16.991  38.866  74.396  1.00  0.00     0.051 A 
ATOM     25  C   UNL     1      18.085  38.916  75.265  1.00  0.00     0.157 A 
BRANCH  23  26
ATOM     26  O   UNL     1      19.630  40.172  76.640  1.00  0.00    -0.493 OA
ATOM     27  C   UNL     1      19.615  40.759  77.937  1.00  0.00     0.278 C 
ENDBRANCH  23  26
BRANCH  25  28
ATOM     28  O   UNL     1      18.708  37.723  75.632  1.00  0.00    -0.504 OA
ATOM     29  H   UNL     1      19.318  37.216  75.002  1.00  0.00     0.293 HD
ENDBRANCH  25  28
ENDBRANCH  19  20
ENDBRANCH  16  18
ENDBRANCH   1  16
TORSDOF 10
ENDMDL
MODEL 3
REMARK VINA RESULT:    -5.330     11.403     14.352
REMARK INTER + INTRA:         -10.400
REMARK INTER:                  -9.498
REMARK INTRA:                  -0.902
REMARK UNBOUND:                -2.265
REMARK SMILES COc1cc(C=CC(=O)CC(=O)C=Cc2ccc(O)c(OC)c2)ccc1O
REMARK SMILES IDX 10 1 8 2 9 3 7 4 6 5 5 6 3 7 26 8 4 9 25 10 24 11 2 12 1 13
REMARK SMILES IDX 27 14 11 16 12 17 13 18 14 19 15 20 23 21 16 22 20 23 17 24
REMARK SMILES IDX 18 25 21 26 22 27 19 28
REMARK H PARENT 27 15 19 29
REMARK Flexibility Score: inf
ROOT
ATOM      1  C   UNL     1       3.313  42.957  69.741  1.00  0.00     0.160 C 
ENDROOT
BRANCH   1   2
ATOM      2  C   UNL     1       2.870  43.343  68.361  1.00  0.00     0.163 C 
ATOM      3  O   UNL     1       1.960  44.206  68.232  1.00  0.00    -0.294 OA
BRANCH   2   4
ATOM      4  C   UNL     1       3.423  42.648  67.177  1.00  0.00     0.048 C 
ATOM      5  C   UNL     1       3.343  43.090  65.913  1.00  0.00     0.012 C 
BRANCH   5   6
ATOM      6  C   UNL     1       2.880  44.435  65.509  1.00  0.00    -0.022 A 
ATOM      7  C   UNL     1       3.313  46.806  65.088  1.00  0.00     0.161 A 
ATOM      8  C   UNL     1       1.999  46.947  64.606  1.00  0.00     0.157 A 
ATOM      9  C   UNL     1       3.748  45.541  65.533  1.00  0.00     0.058 A 
ATOM     10  C   UNL     1       1.146  45.840  64.560  1.00  0.00     0.051 A 
ATOM     11  C   UNL     1       1.586  44.589  64.996  1.00  0.00     0.012 A 
BRANCH   7  12
ATOM     12  O   UNL     1       4.154  47.931  65.107  1.00  0.00    -0.493 OA
ATOM     13  C   UNL     1       5.060  48.279  64.066  1.00  0.00     0.278 C 
ENDBRANCH   7  12
BRANCH   8  14
ATOM     14  O   UNL     1       1.524  48.182  64.162  1.00  0.00    -0.504 OA
ATOM     15  H   UNL     1       1.685  49.040  64.675  1.00  0.00     0.293 HD
ENDBRANCH   8  14
ENDBRANCH   5   6
ENDBRANCH   2   4
ENDBRANCH   1   2
BRANCH   1  16
ATOM     16  C   UNL     1       4.007  44.114  70.413  1.00  0.00     0.163 C 
ATOM     17  O   UNL     1       3.973  44.176  71.671  1.00  0.00    -0.294 OA
BRANCH  16  18
ATOM     18  C   UNL     1       4.784  45.148  69.690  1.00  0.00     0.048 C 
ATOM     19  C   UNL     1       5.665  45.977  70.272  1.00  0.00     0.012 C 
BRANCH  19  20
ATOM     20  C   UNL     1       6.437  47.004  69.528  1.00  0.00    -0.022 A 
ATOM     21  C   UNL     1       7.603  47.597  70.049  1.00  0.00     0.058 A 
ATOM     22  C   UNL     1       6.009  47.363  68.241  1.00  0.00     0.012 A 
ATOM     23  C   UNL     1       8.318  48.558  69.303  1.00  0.00     0.161 A 
ATOM     24  C   UNL     1       6.709  48.313  67.500  1.00  0.00     0.051 A 
ATOM     25  C   UNL     1       7.857  48.914  68.023  1.00  0.00     0.157 A 
BRANCH  23  26
ATOM     26  O   UNL     1       9.481  49.169  69.797  1.00  0.00    -0.493 OA
ATOM     27  C   UNL     1      10.368  48.580  70.742  1.00  0.00     0.278 C 
ENDBRANCH  23  26
BRANCH  25  28
ATOM     28  O   UNL     1       8.531  49.862  67.252  1.00  0.00    -0.504 OA
ATOM     29  H   UNL     1       8.047  50.614  66.775  1.00  0.00     0.293 HD
ENDBRANCH  25  28
ENDBRANCH  19  20
ENDBRANCH  16  18
ENDBRANCH   1  16
TORSDOF 10
ENDMDL
MODEL 4
REMARK VINA RESULT:    -5.305      2.120      6.009
REMARK INTER + INTRA:         -10.362
REMARK INTER:                  -8.187
REMARK INTRA:                  -2.175
REMARK UNBOUND:                -2.265
REMARK SMILES COc1cc(C=CC(=O)CC(=O)C=Cc2ccc(O)c(OC)c2)ccc1O
REMARK SMILES IDX 10 1 8 2 9 3 7 4 6 5 5 6 3 7 26 8 4 9 25 10 24 11 2 12 1 13
REMARK SMILES IDX 27 14 11 16 12 17 13 18 14 19 15 20 23 21 16 22 20 23 17 24
REMARK SMILES IDX 18 25 21 26 22 27 19 28
REMARK H PARENT 27 15 19 29
REMARK Flexibility Score: inf
ROOT
ATOM      1  C   UNL     1       1.785  36.628  70.388  1.00  0.00     0.160 C 
ENDROOT
BRANCH   1   2
ATOM      2  C   UNL     1       1.116  35.920  69.247  1.00  0.00     0.163 C 
ATOM      3  O   UNL     1       1.477  36.185  68.069  1.00  0.00    -0.294 OA
BRANCH   2   4
ATOM      4  C   UNL     1      -0.018  35.003  69.499  1.00  0.00     0.048 C 
ATOM      5  C   UNL     1       0.019  33.669  69.355  1.00  0.00     0.012 C 
BRANCH   5   6
ATOM      6  C   UNL     1       1.242  32.872  69.125  1.00  0.00    -0.022 A 
ATOM      7  C   UNL     1       3.062  31.465  69.956  1.00  0.00     0.161 A 
ATOM      8  C   UNL     1       3.486  31.252  68.632  1.00  0.00     0.157 A 
ATOM      9  C   UNL     1       1.932  32.272  70.194  1.00  0.00     0.058 A 
ATOM     10  C   UNL     1       2.782  31.828  67.569  1.00  0.00     0.051 A 
ATOM     11  C   UNL     1       1.661  32.623  67.812  1.00  0.00     0.012 A 
BRANCH   7  12
ATOM     12  O   UNL     1       3.776  30.859  71.003  1.00  0.00    -0.493 OA
ATOM     13  C   UNL     1       3.178  30.176  72.100  1.00  0.00     0.278 C 
ENDBRANCH   7  12
BRANCH   8  14
ATOM     14  O   UNL     1       4.603  30.464  68.351  1.00  0.00    -0.504 OA
ATOM     15  H   UNL     1       4.632  29.472  68.559  1.00  0.00     0.293 HD
ENDBRANCH   8  14
ENDBRANCH   5   6
ENDBRANCH   2   4
ENDBRANCH   1   2
BRANCH   1  16
ATOM     16  C   UNL     1       2.910  35.791  70.939  1.00  0.00     0.163 C 
ATOM     17  O   UNL     1       2.871  35.473  72.158  1.00  0.00    -0.294 OA
BRANCH  16  18
ATOM     18  C   UNL     1       4.026  35.260  70.120  1.00  0.00     0.048 C 
ATOM     19  C   UNL     1       5.057  34.557  70.613  1.00  0.00     0.012 C 
BRANCH  19  20
ATOM     20  C   UNL     1       6.164  34.031  69.776  1.00  0.00    -0.022 A 
ATOM     21  C   UNL     1       6.629  32.705  69.883  1.00  0.00     0.058 A 
ATOM     22  C   UNL     1       6.735  34.875  68.812  1.00  0.00     0.012 A 
ATOM     23  C   UNL     1       7.672  32.240  69.056  1.00  0.00     0.161 A 
ATOM     24  C   UNL     1       7.767  34.421  67.993  1.00  0.00     0.051 A 
ATOM     25  C   UNL     1       8.241  33.112  68.110  1.00  0.00     0.157 A 
BRANCH  23  26
ATOM     26  O   UNL     1       8.161  30.926  69.142  1.00  0.00    -0.493 OA
ATOM     27  C   UNL     1       7.610  29.910  69.974  1.00  0.00     0.278 C 
ENDBRANCH  23  26
BRANCH  25  28
ATOM     28  O   UNL     1       9.277  32.694  67.274  1.00  0.00    -0.504 OA
ATOM     29  H   UNL     1       9.518  33.187  66.423  1.00  0.00     0.293 HD
ENDBRANCH  25  28
ENDBRANCH  19  20
ENDBRANCH  16  18
ENDBRANCH   1  16
TORSDOF 10
ENDMDL
MODEL 5
REMARK VINA RESULT:    -5.285     14.105     16.726
REMARK INTER + INTRA:         -10.330
REMARK INTER:                  -9.276
REMARK INTRA:                  -1.055
REMARK UNBOUND:                -2.265
REMARK SMILES COc1cc(C=CC(=O)CC(=O)C=Cc2ccc(O)c(OC)c2)ccc1O
REMARK SMILES IDX 10 1 8 2 9 3 7 4 6 5 5 6 3 7 26 8 4 9 25 10 24 11 2 12 1 13
REMARK SMILES IDX 27 14 11 16 12 17 13 18 14 19 15 20 23 21 16 22 20 23 17 24
REMARK SMILES IDX 18 25 21 26 22 27 19 28
REMARK H PARENT 27 15 19 29
REMARK Flexibility Score: inf
ROOT
ATOM      1  C   UNL     1       7.096  48.637  69.969  1.00  0.00     0.160 C 
ENDROOT
BRANCH   1   2
ATOM      2  C   UNL     1       7.145  47.326  69.242  1.00  0.00     0.163 C 
ATOM      3  O   UNL     1       6.437  46.370  69.659  1.00  0.00    -0.294 OA
BRANCH   2   4
ATOM      4  C   UNL     1       8.086  47.132  68.116  1.00  0.00     0.048 C 
ATOM      5  C   UNL     1       7.808  47.371  66.825  1.00  0.00     0.012 C 
BRANCH   5   6
ATOM      6  C   UNL     1       6.600  48.062  66.329  1.00  0.00    -0.022 A 
ATOM      7  C   UNL     1       4.322  48.007  65.439  1.00  0.00     0.161 A 
ATOM      8  C   UNL     1       4.269  49.410  65.520  1.00  0.00     0.157 A 
ATOM      9  C   UNL     1       5.492  47.339  65.853  1.00  0.00     0.058 A 
ATOM     10  C   UNL     1       5.363  50.125  66.018  1.00  0.00     0.051 A 
ATOM     11  C   UNL     1       6.516  49.456  66.432  1.00  0.00     0.012 A 
BRANCH   7  12
ATOM     12  O   UNL     1       3.202  47.312  64.951  1.00  0.00    -0.493 OA
ATOM     13  C   UNL     1       2.998  45.910  65.091  1.00  0.00     0.278 C 
ENDBRANCH   7  12
BRANCH   8  14
ATOM     14  O   UNL     1       3.133  50.112  65.116  1.00  0.00    -0.504 OA
ATOM     15  H   UNL     1       2.753  50.882  65.653  1.00  0.00     0.293 HD
ENDBRANCH   8  14
ENDBRANCH   5   6
ENDBRANCH   2   4
ENDBRANCH   1   2
BRANCH   1  16
ATOM     16  C   UNL     1       8.479  49.223  70.091  1.00  0.00     0.163 C 
ATOM     17  O   UNL     1       8.816  50.121  69.273  1.00  0.00    -0.294 OA
BRANCH  16  18
ATOM     18  C   UNL     1       9.445  48.857  71.154  1.00  0.00     0.048 C 
ATOM     19  C   UNL     1      10.743  48.594  70.939  1.00  0.00     0.012 C 
BRANCH  19  20
ATOM     20  C   UNL     1      11.695  48.232  72.019  1.00  0.00    -0.022 A 
ATOM     21  C   UNL     1      11.276  47.655  73.234  1.00  0.00     0.058 A 
ATOM     22  C   UNL     1      13.065  48.434  71.800  1.00  0.00     0.012 A 
ATOM     23  C   UNL     1      12.214  47.310  74.228  1.00  0.00     0.161 A 
ATOM     24  C   UNL     1      13.998  48.097  72.780  1.00  0.00     0.051 A 
ATOM     25  C   UNL     1      13.582  47.540  73.992  1.00  0.00     0.157 A 
BRANCH  23  26
ATOM     26  O   UNL     1      11.827  46.737  75.451  1.00  0.00    -0.493 OA
ATOM     27  C   UNL     1      10.747  47.199  76.256  1.00  0.00     0.278 C 
ENDBRANCH  23  26
BRANCH  25  28
ATOM     28  O   UNL     1      14.543  47.217  74.950  1.00  0.00    -0.504 OA
ATOM     29  H   UNL     1      15.398  46.727  74.714  1.00  0.00     0.293 HD
ENDBRANCH  25  28
ENDBRANCH  19  20
ENDBRANCH  16  18
ENDBRANCH   1  16
TORSDOF 10
ENDMDL
MODEL 6
REMARK VINA RESULT:    -5.247     16.157     18.068
REMARK INTER + INTRA:         -10.272
REMARK INTER:                  -9.338
REMARK INTRA:                  -0.934
REMARK UNBOUND:                -2.265
REMARK SMILES COc1cc(C=CC(=O)CC(=O)C=Cc2ccc(O)c(OC)c2)ccc1O
REMARK SMILES IDX 10 1 8 2 9 3 7 4 6 5 5 6 3 7 26 8 4 9 25 10 24 11 2 12 1 13
REMARK SMILES IDX 27 14 11 16 12 17 13 18 14 19 15 20 23 21 16 22 20 23 17 24
REMARK SMILES IDX 18 25 21 26 22 27 19 28
REMARK H PARENT 27 15 19 29
REMARK Flexibility Score: inf
ROOT
ATOM      1  C   UNL     1      16.104  43.716  73.549  1.00  0.00     0.160 C 
ENDROOT
BRANCH   1   2
ATOM      2  C   UNL     1      15.781  44.487  74.794  1.00  0.00     0.163 C 
ATOM      3  O   UNL     1      14.769  44.158  75.469  1.00  0.00    -0.294 OA
BRANCH   2   4
ATOM      4  C   UNL     1      16.580  45.676  75.165  1.00  0.00     0.048 C 
ATOM      5  C   UNL     1      16.424  46.905  74.650  1.00  0.00     0.012 C 
BRANCH   5   6
ATOM      6  C   UNL     1      15.303  47.330  73.785  1.00  0.00    -0.022 A 
ATOM      7  C   UNL     1      12.936  47.856  73.463  1.00  0.00     0.161 A 
ATOM      8  C   UNL     1      13.219  48.270  72.149  1.00  0.00     0.157 A 
ATOM      9  C   UNL     1      13.988  47.392  74.279  1.00  0.00     0.058 A 
ATOM     10  C   UNL     1      14.533  48.232  71.670  1.00  0.00     0.051 A 
ATOM     11  C   UNL     1      15.571  47.776  72.485  1.00  0.00     0.012 A 
BRANCH   7  12
ATOM     12  O   UNL     1      11.610  47.923  73.924  1.00  0.00    -0.493 OA
ATOM     13  C   UNL     1      11.112  47.211  75.052  1.00  0.00     0.278 C 
ENDBRANCH   7  12
BRANCH   8  14
ATOM     14  O   UNL     1      12.208  48.731  71.305  1.00  0.00    -0.504 OA
ATOM     15  H   UNL     1      12.224  49.659  70.898  1.00  0.00     0.293 HD
ENDBRANCH   8  14
ENDBRANCH   5   6
ENDBRANCH   2   4
ENDBRANCH   1   2
BRANCH   1  16
ATOM     16  C   UNL     1      17.471  43.092  73.657  1.00  0.00     0.163 C 
ATOM     17  O   UNL     1      18.326  43.378  72.776  1.00  0.00    -0.294 OA
BRANCH  16  18
ATOM     18  C   UNL     1      17.896  42.214  74.773  1.00  0.00     0.048 C 
ATOM     19  C   UNL     1      17.703  40.887  74.807  1.00  0.00     0.012 C 
BRANCH  19  20
ATOM     20  C   UNL     1      18.140  40.024  75.934  1.00  0.00    -0.022 A 
ATOM     21  C   UNL     1      18.623  38.715  75.741  1.00  0.00     0.058 A 
ATOM     22  C   UNL     1      18.109  40.553  77.233  1.00  0.00     0.012 A 
ATOM     23  C   UNL     1      19.044  37.935  76.838  1.00  0.00     0.161 A 
ATOM     24  C   UNL     1      18.522  39.786  78.321  1.00  0.00     0.051 A 
ATOM     25  C   UNL     1      18.986  38.481  78.133  1.00  0.00     0.157 A 
BRANCH  23  26
ATOM     26  O   UNL     1      19.526  36.625  76.678  1.00  0.00    -0.493 OA
ATOM     27  C   UNL     1      19.805  36.012  75.424  1.00  0.00     0.278 C 
ENDBRANCH  23  26
BRANCH  25  28
ATOM     28  O   UNL     1      19.389  37.743  79.246  1.00  0.00    -0.504 OA
ATOM     29  H   UNL     1      20.173  37.102  79.215  1.00  0.00     0.293 HD
ENDBRANCH  25  28
ENDBRANCH  19  20
ENDBRANCH  16  18
ENDBRANCH   1  16
TORSDOF 10
ENDMDL
MODEL 7
REMARK VINA RESULT:    -5.092     13.364     16.165
REMARK INTER + INTRA:         -10.037
REMARK INTER:                 -10.105
REMARK INTRA:                   0.069
REMARK UNBOUND:                -2.265
REMARK SMILES COc1cc(C=CC(=O)CC(=O)C=Cc2ccc(O)c(OC)c2)ccc1O
REMARK SMILES IDX 10 1 8 2 9 3 7 4 6 5 5 6 3 7 26 8 4 9 25 10 24 11 2 12 1 13
REMARK SMILES IDX 27 14 11 16 12 17 13 18 14 19 15 20 23 21 16 22 20 23 17 24
REMARK SMILES IDX 18 25 21 26 22 27 19 28
REMARK H PARENT 27 15 19 29
REMARK Flexibility Score: inf
ROOT
ATOM      1  C   UNL     1       7.299  47.707  69.084  1.00  0.00     0.160 C 
ENDROOT
BRANCH   1   2
ATOM      2  C   UNL     1       7.563  47.968  67.631  1.00  0.00     0.163 C 
ATOM      3  O   UNL     1       8.391  47.240  67.020  1.00  0.00    -0.294 OA
BRANCH   2   4
ATOM      4  C   UNL     1       6.937  49.126  66.954  1.00  0.00     0.048 C 
ATOM      5  C   UNL     1       5.994  49.050  66.004  1.00  0.00     0.012 C 
BRANCH   5   6
ATOM      6  C   UNL     1       5.272  47.819  65.618  1.00  0.00    -0.022 A 
ATOM      7  C   UNL     1       3.961  45.839  66.206  1.00  0.00     0.161 A 
ATOM      8  C   UNL     1       3.791  45.560  64.838  1.00  0.00     0.157 A 
ATOM      9  C   UNL     1       4.699  46.978  66.588  1.00  0.00     0.058 A 
ATOM     10  C   UNL     1       4.340  46.413  63.876  1.00  0.00     0.051 A 
ATOM     11  C   UNL     1       5.065  47.542  64.261  1.00  0.00     0.012 A 
BRANCH   7  12
ATOM     12  O   UNL     1       3.384  44.975  67.152  1.00  0.00    -0.493 OA
ATOM     13  C   UNL     1       1.993  44.687  67.240  1.00  0.00     0.278 C 
ENDBRANCH   7  12
BRANCH   8  14
ATOM     14  O   UNL     1       3.074  44.441  64.415  1.00  0.00    -0.504 OA
ATOM     15  H   UNL     1       3.194  43.528  64.840  1.00  0.00     0.293 HD
ENDBRANCH   8  14
ENDBRANCH   5   6
ENDBRANCH   2   4
ENDBRANCH   1   2
BRANCH   1  16
ATOM     16  C   UNL     1       7.848  48.828  69.928  1.00  0.00     0.163 C 
ATOM     17  O   UNL     1       7.386  49.987  69.747  1.00  0.00    -0.294 OA
BRANCH  16  18
ATOM     18  C   UNL     1       8.850  48.643  71.004  1.00  0.00     0.048 C 
ATOM     19  C   UNL     1      10.152  48.400  70.792  1.00  0.00     0.012 C 
BRANCH  19  20
ATOM     20  C   UNL     1      11.140  48.220  71.885  1.00  0.00    -0.022 A 
ATOM     21  C   UNL     1      10.765  47.836  73.188  1.00  0.00     0.058 A 
ATOM     22  C   UNL     1      12.501  48.398  71.595  1.00  0.00     0.012 A 
ATOM     23  C   UNL     1      11.737  47.659  74.194  1.00  0.00     0.161 A 
ATOM     24  C   UNL     1      13.466  48.227  72.586  1.00  0.00     0.051 A 
ATOM     25  C   UNL     1      13.093  47.862  73.883  1.00  0.00     0.157 A 
BRANCH  23  26
ATOM     26  O   UNL     1      11.393  47.281  75.503  1.00  0.00    -0.493 OA
ATOM     27  C   UNL     1      11.210  45.938  75.936  1.00  0.00     0.278 C 
ENDBRANCH  23  26
BRANCH  25  28
ATOM     28  O   UNL     1      14.087  47.702  74.849  1.00  0.00    -0.504 OA
ATOM     29  H   UNL     1      15.003  48.125  74.758  1.00  0.00     0.293 HD
ENDBRANCH  25  28
ENDBRANCH  19  20
ENDBRANCH  16  18
ENDBRANCH   1  16
TORSDOF 10
ENDMDL
MODEL 8
REMARK VINA RESULT:    -4.956     15.526     18.501
REMARK INTER + INTRA:          -9.829
REMARK INTER:                  -8.741
REMARK INTRA:                  -1.089
REMARK UNBOUND:                -2.265
REMARK SMILES COc1cc(C=CC(=O)CC(=O)C=Cc2ccc(O)c(OC)c2)ccc1O
REMARK SMILES IDX 10 1 8 2 9 3 7 4 6 5 5 6 3 7 26 8 4 9 25 10 24 11 2 12 1 13
REMARK SMILES IDX 27 14 11 16 12 17 13 18 14 19 15 20 23 21 16 22 20 23 17 24
REMARK SMILES IDX 18 25 21 26 22 27 19 28
REMARK H PARENT 27 15 19 29
REMARK Flexibility Score: inf
ROOT
ATOM      1  C   UNL     1      16.802  46.343  75.135  1.00  0.00     0.160 C 
ENDROOT
BRANCH   1   2
ATOM      2  C   UNL     1      17.226  47.328  74.086  1.00  0.00     0.163 C 
ATOM      3  O   UNL     1      17.750  46.900  73.023  1.00  0.00    -0.294 OA
BRANCH   2   4
ATOM      4  C   UNL     1      17.122  48.782  74.342  1.00  0.00     0.048 C 
ATOM      5  C   UNL     1      16.029  49.530  74.129  1.00  0.00     0.012 C 
BRANCH   5   6
ATOM      6  C   UNL     1      14.687  49.002  73.804  1.00  0.00    -0.022 A 
ATOM      7  C   UNL     1      12.486  48.189  74.496  1.00  0.00     0.161 A 
ATOM      8  C   UNL     1      12.097  48.128  73.146  1.00  0.00     0.157 A 
ATOM      9  C   UNL     1      13.784  48.635  74.817  1.00  0.00     0.058 A 
ATOM     10  C   UNL     1      12.989  48.518  72.142  1.00  0.00     0.051 A 
ATOM     11  C   UNL     1      14.271  48.964  72.467  1.00  0.00     0.012 A 
BRANCH   7  12
ATOM     12  O   UNL     1      11.565  47.808  75.486  1.00  0.00    -0.493 OA
ATOM     13  C   UNL     1      11.290  46.462  75.859  1.00  0.00     0.278 C 
ENDBRANCH   7  12
BRANCH   8  14
ATOM     14  O   UNL     1      10.824  47.688  72.783  1.00  0.00    -0.504 OA
ATOM     15  H   UNL     1      10.477  47.758  71.833  1.00  0.00     0.293 HD
ENDBRANCH   8  14
ENDBRANCH   5   6
ENDBRANCH   2   4
ENDBRANCH   1   2
BRANCH   1  16
ATOM     16  C   UNL     1      15.958  45.255  74.522  1.00  0.00     0.163 C 
ATOM     17  O   UNL     1      14.876  45.585  73.966  1.00  0.00    -0.294 OA
BRANCH  16  18
ATOM     18  C   UNL     1      16.354  43.827  74.473  1.00  0.00     0.048 C 
ATOM     19  C   UNL     1      17.195  43.246  75.341  1.00  0.00     0.012 C 
BRANCH  19  20
ATOM     20  C   UNL     1      17.576  41.812  75.276  1.00  0.00    -0.022 A 
ATOM     21  C   UNL     1      18.485  41.230  76.182  1.00  0.00     0.058 A 
ATOM     22  C   UNL     1      16.973  41.002  74.303  1.00  0.00     0.012 A 
ATOM     23  C   UNL     1      18.807  39.859  76.096  1.00  0.00     0.161 A 
ATOM     24  C   UNL     1      17.289  39.647  74.212  1.00  0.00     0.051 A 
ATOM     25  C   UNL     1      18.203  39.072  75.099  1.00  0.00     0.157 A 
BRANCH  23  26
ATOM     26  O   UNL     1      19.712  39.251  76.981  1.00  0.00    -0.493 OA
ATOM     27  C   UNL     1      19.346  38.589  78.187  1.00  0.00     0.278 C 
ENDBRANCH  23  26
BRANCH  25  28
ATOM     28  O   UNL     1      18.495  37.713  74.977  1.00  0.00    -0.504 OA
ATOM     29  H   UNL     1      19.119  37.356  74.263  1.00  0.00     0.293 HD
ENDBRANCH  25  28
ENDBRANCH  19  20
ENDBRANCH  16  18
ENDBRANCH   1  16
TORSDOF 10
ENDMDL
MODEL 9
REMARK VINA RESULT:    -4.855      1.836      3.203
REMARK INTER + INTRA:          -9.674
REMARK INTER:                  -7.427
REMARK INTRA:                  -2.248
REMARK UNBOUND:                -2.265
REMARK SMILES COc1cc(C=CC(=O)CC(=O)C=Cc2ccc(O)c(OC)c2)ccc1O
REMARK SMILES IDX 10 1 8 2 9 3 7 4 6 5 5 6 3 7 26 8 4 9 25 10 24 11 2 12 1 13
REMARK SMILES IDX 27 14 11 16 12 17 13 18 14 19 15 20 23 21 16 22 20 23 17 24
REMARK SMILES IDX 18 25 21 26 22 27 19 28
REMARK H PARENT 27 15 19 29
REMARK Flexibility Score: inf
ROOT
ATOM      1  C   UNL     1       7.864  32.869  68.804  1.00  0.00     0.160 C 
ENDROOT
BRANCH   1   2
ATOM      2  C   UNL     1       7.495  32.036  69.996  1.00  0.00     0.163 C 
ATOM      3  O   UNL     1       7.378  32.596  71.119  1.00  0.00    -0.294 OA
BRANCH   2   4
ATOM      4  C   UNL     1       7.371  30.566  69.870  1.00  0.00     0.048 C 
ATOM      5  C   UNL     1       6.218  29.881  69.909  1.00  0.00     0.012 C 
BRANCH   5   6
ATOM      6  C   UNL     1       4.869  30.483  69.873  1.00  0.00    -0.022 A 
ATOM      7  C   UNL     1       2.790  30.996  68.689  1.00  0.00     0.161 A 
ATOM      8  C   UNL     1       2.255  31.518  69.880  1.00  0.00     0.157 A 
ATOM      9  C   UNL     1       4.099  30.472  68.696  1.00  0.00     0.058 A 
ATOM     10  C   UNL     1       3.014  31.504  71.055  1.00  0.00     0.051 A 
ATOM     11  C   UNL     1       4.307  30.979  71.056  1.00  0.00     0.012 A 
BRANCH   7  12
ATOM     12  O   UNL     1       1.999  31.006  67.528  1.00  0.00    -0.493 OA
ATOM     13  C   UNL     1       0.842  30.201  67.332  1.00  0.00     0.278 C 
ENDBRANCH   7  12
BRANCH   8  14
ATOM     14  O   UNL     1       0.966  32.051  69.918  1.00  0.00    -0.504 OA
ATOM     15  H   UNL     1       0.563  32.550  69.133  1.00  0.00     0.293 HD
ENDBRANCH   8  14
ENDBRANCH   5   6
ENDBRANCH   2   4
ENDBRANCH   1   2
BRANCH   1  16
ATOM     16  C   UNL     1       6.760  32.837  67.779  1.00  0.00     0.163 C 
ATOM     17  O   UNL     1       6.930  32.135  66.746  1.00  0.00    -0.294 OA
BRANCH  16  18
ATOM     18  C   UNL     1       5.458  33.528  67.940  1.00  0.00     0.048 C 
ATOM     19  C   UNL     1       5.023  34.060  69.092  1.00  0.00     0.012 C 
BRANCH  19  20
ATOM     20  C   UNL     1       3.716  34.751  69.232  1.00  0.00    -0.022 A 
ATOM     21  C   UNL     1       2.777  34.810  68.184  1.00  0.00     0.058 A 
ATOM     22  C   UNL     1       3.391  35.327  70.469  1.00  0.00     0.012 A 
ATOM     23  C   UNL     1       1.539  35.462  68.363  1.00  0.00     0.161 A 
ATOM     24  C   UNL     1       2.170  35.974  70.652  1.00  0.00     0.051 A 
ATOM     25  C   UNL     1       1.244  36.048  69.607  1.00  0.00     0.157 A 
BRANCH  23  26
ATOM     26  O   UNL     1       0.584  35.542  67.336  1.00  0.00    -0.493 OA
ATOM     27  C   UNL     1       0.642  36.454  66.244  1.00  0.00     0.278 C 
ENDBRANCH  23  26
BRANCH  25  28
ATOM     28  O   UNL     1       0.034  36.706  69.826  1.00  0.00    -0.504 OA
ATOM     29  H   UNL     1      -0.380  37.323  69.137  1.00  0.00     0.293 HD
ENDBRANCH  25  28
ENDBRANCH  19  20
ENDBRANCH  16  18
ENDBRANCH   1  16
TORSDOF 10
ENDMDL
