MODEL 1
REMARK VINA RESULT:    -2.460      0.000      0.000
REMARK INTER + INTRA:          -1.837
REMARK INTER:                  -3.467
REMARK INTRA:                   1.630
REMARK UNBOUND:                 1.630
REMARK SMILES CC1=CCC(=C(C)C)C(=O)CC(C)=CCC1
REMARK SMILES IDX 12 1 14 2 13 3 15 4 16 5 2 6 1 7 3 8 11 10 9 11 10 12 5 13
REMARK SMILES IDX 6 14 7 15 8 16 4 17
REMARK H PARENT
REMARK Flexibility Score: 60.00
ROOT
ATOM      1  C   UNL     1      10.123   6.621   0.659  1.00  0.00    -0.070 C 
ATOM      2  C   UNL     1      10.709   6.358   1.851  1.00  0.00    -0.027 C 
ATOM      3  C   UNL     1       8.928   5.793   0.260  1.00  0.00     0.039 C 
ENDROOT
BRANCH   2   4
ATOM      4  C   UNL     1      11.947   7.044   2.383  1.00  0.00     0.032 C 
BRANCH   4   5
ATOM      5  C   UNL     1      11.615   7.982   3.553  1.00  0.00     0.034 C 
BRANCH   5   6
ATOM      6  C   UNL     1      12.563   9.166   3.673  1.00  0.00    -0.077 C 
ATOM      7  C   UNL     1      12.888   9.702   5.045  1.00  0.00     0.039 C 
ATOM      8  C   UNL     1      13.124   9.781   2.607  1.00  0.00    -0.023 CG0
ATOM      9  G   UNL     1      12.976   9.347   1.166  1.00  0.00     0.000 G0
ENDBRANCH   5   6
ENDBRANCH   4   5
ENDBRANCH   2   4
BRANCH   1  10
ATOM     10  C   UNL     1      10.613   7.705  -0.280  1.00  0.00     0.111 C 
BRANCH  10  11
ATOM     11  C   UNL     1      10.547   9.058   0.373  1.00  0.00     0.163 C 
ATOM     12  O   UNL     1       9.444   9.476   0.820  1.00  0.00    -0.294 OA
BRANCH  11  13
ATOM     13  C   UNL     1      11.749   9.922   0.481  1.00  0.00    -0.002 C 
ATOM     14  C   UNL     1      11.734  11.186  -0.023  1.00  0.00    -0.069 C 
ATOM     15  C   UNL     1      12.930  12.099   0.124  1.00  0.00     0.039 C 
ATOM     16  C   UNL     1      10.536  11.711  -0.784  1.00  0.00     0.039 C 
BRANCH  13  17
ATOM     17  C   UNL     1      12.999   9.374   1.162  1.00  0.00     0.066 CG0
ATOM     18  G   UNL     1      13.139   9.794   2.607  1.00  0.00     0.000 G0
ENDBRANCH  13  17
ENDBRANCH  11  13
ENDBRANCH  10  11
ENDBRANCH   1  10
TORSDOF 0
ENDMDL
MODEL 2
REMARK VINA RESULT:    -2.099      1.724      4.249
REMARK INTER + INTRA:          -1.328
REMARK INTER:                  -2.858
REMARK INTRA:                   1.530
REMARK UNBOUND:                 1.630
REMARK SMILES CC1=CCC(=C(C)C)C(=O)CC(C)=CCC1
REMARK SMILES IDX 12 1 14 2 13 3 15 4 16 5 2 6 1 7 3 8 11 10 9 11 10 12 5 13
REMARK SMILES IDX 6 14 7 15 8 16 4 17
REMARK H PARENT
REMARK Flexibility Score: 60.00
ROOT
ATOM      1  C   UNL     1      10.946  10.325  -0.187  1.00  0.00    -0.070 C 
ATOM      2  C   UNL     1      11.960   9.584  -0.693  1.00  0.00    -0.027 C 
ATOM      3  C   UNL     1      10.321  11.370  -1.076  1.00  0.00     0.039 C 
ENDROOT
BRANCH   2   4
ATOM      4  C   UNL     1      12.740   8.539   0.071  1.00  0.00     0.032 C 
BRANCH   4   5
ATOM      5  C   UNL     1      12.203   7.125  -0.195  1.00  0.00     0.034 C 
BRANCH   5   6
ATOM      6  C   UNL     1      11.213   6.642   0.855  1.00  0.00    -0.077 C 
ATOM      7  C   UNL     1      10.109   5.703   0.438  1.00  0.00     0.039 C 
ATOM      8  C   UNL     1      11.257   7.025   2.152  1.00  0.00    -0.023 CG0
ATOM      9  G   UNL     1      12.324   7.899   2.771  1.00  0.00     0.000 G0
ENDBRANCH   5   6
ENDBRANCH   4   5
ENDBRANCH   2   4
BRANCH   1  10
ATOM     10  C   UNL     1      10.418  10.148   1.223  1.00  0.00     0.111 C 
BRANCH  10  11
ATOM     11  C   UNL     1      11.514  10.320   2.238  1.00  0.00     0.163 C 
ATOM     12  O   UNL     1      12.222  11.364   2.212  1.00  0.00    -0.294 OA
BRANCH  11  13
ATOM     13  C   UNL     1      11.795   9.276   3.255  1.00  0.00    -0.002 C 
ATOM     14  C   UNL     1      11.584   9.529   4.575  1.00  0.00    -0.069 C 
ATOM     15  C   UNL     1      11.814   8.461   5.619  1.00  0.00     0.039 C 
ATOM     16  C   UNL     1      11.152  10.898   5.050  1.00  0.00     0.039 C 
BRANCH  13  17
ATOM     17  C   UNL     1      12.323   7.919   2.799  1.00  0.00     0.066 CG0
ATOM     18  G   UNL     1      11.267   7.031   2.181  1.00  0.00     0.000 G0
ENDBRANCH  13  17
ENDBRANCH  11  13
ENDBRANCH  10  11
ENDBRANCH   1  10
TORSDOF 0
ENDMDL
MODEL 3
REMARK VINA RESULT:    -1.581      2.011      4.319
REMARK INTER + INTRA:          -0.599
REMARK INTER:                  -4.135
REMARK INTRA:                   3.536
REMARK UNBOUND:                 1.630
REMARK SMILES CC1=CCC(=C(C)C)C(=O)CC(C)=CCC1
REMARK SMILES IDX 12 1 14 2 13 3 15 4 16 5 2 6 1 7 3 8 11 10 9 11 10 12 5 13
REMARK SMILES IDX 6 14 7 15 8 16 4 17
REMARK H PARENT
REMARK Flexibility Score: 60.00
ROOT
ATOM      1  C   UNL     1      12.165   8.419   2.344  1.00  0.00    -0.070 C 
ATOM      2  C   UNL     1      11.325   9.346   2.861  1.00  0.00    -0.027 C 
ATOM      3  C   UNL     1      12.536   7.240   3.208  1.00  0.00     0.039 C 
ENDROOT
BRANCH   2   4
ATOM      4  C   UNL     1      10.896  10.617   2.163  1.00  0.00     0.032 C 
BRANCH   4   5
ATOM      5  C   UNL     1      12.025  11.197   1.299  1.00  0.00     0.034 C 
BRANCH   5   6
ATOM      6  C   UNL     1      11.691  11.247  -0.185  1.00  0.00    -0.077 C 
ATOM      7  C   UNL     1      12.521  12.124  -1.089  1.00  0.00     0.039 C 
ATOM      8  C   UNL     1      10.670  10.556  -0.742  1.00  0.00    -0.023 CG0
ATOM      9  G   UNL     1       9.776   9.577  -0.016  1.00  0.00     0.000 G0
ENDBRANCH   5   6
ENDBRANCH   4   5
ENDBRANCH   2   4
BRANCH   1  10
ATOM     10  C   UNL     1      12.743   8.517   0.946  1.00  0.00     0.111 C 
BRANCH  10  11
ATOM     11  C   UNL     1      11.797   7.942  -0.072  1.00  0.00     0.163 C 
ATOM     12  O   UNL     1      12.261   7.300  -1.053  1.00  0.00    -0.294 OA
BRANCH  11  13
ATOM     13  C   UNL     1      10.330   8.136   0.042  1.00  0.00    -0.002 C 
ATOM     14  C   UNL     1       9.506   7.066   0.207  1.00  0.00    -0.069 C 
ATOM     15  C   UNL     1       8.016   7.248   0.378  1.00  0.00     0.039 C 
ATOM     16  C   UNL     1      10.045   5.652   0.183  1.00  0.00     0.039 C 
BRANCH  13  17
ATOM     17  C   UNL     1       9.760   9.549  -0.028  1.00  0.00     0.066 CG0
ATOM     18  G   UNL     1      10.655  10.532  -0.749  1.00  0.00     0.000 G0
ENDBRANCH  13  17
ENDBRANCH  11  13
ENDBRANCH  10  11
ENDBRANCH   1  10
TORSDOF 0
ENDMDL
MODEL 4
REMARK VINA RESULT:    -1.399     25.772     27.711
REMARK INTER + INTRA:          -0.342
REMARK INTER:                  -1.634
REMARK INTRA:                   1.292
REMARK UNBOUND:                 1.630
REMARK SMILES CC1=CCC(=C(C)C)C(=O)CC(C)=CCC1
REMARK SMILES IDX 12 1 14 2 13 3 15 4 16 5 2 6 1 7 3 8 11 10 9 11 10 12 5 13
REMARK SMILES IDX 6 14 7 15 8 16 4 17
REMARK H PARENT
REMARK Flexibility Score: 60.00
ROOT
ATOM      1  C   UNL     1      -5.060  -4.516  17.567  1.00  0.00    -0.070 C 
ATOM      2  C   UNL     1      -6.315  -5.020  17.626  1.00  0.00    -0.027 C 
ATOM      3  C   UNL     1      -4.545  -3.756  18.762  1.00  0.00     0.039 C 
ENDROOT
BRANCH   2   4
ATOM      4  C   UNL     1      -7.013  -5.753  16.503  1.00  0.00     0.032 C 
BRANCH   4   5
ATOM      5  C   UNL     1      -6.817  -7.272  16.611  1.00  0.00     0.034 C 
BRANCH   5   6
ATOM      6  C   UNL     1      -6.197  -7.714  17.929  1.00  0.00    -0.077 C 
ATOM      7  C   UNL     1      -7.103  -7.996  19.101  1.00  0.00     0.039 C 
ATOM      8  C   UNL     1      -4.864  -7.852  18.115  1.00  0.00    -0.023 CG0
ATOM      9  G   UNL     1      -3.808  -7.685  17.047  1.00  0.00     0.000 G0
ENDBRANCH   5   6
ENDBRANCH   4   5
ENDBRANCH   2   4
BRANCH   1  10
ATOM     10  C   UNL     1      -4.159  -4.686  16.360  1.00  0.00     0.111 C 
BRANCH  10  11
ATOM     11  C   UNL     1      -2.834  -5.277  16.751  1.00  0.00     0.163 C 
ATOM     12  O   UNL     1      -1.773  -4.655  16.473  1.00  0.00    -0.294 OA
BRANCH  11  13
ATOM     13  C   UNL     1      -2.748  -6.590  17.439  1.00  0.00    -0.002 C 
ATOM     14  C   UNL     1      -1.787  -6.814  18.376  1.00  0.00    -0.069 C 
ATOM     15  C   UNL     1      -1.717  -8.125  19.124  1.00  0.00     0.039 C 
ATOM     16  C   UNL     1      -0.729  -5.774  18.674  1.00  0.00     0.039 C 
BRANCH  13  17
ATOM     17  C   UNL     1      -3.750  -7.683  17.080  1.00  0.00     0.066 CG0
ATOM     18  G   UNL     1      -4.852  -7.857  18.099  1.00  0.00     0.000 G0
ENDBRANCH  13  17
ENDBRANCH  11  13
ENDBRANCH  10  11
ENDBRANCH   1  10
TORSDOF 0
ENDMDL
MODEL 5
REMARK VINA RESULT:    -1.389      2.103      4.012
REMARK INTER + INTRA:          -0.328
REMARK INTER:                  -3.223
REMARK INTRA:                   2.895
REMARK UNBOUND:                 1.630
REMARK SMILES CC1=CCC(=C(C)C)C(=O)CC(C)=CCC1
REMARK SMILES IDX 12 1 14 2 13 3 15 4 16 5 2 6 1 7 3 8 11 10 9 11 10 12 5 13
REMARK SMILES IDX 6 14 7 15 8 16 4 17
REMARK H PARENT
REMARK Flexibility Score: 60.00
ROOT
ATOM      1  C   UNL     1      12.289   6.776  -0.378  1.00  0.00    -0.070 C 
ATOM      2  C   UNL     1      12.640   7.850  -1.123  1.00  0.00    -0.027 C 
ATOM      3  C   UNL     1      11.765   5.558  -1.095  1.00  0.00     0.039 C 
ENDROOT
BRANCH   2   4
ATOM      4  C   UNL     1      13.125   9.172  -0.571  1.00  0.00     0.032 C 
BRANCH   4   5
ATOM      5  C   UNL     1      12.056  10.266  -0.703  1.00  0.00     0.034 C 
BRANCH   5   6
ATOM      6  C   UNL     1      11.616  10.853   0.631  1.00  0.00    -0.077 C 
ATOM      7  C   UNL     1      12.396  12.006   1.211  1.00  0.00     0.039 C 
ATOM      8  C   UNL     1      10.566  10.381   1.341  1.00  0.00    -0.023 CG0
ATOM      9  G   UNL     1       9.627   9.285   0.893  1.00  0.00     0.000 G0
ENDBRANCH   5   6
ENDBRANCH   4   5
ENDBRANCH   2   4
BRANCH   1  10
ATOM     10  C   UNL     1      12.402   6.747   1.134  1.00  0.00     0.111 C 
BRANCH  10  11
ATOM     11  C   UNL     1      11.364   7.628   1.771  1.00  0.00     0.163 C 
ATOM     12  O   UNL     1      11.601   8.149   2.895  1.00  0.00    -0.294 OA
BRANCH  11  13
ATOM     13  C   UNL     1      10.055   7.878   1.116  1.00  0.00    -0.002 C 
ATOM     14  C   UNL     1       9.269   6.836   0.734  1.00  0.00    -0.069 C 
ATOM     15  C   UNL     1       7.911   7.071   0.113  1.00  0.00     0.039 C 
ATOM     16  C   UNL     1       9.740   5.406   0.878  1.00  0.00     0.039 C 
BRANCH  13  17
ATOM     17  C   UNL     1       9.608   9.317   0.876  1.00  0.00     0.066 CG0
ATOM     18  G   UNL     1      10.602  10.351   1.353  1.00  0.00     0.000 G0
ENDBRANCH  13  17
ENDBRANCH  11  13
ENDBRANCH  10  11
ENDBRANCH   1  10
TORSDOF 0
ENDMDL
