MODEL 1
REMARK VINA RESULT:    -3.103      0.000      0.000
REMARK INTER + INTRA:         -11.263
REMARK INTER:                  -7.093
REMARK INTRA:                  -4.170
REMARK UNBOUND:                -4.170
REMARK SMILES CCCCCCCCCCCCCCCCCCCCCCCC(=O)[O-]
REMARK SMILES IDX 13 1 14 2 15 3 16 4 17 5 18 6 19 7 20 8 21 9 22 10 23 11
REMARK SMILES IDX 24 12 25 13 26 14 12 15 11 16 10 17 9 18 8 19 7 20 6 21 5 22
REMARK SMILES IDX 4 23 3 24 2 25 1 26
REMARK H PARENT
REMARK Flexibility Score: inf
ROOT
ATOM      1  C   UNL     1       3.141  69.305  14.444  1.00  0.00     0.000 C 
ENDROOT
BRANCH   1   2
ATOM      2  C   UNL     1       3.204  67.771  14.481  1.00  0.00     0.000 C 
BRANCH   2   3
ATOM      3  C   UNL     1       2.304  67.112  13.424  1.00  0.00     0.000 C 
BRANCH   3   4
ATOM      4  C   UNL     1       3.106  66.150  12.540  1.00  0.00     0.000 C 
BRANCH   4   5
ATOM      5  C   UNL     1       2.376  65.882  11.215  1.00  0.00     0.000 C 
BRANCH   5   6
ATOM      6  C   UNL     1       0.967  66.496  11.171  1.00  0.00     0.000 C 
BRANCH   6   7
ATOM      7  C   UNL     1       0.382  66.613   9.748  1.00  0.00     0.000 C 
BRANCH   7   8
ATOM      8  C   UNL     1       1.476  66.622   8.669  1.00  0.00     0.000 C 
BRANCH   8   9
ATOM      9  C   UNL     1       1.033  65.842   7.426  1.00  0.00     0.000 C 
BRANCH   9  10
ATOM     10  C   UNL     1       1.154  64.328   7.654  1.00  0.00     0.006 C 
BRANCH  10  11
ATOM     11  C   UNL     1       2.579  63.910   8.042  1.00  0.00     0.053 C 
BRANCH  11  12
ATOM     12  C   UNL     1       2.590  62.636   8.833  1.00  0.00     0.041 C 
ATOM     13  O   UNL     1       1.759  61.723   8.576  1.00  0.00    -0.550 OA
ATOM     14  O   UNL     1       3.552  62.434   9.815  1.00  0.00    -0.550 OA
ENDBRANCH  11  12
ENDBRANCH  10  11
ENDBRANCH   9  10
ENDBRANCH   8   9
ENDBRANCH   7   8
ENDBRANCH   6   7
ENDBRANCH   5   6
ENDBRANCH   4   5
ENDBRANCH   3   4
ENDBRANCH   2   3
ENDBRANCH   1   2
BRANCH   1  15
ATOM     15  C   UNL     1       4.302  69.931  13.650  1.00  0.00     0.000 C 
BRANCH  15  16
ATOM     16  C   UNL     1       5.387  68.902  13.294  1.00  0.00     0.000 C 
BRANCH  16  17
ATOM     17  C   UNL     1       5.600  68.770  11.775  1.00  0.00     0.000 C 
BRANCH  17  18
ATOM     18  C   UNL     1       4.809  69.832  10.982  1.00  0.00    -0.000 C 
BRANCH  18  19
ATOM     19  C   UNL     1       3.912  69.245   9.878  1.00  0.00    -0.000 C 
BRANCH  19  20
ATOM     20  C   UNL     1       2.555  69.959   9.768  1.00  0.00    -0.000 C 
BRANCH  20  21
ATOM     21  C   UNL     1       1.702  69.839  11.044  1.00  0.00    -0.000 C 
BRANCH  21  22
ATOM     22  C   UNL     1       1.015  71.139  11.503  1.00  0.00    -0.000 C 
BRANCH  22  23
ATOM     23  C   UNL     1       1.963  72.095  12.246  1.00  0.00    -0.000 C 
BRANCH  23  24
ATOM     24  C   UNL     1       2.367  73.275  11.351  1.00  0.00    -0.000 C 
BRANCH  24  25
ATOM     25  C   UNL     1       3.877  73.315  11.073  1.00  0.00    -0.003 C 
ATOM     26  C   UNL     1       4.581  74.473  11.781  1.00  0.00     0.004 C 
ENDBRANCH  24  25
ENDBRANCH  23  24
ENDBRANCH  22  23
ENDBRANCH  21  22
ENDBRANCH  20  21
ENDBRANCH  19  20
ENDBRANCH  18  19
ENDBRANCH  17  18
ENDBRANCH  16  17
ENDBRANCH  15  16
ENDBRANCH   1  15
TORSDOF 22
ENDMDL
MODEL 2
REMARK VINA RESULT:    -3.099      6.106      8.704
REMARK INTER + INTRA:         -11.254
REMARK INTER:                  -6.565
REMARK INTRA:                  -4.689
REMARK UNBOUND:                -4.170
REMARK SMILES CCCCCCCCCCCCCCCCCCCCCCCC(=O)[O-]
REMARK SMILES IDX 13 1 14 2 15 3 16 4 17 5 18 6 19 7 20 8 21 9 22 10 23 11
REMARK SMILES IDX 24 12 25 13 26 14 12 15 11 16 10 17 9 18 8 19 7 20 6 21 5 22
REMARK SMILES IDX 4 23 3 24 2 25 1 26
REMARK H PARENT
REMARK Flexibility Score: inf
ROOT
ATOM      1  C   UNL     1       3.753  62.914  15.216  1.00  0.00     0.000 C 
ENDROOT
BRANCH   1   2
ATOM      2  C   UNL     1       2.853  62.405  16.351  1.00  0.00     0.000 C 
BRANCH   2   3
ATOM      3  C   UNL     1       3.571  62.361  17.709  1.00  0.00     0.000 C 
BRANCH   3   4
ATOM      4  C   UNL     1       2.567  62.220  18.860  1.00  0.00     0.000 C 
BRANCH   4   5
ATOM      5  C   UNL     1       1.124  62.219  18.334  1.00  0.00     0.000 C 
BRANCH   5   6
ATOM      6  C   UNL     1       0.112  62.760  19.358  1.00  0.00     0.000 C 
BRANCH   6   7
ATOM      7  C   UNL     1      -1.222  63.220  18.732  1.00  0.00     0.000 C 
BRANCH   7   8
ATOM      8  C   UNL     1      -1.171  63.229  17.197  1.00  0.00     0.000 C 
BRANCH   8   9
ATOM      9  C   UNL     1      -1.988  64.393  16.623  1.00  0.00     0.000 C 
BRANCH   9  10
ATOM     10  C   UNL     1      -1.876  64.440  15.092  1.00  0.00     0.006 C 
BRANCH  10  11
ATOM     11  C   UNL     1      -2.797  65.500  14.473  1.00  0.00     0.053 C 
BRANCH  11  12
ATOM     12  C   UNL     1      -2.080  66.796  14.244  1.00  0.00     0.041 C 
ATOM     13  O   UNL     1      -1.962  67.630  15.182  1.00  0.00    -0.550 OA
ATOM     14  O   UNL     1      -1.494  67.059  13.011  1.00  0.00    -0.550 OA
ENDBRANCH  11  12
ENDBRANCH  10  11
ENDBRANCH   9  10
ENDBRANCH   8   9
ENDBRANCH   7   8
ENDBRANCH   6   7
ENDBRANCH   5   6
ENDBRANCH   4   5
ENDBRANCH   3   4
ENDBRANCH   2   3
ENDBRANCH   1   2
BRANCH   1  15
ATOM     15  C   UNL     1       3.186  64.164  14.520  1.00  0.00     0.000 C 
BRANCH  15  16
ATOM     16  C   UNL     1       1.770  64.512  15.007  1.00  0.00     0.000 C 
BRANCH  16  17
ATOM     17  C   UNL     1       1.454  66.014  14.883  1.00  0.00     0.000 C 
BRANCH  17  18
ATOM     18  C   UNL     1       1.593  66.750  16.233  1.00  0.00    -0.000 C 
BRANCH  18  19
ATOM     19  C   UNL     1       1.422  65.837  17.460  1.00  0.00    -0.000 C 
BRANCH  19  20
ATOM     20  C   UNL     1       2.607  65.921  18.436  1.00  0.00    -0.000 C 
BRANCH  20  21
ATOM     21  C   UNL     1       3.893  66.460  17.783  1.00  0.00    -0.000 C 
BRANCH  21  22
ATOM     22  C   UNL     1       5.127  65.547  17.904  1.00  0.00    -0.000 C 
BRANCH  22  23
ATOM     23  C   UNL     1       5.967  65.491  16.617  1.00  0.00    -0.000 C 
BRANCH  23  24
ATOM     24  C   UNL     1       7.292  64.754  16.857  1.00  0.00    -0.000 C 
BRANCH  24  25
ATOM     25  C   UNL     1       7.091  63.261  17.160  1.00  0.00    -0.003 C 
ATOM     26  C   UNL     1       8.410  62.499  17.292  1.00  0.00     0.004 C 
ENDBRANCH  24  25
ENDBRANCH  23  24
ENDBRANCH  22  23
ENDBRANCH  21  22
ENDBRANCH  20  21
ENDBRANCH  19  20
ENDBRANCH  18  19
ENDBRANCH  17  18
ENDBRANCH  16  17
ENDBRANCH  15  16
ENDBRANCH   1  15
TORSDOF 22
ENDMDL
MODEL 3
REMARK VINA RESULT:    -3.086      1.652      4.769
REMARK INTER + INTRA:         -11.226
REMARK INTER:                  -6.942
REMARK INTRA:                  -4.285
REMARK UNBOUND:                -4.170
REMARK SMILES CCCCCCCCCCCCCCCCCCCCCCCC(=O)[O-]
REMARK SMILES IDX 13 1 14 2 15 3 16 4 17 5 18 6 19 7 20 8 21 9 22 10 23 11
REMARK SMILES IDX 24 12 25 13 26 14 12 15 11 16 10 17 9 18 8 19 7 20 6 21 5 22
REMARK SMILES IDX 4 23 3 24 2 25 1 26
REMARK H PARENT
REMARK Flexibility Score: inf
ROOT
ATOM      1  C   UNL     1       3.482  72.629  12.149  1.00  0.00     0.000 C 
ENDROOT
BRANCH   1   2
ATOM      2  C   UNL     1       3.557  71.517  13.206  1.00  0.00     0.000 C 
BRANCH   2   3
ATOM      3  C   UNL     1       4.617  70.453  12.878  1.00  0.00     0.000 C 
BRANCH   3   4
ATOM      4  C   UNL     1       4.279  69.115  13.547  1.00  0.00     0.000 C 
BRANCH   4   5
ATOM      5  C   UNL     1       4.360  67.959  12.539  1.00  0.00     0.000 C 
BRANCH   5   6
ATOM      6  C   UNL     1       4.216  68.424  11.080  1.00  0.00     0.000 C 
BRANCH   6   7
ATOM      7  C   UNL     1       3.274  67.542  10.234  1.00  0.00     0.000 C 
BRANCH   7   8
ATOM      8  C   UNL     1       2.771  66.317  11.012  1.00  0.00     0.000 C 
BRANCH   8   9
ATOM      9  C   UNL     1       1.432  65.819  10.455  1.00  0.00     0.000 C 
BRANCH   9  10
ATOM     10  C   UNL     1       1.453  65.789   8.919  1.00  0.00     0.006 C 
BRANCH  10  11
ATOM     11  C   UNL     1       1.252  64.373   8.361  1.00  0.00     0.053 C 
BRANCH  11  12
ATOM     12  C   UNL     1       2.523  63.579   8.383  1.00  0.00     0.041 C 
ATOM     13  O   UNL     1       2.518  62.386   8.792  1.00  0.00    -0.550 OA
ATOM     14  O   UNL     1       3.701  64.137   7.902  1.00  0.00    -0.550 OA
ENDBRANCH  11  12
ENDBRANCH  10  11
ENDBRANCH   9  10
ENDBRANCH   8   9
ENDBRANCH   7   8
ENDBRANCH   6   7
ENDBRANCH   5   6
ENDBRANCH   4   5
ENDBRANCH   3   4
ENDBRANCH   2   3
ENDBRANCH   1   2
BRANCH   1  15
ATOM     15  C   UNL     1       3.814  72.129  10.732  1.00  0.00     0.000 C 
BRANCH  15  16
ATOM     16  C   UNL     1       2.659  72.362   9.745  1.00  0.00     0.000 C 
BRANCH  16  17
ATOM     17  C   UNL     1       1.772  71.116   9.568  1.00  0.00     0.000 C 
BRANCH  17  18
ATOM     18  C   UNL     1       0.751  70.962  10.716  1.00  0.00    -0.000 C 
BRANCH  18  19
ATOM     19  C   UNL     1       0.648  69.530  11.270  1.00  0.00    -0.000 C 
BRANCH  19  20
ATOM     20  C   UNL     1       0.472  69.491  12.796  1.00  0.00    -0.000 C 
BRANCH  20  21
ATOM     21  C   UNL     1       0.527  68.066  13.377  1.00  0.00    -0.000 C 
BRANCH  21  22
ATOM     22  C   UNL     1       1.162  67.947  14.775  1.00  0.00    -0.000 C 
BRANCH  22  23
ATOM     23  C   UNL     1       1.102  66.522  15.348  1.00  0.00    -0.000 C 
BRANCH  23  24
ATOM     24  C   UNL     1       2.428  65.781  15.123  1.00  0.00    -0.000 C 
BRANCH  24  25
ATOM     25  C   UNL     1       2.316  64.680  14.058  1.00  0.00    -0.003 C 
ATOM     26  C   UNL     1       3.487  63.699  14.093  1.00  0.00     0.004 C 
ENDBRANCH  24  25
ENDBRANCH  23  24
ENDBRANCH  22  23
ENDBRANCH  21  22
ENDBRANCH  20  21
ENDBRANCH  19  20
ENDBRANCH  18  19
ENDBRANCH  17  18
ENDBRANCH  16  17
ENDBRANCH  15  16
ENDBRANCH   1  15
TORSDOF 22
ENDMDL
MODEL 4
REMARK VINA RESULT:    -3.041      7.176      8.521
REMARK INTER + INTRA:         -11.123
REMARK INTER:                  -7.280
REMARK INTRA:                  -3.843
REMARK UNBOUND:                -4.170
REMARK SMILES CCCCCCCCCCCCCCCCCCCCCCCC(=O)[O-]
REMARK SMILES IDX 13 1 14 2 15 3 16 4 17 5 18 6 19 7 20 8 21 9 22 10 23 11
REMARK SMILES IDX 24 12 25 13 26 14 12 15 11 16 10 17 9 18 8 19 7 20 6 21 5 22
REMARK SMILES IDX 4 23 3 24 2 25 1 26
REMARK H PARENT
REMARK Flexibility Score: inf
ROOT
ATOM      1  C   UNL     1       3.797  68.845  20.346  1.00  0.00     0.000 C 
ENDROOT
BRANCH   1   2
ATOM      2  C   UNL     1       3.836  67.495  19.614  1.00  0.00     0.000 C 
BRANCH   2   3
ATOM      3  C   UNL     1       3.566  67.625  18.107  1.00  0.00     0.000 C 
BRANCH   3   4
ATOM      4  C   UNL     1       3.356  66.248  17.464  1.00  0.00     0.000 C 
BRANCH   4   5
ATOM      5  C   UNL     1       1.888  65.809  17.574  1.00  0.00     0.000 C 
BRANCH   5   6
ATOM      6  C   UNL     1       1.691  64.599  18.503  1.00  0.00     0.000 C 
BRANCH   6   7
ATOM      7  C   UNL     1       1.531  63.258  17.756  1.00  0.00     0.000 C 
BRANCH   7   8
ATOM      8  C   UNL     1       2.814  62.414  17.796  1.00  0.00     0.000 C 
BRANCH   8   9
ATOM      9  C   UNL     1       3.607  62.551  16.491  1.00  0.00     0.000 C 
BRANCH   9  10
ATOM     10  C   UNL     1       5.110  62.349  16.737  1.00  0.00     0.006 C 
BRANCH  10  11
ATOM     11  C   UNL     1       5.847  63.675  16.963  1.00  0.00     0.053 C 
BRANCH  11  12
ATOM     12  C   UNL     1       7.275  63.458  17.362  1.00  0.00     0.041 C 
ATOM     13  O   UNL     1       7.873  64.315  18.069  1.00  0.00    -0.550 OA
ATOM     14  O   UNL     1       7.929  62.287  17.002  1.00  0.00    -0.550 OA
ENDBRANCH  11  12
ENDBRANCH  10  11
ENDBRANCH   9  10
ENDBRANCH   8   9
ENDBRANCH   7   8
ENDBRANCH   6   7
ENDBRANCH   5   6
ENDBRANCH   4   5
ENDBRANCH   3   4
ENDBRANCH   2   3
ENDBRANCH   1   2
BRANCH   1  15
ATOM     15  C   UNL     1       2.753  68.881  21.476  1.00  0.00     0.000 C 
BRANCH  15  16
ATOM     16  C   UNL     1       1.840  67.644  21.467  1.00  0.00     0.000 C 
BRANCH  16  17
ATOM     17  C   UNL     1       0.360  68.003  21.240  1.00  0.00     0.000 C 
BRANCH  17  18
ATOM     18  C   UNL     1      -0.410  66.872  20.525  1.00  0.00    -0.000 C 
BRANCH  18  19
ATOM     19  C   UNL     1      -1.051  67.301  19.193  1.00  0.00    -0.000 C 
BRANCH  19  20
ATOM     20  C   UNL     1      -0.848  68.793  18.886  1.00  0.00    -0.000 C 
BRANCH  20  21
ATOM     21  C   UNL     1       0.189  69.049  17.777  1.00  0.00    -0.000 C 
BRANCH  21  22
ATOM     22  C   UNL     1       1.153  70.222  18.033  1.00  0.00    -0.000 C 
BRANCH  22  23
ATOM     23  C   UNL     1       0.736  71.099  19.225  1.00  0.00    -0.000 C 
BRANCH  23  24
ATOM     24  C   UNL     1       1.645  72.330  19.347  1.00  0.00    -0.000 C 
BRANCH  24  25
ATOM     25  C   UNL     1       2.981  72.153  18.610  1.00  0.00    -0.003 C 
ATOM     26  C   UNL     1       3.331  73.345  17.719  1.00  0.00     0.004 C 
ENDBRANCH  24  25
ENDBRANCH  23  24
ENDBRANCH  22  23
ENDBRANCH  21  22
ENDBRANCH  20  21
ENDBRANCH  19  20
ENDBRANCH  18  19
ENDBRANCH  17  18
ENDBRANCH  16  17
ENDBRANCH  15  16
ENDBRANCH   1  15
TORSDOF 22
ENDMDL
MODEL 5
REMARK VINA RESULT:    -3.025      2.936      6.286
REMARK INTER + INTRA:         -11.086
REMARK INTER:                  -7.451
REMARK INTRA:                  -3.634
REMARK UNBOUND:                -4.170
REMARK SMILES CCCCCCCCCCCCCCCCCCCCCCCC(=O)[O-]
REMARK SMILES IDX 13 1 14 2 15 3 16 4 17 5 18 6 19 7 20 8 21 9 22 10 23 11
REMARK SMILES IDX 24 12 25 13 26 14 12 15 11 16 10 17 9 18 8 19 7 20 6 21 5 22
REMARK SMILES IDX 4 23 3 24 2 25 1 26
REMARK H PARENT
REMARK Flexibility Score: inf
ROOT
ATOM      1  C   UNL     1       5.141  69.114  11.749  1.00  0.00     0.000 C 
ENDROOT
BRANCH   1   2
ATOM      2  C   UNL     1       5.191  70.648  11.793  1.00  0.00     0.000 C 
BRANCH   2   3
ATOM      3  C   UNL     1       3.796  71.289  11.866  1.00  0.00     0.000 C 
BRANCH   3   4
ATOM      4  C   UNL     1       3.342  71.457  13.322  1.00  0.00     0.000 C 
BRANCH   4   5
ATOM      5  C   UNL     1       2.050  70.672  13.589  1.00  0.00     0.000 C 
BRANCH   5   6
ATOM      6  C   UNL     1       1.419  70.100  12.309  1.00  0.00     0.000 C 
BRANCH   6   7
ATOM      7  C   UNL     1       1.077  68.598  12.399  1.00  0.00     0.000 C 
BRANCH   7   8
ATOM      8  C   UNL     1       1.860  67.762  11.376  1.00  0.00     0.000 C 
BRANCH   8   9
ATOM      9  C   UNL     1       1.531  66.270  11.514  1.00  0.00     0.000 C 
BRANCH   9  10
ATOM     10  C   UNL     1       2.570  65.408  10.780  1.00  0.00     0.006 C 
BRANCH  10  11
ATOM     11  C   UNL     1       2.087  64.971   9.391  1.00  0.00     0.053 C 
BRANCH  11  12
ATOM     12  C   UNL     1       2.969  63.912   8.802  1.00  0.00     0.041 C 
ATOM     13  O   UNL     1       3.564  64.117   7.709  1.00  0.00    -0.550 OA
ATOM     14  O   UNL     1       3.178  62.720   9.486  1.00  0.00    -0.550 OA
ENDBRANCH  11  12
ENDBRANCH  10  11
ENDBRANCH   9  10
ENDBRANCH   8   9
ENDBRANCH   7   8
ENDBRANCH   6   7
ENDBRANCH   5   6
ENDBRANCH   4   5
ENDBRANCH   3   4
ENDBRANCH   2   3
ENDBRANCH   1   2
BRANCH   1  15
ATOM     15  C   UNL     1       5.753  68.461  13.001  1.00  0.00     0.000 C 
BRANCH  15  16
ATOM     16  C   UNL     1       4.990  67.199  13.434  1.00  0.00     0.000 C 
BRANCH  16  17
ATOM     17  C   UNL     1       3.892  67.498  14.471  1.00  0.00     0.000 C 
BRANCH  17  18
ATOM     18  C   UNL     1       3.194  66.213  14.966  1.00  0.00    -0.000 C 
BRANCH  18  19
ATOM     19  C   UNL     1       3.696  64.929  14.281  1.00  0.00    -0.000 C 
BRANCH  19  20
ATOM     20  C   UNL     1       2.591  63.874  14.108  1.00  0.00    -0.000 C 
BRANCH  20  21
ATOM     21  C   UNL     1       2.506  62.887  15.287  1.00  0.00    -0.000 C 
BRANCH  21  22
ATOM     22  C   UNL     1       3.794  62.096  15.580  1.00  0.00    -0.000 C 
BRANCH  22  23
ATOM     23  C   UNL     1       4.312  62.291  17.014  1.00  0.00    -0.000 C 
BRANCH  23  24
ATOM     24  C   UNL     1       5.687  62.974  17.015  1.00  0.00    -0.000 C 
BRANCH  24  25
ATOM     25  C   UNL     1       5.594  64.487  17.259  1.00  0.00    -0.003 C 
ATOM     26  C   UNL     1       6.953  65.127  17.549  1.00  0.00     0.004 C 
ENDBRANCH  24  25
ENDBRANCH  23  24
ENDBRANCH  22  23
ENDBRANCH  21  22
ENDBRANCH  20  21
ENDBRANCH  19  20
ENDBRANCH  18  19
ENDBRANCH  17  18
ENDBRANCH  16  17
ENDBRANCH  15  16
ENDBRANCH   1  15
TORSDOF 22
ENDMDL
MODEL 6
REMARK VINA RESULT:    -2.996      2.417      4.348
REMARK INTER + INTRA:         -11.021
REMARK INTER:                  -6.796
REMARK INTRA:                  -4.225
REMARK UNBOUND:                -4.170
REMARK SMILES CCCCCCCCCCCCCCCCCCCCCCCC(=O)[O-]
REMARK SMILES IDX 13 1 14 2 15 3 16 4 17 5 18 6 19 7 20 8 21 9 22 10 23 11
REMARK SMILES IDX 24 12 25 13 26 14 12 15 11 16 10 17 9 18 8 19 7 20 6 21 5 22
REMARK SMILES IDX 4 23 3 24 2 25 1 26
REMARK H PARENT
REMARK Flexibility Score: inf
ROOT
ATOM      1  C   UNL     1       2.587  69.571   8.713  1.00  0.00     0.000 C 
ENDROOT
BRANCH   1   2
ATOM      2  C   UNL     1       1.369  69.221   7.844  1.00  0.00     0.000 C 
BRANCH   2   3
ATOM      3  C   UNL     1       1.616  69.460   6.346  1.00  0.00     0.000 C 
BRANCH   3   4
ATOM      4  C   UNL     1       2.801  70.408   6.127  1.00  0.00     0.000 C 
BRANCH   4   5
ATOM      5  C   UNL     1       3.854  69.770   5.210  1.00  0.00     0.000 C 
BRANCH   5   6
ATOM      6  C   UNL     1       3.639  68.261   5.007  1.00  0.00     0.000 C 
BRANCH   6   7
ATOM      7  C   UNL     1       4.712  67.381   5.681  1.00  0.00     0.000 C 
BRANCH   7   8
ATOM      8  C   UNL     1       4.113  66.119   6.319  1.00  0.00     0.000 C 
BRANCH   8   9
ATOM      9  C   UNL     1       2.598  66.050   6.090  1.00  0.00     0.000 C 
BRANCH   9  10
ATOM     10  C   UNL     1       1.882  65.471   7.321  1.00  0.00     0.006 C 
BRANCH  10  11
ATOM     11  C   UNL     1       2.762  64.479   8.093  1.00  0.00     0.053 C 
BRANCH  11  12
ATOM     12  C   UNL     1       2.119  63.129   8.199  1.00  0.00     0.041 C 
ATOM     13  O   UNL     1       1.070  62.874   7.547  1.00  0.00    -0.550 OA
ATOM     14  O   UNL     1       2.707  62.137   8.973  1.00  0.00    -0.550 OA
ENDBRANCH  11  12
ENDBRANCH  10  11
ENDBRANCH   9  10
ENDBRANCH   8   9
ENDBRANCH   7   8
ENDBRANCH   6   7
ENDBRANCH   5   6
ENDBRANCH   4   5
ENDBRANCH   3   4
ENDBRANCH   2   3
ENDBRANCH   1   2
BRANCH   1  15
ATOM     15  C   UNL     1       3.378  68.329   9.160  1.00  0.00     0.000 C 
BRANCH  15  16
ATOM     16  C   UNL     1       2.830  67.726  10.464  1.00  0.00     0.000 C 
BRANCH  16  17
ATOM     17  C   UNL     1       2.636  68.781  11.568  1.00  0.00     0.000 C 
BRANCH  17  18
ATOM     18  C   UNL     1       1.279  68.626  12.288  1.00  0.00    -0.000 C 
BRANCH  18  19
ATOM     19  C   UNL     1       0.434  69.912  12.308  1.00  0.00    -0.000 C 
BRANCH  19  20
ATOM     20  C   UNL     1      -0.360  70.124  11.009  1.00  0.00    -0.000 C 
BRANCH  20  21
ATOM     21  C   UNL     1      -1.261  71.373  11.046  1.00  0.00    -0.000 C 
BRANCH  21  22
ATOM     22  C   UNL     1      -0.879  72.491  10.058  1.00  0.00    -0.000 C 
BRANCH  22  23
ATOM     23  C   UNL     1       0.571  72.388   9.558  1.00  0.00    -0.000 C 
BRANCH  23  24
ATOM     24  C   UNL     1       1.460  73.446  10.227  1.00  0.00    -0.000 C 
BRANCH  24  25
ATOM     25  C   UNL     1       2.349  72.857  11.333  1.00  0.00    -0.003 C 
ATOM     26  C   UNL     1       3.689  72.341  10.807  1.00  0.00     0.004 C 
ENDBRANCH  24  25
ENDBRANCH  23  24
ENDBRANCH  22  23
ENDBRANCH  21  22
ENDBRANCH  20  21
ENDBRANCH  19  20
ENDBRANCH  18  19
ENDBRANCH  17  18
ENDBRANCH  16  17
ENDBRANCH  15  16
ENDBRANCH   1  15
TORSDOF 22
ENDMDL
MODEL 7
REMARK VINA RESULT:    -2.984      5.308      8.750
REMARK INTER + INTRA:         -10.992
REMARK INTER:                  -6.464
REMARK INTRA:                  -4.528
REMARK UNBOUND:                -4.170
REMARK SMILES CCCCCCCCCCCCCCCCCCCCCCCC(=O)[O-]
REMARK SMILES IDX 13 1 14 2 15 3 16 4 17 5 18 6 19 7 20 8 21 9 22 10 23 11
REMARK SMILES IDX 24 12 25 13 26 14 12 15 11 16 10 17 9 18 8 19 7 20 6 21 5 22
REMARK SMILES IDX 4 23 3 24 2 25 1 26
REMARK H PARENT
REMARK Flexibility Score: inf
ROOT
ATOM      1  C   UNL     1       2.389  69.620  14.098  1.00  0.00     0.000 C 
ENDROOT
BRANCH   1   2
ATOM      2  C   UNL     1       2.089  68.780  12.848  1.00  0.00     0.000 C 
BRANCH   2   3
ATOM      3  C   UNL     1       0.611  68.369  12.747  1.00  0.00     0.000 C 
BRANCH   3   4
ATOM      4  C   UNL     1       0.362  67.027  13.446  1.00  0.00     0.000 C 
BRANCH   4   5
ATOM      5  C   UNL     1      -0.785  67.139  14.460  1.00  0.00     0.000 C 
BRANCH   5   6
ATOM      6  C   UNL     1      -0.354  66.797  15.896  1.00  0.00     0.000 C 
BRANCH   6   7
ATOM      7  C   UNL     1       0.369  67.951  16.622  1.00  0.00     0.000 C 
BRANCH   7   8
ATOM      8  C   UNL     1       0.527  67.683  18.126  1.00  0.00     0.000 C 
BRANCH   8   9
ATOM      9  C   UNL     1       1.373  68.771  18.796  1.00  0.00     0.000 C 
BRANCH   9  10
ATOM     10  C   UNL     1       1.554  69.979  17.863  1.00  0.00     0.006 C 
BRANCH  10  11
ATOM     11  C   UNL     1       1.538  71.311  18.625  1.00  0.00     0.053 C 
BRANCH  11  12
ATOM     12  C   UNL     1       2.914  71.889  18.765  1.00  0.00     0.041 C 
ATOM     13  O   UNL     1       3.808  71.253  19.388  1.00  0.00    -0.550 OA
ATOM     14  O   UNL     1       3.225  73.101  18.162  1.00  0.00    -0.550 OA
ENDBRANCH  11  12
ENDBRANCH  10  11
ENDBRANCH   9  10
ENDBRANCH   8   9
ENDBRANCH   7   8
ENDBRANCH   6   7
ENDBRANCH   5   6
ENDBRANCH   4   5
ENDBRANCH   3   4
ENDBRANCH   2   3
ENDBRANCH   1   2
BRANCH   1  15
ATOM     15  C   UNL     1       3.691  69.197  14.802  1.00  0.00     0.000 C 
BRANCH  15  16
ATOM     16  C   UNL     1       3.649  67.737  15.280  1.00  0.00     0.000 C 
BRANCH  16  17
ATOM     17  C   UNL     1       5.034  67.064  15.250  1.00  0.00     0.000 C 
BRANCH  17  18
ATOM     18  C   UNL     1       5.039  65.783  14.389  1.00  0.00    -0.000 C 
BRANCH  18  19
ATOM     19  C   UNL     1       3.690  65.481  13.713  1.00  0.00    -0.000 C 
BRANCH  19  20
ATOM     20  C   UNL     1       3.225  64.032  13.929  1.00  0.00    -0.000 C 
BRANCH  20  21
ATOM     21  C   UNL     1       1.887  63.931  14.685  1.00  0.00    -0.000 C 
BRANCH  21  22
ATOM     22  C   UNL     1       1.997  63.553  16.173  1.00  0.00    -0.000 C 
BRANCH  22  23
ATOM     23  C   UNL     1       2.482  64.713  17.058  1.00  0.00    -0.000 C 
BRANCH  23  24
ATOM     24  C   UNL     1       3.714  64.303  17.877  1.00  0.00    -0.000 C 
BRANCH  24  25
ATOM     25  C   UNL     1       4.450  63.098  17.273  1.00  0.00    -0.003 C 
ATOM     26  C   UNL     1       5.925  63.383  16.988  1.00  0.00     0.004 C 
ENDBRANCH  24  25
ENDBRANCH  23  24
ENDBRANCH  22  23
ENDBRANCH  21  22
ENDBRANCH  20  21
ENDBRANCH  19  20
ENDBRANCH  18  19
ENDBRANCH  17  18
ENDBRANCH  16  17
ENDBRANCH  15  16
ENDBRANCH   1  15
TORSDOF 22
ENDMDL
MODEL 8
REMARK VINA RESULT:    -2.971      4.042      7.545
REMARK INTER + INTRA:         -10.961
REMARK INTER:                  -6.584
REMARK INTRA:                  -4.377
REMARK UNBOUND:                -4.170
REMARK SMILES CCCCCCCCCCCCCCCCCCCCCCCC(=O)[O-]
REMARK SMILES IDX 13 1 14 2 15 3 16 4 17 5 18 6 19 7 20 8 21 9 22 10 23 11
REMARK SMILES IDX 24 12 25 13 26 14 12 15 11 16 10 17 9 18 8 19 7 20 6 21 5 22
REMARK SMILES IDX 4 23 3 24 2 25 1 26
REMARK H PARENT
REMARK Flexibility Score: inf
ROOT
ATOM      1  C   UNL     1       4.333  67.378  13.306  1.00  0.00     0.000 C 
ENDROOT
BRANCH   1   2
ATOM      2  C   UNL     1       4.818  68.093  12.037  1.00  0.00     0.000 C 
BRANCH   2   3
ATOM      3  C   UNL     1       3.772  68.086  10.911  1.00  0.00     0.000 C 
BRANCH   3   4
ATOM      4  C   UNL     1       3.021  66.750  10.864  1.00  0.00     0.000 C 
BRANCH   4   5
ATOM      5  C   UNL     1       1.501  66.973  10.856  1.00  0.00     0.000 C 
BRANCH   5   6
ATOM      6  C   UNL     1       1.099  68.388  11.304  1.00  0.00     0.000 C 
BRANCH   6   7
ATOM      7  C   UNL     1       0.649  68.470  12.778  1.00  0.00     0.000 C 
BRANCH   7   8
ATOM      8  C   UNL     1       0.733  69.900  13.332  1.00  0.00     0.000 C 
BRANCH   8   9
ATOM      9  C   UNL     1       1.968  70.076  14.224  1.00  0.00     0.000 C 
BRANCH   9  10
ATOM     10  C   UNL     1       3.030  70.942  13.528  1.00  0.00     0.006 C 
BRANCH  10  11
ATOM     11  C   UNL     1       2.412  72.122  12.766  1.00  0.00     0.053 C 
BRANCH  11  12
ATOM     12  C   UNL     1       3.315  72.617  11.677  1.00  0.00     0.041 C 
ATOM     13  O   UNL     1       3.632  73.836  11.622  1.00  0.00    -0.550 OA
ATOM     14  O   UNL     1       3.851  71.724  10.757  1.00  0.00    -0.550 OA
ENDBRANCH  11  12
ENDBRANCH  10  11
ENDBRANCH   9  10
ENDBRANCH   8   9
ENDBRANCH   7   8
ENDBRANCH   6   7
ENDBRANCH   5   6
ENDBRANCH   4   5
ENDBRANCH   3   4
ENDBRANCH   2   3
ENDBRANCH   1   2
BRANCH   1  15
ATOM     15  C   UNL     1       5.473  66.687  14.075  1.00  0.00     0.000 C 
BRANCH  15  16
ATOM     16  C   UNL     1       5.150  66.513  15.568  1.00  0.00     0.000 C 
BRANCH  16  17
ATOM     17  C   UNL     1       5.687  65.188  16.139  1.00  0.00     0.000 C 
BRANCH  17  18
ATOM     18  C   UNL     1       5.031  64.828  17.489  1.00  0.00    -0.000 C 
BRANCH  18  19
ATOM     19  C   UNL     1       4.115  63.593  17.427  1.00  0.00    -0.000 C 
BRANCH  19  20
ATOM     20  C   UNL     1       4.710  62.450  16.590  1.00  0.00    -0.000 C 
BRANCH  20  21
ATOM     21  C   UNL     1       3.801  62.013  15.426  1.00  0.00    -0.000 C 
BRANCH  21  22
ATOM     22  C   UNL     1       2.612  62.947  15.131  1.00  0.00    -0.000 C 
BRANCH  22  23
ATOM     23  C   UNL     1       2.891  63.941  13.992  1.00  0.00    -0.000 C 
BRANCH  23  24
ATOM     24  C   UNL     1       1.748  64.957  13.857  1.00  0.00    -0.000 C 
BRANCH  24  25
ATOM     25  C   UNL     1       1.093  65.291  15.206  1.00  0.00    -0.003 C 
ATOM     26  C   UNL     1       1.617  66.591  15.816  1.00  0.00     0.004 C 
ENDBRANCH  24  25
ENDBRANCH  23  24
ENDBRANCH  22  23
ENDBRANCH  21  22
ENDBRANCH  20  21
ENDBRANCH  19  20
ENDBRANCH  18  19
ENDBRANCH  17  18
ENDBRANCH  16  17
ENDBRANCH  15  16
ENDBRANCH   1  15
TORSDOF 22
ENDMDL
MODEL 9
REMARK VINA RESULT:    -2.967      3.189      6.723
REMARK INTER + INTRA:         -10.954
REMARK INTER:                  -6.623
REMARK INTRA:                  -4.331
REMARK UNBOUND:                -4.170
REMARK SMILES CCCCCCCCCCCCCCCCCCCCCCCC(=O)[O-]
REMARK SMILES IDX 13 1 14 2 15 3 16 4 17 5 18 6 19 7 20 8 21 9 22 10 23 11
REMARK SMILES IDX 24 12 25 13 26 14 12 15 11 16 10 17 9 18 8 19 7 20 6 21 5 22
REMARK SMILES IDX 4 23 3 24 2 25 1 26
REMARK H PARENT
REMARK Flexibility Score: inf
ROOT
ATOM      1  C   UNL     1       3.122  64.797   7.628  1.00  0.00     0.000 C 
ENDROOT
BRANCH   1   2
ATOM      2  C   UNL     1       3.692  65.851   6.667  1.00  0.00     0.000 C 
BRANCH   2   3
ATOM      3  C   UNL     1       2.612  66.788   6.102  1.00  0.00     0.000 C 
BRANCH   3   4
ATOM      4  C   UNL     1       2.964  68.257   6.367  1.00  0.00     0.000 C 
BRANCH   4   5
ATOM      5  C   UNL     1       2.538  68.679   7.781  1.00  0.00     0.000 C 
BRANCH   5   6
ATOM      6  C   UNL     1       3.731  68.981   8.703  1.00  0.00     0.000 C 
BRANCH   6   7
ATOM      7  C   UNL     1       3.823  70.458   9.140  1.00  0.00     0.000 C 
BRANCH   7   8
ATOM      8  C   UNL     1       2.670  71.303   8.578  1.00  0.00     0.000 C 
BRANCH   8   9
ATOM      9  C   UNL     1       2.335  72.472   9.512  1.00  0.00     0.000 C 
BRANCH   9  10
ATOM     10  C   UNL     1       3.391  72.612  10.619  1.00  0.00     0.006 C 
BRANCH  10  11
ATOM     11  C   UNL     1       2.767  72.630  12.021  1.00  0.00     0.053 C 
BRANCH  11  12
ATOM     12  C   UNL     1       3.515  71.750  12.976  1.00  0.00     0.041 C 
ATOM     13  O   UNL     1       3.103  71.604  14.159  1.00  0.00    -0.550 OA
ATOM     14  O   UNL     1       4.634  71.047  12.545  1.00  0.00    -0.550 OA
ENDBRANCH  11  12
ENDBRANCH  10  11
ENDBRANCH   9  10
ENDBRANCH   8   9
ENDBRANCH   7   8
ENDBRANCH   6   7
ENDBRANCH   5   6
ENDBRANCH   4   5
ENDBRANCH   3   4
ENDBRANCH   2   3
ENDBRANCH   1   2
BRANCH   1  15
ATOM     15  C   UNL     1       1.600  64.922   7.816  1.00  0.00     0.000 C 
BRANCH  15  16
ATOM     16  C   UNL     1       1.224  65.425   9.219  1.00  0.00     0.000 C 
BRANCH  16  17
ATOM     17  C   UNL     1       2.445  65.558  10.147  1.00  0.00     0.000 C 
BRANCH  17  18
ATOM     18  C   UNL     1       2.046  65.551  11.638  1.00  0.00    -0.000 C 
BRANCH  18  19
ATOM     19  C   UNL     1       3.041  66.286  12.553  1.00  0.00    -0.000 C 
BRANCH  19  20
ATOM     20  C   UNL     1       3.051  67.806  12.324  1.00  0.00    -0.000 C 
BRANCH  20  21
ATOM     21  C   UNL     1       1.667  68.456  12.506  1.00  0.00    -0.000 C 
BRANCH  21  22
ATOM     22  C   UNL     1       1.268  69.474  11.422  1.00  0.00    -0.000 C 
BRANCH  22  23
ATOM     23  C   UNL     1       0.036  69.042  10.610  1.00  0.00    -0.000 C 
BRANCH  23  24
ATOM     24  C   UNL     1      -0.679  70.258  10.004  1.00  0.00    -0.000 C 
BRANCH  24  25
ATOM     25  C   UNL     1      -1.028  71.322  11.056  1.00  0.00    -0.003 C 
ATOM     26  C   UNL     1      -2.068  70.838  12.067  1.00  0.00     0.004 C 
ENDBRANCH  24  25
ENDBRANCH  23  24
ENDBRANCH  22  23
ENDBRANCH  21  22
ENDBRANCH  20  21
ENDBRANCH  19  20
ENDBRANCH  18  19
ENDBRANCH  17  18
ENDBRANCH  16  17
ENDBRANCH  15  16
ENDBRANCH   1  15
TORSDOF 22
ENDMDL
