MODEL 1
REMARK VINA RESULT:    -2.371      0.000      0.000
REMARK INTER + INTRA:          -2.371
REMARK INTER:                  -2.371
REMARK INTRA:                   0.000
REMARK UNBOUND:                 0.000
REMARK SMILES O=C1CCCCC1
REMARK SMILES IDX 5 1 4 2 3 3 2 4 1 5 7 6 6 7
REMARK H PARENT
REMARK Flexibility Score: inf
ROOT
ATOM      1  C   UNL     1     142.212 137.018 140.958  1.00  0.00     0.001 C 
ATOM      2  C   UNL     1     143.399 137.974 140.763  1.00  0.00     0.008 C 
ATOM      3  C   UNL     1     143.589 138.887 141.981  1.00  0.00     0.075 C 
ATOM      4  C   UNL     1     143.621 138.073 143.245  1.00  0.00     0.132 C 
ATOM      5  O   UNL     1     144.445 138.315 144.113  1.00  0.00    -0.300 OA
ATOM      6  C   UNL     1     142.569 137.022 143.468  1.00  0.00     0.075 C 
ATOM      7  C   UNL     1     142.404 136.156 142.214  1.00  0.00     0.008 C 
ENDROOT
TORSDOF 0
ENDMDL
MODEL 2
REMARK VINA RESULT:    -2.369      5.398      5.836
REMARK INTER + INTRA:          -2.369
REMARK INTER:                  -2.369
REMARK INTRA:                   0.000
REMARK UNBOUND:                 0.000
REMARK SMILES O=C1CCCCC1
REMARK SMILES IDX 5 1 4 2 3 3 2 4 1 5 7 6 6 7
REMARK H PARENT
REMARK Flexibility Score: inf
ROOT
ATOM      1  C   UNL     1     137.016 139.389 140.976  1.00  0.00     0.001 C 
ATOM      2  C   UNL     1     138.005 138.228 140.785  1.00  0.00     0.008 C 
ATOM      3  C   UNL     1     138.893 138.040 142.021  1.00  0.00     0.075 C 
ATOM      4  C   UNL     1     138.051 137.967 143.264  1.00  0.00     0.132 C 
ATOM      5  O   UNL     1     138.292 137.135 144.125  1.00  0.00    -0.300 OA
ATOM      6  C   UNL     1     136.970 138.991 143.480  1.00  0.00     0.075 C 
ATOM      7  C   UNL     1     136.130 139.156 142.208  1.00  0.00     0.008 C 
ENDROOT
TORSDOF 0
ENDMDL
MODEL 3
REMARK VINA RESULT:    -2.308      2.628      4.246
REMARK INTER + INTRA:          -2.308
REMARK INTER:                  -2.308
REMARK INTRA:                   0.000
REMARK UNBOUND:                 0.000
REMARK SMILES O=C1CCCCC1
REMARK SMILES IDX 5 1 4 2 3 3 2 4 1 5 7 6 6 7
REMARK H PARENT
REMARK Flexibility Score: inf
ROOT
ATOM      1  C   UNL     1     145.384 142.035 142.858  1.00  0.00     0.001 C 
ATOM      2  C   UNL     1     145.606 141.017 143.987  1.00  0.00     0.008 C 
ATOM      3  C   UNL     1     144.411 140.064 144.125  1.00  0.00     0.075 C 
ATOM      4  C   UNL     1     144.055 139.475 142.788  1.00  0.00     0.132 C 
ATOM      5  O   UNL     1     143.789 138.287 142.689  1.00  0.00    -0.300 OA
ATOM      6  C   UNL     1     143.937 140.381 141.594  1.00  0.00     0.075 C 
ATOM      7  C   UNL     1     145.143 141.325 141.519  1.00  0.00     0.008 C 
ENDROOT
TORSDOF 0
ENDMDL
MODEL 4
REMARK VINA RESULT:    -2.302      1.861      2.719
REMARK INTER + INTRA:          -2.302
REMARK INTER:                  -2.302
REMARK INTRA:                   0.000
REMARK UNBOUND:                 0.000
REMARK SMILES O=C1CCCCC1
REMARK SMILES IDX 5 1 4 2 3 3 2 4 1 5 7 6 6 7
REMARK H PARENT
REMARK Flexibility Score: inf
ROOT
ATOM      1  C   UNL     1     143.224 137.809 141.616  1.00  0.00     0.001 C 
ATOM      2  C   UNL     1     142.128 136.876 141.078  1.00  0.00     0.008 C 
ATOM      3  C   UNL     1     141.845 135.724 142.051  1.00  0.00     0.075 C 
ATOM      4  C   UNL     1     141.612 136.257 143.438  1.00  0.00     0.132 C 
ATOM      5  O   UNL     1     140.705 135.813 144.125  1.00  0.00    -0.300 OA
ATOM      6  C   UNL     1     142.566 137.272 144.005  1.00  0.00     0.075 C 
ATOM      7  C   UNL     1     142.831 138.384 142.983  1.00  0.00     0.008 C 
ENDROOT
TORSDOF 0
ENDMDL
MODEL 5
REMARK VINA RESULT:    -2.302      4.831      5.106
REMARK INTER + INTRA:          -2.302
REMARK INTER:                  -2.302
REMARK INTRA:                   0.000
REMARK UNBOUND:                 0.000
REMARK SMILES O=C1CCCCC1
REMARK SMILES IDX 5 1 4 2 3 3 2 4 1 5 7 6 6 7
REMARK H PARENT
REMARK Flexibility Score: inf
ROOT
ATOM      1  C   UNL     1     143.720 143.259 141.487  1.00  0.00     0.001 C 
ATOM      2  C   UNL     1     144.727 142.210 140.990  1.00  0.00     0.008 C 
ATOM      3  C   UNL     1     145.873 142.015 141.991  1.00  0.00     0.075 C 
ATOM      4  C   UNL     1     145.328 141.778 143.371  1.00  0.00     0.132 C 
ATOM      5  O   UNL     1     145.810 140.912 144.085  1.00  0.00    -0.300 OA
ATOM      6  C   UNL     1     144.247 142.681 143.899  1.00  0.00     0.075 C 
ATOM      7  C   UNL     1     143.142 142.860 142.852  1.00  0.00     0.008 C 
ENDROOT
TORSDOF 0
ENDMDL
MODEL 6
REMARK VINA RESULT:    -2.289      7.490      8.018
REMARK INTER + INTRA:          -2.289
REMARK INTER:                  -2.289
REMARK INTRA:                   0.000
REMARK UNBOUND:                 0.000
REMARK SMILES O=C1CCCCC1
REMARK SMILES IDX 5 1 4 2 3 3 2 4 1 5 7 6 6 7
REMARK H PARENT
REMARK Flexibility Score: inf
ROOT
ATOM      1  C   UNL     1     138.353 143.703 141.188  1.00  0.00     0.001 C 
ATOM      2  C   UNL     1     139.433 144.745 140.858  1.00  0.00     0.008 C 
ATOM      3  C   UNL     1     139.512 145.831 141.938  1.00  0.00     0.075 C 
ATOM      4  C   UNL     1     139.620 145.206 143.301  1.00  0.00     0.132 C 
ATOM      5  O   UNL     1     140.404 145.651 144.124  1.00  0.00    -0.300 OA
ATOM      6  C   UNL     1     138.684 144.088 143.673  1.00  0.00     0.075 C 
ATOM      7  C   UNL     1     138.625 143.046 142.549  1.00  0.00     0.008 C 
ENDROOT
TORSDOF 0
ENDMDL
MODEL 7
REMARK VINA RESULT:    -2.267      7.277      8.054
REMARK INTER + INTRA:          -2.267
REMARK INTER:                  -2.267
REMARK INTRA:                   0.000
REMARK UNBOUND:                 0.000
REMARK SMILES O=C1CCCCC1
REMARK SMILES IDX 5 1 4 2 3 3 2 4 1 5 7 6 6 7
REMARK H PARENT
REMARK Flexibility Score: inf
ROOT
ATOM      1  C   UNL     1     139.515 145.854 141.902  1.00  0.00     0.001 C 
ATOM      2  C   UNL     1     140.278 145.558 143.203  1.00  0.00     0.008 C 
ATOM      3  C   UNL     1     139.474 144.632 144.125  1.00  0.00     0.075 C 
ATOM      4  C   UNL     1     139.002 143.422 143.367  1.00  0.00     0.132 C 
ATOM      5  O   UNL     1     139.074 142.311 143.871  1.00  0.00    -0.300 OA
ATOM      6  C   UNL     1     138.354 143.604 142.022  1.00  0.00     0.075 C 
ATOM      7  C   UNL     1     139.184 144.556 141.154  1.00  0.00     0.008 C 
ENDROOT
TORSDOF 0
ENDMDL
MODEL 8
REMARK VINA RESULT:    -2.254      4.965      5.496
REMARK INTER + INTRA:          -2.254
REMARK INTER:                  -2.254
REMARK INTRA:                   0.000
REMARK UNBOUND:                 0.000
REMARK SMILES O=C1CCCCC1
REMARK SMILES IDX 5 1 4 2 3 3 2 4 1 5 7 6 6 7
REMARK H PARENT
REMARK Flexibility Score: inf
ROOT
ATOM      1  C   UNL     1     145.103 141.469 141.850  1.00  0.00     0.001 C 
ATOM      2  C   UNL     1     144.519 142.724 141.184  1.00  0.00     0.008 C 
ATOM      3  C   UNL     1     143.297 143.248 141.950  1.00  0.00     0.075 C 
ATOM      4  C   UNL     1     143.617 143.387 143.412  1.00  0.00     0.132 C 
ATOM      5  O   UNL     1     143.254 144.375 144.032  1.00  0.00    -0.300 OA
ATOM      6  C   UNL     1     144.305 142.255 144.125  1.00  0.00     0.075 C 
ATOM      7  C   UNL     1     145.500 141.756 143.305  1.00  0.00     0.008 C 
ENDROOT
TORSDOF 0
ENDMDL
MODEL 9
REMARK VINA RESULT:    -2.210      7.165      8.139
REMARK INTER + INTRA:          -2.210
REMARK INTER:                  -2.210
REMARK INTRA:                   0.000
REMARK UNBOUND:                 0.000
REMARK SMILES O=C1CCCCC1
REMARK SMILES IDX 5 1 4 2 3 3 2 4 1 5 7 6 6 7
REMARK H PARENT
REMARK Flexibility Score: inf
ROOT
ATOM      1  C   UNL     1     141.432 144.139 144.061  1.00  0.00     0.001 C 
ATOM      2  C   UNL     1     142.135 143.999 142.702  1.00  0.00     0.008 C 
ATOM      3  C   UNL     1     141.128 144.025 141.544  1.00  0.00     0.075 C 
ATOM      4  C   UNL     1     140.212 145.210 141.675  1.00  0.00     0.132 C 
ATOM      5  O   UNL     1     139.929 145.882 140.695  1.00  0.00    -0.300 OA
ATOM      6  C   UNL     1     139.572 145.501 143.005  1.00  0.00     0.075 C 
ATOM      7  C   UNL     1     140.617 145.438 144.125  1.00  0.00     0.008 C 
ENDROOT
TORSDOF 0
ENDMDL
