MODEL 1
REMARK VINA RESULT:    -4.256      0.000      0.000
REMARK INTER + INTRA:          -9.074
REMARK INTER:                  -7.739
REMARK INTRA:                  -1.335
REMARK UNBOUND:                -1.335
REMARK SMILES CCCCCCCCCCCCCCCC(=O)[O-]
REMARK SMILES IDX 9 1 10 2 11 3 12 4 13 5 14 6 15 7 16 8 17 9 18 10 8 11 7 12
REMARK SMILES IDX 6 13 5 14 4 15 3 16 2 17 1 18
REMARK H PARENT
REMARK Flexibility Score: inf
ROOT
ATOM      1  C   UNL     1      13.431  21.931 -22.899  1.00  0.00     0.000 C 
ENDROOT
BRANCH   1   2
ATOM      2  C   UNL     1      12.476  22.900 -22.180  1.00  0.00     0.000 C 
BRANCH   2   3
ATOM      3  C   UNL     1      12.973  23.280 -20.774  1.00  0.00     0.000 C 
BRANCH   3   4
ATOM      4  C   UNL     1      12.013  22.819 -19.665  1.00  0.00     0.000 C 
BRANCH   4   5
ATOM      5  C   UNL     1      12.637  21.761 -18.741  1.00  0.00     0.000 C 
BRANCH   5   6
ATOM      6  C   UNL     1      14.125  21.560 -19.063  1.00  0.00     0.006 C 
BRANCH   6   7
ATOM      7  C   UNL     1      14.513  20.076 -19.119  1.00  0.00     0.053 C 
BRANCH   7   8
ATOM      8  C   UNL     1      15.679  19.772 -18.228  1.00  0.00     0.041 C 
ATOM      9  O   UNL     1      16.058  18.583 -18.065  1.00  0.00    -0.550 OA
ATOM     10  O   UNL     1      16.367  20.806 -17.604  1.00  0.00    -0.550 OA
ENDBRANCH   7   8
ENDBRANCH   6   7
ENDBRANCH   5   6
ENDBRANCH   4   5
ENDBRANCH   3   4
ENDBRANCH   2   3
ENDBRANCH   1   2
BRANCH   1  11
ATOM     11  C   UNL     1      13.770  22.391 -24.327  1.00  0.00     0.000 C 
BRANCH  11  12
ATOM     12  C   UNL     1      12.518  22.656 -25.183  1.00  0.00    -0.000 C 
BRANCH  12  13
ATOM     13  C   UNL     1      12.750  22.622 -26.707  1.00  0.00    -0.000 C 
BRANCH  13  14
ATOM     14  C   UNL     1      11.878  21.610 -27.477  1.00  0.00    -0.000 C 
BRANCH  14  15
ATOM     15  C   UNL     1      12.555  20.256 -27.770  1.00  0.00    -0.000 C 
BRANCH  15  16
ATOM     16  C   UNL     1      11.960  19.056 -27.013  1.00  0.00    -0.000 C 
BRANCH  16  17
ATOM     17  C   UNL     1      12.851  18.580 -25.856  1.00  0.00    -0.003 C 
ATOM     18  C   UNL     1      12.201  18.874 -24.506  1.00  0.00     0.004 C 
ENDBRANCH  16  17
ENDBRANCH  15  16
ENDBRANCH  14  15
ENDBRANCH  13  14
ENDBRANCH  12  13
ENDBRANCH  11  12
ENDBRANCH   1  11
TORSDOF 14
ENDMDL
MODEL 2
REMARK VINA RESULT:    -4.125      2.126      3.931
REMARK INTER + INTRA:          -8.835
REMARK INTER:                  -7.891
REMARK INTRA:                  -0.944
REMARK UNBOUND:                -1.335
REMARK SMILES CCCCCCCCCCCCCCCC(=O)[O-]
REMARK SMILES IDX 9 1 10 2 11 3 12 4 13 5 14 6 15 7 16 8 17 9 18 10 8 11 7 12
REMARK SMILES IDX 6 13 5 14 4 15 3 16 2 17 1 18
REMARK H PARENT
REMARK Flexibility Score: inf
ROOT
ATOM      1  C   UNL     1      14.244  22.657 -20.108  1.00  0.00     0.000 C 
ENDROOT
BRANCH   1   2
ATOM      2  C   UNL     1      14.023  21.268 -19.485  1.00  0.00     0.000 C 
BRANCH   2   3
ATOM      3  C   UNL     1      14.869  21.050 -18.217  1.00  0.00     0.000 C 
BRANCH   3   4
ATOM      4  C   UNL     1      16.150  21.899 -18.209  1.00  0.00     0.000 C 
BRANCH   4   5
ATOM      5  C   UNL     1      17.386  21.105 -17.759  1.00  0.00     0.000 C 
BRANCH   5   6
ATOM      6  C   UNL     1      17.020  19.644 -17.456  1.00  0.00     0.006 C 
BRANCH   6   7
ATOM      7  C   UNL     1      17.484  19.205 -16.061  1.00  0.00     0.053 C 
BRANCH   7   8
ATOM      8  C   UNL     1      18.977  19.233 -15.937  1.00  0.00     0.041 C 
ATOM      9  O   UNL     1      19.521  19.832 -14.973  1.00  0.00    -0.550 OA
ATOM     10  O   UNL     1      19.766  18.567 -16.868  1.00  0.00    -0.550 OA
ENDBRANCH   7   8
ENDBRANCH   6   7
ENDBRANCH   5   6
ENDBRANCH   4   5
ENDBRANCH   3   4
ENDBRANCH   2   3
ENDBRANCH   1   2
BRANCH   1  11
ATOM     11  C   UNL     1      12.985  23.195 -20.808  1.00  0.00     0.000 C 
BRANCH  11  12
ATOM     12  C   UNL     1      12.083  22.074 -21.357  1.00  0.00    -0.000 C 
BRANCH  12  13
ATOM     13  C   UNL     1      12.386  21.643 -22.806  1.00  0.00    -0.000 C 
BRANCH  13  14
ATOM     14  C   UNL     1      12.599  22.801 -23.801  1.00  0.00    -0.000 C 
BRANCH  14  15
ATOM     15  C   UNL     1      13.481  22.462 -25.019  1.00  0.00    -0.000 C 
BRANCH  15  16
ATOM     16  C   UNL     1      12.873  22.826 -26.384  1.00  0.00    -0.000 C 
BRANCH  16  17
ATOM     17  C   UNL     1      12.809  21.631 -27.346  1.00  0.00    -0.003 C 
ATOM     18  C   UNL     1      12.426  20.350 -26.608  1.00  0.00     0.004 C 
ENDBRANCH  16  17
ENDBRANCH  15  16
ENDBRANCH  14  15
ENDBRANCH  13  14
ENDBRANCH  12  13
ENDBRANCH  11  12
ENDBRANCH   1  11
TORSDOF 14
ENDMDL
MODEL 3
REMARK VINA RESULT:    -4.118      3.724      8.216
REMARK INTER + INTRA:          -8.824
REMARK INTER:                  -8.120
REMARK INTRA:                  -0.705
REMARK UNBOUND:                -1.335
REMARK SMILES CCCCCCCCCCCCCCCC(=O)[O-]
REMARK SMILES IDX 9 1 10 2 11 3 12 4 13 5 14 6 15 7 16 8 17 9 18 10 8 11 7 12
REMARK SMILES IDX 6 13 5 14 4 15 3 16 2 17 1 18
REMARK H PARENT
REMARK Flexibility Score: inf
ROOT
ATOM      1  C   UNL     1      12.097  22.984 -19.834  1.00  0.00     0.000 C 
ENDROOT
BRANCH   1   2
ATOM      2  C   UNL     1      13.023  23.049 -21.060  1.00  0.00     0.000 C 
BRANCH   2   3
ATOM      3  C   UNL     1      12.355  22.497 -22.332  1.00  0.00     0.000 C 
BRANCH   3   4
ATOM      4  C   UNL     1      13.361  21.830 -23.285  1.00  0.00     0.000 C 
BRANCH   4   5
ATOM      5  C   UNL     1      13.683  22.699 -24.511  1.00  0.00     0.000 C 
BRANCH   5   6
ATOM      6  C   UNL     1      12.524  22.678 -25.518  1.00  0.00     0.006 C 
BRANCH   6   7
ATOM      7  C   UNL     1      12.988  22.304 -26.932  1.00  0.00     0.053 C 
BRANCH   7   8
ATOM      8  C   UNL     1      12.568  20.916 -27.307  1.00  0.00     0.041 C 
ATOM      9  O   UNL     1      12.566  20.000 -26.443  1.00  0.00    -0.550 OA
ATOM     10  O   UNL     1      12.145  20.641 -28.602  1.00  0.00    -0.550 OA
ENDBRANCH   7   8
ENDBRANCH   6   7
ENDBRANCH   5   6
ENDBRANCH   4   5
ENDBRANCH   3   4
ENDBRANCH   2   3
ENDBRANCH   1   2
BRANCH   1  11
ATOM     11  C   UNL     1      12.611  22.010 -18.760  1.00  0.00     0.000 C 
BRANCH  11  12
ATOM     12  C   UNL     1      13.788  21.146 -19.251  1.00  0.00    -0.000 C 
BRANCH  12  13
ATOM     13  C   UNL     1      15.171  21.555 -18.704  1.00  0.00    -0.000 C 
BRANCH  13  14
ATOM     14  C   UNL     1      15.786  20.576 -17.686  1.00  0.00    -0.000 C 
BRANCH  14  15
ATOM     15  C   UNL     1      16.122  19.178 -18.245  1.00  0.00    -0.000 C 
BRANCH  15  16
ATOM     16  C   UNL     1      16.752  18.208 -17.231  1.00  0.00    -0.000 C 
BRANCH  16  17
ATOM     17  C   UNL     1      17.765  18.891 -16.301  1.00  0.00    -0.003 C 
ATOM     18  C   UNL     1      17.519  18.508 -14.844  1.00  0.00     0.004 C 
ENDBRANCH  16  17
ENDBRANCH  15  16
ENDBRANCH  14  15
ENDBRANCH  13  14
ENDBRANCH  12  13
ENDBRANCH  11  12
ENDBRANCH   1  11
TORSDOF 14
ENDMDL
MODEL 4
REMARK VINA RESULT:    -4.061      1.332      4.007
REMARK INTER + INTRA:          -8.720
REMARK INTER:                  -7.105
REMARK INTRA:                  -1.615
REMARK UNBOUND:                -1.335
REMARK SMILES CCCCCCCCCCCCCCCC(=O)[O-]
REMARK SMILES IDX 9 1 10 2 11 3 12 4 13 5 14 6 15 7 16 8 17 9 18 10 8 11 7 12
REMARK SMILES IDX 6 13 5 14 4 15 3 16 2 17 1 18
REMARK H PARENT
REMARK Flexibility Score: inf
ROOT
ATOM      1  C   UNL     1      12.580  19.136 -26.225  1.00  0.00     0.000 C 
ENDROOT
BRANCH   1   2
ATOM      2  C   UNL     1      12.201  19.006 -24.739  1.00  0.00     0.000 C 
BRANCH   2   3
ATOM      3  C   UNL     1      13.274  18.265 -23.921  1.00  0.00     0.000 C 
BRANCH   3   4
ATOM      4  C   UNL     1      13.054  18.395 -22.405  1.00  0.00     0.000 C 
BRANCH   4   5
ATOM      5  C   UNL     1      14.302  18.902 -21.665  1.00  0.00     0.000 C 
BRANCH   5   6
ATOM      6  C   UNL     1      13.955  19.320 -20.228  1.00  0.00     0.006 C 
BRANCH   6   7
ATOM      7  C   UNL     1      15.174  19.269 -19.298  1.00  0.00     0.053 C 
BRANCH   7   8
ATOM      8  C   UNL     1      15.363  20.559 -18.558  1.00  0.00     0.041 C 
ATOM      9  O   UNL     1      14.394  21.093 -17.958  1.00  0.00    -0.550 OA
ATOM     10  O   UNL     1      16.619  21.153 -18.503  1.00  0.00    -0.550 OA
ENDBRANCH   7   8
ENDBRANCH   6   7
ENDBRANCH   5   6
ENDBRANCH   4   5
ENDBRANCH   3   4
ENDBRANCH   2   3
ENDBRANCH   1   2
BRANCH   1  11
ATOM     11  C   UNL     1      11.912  20.346 -26.899  1.00  0.00     0.000 C 
BRANCH  11  12
ATOM     12  C   UNL     1      12.919  21.443 -27.290  1.00  0.00    -0.000 C 
BRANCH  12  13
ATOM     13  C   UNL     1      13.386  22.345 -26.128  1.00  0.00    -0.000 C 
BRANCH  13  14
ATOM     14  C   UNL     1      12.252  22.998 -25.313  1.00  0.00    -0.000 C 
BRANCH  14  15
ATOM     15  C   UNL     1      12.605  23.321 -23.847  1.00  0.00    -0.000 C 
BRANCH  15  16
ATOM     16  C   UNL     1      12.713  22.098 -22.920  1.00  0.00    -0.000 C 
BRANCH  16  17
ATOM     17  C   UNL     1      12.132  22.357 -21.523  1.00  0.00    -0.003 C 
ATOM     18  C   UNL     1      13.139  23.083 -20.634  1.00  0.00     0.004 C 
ENDBRANCH  16  17
ENDBRANCH  15  16
ENDBRANCH  14  15
ENDBRANCH  13  14
ENDBRANCH  12  13
ENDBRANCH  11  12
ENDBRANCH   1  11
TORSDOF 14
ENDMDL
MODEL 5
REMARK VINA RESULT:    -4.039      3.182      6.558
REMARK INTER + INTRA:          -8.680
REMARK INTER:                  -6.896
REMARK INTRA:                  -1.784
REMARK UNBOUND:                -1.335
REMARK SMILES CCCCCCCCCCCCCCCC(=O)[O-]
REMARK SMILES IDX 9 1 10 2 11 3 12 4 13 5 14 6 15 7 16 8 17 9 18 10 8 11 7 12
REMARK SMILES IDX 6 13 5 14 4 15 3 16 2 17 1 18
REMARK H PARENT
REMARK Flexibility Score: inf
ROOT
ATOM      1  C   UNL     1      16.154  21.692 -18.102  1.00  0.00     0.000 C 
ENDROOT
BRANCH   1   2
ATOM      2  C   UNL     1      14.728  21.134 -18.246  1.00  0.00     0.000 C 
BRANCH   2   3
ATOM      3  C   UNL     1      14.180  21.281 -19.676  1.00  0.00     0.000 C 
BRANCH   3   4
ATOM      4  C   UNL     1      14.039  22.750 -20.107  1.00  0.00     0.000 C 
BRANCH   4   5
ATOM      5  C   UNL     1      12.600  23.119 -20.500  1.00  0.00     0.000 C 
BRANCH   5   6
ATOM      6  C   UNL     1      12.148  22.326 -21.735  1.00  0.00     0.006 C 
BRANCH   6   7
ATOM      7  C   UNL     1      12.638  22.959 -23.044  1.00  0.00     0.053 C 
BRANCH   7   8
ATOM      8  C   UNL     1      13.395  21.977 -23.887  1.00  0.00     0.041 C 
ATOM      9  O   UNL     1      13.777  20.883 -23.396  1.00  0.00    -0.550 OA
ATOM     10  O   UNL     1      13.648  22.258 -25.225  1.00  0.00    -0.550 OA
ENDBRANCH   7   8
ENDBRANCH   6   7
ENDBRANCH   5   6
ENDBRANCH   4   5
ENDBRANCH   3   4
ENDBRANCH   2   3
ENDBRANCH   1   2
BRANCH   1  11
ATOM     11  C   UNL     1      17.203  20.583 -17.909  1.00  0.00     0.000 C 
BRANCH  11  12
ATOM     12  C   UNL     1      16.650  19.366 -17.144  1.00  0.00    -0.000 C 
BRANCH  12  13
ATOM     13  C   UNL     1      16.784  18.017 -17.880  1.00  0.00    -0.000 C 
BRANCH  13  14
ATOM     14  C   UNL     1      15.714  17.751 -18.957  1.00  0.00    -0.000 C 
BRANCH  14  15
ATOM     15  C   UNL     1      16.176  17.988 -20.409  1.00  0.00    -0.000 C 
BRANCH  15  16
ATOM     16  C   UNL     1      15.050  17.986 -21.457  1.00  0.00    -0.000 C 
BRANCH  16  17
ATOM     17  C   UNL     1      13.692  17.570 -20.872  1.00  0.00    -0.003 C 
ATOM     18  C   UNL     1      12.562  18.420 -21.449  1.00  0.00     0.004 C 
ENDBRANCH  16  17
ENDBRANCH  15  16
ENDBRANCH  14  15
ENDBRANCH  13  14
ENDBRANCH  12  13
ENDBRANCH  11  12
ENDBRANCH   1  11
TORSDOF 14
ENDMDL
MODEL 6
REMARK VINA RESULT:    -4.012      2.607      7.079
REMARK INTER + INTRA:          -8.630
REMARK INTER:                  -7.685
REMARK INTRA:                  -0.945
REMARK UNBOUND:                -1.335
REMARK SMILES CCCCCCCCCCCCCCCC(=O)[O-]
REMARK SMILES IDX 9 1 10 2 11 3 12 4 13 5 14 6 15 7 16 8 17 9 18 10 8 11 7 12
REMARK SMILES IDX 6 13 5 14 4 15 3 16 2 17 1 18
REMARK H PARENT
REMARK Flexibility Score: inf
ROOT
ATOM      1  C   UNL     1      13.503  22.531 -23.525  1.00  0.00     0.000 C 
ENDROOT
BRANCH   1   2
ATOM      2  C   UNL     1      13.541  23.198 -24.910  1.00  0.00     0.000 C 
BRANCH   2   3
ATOM      3  C   UNL     1      12.480  22.626 -25.868  1.00  0.00     0.000 C 
BRANCH   3   4
ATOM      4  C   UNL     1      13.069  22.225 -27.230  1.00  0.00     0.000 C 
BRANCH   4   5
ATOM      5  C   UNL     1      12.419  20.959 -27.809  1.00  0.00     0.000 C 
BRANCH   5   6
ATOM      6  C   UNL     1      11.875  20.060 -26.689  1.00  0.00     0.006 C 
BRANCH   6   7
ATOM      7  C   UNL     1      12.624  18.723 -26.600  1.00  0.00     0.053 C 
BRANCH   7   8
ATOM      8  C   UNL     1      12.990  18.383 -25.188  1.00  0.00     0.041 C 
ATOM      9  O   UNL     1      12.904  19.255 -24.284  1.00  0.00    -0.550 OA
ATOM     10  O   UNL     1      13.394  17.093 -24.864  1.00  0.00    -0.550 OA
ENDBRANCH   7   8
ENDBRANCH   6   7
ENDBRANCH   5   6
ENDBRANCH   4   5
ENDBRANCH   3   4
ENDBRANCH   2   3
ENDBRANCH   1   2
BRANCH   1  11
ATOM     11  C   UNL     1      12.074  22.403 -22.972  1.00  0.00     0.000 C 
BRANCH  11  12
ATOM     12  C   UNL     1      12.037  21.855 -21.533  1.00  0.00    -0.000 C 
BRANCH  12  13
ATOM     13  C   UNL     1      12.696  22.761 -20.473  1.00  0.00    -0.000 C 
BRANCH  13  14
ATOM     14  C   UNL     1      14.137  22.372 -20.087  1.00  0.00    -0.000 C 
BRANCH  14  15
ATOM     15  C   UNL     1      14.262  21.510 -18.815  1.00  0.00    -0.000 C 
BRANCH  15  16
ATOM     16  C   UNL     1      15.694  21.356 -18.273  1.00  0.00    -0.000 C 
BRANCH  16  17
ATOM     17  C   UNL     1      16.043  19.903 -17.917  1.00  0.00    -0.003 C 
ATOM     18  C   UNL     1      15.795  18.972 -19.101  1.00  0.00     0.004 C 
ENDBRANCH  16  17
ENDBRANCH  15  16
ENDBRANCH  14  15
ENDBRANCH  13  14
ENDBRANCH  12  13
ENDBRANCH  11  12
ENDBRANCH   1  11
TORSDOF 14
ENDMDL
MODEL 7
REMARK VINA RESULT:    -4.000      3.349      6.358
REMARK INTER + INTRA:          -8.609
REMARK INTER:                  -7.654
REMARK INTRA:                  -0.955
REMARK UNBOUND:                -1.335
REMARK SMILES CCCCCCCCCCCCCCCC(=O)[O-]
REMARK SMILES IDX 9 1 10 2 11 3 12 4 13 5 14 6 15 7 16 8 17 9 18 10 8 11 7 12
REMARK SMILES IDX 6 13 5 14 4 15 3 16 2 17 1 18
REMARK H PARENT
REMARK Flexibility Score: inf
ROOT
ATOM      1  C   UNL     1      16.083  20.389 -18.499  1.00  0.00     0.000 C 
ENDROOT
BRANCH   1   2
ATOM      2  C   UNL     1      17.212  21.304 -17.996  1.00  0.00     0.000 C 
BRANCH   2   3
ATOM      3  C   UNL     1      18.232  20.552 -17.122  1.00  0.00     0.000 C 
BRANCH   3   4
ATOM      4  C   UNL     1      17.734  19.162 -16.695  1.00  0.00     0.000 C 
BRANCH   4   5
ATOM      5  C   UNL     1      18.882  18.172 -16.441  1.00  0.00     0.000 C 
BRANCH   5   6
ATOM      6  C   UNL     1      20.165  18.912 -16.035  1.00  0.00     0.006 C 
BRANCH   6   7
ATOM      7  C   UNL     1      20.432  18.830 -14.526  1.00  0.00     0.053 C 
BRANCH   7   8
ATOM      8  C   UNL     1      19.848  20.001 -13.794  1.00  0.00     0.041 C 
ATOM      9  O   UNL     1      18.954  19.823 -12.926  1.00  0.00    -0.550 OA
ATOM     10  O   UNL     1      20.318  21.284 -14.046  1.00  0.00    -0.550 OA
ENDBRANCH   7   8
ENDBRANCH   6   7
ENDBRANCH   5   6
ENDBRANCH   4   5
ENDBRANCH   3   4
ENDBRANCH   2   3
ENDBRANCH   1   2
BRANCH   1  11
ATOM     11  C   UNL     1      14.687  20.978 -18.236  1.00  0.00     0.000 C 
BRANCH  11  12
ATOM     12  C   UNL     1      13.733  20.811 -19.434  1.00  0.00    -0.000 C 
BRANCH  12  13
ATOM     13  C   UNL     1      12.368  21.514 -19.284  1.00  0.00    -0.000 C 
BRANCH  13  14
ATOM     14  C   UNL     1      12.089  22.624 -20.317  1.00  0.00    -0.000 C 
BRANCH  14  15
ATOM     15  C   UNL     1      11.896  22.133 -21.766  1.00  0.00    -0.000 C 
BRANCH  15  16
ATOM     16  C   UNL     1      12.651  22.945 -22.833  1.00  0.00    -0.000 C 
BRANCH  16  17
ATOM     17  C   UNL     1      13.659  22.099 -23.624  1.00  0.00    -0.003 C 
ATOM     18  C   UNL     1      13.433  20.608 -23.385  1.00  0.00     0.004 C 
ENDBRANCH  16  17
ENDBRANCH  15  16
ENDBRANCH  14  15
ENDBRANCH  13  14
ENDBRANCH  12  13
ENDBRANCH  11  12
ENDBRANCH   1  11
TORSDOF 14
ENDMDL
MODEL 8
REMARK VINA RESULT:    -3.988      2.872      4.610
REMARK INTER + INTRA:          -8.587
REMARK INTER:                  -6.656
REMARK INTRA:                  -1.931
REMARK UNBOUND:                -1.335
REMARK SMILES CCCCCCCCCCCCCCCC(=O)[O-]
REMARK SMILES IDX 9 1 10 2 11 3 12 4 13 5 14 6 15 7 16 8 17 9 18 10 8 11 7 12
REMARK SMILES IDX 6 13 5 14 4 15 3 16 2 17 1 18
REMARK H PARENT
REMARK Flexibility Score: inf
ROOT
ATOM      1  C   UNL     1      13.181  21.713 -19.181  1.00  0.00     0.000 C 
ENDROOT
BRANCH   1   2
ATOM      2  C   UNL     1      14.246  21.124 -18.239  1.00  0.00     0.000 C 
BRANCH   2   3
ATOM      3  C   UNL     1      15.673  21.553 -18.625  1.00  0.00     0.000 C 
BRANCH   3   4
ATOM      4  C   UNL     1      16.697  20.420 -18.450  1.00  0.00     0.000 C 
BRANCH   4   5
ATOM      5  C   UNL     1      16.429  19.564 -17.202  1.00  0.00     0.000 C 
BRANCH   5   6
ATOM      6  C   UNL     1      17.006  18.151 -17.372  1.00  0.00     0.006 C 
BRANCH   6   7
ATOM      7  C   UNL     1      17.871  17.728 -16.177  1.00  0.00     0.053 C 
BRANCH   7   8
ATOM      8  C   UNL     1      18.976  18.705 -15.917  1.00  0.00     0.041 C 
ATOM      9  O   UNL     1      19.880  18.883 -16.775  1.00  0.00    -0.550 OA
ATOM     10  O   UNL     1      18.989  19.445 -14.740  1.00  0.00    -0.550 OA
ENDBRANCH   7   8
ENDBRANCH   6   7
ENDBRANCH   5   6
ENDBRANCH   4   5
ENDBRANCH   3   4
ENDBRANCH   2   3
ENDBRANCH   1   2
BRANCH   1  11
ATOM     11  C   UNL     1      13.765  22.747 -20.157  1.00  0.00     0.000 C 
BRANCH  11  12
ATOM     12  C   UNL     1      12.721  23.285 -21.153  1.00  0.00    -0.000 C 
BRANCH  12  13
ATOM     13  C   UNL     1      12.346  22.316 -22.293  1.00  0.00    -0.000 C 
BRANCH  13  14
ATOM     14  C   UNL     1      13.537  21.592 -22.951  1.00  0.00    -0.000 C 
BRANCH  14  15
ATOM     15  C   UNL     1      13.415  20.056 -23.011  1.00  0.00    -0.000 C 
BRANCH  15  16
ATOM     16  C   UNL     1      14.282  19.296 -21.992  1.00  0.00    -0.000 C 
BRANCH  16  17
ATOM     17  C   UNL     1      13.450  18.582 -20.916  1.00  0.00    -0.003 C 
ATOM     18  C   UNL     1      14.342  17.777 -19.975  1.00  0.00     0.004 C 
ENDBRANCH  16  17
ENDBRANCH  15  16
ENDBRANCH  14  15
ENDBRANCH  13  14
ENDBRANCH  12  13
ENDBRANCH  11  12
ENDBRANCH   1  11
TORSDOF 14
ENDMDL
MODEL 9
REMARK VINA RESULT:    -3.983      3.652      6.532
REMARK INTER + INTRA:          -8.577
REMARK INTER:                  -6.816
REMARK INTRA:                  -1.761
REMARK UNBOUND:                -1.335
REMARK SMILES CCCCCCCCCCCCCCCC(=O)[O-]
REMARK SMILES IDX 9 1 10 2 11 3 12 4 13 5 14 6 15 7 16 8 17 9 18 10 8 11 7 12
REMARK SMILES IDX 6 13 5 14 4 15 3 16 2 17 1 18
REMARK H PARENT
REMARK Flexibility Score: inf
ROOT
ATOM      1  C   UNL     1      13.233  21.481 -18.642  1.00  0.00     0.000 C 
ENDROOT
BRANCH   1   2
ATOM      2  C   UNL     1      12.522  22.500 -19.549  1.00  0.00     0.000 C 
BRANCH   2   3
ATOM      3  C   UNL     1      12.181  21.918 -20.933  1.00  0.00     0.000 C 
BRANCH   3   4
ATOM      4  C   UNL     1      13.200  22.321 -22.011  1.00  0.00     0.000 C 
BRANCH   4   5
ATOM      5  C   UNL     1      12.590  23.214 -23.101  1.00  0.00     0.000 C 
BRANCH   5   6
ATOM      6  C   UNL     1      13.130  22.835 -24.488  1.00  0.00     0.006 C 
BRANCH   6   7
ATOM      7  C   UNL     1      12.281  21.753 -25.168  1.00  0.00     0.053 C 
BRANCH   7   8
ATOM      8  C   UNL     1      12.751  21.472 -26.563  1.00  0.00     0.041 C 
ATOM      9  O   UNL     1      12.577  20.334 -27.073  1.00  0.00    -0.550 OA
ATOM     10  O   UNL     1      13.349  22.478 -27.312  1.00  0.00    -0.550 OA
ENDBRANCH   7   8
ENDBRANCH   6   7
ENDBRANCH   5   6
ENDBRANCH   4   5
ENDBRANCH   3   4
ENDBRANCH   2   3
ENDBRANCH   1   2
BRANCH   1  11
ATOM     11  C   UNL     1      14.760  21.496 -18.823  1.00  0.00     0.000 C 
BRANCH  11  12
ATOM     12  C   UNL     1      15.438  20.225 -18.279  1.00  0.00    -0.000 C 
BRANCH  12  13
ATOM     13  C   UNL     1      15.746  19.145 -19.336  1.00  0.00    -0.000 C 
BRANCH  13  14
ATOM     14  C   UNL     1      14.673  18.049 -19.482  1.00  0.00    -0.000 C 
BRANCH  14  15
ATOM     15  C   UNL     1      13.772  18.179 -20.726  1.00  0.00    -0.000 C 
BRANCH  15  16
ATOM     16  C   UNL     1      14.456  18.785 -21.963  1.00  0.00    -0.000 C 
BRANCH  16  17
ATOM     17  C   UNL     1      13.505  18.929 -23.160  1.00  0.00    -0.003 C 
ATOM     18  C   UNL     1      12.186  18.203 -22.905  1.00  0.00     0.004 C 
ENDBRANCH  16  17
ENDBRANCH  15  16
ENDBRANCH  14  15
ENDBRANCH  13  14
ENDBRANCH  12  13
ENDBRANCH  11  12
ENDBRANCH   1  11
TORSDOF 14
ENDMDL
