MODEL 1
REMARK VINA RESULT:    -6.685      0.000      0.000
REMARK INTER + INTRA:          -8.638
REMARK INTER:                  -7.857
REMARK INTRA:                  -0.781
REMARK UNBOUND:                -0.781
REMARK SMILES C=C(C)[C@@H]1CC[C@]2(CO)CC[C@@]3(C)[C@H](CC[C@H]4[C@]5(C)CC[C@H](O)C(C)(C)[C@H]5CC[C@]43C)[C@@H]12
REMARK SMILES IDX 4 1 5 2 6 3 7 4 32 5 14 6 15 7 16 8 17 9 18 10 20 11 21 12
REMARK SMILES IDX 22 13 24 14 27 15 28 16 29 17 30 18 12 19 11 20 10 21 13 22
REMARK SMILES IDX 31 23 25 24 26 25 19 26 2 27 3 28 1 29 8 30 9 31 23 33
REMARK H PARENT 9 32 23 34
REMARK Flexibility Score: inf
ROOT
ATOM      1  C   UNL     1      12.106  -3.159  32.770  1.00  0.00     0.018 C 
ATOM      2  C   UNL     1      11.284  -2.416  33.850  1.00  0.00     0.009 C 
ATOM      3  C   UNL     1      12.237  -1.390  34.486  1.00  0.00     0.010 C 
ATOM      4  C   UNL     1      13.641  -1.984  34.286  1.00  0.00    -0.003 C 
ATOM      5  C   UNL     1      13.514  -2.519  32.848  1.00  0.00     0.008 C 
ATOM      6  C   UNL     1      14.793  -3.291  32.396  1.00  0.00    -0.000 C 
ATOM      7  C   UNL     1      14.612  -3.958  31.017  1.00  0.00     0.005 C 
ATOM      8  C   UNL     1      14.706  -2.985  29.852  1.00  0.00     0.005 C 
ATOM      9  C   UNL     1      16.001  -2.119  29.822  1.00  0.00     0.002 C 
ATOM     10  C   UNL     1      15.762  -0.686  29.139  1.00  0.00    -0.026 C 
ATOM     11  C   UNL     1      15.335  -0.924  27.651  1.00  0.00     0.010 C 
ATOM     12  C   UNL     1      15.304   0.359  26.807  1.00  0.00     0.033 C 
ATOM     13  C   UNL     1      16.669   1.053  26.786  1.00  0.00     0.120 C 
ATOM     14  C   UNL     1      17.200   1.387  28.223  1.00  0.00    -0.006 C 
ATOM     15  C   UNL     1      17.124   0.088  29.132  1.00  0.00     0.003 C 
ATOM     16  C   UNL     1      17.630   0.269  30.579  1.00  0.00     0.005 C 
ATOM     17  C   UNL     1      18.026  -1.084  31.173  1.00  0.00     0.008 C 
ATOM     18  C   UNL     1      16.944  -2.242  31.130  1.00  0.00    -0.024 C 
ATOM     19  C   UNL     1      16.122  -2.386  32.538  1.00  0.00    -0.024 C 
ATOM     20  C   UNL     1      15.778  -0.964  33.141  1.00  0.00     0.008 C 
ATOM     21  C   UNL     1      14.788  -0.929  34.346  1.00  0.00     0.010 C 
ATOM     22  C   UNL     1      17.045  -3.049  33.618  1.00  0.00     0.012 C 
ATOM     23  C   UNL     1      17.847  -3.529  30.928  1.00  0.00     0.012 C 
ATOM     24  C   UNL     1      18.678   1.849  28.086  1.00  0.00     0.014 C 
ATOM     25  C   UNL     1      16.424   2.601  28.797  1.00  0.00     0.014 C 
ATOM     26  C   UNL     1      14.620   0.125  29.843  1.00  0.00     0.012 C 
ENDROOT
BRANCH   1  27
ATOM     27  C   UNL     1      11.436  -3.017  31.402  1.00  0.00    -0.077 C 
ATOM     28  C   UNL     1      11.141  -1.658  30.807  1.00  0.00     0.039 C 
ATOM     29  C   UNL     1      11.003  -4.102  30.742  1.00  0.00     0.008 C 
ENDBRANCH   1  27
BRANCH   4  30
ATOM     30  C   UNL     1      13.858  -3.114  35.360  1.00  0.00     0.163 C 
BRANCH  30  31
ATOM     31  O   UNL     1      15.026  -2.908  36.111  1.00  0.00    -0.396 OA
ATOM     32  H   UNL     1      15.712  -2.517  35.509  1.00  0.00     0.210 HD
ENDBRANCH  30  31
ENDBRANCH   4  30
BRANCH  13  33
ATOM     33  O   UNL     1      17.577   0.221  26.098  1.00  0.00    -0.393 OA
ATOM     34  H   UNL     1      17.328  -0.717  26.296  1.00  0.00     0.210 HD
ENDBRANCH  13  33
TORSDOF 4
ENDMDL
MODEL 2
REMARK VINA RESULT:    -6.581      2.904      6.240
REMARK INTER + INTRA:          -8.517
REMARK INTER:                  -7.570
REMARK INTRA:                  -0.947
REMARK UNBOUND:                -0.781
REMARK SMILES C=C(C)[C@@H]1CC[C@]2(CO)CC[C@@]3(C)[C@H](CC[C@H]4[C@]5(C)CC[C@H](O)C(C)(C)[C@H]5CC[C@]43C)[C@@H]12
REMARK SMILES IDX 4 1 5 2 6 3 7 4 32 5 14 6 15 7 16 8 17 9 18 10 20 11 21 12
REMARK SMILES IDX 22 13 24 14 27 15 28 16 29 17 30 18 12 19 11 20 10 21 13 22
REMARK SMILES IDX 31 23 25 24 26 25 19 26 2 27 3 28 1 29 8 30 9 31 23 33
REMARK H PARENT 9 32 23 34
REMARK Flexibility Score: inf
ROOT
ATOM      1  C   UNL     1      16.836  -3.619  29.525  1.00  0.00     0.018 C 
ATOM      2  C   UNL     1      18.236  -4.251  29.337  1.00  0.00     0.009 C 
ATOM      3  C   UNL     1      19.125  -3.155  28.725  1.00  0.00     0.010 C 
ATOM      4  C   UNL     1      18.148  -2.230  27.980  1.00  0.00    -0.003 C 
ATOM      5  C   UNL     1      16.992  -2.172  28.995  1.00  0.00     0.008 C 
ATOM      6  C   UNL     1      15.774  -1.363  28.449  1.00  0.00    -0.000 C 
ATOM      7  C   UNL     1      14.559  -1.430  29.396  1.00  0.00     0.005 C 
ATOM      8  C   UNL     1      14.689  -0.538  30.621  1.00  0.00     0.005 C 
ATOM      9  C   UNL     1      15.000   0.958  30.311  1.00  0.00     0.002 C 
ATOM     10  C   UNL     1      15.848   1.660  31.480  1.00  0.00    -0.026 C 
ATOM     11  C   UNL     1      14.986   1.630  32.789  1.00  0.00     0.010 C 
ATOM     12  C   UNL     1      15.570   2.477  33.928  1.00  0.00     0.033 C 
ATOM     13  C   UNL     1      15.728   3.945  33.517  1.00  0.00     0.120 C 
ATOM     14  C   UNL     1      16.609   4.121  32.233  1.00  0.00    -0.006 C 
ATOM     15  C   UNL     1      16.077   3.159  31.088  1.00  0.00     0.003 C 
ATOM     16  C   UNL     1      16.849   3.237  29.753  1.00  0.00     0.005 C 
ATOM     17  C   UNL     1      15.973   2.730  28.607  1.00  0.00     0.008 C 
ATOM     18  C   UNL     1      15.331   1.289  28.764  1.00  0.00    -0.024 C 
ATOM     19  C   UNL     1      16.197   0.129  28.001  1.00  0.00    -0.024 C 
ATOM     20  C   UNL     1      17.750   0.361  28.196  1.00  0.00     0.008 C 
ATOM     21  C   UNL     1      18.698  -0.791  27.740  1.00  0.00     0.010 C 
ATOM     22  C   UNL     1      15.982   0.248  26.452  1.00  0.00     0.012 C 
ATOM     23  C   UNL     1      13.941   1.465  28.022  1.00  0.00     0.012 C 
ATOM     24  C   UNL     1      16.488   5.602  31.775  1.00  0.00     0.014 C 
ATOM     25  C   UNL     1      18.102   3.905  32.590  1.00  0.00     0.014 C 
ATOM     26  C   UNL     1      17.192   0.908  31.772  1.00  0.00     0.012 C 
ENDROOT
BRANCH   1  27
ATOM     27  C   UNL     1      16.411  -3.699  30.993  1.00  0.00    -0.077 C 
ATOM     28  C   UNL     1      15.186  -4.477  31.417  1.00  0.00     0.039 C 
ATOM     29  C   UNL     1      17.065  -2.992  31.928  1.00  0.00     0.008 C 
ENDBRANCH   1  27
BRANCH   4  30
ATOM     30  C   UNL     1      17.756  -2.917  26.620  1.00  0.00     0.163 C 
BRANCH  30  31
ATOM     31  O   UNL     1      18.335  -2.269  25.517  1.00  0.00    -0.396 OA
ATOM     32  H   UNL     1      18.906  -1.533  25.860  1.00  0.00     0.210 HD
ENDBRANCH  30  31
ENDBRANCH   4  30
BRANCH  13  33
ATOM     33  O   UNL     1      14.442   4.489  33.320  1.00  0.00    -0.393 OA
ATOM     34  H   UNL     1      14.110   4.792  34.203  1.00  0.00     0.210 HD
ENDBRANCH  13  33
TORSDOF 4
ENDMDL
MODEL 3
REMARK VINA RESULT:    -6.392      2.056      4.595
REMARK INTER + INTRA:          -8.294
REMARK INTER:                  -7.617
REMARK INTRA:                  -0.677
REMARK UNBOUND:                -0.781
REMARK SMILES C=C(C)[C@@H]1CC[C@]2(CO)CC[C@@]3(C)[C@H](CC[C@H]4[C@]5(C)CC[C@H](O)C(C)(C)[C@H]5CC[C@]43C)[C@@H]12
REMARK SMILES IDX 4 1 5 2 6 3 7 4 32 5 14 6 15 7 16 8 17 9 18 10 20 11 21 12
REMARK SMILES IDX 22 13 24 14 27 15 28 16 29 17 30 18 12 19 11 20 10 21 13 22
REMARK SMILES IDX 31 23 25 24 26 25 19 26 2 27 3 28 1 29 8 30 9 31 23 33
REMARK H PARENT 9 32 23 34
REMARK Flexibility Score: inf
ROOT
ATOM      1  C   UNL     1      15.015   0.197  34.498  1.00  0.00     0.018 C 
ATOM      2  C   UNL     1      15.872  -0.089  35.755  1.00  0.00     0.009 C 
ATOM      3  C   UNL     1      15.993  -1.619  35.855  1.00  0.00     0.010 C 
ATOM      4  C   UNL     1      14.740  -2.157  35.146  1.00  0.00    -0.003 C 
ATOM      5  C   UNL     1      14.675  -1.205  33.937  1.00  0.00     0.008 C 
ATOM      6  C   UNL     1      13.405  -1.453  33.064  1.00  0.00    -0.000 C 
ATOM      7  C   UNL     1      13.256  -0.405  31.942  1.00  0.00     0.005 C 
ATOM      8  C   UNL     1      14.192  -0.634  30.766  1.00  0.00     0.005 C 
ATOM      9  C   UNL     1      14.115  -2.056  30.134  1.00  0.00     0.002 C 
ATOM     10  C   UNL     1      15.514  -2.516  29.493  1.00  0.00    -0.026 C 
ATOM     11  C   UNL     1      15.868  -1.518  28.338  1.00  0.00     0.010 C 
ATOM     12  C   UNL     1      17.057  -1.971  27.478  1.00  0.00     0.033 C 
ATOM     13  C   UNL     1      16.803  -3.340  26.840  1.00  0.00     0.120 C 
ATOM     14  C   UNL     1      16.473  -4.449  27.897  1.00  0.00    -0.006 C 
ATOM     15  C   UNL     1      15.321  -3.937  28.861  1.00  0.00     0.003 C 
ATOM     16  C   UNL     1      14.884  -4.937  29.951  1.00  0.00     0.005 C 
ATOM     17  C   UNL     1      13.473  -4.604  30.440  1.00  0.00     0.008 C 
ATOM     18  C   UNL     1      13.209  -3.124  30.943  1.00  0.00    -0.024 C 
ATOM     19  C   UNL     1      13.305  -2.986  32.571  1.00  0.00    -0.024 C 
ATOM     20  C   UNL     1      14.506  -3.845  33.141  1.00  0.00     0.008 C 
ATOM     21  C   UNL     1      14.881  -3.625  34.639  1.00  0.00     0.010 C 
ATOM     22  C   UNL     1      12.031  -3.624  33.226  1.00  0.00     0.012 C 
ATOM     23  C   UNL     1      11.707  -2.886  30.495  1.00  0.00     0.012 C 
ATOM     24  C   UNL     1      15.993  -5.711  27.126  1.00  0.00     0.014 C 
ATOM     25  C   UNL     1      17.770  -4.868  28.637  1.00  0.00     0.014 C 
ATOM     26  C   UNL     1      16.685  -2.481  30.535  1.00  0.00     0.012 C 
ENDROOT
BRANCH   1  27
ATOM     27  C   UNL     1      15.788   1.085  33.521  1.00  0.00    -0.077 C 
ATOM     28  C   UNL     1      17.012   0.576  32.792  1.00  0.00     0.039 C 
ATOM     29  C   UNL     1      15.452   2.375  33.365  1.00  0.00     0.008 C 
ENDBRANCH   1  27
BRANCH   4  30
ATOM     30  C   UNL     1      13.516  -2.013  36.124  1.00  0.00     0.163 C 
BRANCH  30  31
ATOM     31  O   UNL     1      12.706  -3.160  36.125  1.00  0.00    -0.396 OA
ATOM     32  H   UNL     1      12.512  -3.397  37.070  1.00  0.00     0.210 HD
ENDBRANCH  30  31
ENDBRANCH   4  30
BRANCH  13  33
ATOM     33  O   UNL     1      15.751  -3.205  25.911  1.00  0.00    -0.393 OA
ATOM     34  H   UNL     1      15.921  -3.845  25.174  1.00  0.00     0.210 HD
ENDBRANCH  13  33
TORSDOF 4
ENDMDL
MODEL 4
REMARK VINA RESULT:    -6.366      3.145      5.314
REMARK INTER + INTRA:          -8.264
REMARK INTER:                  -7.308
REMARK INTRA:                  -0.956
REMARK UNBOUND:                -0.781
REMARK SMILES C=C(C)[C@@H]1CC[C@]2(CO)CC[C@@]3(C)[C@H](CC[C@H]4[C@]5(C)CC[C@H](O)C(C)(C)[C@H]5CC[C@]43C)[C@@H]12
REMARK SMILES IDX 4 1 5 2 6 3 7 4 32 5 14 6 15 7 16 8 17 9 18 10 20 11 21 12
REMARK SMILES IDX 22 13 24 14 27 15 28 16 29 17 30 18 12 19 11 20 10 21 13 22
REMARK SMILES IDX 31 23 25 24 26 25 19 26 2 27 3 28 1 29 8 30 9 31 23 33
REMARK H PARENT 9 32 23 34
REMARK Flexibility Score: inf
ROOT
ATOM      1  C   UNL     1      13.731  -2.399  30.445  1.00  0.00     0.018 C 
ATOM      2  C   UNL     1      14.151  -3.769  31.031  1.00  0.00     0.009 C 
ATOM      3  C   UNL     1      15.684  -3.742  31.136  1.00  0.00     0.010 C 
ATOM      4  C   UNL     1      16.132  -2.745  30.054  1.00  0.00    -0.003 C 
ATOM      5  C   UNL     1      15.067  -1.647  30.230  1.00  0.00     0.008 C 
ATOM      6  C   UNL     1      15.210  -0.517  29.164  1.00  0.00    -0.000 C 
ATOM      7  C   UNL     1      14.057   0.505  29.240  1.00  0.00     0.005 C 
ATOM      8  C   UNL     1      14.186   1.486  30.396  1.00  0.00     0.005 C 
ATOM      9  C   UNL     1      15.539   2.255  30.454  1.00  0.00     0.002 C 
ATOM     10  C   UNL     1      15.957   2.643  31.955  1.00  0.00    -0.026 C 
ATOM     11  C   UNL     1      14.858   3.600  32.531  1.00  0.00     0.010 C 
ATOM     12  C   UNL     1      15.245   4.243  33.871  1.00  0.00     0.033 C 
ATOM     13  C   UNL     1      16.542   5.050  33.758  1.00  0.00     0.120 C 
ATOM     14  C   UNL     1      17.742   4.194  33.225  1.00  0.00    -0.006 C 
ATOM     15  C   UNL     1      17.307   3.436  31.900  1.00  0.00     0.003 C 
ATOM     16  C   UNL     1      18.401   2.559  31.256  1.00  0.00     0.005 C 
ATOM     17  C   UNL     1      18.094   2.335  29.774  1.00  0.00     0.008 C 
ATOM     18  C   UNL     1      16.665   1.754  29.407  1.00  0.00    -0.024 C 
ATOM     19  C   UNL     1      16.687   0.134  29.173  1.00  0.00    -0.024 C 
ATOM     20  C   UNL     1      17.615  -0.580  30.237  1.00  0.00     0.008 C 
ATOM     21  C   UNL     1      17.547  -2.137  30.300  1.00  0.00     0.010 C 
ATOM     22  C   UNL     1      17.365  -0.186  27.795  1.00  0.00     0.012 C 
ATOM     23  C   UNL     1      16.363   2.469  28.026  1.00  0.00     0.012 C 
ATOM     24  C   UNL     1      18.916   5.165  32.916  1.00  0.00     0.014 C 
ATOM     25  C   UNL     1      18.250   3.253  34.348  1.00  0.00     0.014 C 
ATOM     26  C   UNL     1      16.040   1.388  32.892  1.00  0.00     0.012 C 
ENDROOT
BRANCH   1  27
ATOM     27  C   UNL     1      12.765  -1.689  31.395  1.00  0.00    -0.077 C 
ATOM     28  C   UNL     1      13.218  -1.189  32.749  1.00  0.00     0.039 C 
ATOM     29  C   UNL     1      11.464  -1.583  31.086  1.00  0.00     0.008 C 
ENDBRANCH   1  27
BRANCH   4  30
ATOM     30  C   UNL     1      16.065  -3.466  28.658  1.00  0.00     0.163 C 
BRANCH  30  31
ATOM     31  O   UNL     1      17.342  -3.709  28.128  1.00  0.00    -0.396 OA
ATOM     32  H   UNL     1      18.007  -3.545  28.847  1.00  0.00     0.210 HD
ENDBRANCH  30  31
ENDBRANCH   4  30
BRANCH  13  33
ATOM     33  O   UNL     1      16.302   6.154  32.914  1.00  0.00    -0.393 OA
ATOM     34  H   UNL     1      17.076   6.233  32.301  1.00  0.00     0.210 HD
ENDBRANCH  13  33
TORSDOF 4
ENDMDL
MODEL 5
REMARK VINA RESULT:    -6.325      2.780      6.761
REMARK INTER + INTRA:          -8.215
REMARK INTER:                  -7.338
REMARK INTRA:                  -0.877
REMARK UNBOUND:                -0.781
REMARK SMILES C=C(C)[C@@H]1CC[C@]2(CO)CC[C@@]3(C)[C@H](CC[C@H]4[C@]5(C)CC[C@H](O)C(C)(C)[C@H]5CC[C@]43C)[C@@H]12
REMARK SMILES IDX 4 1 5 2 6 3 7 4 32 5 14 6 15 7 16 8 17 9 18 10 20 11 21 12
REMARK SMILES IDX 22 13 24 14 27 15 28 16 29 17 30 18 12 19 11 20 10 21 13 22
REMARK SMILES IDX 31 23 25 24 26 25 19 26 2 27 3 28 1 29 8 30 9 31 23 33
REMARK H PARENT 9 32 23 34
REMARK Flexibility Score: inf
ROOT
ATOM      1  C   UNL     1      17.959   2.111  33.878  1.00  0.00     0.018 C 
ATOM      2  C   UNL     1      17.601   3.477  34.512  1.00  0.00     0.009 C 
ATOM      3  C   UNL     1      16.354   3.983  33.769  1.00  0.00     0.010 C 
ATOM      4  C   UNL     1      16.428   3.319  32.384  1.00  0.00    -0.003 C 
ATOM      5  C   UNL     1      16.888   1.904  32.780  1.00  0.00     0.008 C 
ATOM      6  C   UNL     1      17.156   1.006  31.532  1.00  0.00    -0.000 C 
ATOM      7  C   UNL     1      17.761  -0.360  31.916  1.00  0.00     0.005 C 
ATOM      8  C   UNL     1      16.747  -1.338  32.487  1.00  0.00     0.005 C 
ATOM      9  C   UNL     1      15.495  -1.581  31.591  1.00  0.00     0.002 C 
ATOM     10  C   UNL     1      14.188  -1.940  32.452  1.00  0.00    -0.026 C 
ATOM     11  C   UNL     1      14.468  -3.275  33.224  1.00  0.00     0.010 C 
ATOM     12  C   UNL     1      13.223  -3.866  33.900  1.00  0.00     0.033 C 
ATOM     13  C   UNL     1      12.109  -4.147  32.887  1.00  0.00     0.120 C 
ATOM     14  C   UNL     1      11.701  -2.875  32.067  1.00  0.00    -0.006 C 
ATOM     15  C   UNL     1      13.001  -2.195  31.461  1.00  0.00     0.003 C 
ATOM     16  C   UNL     1      12.747  -0.930  30.615  1.00  0.00     0.005 C 
ATOM     17  C   UNL     1      13.920  -0.686  29.664  1.00  0.00     0.008 C 
ATOM     18  C   UNL     1      15.370  -0.615  30.300  1.00  0.00    -0.024 C 
ATOM     19  C   UNL     1      15.866   0.922  30.564  1.00  0.00    -0.024 C 
ATOM     20  C   UNL     1      14.681   1.811  31.120  1.00  0.00     0.008 C 
ATOM     21  C   UNL     1      15.054   3.230  31.652  1.00  0.00     0.010 C 
ATOM     22  C   UNL     1      16.242   1.593  29.198  1.00  0.00     0.012 C 
ATOM     23  C   UNL     1      16.264  -1.254  29.158  1.00  0.00     0.012 C 
ATOM     24  C   UNL     1      10.761  -3.333  30.917  1.00  0.00     0.014 C 
ATOM     25  C   UNL     1      10.856  -1.928  32.959  1.00  0.00     0.014 C 
ATOM     26  C   UNL     1      13.853  -0.834  33.511  1.00  0.00     0.012 C 
ENDROOT
BRANCH   1  27
ATOM     27  C   UNL     1      17.970   1.016  34.947  1.00  0.00    -0.077 C 
ATOM     28  C   UNL     1      16.684   0.424  35.482  1.00  0.00     0.039 C 
ATOM     29  C   UNL     1      19.125   0.627  35.509  1.00  0.00     0.008 C 
ENDBRANCH   1  27
BRANCH   4  30
ATOM     30  C   UNL     1      17.479   4.101  31.515  1.00  0.00     0.163 C 
BRANCH  30  31
ATOM     31  O   UNL     1      16.868   4.852  30.498  1.00  0.00    -0.396 OA
ATOM     32  H   UNL     1      16.578   4.223  29.786  1.00  0.00     0.210 HD
ENDBRANCH  30  31
ENDBRANCH   4  30
BRANCH  13  33
ATOM     33  O   UNL     1      12.544  -5.177  32.028  1.00  0.00    -0.393 OA
ATOM     34  H   UNL     1      13.469  -5.413  32.292  1.00  0.00     0.210 HD
ENDBRANCH  13  33
TORSDOF 4
ENDMDL
MODEL 6
REMARK VINA RESULT:    -6.305      1.753      7.128
REMARK INTER + INTRA:          -8.192
REMARK INTER:                  -7.236
REMARK INTRA:                  -0.956
REMARK UNBOUND:                -0.781
REMARK SMILES C=C(C)[C@@H]1CC[C@]2(CO)CC[C@@]3(C)[C@H](CC[C@H]4[C@]5(C)CC[C@H](O)C(C)(C)[C@H]5CC[C@]43C)[C@@H]12
REMARK SMILES IDX 4 1 5 2 6 3 7 4 32 5 14 6 15 7 16 8 17 9 18 10 20 11 21 12
REMARK SMILES IDX 22 13 24 14 27 15 28 16 29 17 30 18 12 19 11 20 10 21 13 22
REMARK SMILES IDX 31 23 25 24 26 25 19 26 2 27 3 28 1 29 8 30 9 31 23 33
REMARK H PARENT 9 32 23 34
REMARK Flexibility Score: inf
ROOT
ATOM      1  C   UNL     1      18.347   0.383  28.485  1.00  0.00     0.018 C 
ATOM      2  C   UNL     1      18.111   1.130  27.150  1.00  0.00     0.009 C 
ATOM      3  C   UNL     1      17.104   0.283  26.355  1.00  0.00     0.010 C 
ATOM      4  C   UNL     1      17.302  -1.150  26.875  1.00  0.00    -0.003 C 
ATOM      5  C   UNL     1      17.457  -0.880  28.383  1.00  0.00     0.008 C 
ATOM      6  C   UNL     1      17.783  -2.181  29.180  1.00  0.00    -0.000 C 
ATOM      7  C   UNL     1      18.089  -1.892  30.664  1.00  0.00     0.005 C 
ATOM      8  C   UNL     1      16.849  -1.611  31.499  1.00  0.00     0.005 C 
ATOM      9  C   UNL     1      15.743  -2.707  31.420  1.00  0.00     0.002 C 
ATOM     10  C   UNL     1      14.270  -2.103  31.626  1.00  0.00    -0.026 C 
ATOM     11  C   UNL     1      14.198  -1.480  33.062  1.00  0.00     0.010 C 
ATOM     12  C   UNL     1      12.778  -1.078  33.487  1.00  0.00     0.033 C 
ATOM     13  C   UNL     1      11.820  -2.273  33.457  1.00  0.00     0.120 C 
ATOM     14  C   UNL     1      11.766  -2.971  32.055  1.00  0.00    -0.006 C 
ATOM     15  C   UNL     1      13.241  -3.283  31.560  1.00  0.00     0.003 C 
ATOM     16  C   UNL     1      13.340  -3.985  30.190  1.00  0.00     0.005 C 
ATOM     17  C   UNL     1      14.679  -4.712  30.063  1.00  0.00     0.008 C 
ATOM     18  C   UNL     1      15.994  -3.864  30.319  1.00  0.00    -0.024 C 
ATOM     19  C   UNL     1      16.678  -3.331  28.931  1.00  0.00    -0.024 C 
ATOM     20  C   UNL     1      15.575  -2.845  27.907  1.00  0.00     0.008 C 
ATOM     21  C   UNL     1      16.075  -2.084  26.640  1.00  0.00     0.010 C 
ATOM     22  C   UNL     1      17.381  -4.528  28.201  1.00  0.00     0.012 C 
ATOM     23  C   UNL     1      16.953  -4.935  30.986  1.00  0.00     0.012 C 
ATOM     24  C   UNL     1      10.972  -4.297  32.216  1.00  0.00     0.014 C 
ATOM     25  C   UNL     1      10.946  -2.098  31.070  1.00  0.00     0.014 C 
ATOM     26  C   UNL     1      13.943  -0.970  30.593  1.00  0.00     0.012 C 
ENDROOT
BRANCH   1  27
ATOM     27  C   UNL     1      18.002   1.289  29.669  1.00  0.00    -0.077 C 
ATOM     28  C   UNL     1      16.583   1.749  29.922  1.00  0.00     0.039 C 
ATOM     29  C   UNL     1      18.974   1.780  30.454  1.00  0.00     0.008 C 
ENDBRANCH   1  27
BRANCH   4  30
ATOM     30  C   UNL     1      18.597  -1.745  26.208  1.00  0.00     0.163 C 
BRANCH  30  31
ATOM     31  O   UNL     1      18.293  -2.720  25.244  1.00  0.00    -0.396 OA
ATOM     32  H   UNL     1      18.709  -3.574  25.531  1.00  0.00     0.210 HD
ENDBRANCH  30  31
ENDBRANCH   4  30
BRANCH  13  33
ATOM     33  O   UNL     1      12.223  -3.185  34.455  1.00  0.00    -0.393 OA
ATOM     34  H   UNL     1      12.591  -2.658  35.208  1.00  0.00     0.210 HD
ENDBRANCH  13  33
TORSDOF 4
ENDMDL
MODEL 7
REMARK VINA RESULT:    -6.229      1.551      6.998
REMARK INTER + INTRA:          -8.102
REMARK INTER:                  -7.146
REMARK INTRA:                  -0.957
REMARK UNBOUND:                -0.781
REMARK SMILES C=C(C)[C@@H]1CC[C@]2(CO)CC[C@@]3(C)[C@H](CC[C@H]4[C@]5(C)CC[C@H](O)C(C)(C)[C@H]5CC[C@]43C)[C@@H]12
REMARK SMILES IDX 4 1 5 2 6 3 7 4 32 5 14 6 15 7 16 8 17 9 18 10 20 11 21 12
REMARK SMILES IDX 22 13 24 14 27 15 28 16 29 17 30 18 12 19 11 20 10 21 13 22
REMARK SMILES IDX 31 23 25 24 26 25 19 26 2 27 3 28 1 29 8 30 9 31 23 33
REMARK H PARENT 9 32 23 34
REMARK Flexibility Score: inf
ROOT
ATOM      1  C   UNL     1      17.405   2.629  30.053  1.00  0.00     0.018 C 
ATOM      2  C   UNL     1      16.984   3.623  28.943  1.00  0.00     0.009 C 
ATOM      3  C   UNL     1      16.281   2.788  27.861  1.00  0.00     0.010 C 
ATOM      4  C   UNL     1      16.879   1.378  28.005  1.00  0.00    -0.003 C 
ATOM      5  C   UNL     1      16.923   1.251  29.539  1.00  0.00     0.008 C 
ATOM      6  C   UNL     1      17.601  -0.078  29.996  1.00  0.00    -0.000 C 
ATOM      7  C   UNL     1      17.784  -0.141  31.526  1.00  0.00     0.005 C 
ATOM      8  C   UNL     1      16.502  -0.456  32.282  1.00  0.00     0.005 C 
ATOM      9  C   UNL     1      15.765  -1.746  31.814  1.00  0.00     0.002 C 
ATOM     10  C   UNL     1      14.176  -1.653  32.027  1.00  0.00    -0.026 C 
ATOM     11  C   UNL     1      13.902  -1.498  33.562  1.00  0.00     0.010 C 
ATOM     12  C   UNL     1      12.420  -1.637  33.938  1.00  0.00     0.033 C 
ATOM     13  C   UNL     1      11.852  -2.993  33.506  1.00  0.00     0.120 C 
ATOM     14  C   UNL     1      12.027  -3.260  31.971  1.00  0.00    -0.006 C 
ATOM     15  C   UNL     1      13.537  -3.004  31.557  1.00  0.00     0.003 C 
ATOM     16  C   UNL     1      13.859  -3.243  30.067  1.00  0.00     0.005 C 
ATOM     17  C   UNL     1      15.354  -3.508  29.884  1.00  0.00     0.008 C 
ATOM     18  C   UNL     1      16.360  -2.437  30.478  1.00  0.00    -0.024 C 
ATOM     19  C   UNL     1      16.883  -1.372  29.350  1.00  0.00    -0.024 C 
ATOM     20  C   UNL     1      15.703  -0.944  28.387  1.00  0.00     0.008 C 
ATOM     21  C   UNL     1      15.981   0.247  27.418  1.00  0.00     0.010 C 
ATOM     22  C   UNL     1      17.916  -2.077  28.404  1.00  0.00     0.012 C 
ATOM     23  C   UNL     1      17.578  -3.344  30.931  1.00  0.00     0.012 C 
ATOM     24  C   UNL     1      11.651  -4.744  31.703  1.00  0.00     0.014 C 
ATOM     25  C   UNL     1      11.005  -2.409  31.174  1.00  0.00     0.014 C 
ATOM     26  C   UNL     1      13.551  -0.413  31.299  1.00  0.00     0.012 C 
ENDROOT
BRANCH   1  27
ATOM     27  C   UNL     1      16.791   3.040  31.393  1.00  0.00    -0.077 C 
ATOM     28  C   UNL     1      15.296   3.005  31.618  1.00  0.00     0.039 C 
ATOM     29  C   UNL     1      17.565   3.538  32.370  1.00  0.00     0.008 C 
ENDBRANCH   1  27
BRANCH   4  30
ATOM     30  C   UNL     1      18.302   1.373  27.334  1.00  0.00     0.163 C 
BRANCH  30  31
ATOM     31  O   UNL     1      18.314   0.648  26.131  1.00  0.00    -0.396 OA
ATOM     32  H   UNL     1      19.028  -0.039  26.196  1.00  0.00     0.210 HD
ENDBRANCH  30  31
ENDBRANCH   4  30
BRANCH  13  33
ATOM     33  O   UNL     1      12.486  -3.998  34.264  1.00  0.00    -0.393 OA
ATOM     34  H   UNL     1      11.775  -4.560  34.666  1.00  0.00     0.210 HD
ENDBRANCH  13  33
TORSDOF 4
ENDMDL
MODEL 8
REMARK VINA RESULT:    -6.160      1.552      2.672
REMARK INTER + INTRA:          -8.022
REMARK INTER:                  -7.212
REMARK INTRA:                  -0.810
REMARK UNBOUND:                -0.781
REMARK SMILES C=C(C)[C@@H]1CC[C@]2(CO)CC[C@@]3(C)[C@H](CC[C@H]4[C@]5(C)CC[C@H](O)C(C)(C)[C@H]5CC[C@]43C)[C@@H]12
REMARK SMILES IDX 4 1 5 2 6 3 7 4 32 5 14 6 15 7 16 8 17 9 18 10 20 11 21 12
REMARK SMILES IDX 22 13 24 14 27 15 28 16 29 17 30 18 12 19 11 20 10 21 13 22
REMARK SMILES IDX 31 23 25 24 26 25 19 26 2 27 3 28 1 29 8 30 9 31 23 33
REMARK H PARENT 9 32 23 34
REMARK Flexibility Score: inf
ROOT
ATOM      1  C   UNL     1      13.636  -4.689  32.340  1.00  0.00     0.018 C 
ATOM      2  C   UNL     1      12.112  -4.957  32.281  1.00  0.00     0.009 C 
ATOM      3  C   UNL     1      11.430  -3.582  32.367  1.00  0.00     0.010 C 
ATOM      4  C   UNL     1      12.434  -2.694  33.120  1.00  0.00    -0.003 C 
ATOM      5  C   UNL     1      13.752  -3.151  32.469  1.00  0.00     0.008 C 
ATOM      6  C   UNL     1      14.995  -2.474  33.126  1.00  0.00    -0.000 C 
ATOM      7  C   UNL     1      16.322  -3.041  32.581  1.00  0.00     0.005 C 
ATOM      8  C   UNL     1      16.686  -2.522  31.199  1.00  0.00     0.005 C 
ATOM      9  C   UNL     1      16.715  -0.970  31.068  1.00  0.00     0.002 C 
ATOM     10  C   UNL     1      16.341  -0.475  29.587  1.00  0.00    -0.026 C 
ATOM     11  C   UNL     1      17.420  -1.039  28.601  1.00  0.00     0.010 C 
ATOM     12  C   UNL     1      17.327  -0.451  27.186  1.00  0.00     0.033 C 
ATOM     13  C   UNL     1      17.471   1.074  27.198  1.00  0.00     0.120 C 
ATOM     14  C   UNL     1      16.417   1.774  28.123  1.00  0.00    -0.006 C 
ATOM     15  C   UNL     1      16.430   1.089  29.555  1.00  0.00     0.003 C 
ATOM     16  C   UNL     1      15.444   1.689  30.579  1.00  0.00     0.005 C 
ATOM     17  C   UNL     1      15.898   1.366  32.003  1.00  0.00     0.008 C 
ATOM     18  C   UNL     1      16.164  -0.157  32.353  1.00  0.00    -0.024 C 
ATOM     19  C   UNL     1      14.888  -0.864  33.095  1.00  0.00    -0.024 C 
ATOM     20  C   UNL     1      13.525  -0.398  32.442  1.00  0.00     0.008 C 
ATOM     21  C   UNL     1      12.237  -1.167  32.872  1.00  0.00     0.010 C 
ATOM     22  C   UNL     1      14.797  -0.357  34.577  1.00  0.00     0.012 C 
ATOM     23  C   UNL     1      17.364  -0.054  33.383  1.00  0.00     0.012 C 
ATOM     24  C   UNL     1      16.818   3.270  28.251  1.00  0.00     0.014 C 
ATOM     25  C   UNL     1      15.028   1.761  27.434  1.00  0.00     0.014 C 
ATOM     26  C   UNL     1      14.940  -1.002  29.120  1.00  0.00     0.012 C 
ENDROOT
BRANCH   1  27
ATOM     27  C   UNL     1      14.323  -5.261  31.098  1.00  0.00    -0.077 C 
ATOM     28  C   UNL     1      15.561  -6.124  31.210  1.00  0.00     0.039 C 
ATOM     29  C   UNL     1      13.897  -4.924  29.871  1.00  0.00     0.008 C 
ENDBRANCH   1  27
BRANCH   4  30
ATOM     30  C   UNL     1      12.341  -3.032  34.654  1.00  0.00     0.163 C 
BRANCH  30  31
ATOM     31  O   UNL     1      11.785  -1.975  35.393  1.00  0.00    -0.396 OA
ATOM     32  H   UNL     1      10.801  -2.106  35.420  1.00  0.00     0.210 HD
ENDBRANCH  30  31
ENDBRANCH   4  30
BRANCH  13  33
ATOM     33  O   UNL     1      18.783   1.390  27.606  1.00  0.00    -0.393 OA
ATOM     34  H   UNL     1      19.104   0.646  28.176  1.00  0.00     0.210 HD
ENDBRANCH  13  33
TORSDOF 4
ENDMDL
MODEL 9
REMARK VINA RESULT:    -6.088      2.222      5.016
REMARK INTER + INTRA:          -7.936
REMARK INTER:                  -7.021
REMARK INTRA:                  -0.915
REMARK UNBOUND:                -0.781
REMARK SMILES C=C(C)[C@@H]1CC[C@]2(CO)CC[C@@]3(C)[C@H](CC[C@H]4[C@]5(C)CC[C@H](O)C(C)(C)[C@H]5CC[C@]43C)[C@@H]12
REMARK SMILES IDX 4 1 5 2 6 3 7 4 32 5 14 6 15 7 16 8 17 9 18 10 20 11 21 12
REMARK SMILES IDX 22 13 24 14 27 15 28 16 29 17 30 18 12 19 11 20 10 21 13 22
REMARK SMILES IDX 31 23 25 24 26 25 19 26 2 27 3 28 1 29 8 30 9 31 23 33
REMARK H PARENT 9 32 23 34
REMARK Flexibility Score: inf
ROOT
ATOM      1  C   UNL     1      16.776   2.200  33.089  1.00  0.00     0.018 C 
ATOM      2  C   UNL     1      17.808   2.086  34.237  1.00  0.00     0.009 C 
ATOM      3  C   UNL     1      17.793   0.615  34.685  1.00  0.00     0.010 C 
ATOM      4  C   UNL     1      16.387   0.110  34.321  1.00  0.00    -0.003 C 
ATOM      5  C   UNL     1      16.205   0.769  32.941  1.00  0.00     0.008 C 
ATOM      6  C   UNL     1      14.783   0.510  32.353  1.00  0.00    -0.000 C 
ATOM      7  C   UNL     1      14.543   1.293  31.045  1.00  0.00     0.005 C 
ATOM      8  C   UNL     1      15.229   0.682  29.833  1.00  0.00     0.005 C 
ATOM      9  C   UNL     1      14.902  -0.822  29.583  1.00  0.00     0.002 C 
ATOM     10  C   UNL     1      16.113  -1.600  28.873  1.00  0.00    -0.026 C 
ATOM     11  C   UNL     1      16.355  -0.943  27.471  1.00  0.00     0.010 C 
ATOM     12  C   UNL     1      17.323  -1.734  26.580  1.00  0.00     0.033 C 
ATOM     13  C   UNL     1      16.826  -3.163  26.337  1.00  0.00     0.120 C 
ATOM     14  C   UNL     1      16.580  -3.953  27.668  1.00  0.00    -0.006 C 
ATOM     15  C   UNL     1      15.673  -3.086  28.640  1.00  0.00     0.003 C 
ATOM     16  C   UNL     1      15.337  -3.749  29.992  1.00  0.00     0.005 C 
ATOM     17  C   UNL     1      14.075  -3.124  30.588  1.00  0.00     0.008 C 
ATOM     18  C   UNL     1      14.051  -1.547  30.752  1.00  0.00    -0.024 C 
ATOM     19  C   UNL     1      14.447  -1.066  32.265  1.00  0.00    -0.024 C 
ATOM     20  C   UNL     1      15.638  -1.933  32.842  1.00  0.00     0.008 C 
ATOM     21  C   UNL     1      16.291  -1.439  34.170  1.00  0.00     0.010 C 
ATOM     22  C   UNL     1      13.251  -1.360  33.237  1.00  0.00     0.012 C 
ATOM     23  C   UNL     1      12.525  -1.211  30.488  1.00  0.00     0.012 C 
ATOM     24  C   UNL     1      15.849  -5.276  27.306  1.00  0.00     0.014 C 
ATOM     25  C   UNL     1      17.939  -4.371  28.286  1.00  0.00     0.014 C 
ATOM     26  C   UNL     1      17.447  -1.495  29.690  1.00  0.00     0.012 C 
ENDROOT
BRANCH   1  27
ATOM     27  C   UNL     1      17.448   2.734  31.823  1.00  0.00    -0.077 C 
ATOM     28  C   UNL     1      16.963   3.996  31.145  1.00  0.00     0.039 C 
ATOM     29  C   UNL     1      18.426   2.034  31.227  1.00  0.00     0.008 C 
ENDBRANCH   1  27
BRANCH   4  30
ATOM     30  C   UNL     1      15.376   0.634  35.406  1.00  0.00     0.163 C 
BRANCH  30  31
ATOM     31  O   UNL     1      14.784  -0.417  36.125  1.00  0.00    -0.396 OA
ATOM     32  H   UNL     1      14.542  -1.130  35.479  1.00  0.00     0.210 HD
ENDBRANCH  30  31
ENDBRANCH   4  30
BRANCH  13  33
ATOM     33  O   UNL     1      15.645  -3.095  25.570  1.00  0.00    -0.393 OA
ATOM     34  H   UNL     1      15.191  -3.972  25.645  1.00  0.00     0.210 HD
ENDBRANCH  13  33
TORSDOF 4
ENDMDL
