MODEL 1
REMARK VINA RESULT:    -4.091      0.000      0.000
REMARK INTER + INTRA:          -4.734
REMARK INTER:                  -4.689
REMARK INTRA:                  -0.045
REMARK UNBOUND:                -0.045
REMARK SMILES O=C([O-])c1cc(O)c(O)c(O)c1
REMARK SMILES IDX 4 1 5 2 12 3 6 4 10 5 8 6 2 7 1 8 3 9 7 10 11 12 9 14
REMARK H PARENT 7 11 11 13 9 15
REMARK Flexibility Score: inf
ROOT
ATOM      1  C   UNL     1      -2.975  -2.934   1.785  1.00  0.00     0.005 A 
ATOM      2  C   UNL     1      -2.632  -4.171   2.353  1.00  0.00     0.060 A 
ATOM      3  C   UNL     1      -2.001  -2.218   1.074  1.00  0.00     0.060 A 
ATOM      4  C   UNL     1      -1.340  -4.693   2.217  1.00  0.00     0.162 A 
ATOM      5  C   UNL     1      -0.707  -2.726   0.928  1.00  0.00     0.162 A 
ATOM      6  C   UNL     1      -0.363  -3.965   1.496  1.00  0.00     0.200 A 
ENDROOT
BRANCH   1   7
ATOM      7  C   UNL     1      -4.343  -2.387   1.934  1.00  0.00     0.072 C 
ATOM      8  O   UNL     1      -4.557  -1.391   2.674  1.00  0.00    -0.545 OA
ATOM      9  O   UNL     1      -5.411  -2.968   1.259  1.00  0.00    -0.545 OA
ENDBRANCH   1   7
BRANCH   4  10
ATOM     10  O   UNL     1      -1.076  -5.930   2.810  1.00  0.00    -0.504 OA
ATOM     11  H   UNL     1      -0.212  -6.162   3.277  1.00  0.00     0.293 HD
ENDBRANCH   4  10
BRANCH   5  12
ATOM     12  O   UNL     1       0.228  -1.979   0.211  1.00  0.00    -0.504 OA
ATOM     13  H   UNL     1       1.041  -1.563   0.651  1.00  0.00     0.293 HD
ENDBRANCH   5  12
BRANCH   6  14
ATOM     14  O   UNL     1       0.942  -4.436   1.327  1.00  0.00    -0.502 OA
ATOM     15  H   UNL     1       1.312  -5.258   1.781  1.00  0.00     0.293 HD
ENDBRANCH   6  14
TORSDOF 4
ENDMDL
MODEL 2
REMARK VINA RESULT:    -4.084      0.063      2.445
REMARK INTER + INTRA:          -4.727
REMARK INTER:                  -4.681
REMARK INTRA:                  -0.045
REMARK UNBOUND:                -0.045
REMARK SMILES O=C([O-])c1cc(O)c(O)c(O)c1
REMARK SMILES IDX 4 1 5 2 12 3 6 4 10 5 8 6 2 7 1 8 3 9 7 10 11 12 9 14
REMARK H PARENT 7 11 11 13 9 15
REMARK Flexibility Score: inf
ROOT
ATOM      1  C   UNL     1      -3.002  -2.915   1.792  1.00  0.00     0.005 A 
ATOM      2  C   UNL     1      -2.019  -2.218   1.072  1.00  0.00     0.060 A 
ATOM      3  C   UNL     1      -2.677  -4.155   2.361  1.00  0.00     0.060 A 
ATOM      4  C   UNL     1      -0.730  -2.741   0.918  1.00  0.00     0.162 A 
ATOM      5  C   UNL     1      -1.395  -4.692   2.217  1.00  0.00     0.162 A 
ATOM      6  C   UNL     1      -0.410  -3.994   1.496  1.00  0.00     0.200 A 
ENDROOT
BRANCH   1   7
ATOM      7  C   UNL     1      -4.363  -2.355   1.951  1.00  0.00     0.072 C 
ATOM      8  O   UNL     1      -4.562  -1.360   2.698  1.00  0.00    -0.545 OA
ATOM      9  O   UNL     1      -5.441  -2.919   1.278  1.00  0.00    -0.545 OA
ENDBRANCH   1   7
BRANCH   4  10
ATOM     10  O   UNL     1       0.192  -1.988   0.189  1.00  0.00    -0.504 OA
ATOM     11  H   UNL     1       0.491  -2.212  -0.750  1.00  0.00     0.293 HD
ENDBRANCH   4  10
BRANCH   5  12
ATOM     12  O   UNL     1      -1.118  -5.929   2.801  1.00  0.00    -0.504 OA
ATOM     13  H   UNL     1      -0.280  -6.455   2.582  1.00  0.00     0.293 HD
ENDBRANCH   5  12
BRANCH   6  14
ATOM     14  O   UNL     1       0.859  -4.567   1.376  1.00  0.00    -0.502 OA
ATOM     15  H   UNL     1       1.223  -5.276   1.995  1.00  0.00     0.293 HD
ENDBRANCH   6  14
TORSDOF 4
ENDMDL
MODEL 3
REMARK VINA RESULT:    -4.068     11.613     12.414
REMARK INTER + INTRA:          -4.708
REMARK INTER:                  -4.660
REMARK INTRA:                  -0.048
REMARK UNBOUND:                -0.045
REMARK SMILES O=C([O-])c1cc(O)c(O)c(O)c1
REMARK SMILES IDX 4 1 5 2 12 3 6 4 10 5 8 6 2 7 1 8 3 9 7 10 11 12 9 14
REMARK H PARENT 7 11 11 13 9 15
REMARK Flexibility Score: inf
ROOT
ATOM      1  C   UNL     1      -0.564   8.257  -0.668  1.00  0.00     0.005 A 
ATOM      2  C   UNL     1      -0.441   7.886  -2.016  1.00  0.00     0.060 A 
ATOM      3  C   UNL     1      -1.834   8.245  -0.072  1.00  0.00     0.060 A 
ATOM      4  C   UNL     1      -1.561   7.507  -2.765  1.00  0.00     0.162 A 
ATOM      5  C   UNL     1      -2.963   7.869  -0.806  1.00  0.00     0.162 A 
ATOM      6  C   UNL     1      -2.839   7.498  -2.157  1.00  0.00     0.200 A 
ENDROOT
BRANCH   1   7
ATOM      7  C   UNL     1       0.625   8.656   0.118  1.00  0.00     0.072 C 
ATOM      8  O   UNL     1       1.463   9.469  -0.357  1.00  0.00    -0.545 OA
ATOM      9  O   UNL     1       0.836   8.139   1.391  1.00  0.00    -0.545 OA
ENDBRANCH   1   7
BRANCH   4  10
ATOM     10  O   UNL     1      -1.357   7.152  -4.100  1.00  0.00    -0.504 OA
ATOM     11  H   UNL     1      -1.542   6.233  -4.477  1.00  0.00     0.293 HD
ENDBRANCH   4  10
BRANCH   5  12
ATOM     12  O   UNL     1      -4.205   7.872  -0.171  1.00  0.00    -0.504 OA
ATOM     13  H   UNL     1      -4.871   8.626  -0.288  1.00  0.00     0.293 HD
ENDBRANCH   5  12
BRANCH   6  14
ATOM     14  O   UNL     1      -3.993   7.129  -2.854  1.00  0.00    -0.502 OA
ATOM     15  H   UNL     1      -4.680   7.782  -3.201  1.00  0.00     0.293 HD
ENDBRANCH   6  14
TORSDOF 4
ENDMDL
MODEL 4
REMARK VINA RESULT:    -4.065      7.427      8.580
REMARK INTER + INTRA:          -4.705
REMARK INTER:                  -4.656
REMARK INTRA:                  -0.049
REMARK UNBOUND:                -0.045
REMARK SMILES O=C([O-])c1cc(O)c(O)c(O)c1
REMARK SMILES IDX 4 1 5 2 12 3 6 4 10 5 8 6 2 7 1 8 3 9 7 10 11 12 9 14
REMARK H PARENT 7 11 11 13 9 15
REMARK Flexibility Score: inf
ROOT
ATOM      1  C   UNL     1       1.552   0.736   7.152  1.00  0.00     0.005 A 
ATOM      2  C   UNL     1       0.306   0.366   7.682  1.00  0.00     0.060 A 
ATOM      3  C   UNL     1       1.635   1.877   6.341  1.00  0.00     0.060 A 
ATOM      4  C   UNL     1      -0.845   1.118   7.413  1.00  0.00     0.162 A 
ATOM      5  C   UNL     1       0.496   2.639   6.063  1.00  0.00     0.162 A 
ATOM      6  C   UNL     1      -0.753   2.269   6.593  1.00  0.00     0.200 A 
ENDROOT
BRANCH   1   7
ATOM      7  C   UNL     1       2.763  -0.064   7.442  1.00  0.00     0.072 C 
ATOM      8  O   UNL     1       2.714  -1.323   7.441  1.00  0.00    -0.545 OA
ATOM      9  O   UNL     1       3.972   0.563   7.720  1.00  0.00    -0.545 OA
ENDBRANCH   1   7
BRANCH   4  10
ATOM     10  O   UNL     1      -2.047   0.686   7.977  1.00  0.00    -0.504 OA
ATOM     11  H   UNL     1      -2.689   1.288   8.471  1.00  0.00     0.293 HD
ENDBRANCH   4  10
BRANCH   5  12
ATOM     12  O   UNL     1       0.627   3.766   5.251  1.00  0.00    -0.504 OA
ATOM     13  H   UNL     1      -0.163   4.351   5.004  1.00  0.00     0.293 HD
ENDBRANCH   5  12
BRANCH   6  14
ATOM     14  O   UNL     1      -1.865   3.058   6.290  1.00  0.00    -0.502 OA
ATOM     15  H   UNL     1      -2.586   2.795   5.633  1.00  0.00     0.293 HD
ENDBRANCH   6  14
TORSDOF 4
ENDMDL
MODEL 5
REMARK VINA RESULT:    -4.062      7.442      8.906
REMARK INTER + INTRA:          -4.702
REMARK INTER:                  -4.652
REMARK INTRA:                  -0.049
REMARK UNBOUND:                -0.045
REMARK SMILES O=C([O-])c1cc(O)c(O)c(O)c1
REMARK SMILES IDX 4 1 5 2 12 3 6 4 10 5 8 6 2 7 1 8 3 9 7 10 11 12 9 14
REMARK H PARENT 7 11 11 13 9 15
REMARK Flexibility Score: inf
ROOT
ATOM      1  C   UNL     1       1.532   0.741   7.150  1.00  0.00     0.005 A 
ATOM      2  C   UNL     1       1.616   1.884   6.340  1.00  0.00     0.060 A 
ATOM      3  C   UNL     1       0.289   0.379   7.689  1.00  0.00     0.060 A 
ATOM      4  C   UNL     1       0.483   2.661   6.068  1.00  0.00     0.162 A 
ATOM      5  C   UNL     1      -0.852   1.142   7.427  1.00  0.00     0.162 A 
ATOM      6  C   UNL     1      -0.768   2.288   6.616  1.00  0.00     0.200 A 
ENDROOT
BRANCH   1   7
ATOM      7  C   UNL     1       2.735  -0.074   7.433  1.00  0.00     0.072 C 
ATOM      8  O   UNL     1       2.659  -1.331   7.483  1.00  0.00    -0.545 OA
ATOM      9  O   UNL     1       3.965   0.536   7.651  1.00  0.00    -0.545 OA
ENDBRANCH   1   7
BRANCH   4  10
ATOM     10  O   UNL     1       0.647   3.783   5.254  1.00  0.00    -0.504 OA
ATOM     11  H   UNL     1       1.390   4.459   5.363  1.00  0.00     0.293 HD
ENDBRANCH   4  10
BRANCH   5  12
ATOM     12  O   UNL     1      -2.067   0.743   7.985  1.00  0.00    -0.504 OA
ATOM     13  H   UNL     1      -2.901   1.316   7.933  1.00  0.00     0.293 HD
ENDBRANCH   5  12
BRANCH   6  14
ATOM     14  O   UNL     1      -1.933   3.023   6.379  1.00  0.00    -0.502 OA
ATOM     15  H   UNL     1      -2.258   3.778   6.966  1.00  0.00     0.293 HD
ENDBRANCH   6  14
TORSDOF 4
ENDMDL
MODEL 6
REMARK VINA RESULT:    -4.033     11.619     12.283
REMARK INTER + INTRA:          -4.668
REMARK INTER:                  -4.619
REMARK INTRA:                  -0.049
REMARK UNBOUND:                -0.045
REMARK SMILES O=C([O-])c1cc(O)c(O)c(O)c1
REMARK SMILES IDX 4 1 5 2 12 3 6 4 10 5 8 6 2 7 1 8 3 9 7 10 11 12 9 14
REMARK H PARENT 7 11 11 13 9 15
REMARK Flexibility Score: inf
ROOT
ATOM      1  C   UNL     1      -0.584   8.249  -0.530  1.00  0.00     0.005 A 
ATOM      2  C   UNL     1      -1.873   8.255   0.025  1.00  0.00     0.060 A 
ATOM      3  C   UNL     1      -0.421   7.862  -1.868  1.00  0.00     0.060 A 
ATOM      4  C   UNL     1      -2.988   7.883  -0.736  1.00  0.00     0.162 A 
ATOM      5  C   UNL     1      -1.523   7.489  -2.643  1.00  0.00     0.162 A 
ATOM      6  C   UNL     1      -2.815   7.495  -2.087  1.00  0.00     0.200 A 
ENDROOT
BRANCH   1   7
ATOM      7  C   UNL     1       0.590   8.643   0.282  1.00  0.00     0.072 C 
ATOM      8  O   UNL     1       0.702   8.254   1.475  1.00  0.00    -0.545 OA
ATOM      9  O   UNL     1       1.584   9.449  -0.261  1.00  0.00    -0.545 OA
ENDBRANCH   1   7
BRANCH   4  10
ATOM     10  O   UNL     1      -4.238   7.916  -0.114  1.00  0.00    -0.504 OA
ATOM     11  H   UNL     1      -4.454   7.437   0.749  1.00  0.00     0.293 HD
ENDBRANCH   4  10
BRANCH   5  12
ATOM     12  O   UNL     1      -1.313   7.112  -3.969  1.00  0.00    -0.504 OA
ATOM     13  H   UNL     1      -0.397   6.857  -4.320  1.00  0.00     0.293 HD
ENDBRANCH   5  12
BRANCH   6  14
ATOM     14  O   UNL     1      -3.890   7.114  -2.895  1.00  0.00    -0.502 OA
ATOM     15  H   UNL     1      -4.065   6.167  -3.198  1.00  0.00     0.293 HD
ENDBRANCH   6  14
TORSDOF 4
ENDMDL
MODEL 7
REMARK VINA RESULT:    -3.663      1.496      4.434
REMARK INTER + INTRA:          -4.244
REMARK INTER:                  -4.197
REMARK INTRA:                  -0.047
REMARK UNBOUND:                -0.045
REMARK SMILES O=C([O-])c1cc(O)c(O)c(O)c1
REMARK SMILES IDX 4 1 5 2 12 3 6 4 10 5 8 6 2 7 1 8 3 9 7 10 11 12 9 14
REMARK H PARENT 7 11 11 13 9 15
REMARK Flexibility Score: inf
ROOT
ATOM      1  C   UNL     1       0.416  -4.120   1.500  1.00  0.00     0.005 A 
ATOM      2  C   UNL     1      -0.535  -4.887   2.190  1.00  0.00     0.060 A 
ATOM      3  C   UNL     1      -0.002  -2.963   0.826  1.00  0.00     0.060 A 
ATOM      4  C   UNL     1      -1.885  -4.513   2.213  1.00  0.00     0.162 A 
ATOM      5  C   UNL     1      -1.345  -2.575   0.839  1.00  0.00     0.162 A 
ATOM      6  C   UNL     1      -2.299  -3.344   1.531  1.00  0.00     0.200 A 
ENDROOT
BRANCH   1   7
ATOM      7  C   UNL     1       1.840  -4.522   1.480  1.00  0.00     0.072 C 
ATOM      8  O   UNL     1       2.177  -5.666   1.075  1.00  0.00    -0.545 OA
ATOM      9  O   UNL     1       2.827  -3.642   1.910  1.00  0.00    -0.545 OA
ENDBRANCH   1   7
BRANCH   4  10
ATOM     10  O   UNL     1      -2.770  -5.328   2.921  1.00  0.00    -0.504 OA
ATOM     11  H   UNL     1      -2.760  -6.337   2.891  1.00  0.00     0.293 HD
ENDBRANCH   4  10
BRANCH   5  12
ATOM     12  O   UNL     1      -1.714  -1.417   0.155  1.00  0.00    -0.504 OA
ATOM     13  H   UNL     1      -2.124  -0.618   0.624  1.00  0.00     0.293 HD
ENDBRANCH   5  12
BRANCH   6  14
ATOM     14  O   UNL     1      -3.630  -2.921   1.518  1.00  0.00    -0.502 OA
ATOM     15  H   UNL     1      -4.101  -2.502   2.308  1.00  0.00     0.293 HD
ENDBRANCH   6  14
TORSDOF 4
ENDMDL
MODEL 8
REMARK VINA RESULT:    -3.650      1.501      4.971
REMARK INTER + INTRA:          -4.229
REMARK INTER:                  -4.182
REMARK INTRA:                  -0.047
REMARK UNBOUND:                -0.045
REMARK SMILES O=C([O-])c1cc(O)c(O)c(O)c1
REMARK SMILES IDX 4 1 5 2 12 3 6 4 10 5 8 6 2 7 1 8 3 9 7 10 11 12 9 14
REMARK H PARENT 7 11 11 13 9 15
REMARK Flexibility Score: inf
ROOT
ATOM      1  C   UNL     1       0.380  -4.107   1.489  1.00  0.00     0.005 A 
ATOM      2  C   UNL     1      -0.047  -2.953   0.814  1.00  0.00     0.060 A 
ATOM      3  C   UNL     1      -0.564  -4.878   2.183  1.00  0.00     0.060 A 
ATOM      4  C   UNL     1      -1.393  -2.566   0.827  1.00  0.00     0.162 A 
ATOM      5  C   UNL     1      -1.911  -4.507   2.206  1.00  0.00     0.162 A 
ATOM      6  C   UNL     1      -2.339  -3.349   1.531  1.00  0.00     0.200 A 
ENDROOT
BRANCH   1   7
ATOM      7  C   UNL     1       1.805  -4.510   1.471  1.00  0.00     0.072 C 
ATOM      8  O   UNL     1       2.698  -3.720   1.877  1.00  0.00    -0.545 OA
ATOM      9  O   UNL     1       2.177  -5.765   1.004  1.00  0.00    -0.545 OA
ENDBRANCH   1   7
BRANCH   4  10
ATOM     10  O   UNL     1      -1.739  -1.405   0.133  1.00  0.00    -0.504 OA
ATOM     11  H   UNL     1      -2.008  -0.539   0.576  1.00  0.00     0.293 HD
ENDBRANCH   4  10
BRANCH   5  12
ATOM     12  O   UNL     1      -2.814  -5.304   2.910  1.00  0.00    -0.504 OA
ATOM     13  H   UNL     1      -3.481  -4.917   3.566  1.00  0.00     0.293 HD
ENDBRANCH   5  12
BRANCH   6  14
ATOM     14  O   UNL     1      -3.695  -3.014   1.579  1.00  0.00    -0.502 OA
ATOM     15  H   UNL     1      -4.115  -2.268   1.043  1.00  0.00     0.293 HD
ENDBRANCH   6  14
TORSDOF 4
ENDMDL
MODEL 9
REMARK VINA RESULT:    -3.649      1.569      3.363
REMARK INTER + INTRA:          -4.228
REMARK INTER:                  -4.183
REMARK INTRA:                  -0.045
REMARK UNBOUND:                -0.045
REMARK SMILES O=C([O-])c1cc(O)c(O)c(O)c1
REMARK SMILES IDX 4 1 5 2 12 3 6 4 10 5 8 6 2 7 1 8 3 9 7 10 11 12 9 14
REMARK H PARENT 7 11 11 13 9 15
REMARK Flexibility Score: inf
ROOT
ATOM      1  C   UNL     1      -2.684  -4.749   2.807  1.00  0.00     0.005 A 
ATOM      2  C   UNL     1      -1.452  -4.819   2.139  1.00  0.00     0.060 A 
ATOM      3  C   UNL     1      -3.487  -3.611   2.636  1.00  0.00     0.060 A 
ATOM      4  C   UNL     1      -1.019  -3.776   1.312  1.00  0.00     0.162 A 
ATOM      5  C   UNL     1      -3.070  -2.561   1.813  1.00  0.00     0.162 A 
ATOM      6  C   UNL     1      -1.835  -2.631   1.145  1.00  0.00     0.200 A 
ENDROOT
BRANCH   1   7
ATOM      7  C   UNL     1      -3.135  -5.856   3.680  1.00  0.00     0.072 C 
ATOM      8  O   UNL     1      -2.881  -5.843   4.913  1.00  0.00    -0.545 OA
ATOM      9  O   UNL     1      -3.845  -6.928   3.150  1.00  0.00    -0.545 OA
ENDBRANCH   1   7
BRANCH   4  10
ATOM     10  O   UNL     1       0.219  -3.920   0.682  1.00  0.00    -0.504 OA
ATOM     11  H   UNL     1       0.560  -4.787   0.293  1.00  0.00     0.293 HD
ENDBRANCH   4  10
BRANCH   5  12
ATOM     12  O   UNL     1      -3.902  -1.449   1.674  1.00  0.00    -0.504 OA
ATOM     13  H   UNL     1      -4.231  -0.916   2.470  1.00  0.00     0.293 HD
ENDBRANCH   5  12
BRANCH   6  14
ATOM     14  O   UNL     1      -1.456  -1.559   0.332  1.00  0.00    -0.502 OA
ATOM     15  H   UNL     1      -1.335  -1.619  -0.669  1.00  0.00     0.293 HD
ENDBRANCH   6  14
TORSDOF 4
ENDMDL
