MODEL 1
REMARK VINA RESULT:    -3.758      0.000      0.000
REMARK INTER + INTRA:          -4.464
REMARK INTER:                  -4.417
REMARK INTRA:                  -0.048
REMARK UNBOUND:                -0.048
REMARK SMILES CCCCC(=O)[O-]
REMARK SMILES IDX 4 1 5 2 6 3 7 4 3 5 2 6 1 7
REMARK H PARENT
REMARK Flexibility Score: inf
ROOT
ATOM      1  C   UNL     1      12.489  -0.427  26.990  1.00  0.00     0.053 C 
ENDROOT
BRANCH   1   2
ATOM      2  C   UNL     1      11.602   0.240  25.987  1.00  0.00     0.041 C 
ATOM      3  O   UNL     1      12.098   0.964  25.084  1.00  0.00    -0.550 OA
ATOM      4  O   UNL     1      10.231   0.021  26.018  1.00  0.00    -0.550 OA
ENDBRANCH   1   2
BRANCH   1   5
ATOM      5  C   UNL     1      13.368  -1.481  26.312  1.00  0.00     0.006 C 
BRANCH   5   6
ATOM      6  C   UNL     1      14.850  -1.098  26.397  1.00  0.00    -0.003 C 
ATOM      7  C   UNL     1      15.735  -2.337  26.511  1.00  0.00     0.004 C 
ENDBRANCH   5   6
ENDBRANCH   1   5
TORSDOF 3
ENDMDL
MODEL 2
REMARK VINA RESULT:    -3.742      3.238      3.640
REMARK INTER + INTRA:          -4.446
REMARK INTER:                  -4.369
REMARK INTRA:                  -0.077
REMARK UNBOUND:                -0.048
REMARK SMILES CCCCC(=O)[O-]
REMARK SMILES IDX 4 1 5 2 6 3 7 4 3 5 2 6 1 7
REMARK H PARENT
REMARK Flexibility Score: inf
ROOT
ATOM      1  C   UNL     1      12.851   0.354  27.473  1.00  0.00     0.053 C 
ENDROOT
BRANCH   1   2
ATOM      2  C   UNL     1      13.329   0.349  28.890  1.00  0.00     0.041 C 
ATOM      3  O   UNL     1      12.814   1.125  29.736  1.00  0.00    -0.550 OA
ATOM      4  O   UNL     1      14.312  -0.549  29.288  1.00  0.00    -0.550 OA
ENDBRANCH   1   2
BRANCH   1   5
ATOM      5  C   UNL     1      14.038   0.331  26.505  1.00  0.00     0.006 C 
BRANCH   5   6
ATOM      6  C   UNL     1      14.790   1.667  26.527  1.00  0.00    -0.003 C 
ATOM      7  C   UNL     1      15.630   1.848  25.266  1.00  0.00     0.004 C 
ENDBRANCH   5   6
ENDBRANCH   1   5
TORSDOF 3
ENDMDL
MODEL 3
REMARK VINA RESULT:    -3.739      2.833      3.293
REMARK INTER + INTRA:          -4.443
REMARK INTER:                  -4.310
REMARK INTRA:                  -0.133
REMARK UNBOUND:                -0.048
REMARK SMILES CCCCC(=O)[O-]
REMARK SMILES IDX 4 1 5 2 6 3 7 4 3 5 2 6 1 7
REMARK H PARENT
REMARK Flexibility Score: inf
ROOT
ATOM      1  C   UNL     1      13.526   0.291  27.790  1.00  0.00     0.053 C 
ENDROOT
BRANCH   1   2
ATOM      2  C   UNL     1      13.814  -0.933  26.979  1.00  0.00     0.041 C 
ATOM      3  O   UNL     1      14.920  -1.524  27.093  1.00  0.00    -0.550 OA
ATOM      4  O   UNL     1      12.842  -1.450  26.132  1.00  0.00    -0.550 OA
ENDBRANCH   1   2
BRANCH   1   5
ATOM      5  C   UNL     1      14.477   1.427  27.403  1.00  0.00     0.006 C 
BRANCH   5   6
ATOM      6  C   UNL     1      14.318   1.798  25.924  1.00  0.00    -0.003 C 
ATOM      7  C   UNL     1      15.673   1.883  25.227  1.00  0.00     0.004 C 
ENDBRANCH   5   6
ENDBRANCH   1   5
TORSDOF 3
ENDMDL
MODEL 4
REMARK VINA RESULT:    -3.716      3.023      3.672
REMARK INTER + INTRA:          -4.415
REMARK INTER:                  -4.330
REMARK INTRA:                  -0.085
REMARK UNBOUND:                -0.048
REMARK SMILES CCCCC(=O)[O-]
REMARK SMILES IDX 4 1 5 2 6 3 7 4 3 5 2 6 1 7
REMARK H PARENT
REMARK Flexibility Score: inf
ROOT
ATOM      1  C   UNL     1      14.371   1.322  27.540  1.00  0.00     0.053 C 
ENDROOT
BRANCH   1   2
ATOM      2  C   UNL     1      14.953   0.643  26.341  1.00  0.00     0.041 C 
ATOM      3  O   UNL     1      15.465   1.323  25.413  1.00  0.00    -0.550 OA
ATOM      4  O   UNL     1      14.975  -0.744  26.270  1.00  0.00    -0.550 OA
ENDBRANCH   1   2
BRANCH   1   5
ATOM      5  C   UNL     1      13.195   0.514  28.095  1.00  0.00     0.006 C 
BRANCH   5   6
ATOM      6  C   UNL     1      13.237   0.464  29.627  1.00  0.00    -0.003 C 
ATOM      7  C   UNL     1      14.400  -0.394  30.119  1.00  0.00     0.004 C 
ENDBRANCH   5   6
ENDBRANCH   1   5
TORSDOF 3
ENDMDL
MODEL 5
REMARK VINA RESULT:    -3.710      2.818      3.634
REMARK INTER + INTRA:          -4.409
REMARK INTER:                  -4.271
REMARK INTRA:                  -0.138
REMARK UNBOUND:                -0.048
REMARK SMILES CCCCC(=O)[O-]
REMARK SMILES IDX 4 1 5 2 6 3 7 4 3 5 2 6 1 7
REMARK H PARENT
REMARK Flexibility Score: inf
ROOT
ATOM      1  C   UNL     1      13.980   0.581  26.664  1.00  0.00     0.053 C 
ENDROOT
BRANCH   1   2
ATOM      2  C   UNL     1      13.861  -0.910  26.668  1.00  0.00     0.041 C 
ATOM      3  O   UNL     1      12.858  -1.467  26.148  1.00  0.00    -0.550 OA
ATOM      4  O   UNL     1      14.880  -1.687  27.204  1.00  0.00    -0.550 OA
ENDBRANCH   1   2
BRANCH   1   5
ATOM      5  C   UNL     1      14.265   1.100  28.077  1.00  0.00     0.006 C 
BRANCH   5   6
ATOM      6  C   UNL     1      13.091   0.808  29.017  1.00  0.00    -0.003 C 
ATOM      7  C   UNL     1      13.552   0.046  30.256  1.00  0.00     0.004 C 
ENDBRANCH   5   6
ENDBRANCH   1   5
TORSDOF 3
ENDMDL
MODEL 6
REMARK VINA RESULT:    -3.698      2.325      3.888
REMARK INTER + INTRA:          -4.394
REMARK INTER:                  -4.306
REMARK INTRA:                  -0.087
REMARK UNBOUND:                -0.048
REMARK SMILES CCCCC(=O)[O-]
REMARK SMILES IDX 4 1 5 2 6 3 7 4 3 5 2 6 1 7
REMARK H PARENT
REMARK Flexibility Score: inf
ROOT
ATOM      1  C   UNL     1      13.221  -1.511  26.317  1.00  0.00     0.053 C 
ENDROOT
BRANCH   1   2
ATOM      2  C   UNL     1      14.690  -1.232  26.261  1.00  0.00     0.041 C 
ATOM      3  O   UNL     1      15.108  -0.048  26.162  1.00  0.00    -0.550 OA
ATOM      4  O   UNL     1      15.599  -2.277  26.367  1.00  0.00    -0.550 OA
ENDBRANCH   1   2
BRANCH   1   5
ATOM      5  C   UNL     1      12.478  -0.340  26.968  1.00  0.00     0.006 C 
BRANCH   5   6
ATOM      6  C   UNL     1      11.178  -0.029  26.218  1.00  0.00    -0.003 C 
ATOM      7  C   UNL     1      11.464   0.518  24.822  1.00  0.00     0.004 C 
ENDBRANCH   5   6
ENDBRANCH   1   5
TORSDOF 3
ENDMDL
MODEL 7
REMARK VINA RESULT:    -3.685      2.295      3.633
REMARK INTER + INTRA:          -4.379
REMARK INTER:                  -4.251
REMARK INTRA:                  -0.128
REMARK UNBOUND:                -0.048
REMARK SMILES CCCCC(=O)[O-]
REMARK SMILES IDX 4 1 5 2 6 3 7 4 3 5 2 6 1 7
REMARK H PARENT
REMARK Flexibility Score: inf
ROOT
ATOM      1  C   UNL     1      14.200  -0.545  26.585  1.00  0.00     0.053 C 
ENDROOT
BRANCH   1   2
ATOM      2  C   UNL     1      14.128   0.747  27.336  1.00  0.00     0.041 C 
ATOM      3  O   UNL     1      13.678   0.772  28.512  1.00  0.00    -0.550 OA
ATOM      4  O   UNL     1      14.604   1.915  26.756  1.00  0.00    -0.550 OA
ENDBRANCH   1   2
BRANCH   1   5
ATOM      5  C   UNL     1      12.795  -1.100  26.336  1.00  0.00     0.006 C 
BRANCH   5   6
ATOM      6  C   UNL     1      11.942  -0.101  25.545  1.00  0.00    -0.003 C 
ATOM      7  C   UNL     1      10.557   0.057  26.168  1.00  0.00     0.004 C 
ENDBRANCH   5   6
ENDBRANCH   1   5
TORSDOF 3
ENDMDL
MODEL 8
REMARK VINA RESULT:    -3.672      2.972      3.292
REMARK INTER + INTRA:          -4.364
REMARK INTER:                  -4.288
REMARK INTRA:                  -0.075
REMARK UNBOUND:                -0.048
REMARK SMILES CCCCC(=O)[O-]
REMARK SMILES IDX 4 1 5 2 6 3 7 4 3 5 2 6 1 7
REMARK H PARENT
REMARK Flexibility Score: inf
ROOT
ATOM      1  C   UNL     1      13.748   0.495  27.720  1.00  0.00     0.053 C 
ENDROOT
BRANCH   1   2
ATOM      2  C   UNL     1      13.581   0.335  29.198  1.00  0.00     0.041 C 
ATOM      3  O   UNL     1      14.233  -0.546  29.818  1.00  0.00    -0.550 OA
ATOM      4  O   UNL     1      12.741   1.191  29.899  1.00  0.00    -0.550 OA
ENDBRANCH   1   2
BRANCH   1   5
ATOM      5  C   UNL     1      12.670  -0.293  26.970  1.00  0.00     0.006 C 
BRANCH   5   6
ATOM      6  C   UNL     1      13.259  -1.551  26.323  1.00  0.00    -0.003 C 
ATOM      7  C   UNL     1      14.785  -1.517  26.339  1.00  0.00     0.004 C 
ENDBRANCH   5   6
ENDBRANCH   1   5
TORSDOF 3
ENDMDL
MODEL 9
REMARK VINA RESULT:    -3.608      2.207      3.577
REMARK INTER + INTRA:          -4.289
REMARK INTER:                  -4.199
REMARK INTRA:                  -0.089
REMARK UNBOUND:                -0.048
REMARK SMILES CCCCC(=O)[O-]
REMARK SMILES IDX 4 1 5 2 6 3 7 4 3 5 2 6 1 7
REMARK H PARENT
REMARK Flexibility Score: inf
ROOT
ATOM      1  C   UNL     1      14.463   0.159  26.311  1.00  0.00     0.053 C 
ENDROOT
BRANCH   1   2
ATOM      2  C   UNL     1      14.702   1.462  25.616  1.00  0.00     0.041 C 
ATOM      3  O   UNL     1      15.877   1.876  25.431  1.00  0.00    -0.550 OA
ATOM      4  O   UNL     1      13.628   2.195  25.127  1.00  0.00    -0.550 OA
ENDBRANCH   1   2
BRANCH   1   5
ATOM      5  C   UNL     1      13.142   0.199  27.085  1.00  0.00     0.006 C 
BRANCH   5   6
ATOM      6  C   UNL     1      12.100  -0.722  26.441  1.00  0.00    -0.003 C 
ATOM      7  C   UNL     1      10.772   0.002  26.241  1.00  0.00     0.004 C 
ENDBRANCH   5   6
ENDBRANCH   1   5
TORSDOF 3
ENDMDL
