MODEL 1
REMARK VINA RESULT:    -4.523      0.000      0.000
REMARK INTER + INTRA:          -5.147
REMARK INTER:                  -5.052
REMARK INTRA:                  -0.096
REMARK UNBOUND:                -0.096
REMARK SMILES O=C([O-])C=Cc1ccccc1
REMARK SMILES IDX 4 1 5 2 2 3 1 4 3 5 6 6 7 7 11 8 8 9 10 10 9 11
REMARK H PARENT
REMARK Flexibility Score: inf
ROOT
ATOM      1  C   UNL     1      22.979   1.255  38.719  1.00  0.00     0.025 C 
ATOM      2  C   UNL     1      23.250   2.555  38.911  1.00  0.00     0.010 C 
ENDROOT
BRANCH   1   3
ATOM      3  C   UNL     1      23.492   0.144  39.544  1.00  0.00     0.064 C 
ATOM      4  O   UNL     1      24.061  -0.828  38.981  1.00  0.00    -0.545 OA
ATOM      5  O   UNL     1      23.297   0.110  40.920  1.00  0.00    -0.545 OA
ENDBRANCH   1   3
BRANCH   2   6
ATOM      6  C   UNL     1      24.255   3.089  39.853  1.00  0.00    -0.026 A 
ATOM      7  C   UNL     1      23.871   3.393  41.169  1.00  0.00     0.008 A 
ATOM      8  C   UNL     1      25.560   3.399  39.429  1.00  0.00     0.008 A 
ATOM      9  C   UNL     1      24.793   3.947  42.062  1.00  0.00     0.001 A 
ATOM     10  C   UNL     1      26.479   3.953  40.325  1.00  0.00     0.001 A 
ATOM     11  C   UNL     1      26.097   4.222  41.642  1.00  0.00     0.000 A 
ENDBRANCH   2   6
TORSDOF 2
ENDMDL
MODEL 2
REMARK VINA RESULT:    -4.438      9.223     10.409
REMARK INTER + INTRA:          -5.053
REMARK INTER:                  -4.986
REMARK INTRA:                  -0.067
REMARK UNBOUND:                -0.096
REMARK SMILES O=C([O-])C=Cc1ccccc1
REMARK SMILES IDX 4 1 5 2 2 3 1 4 3 5 6 6 7 7 11 8 8 9 10 10 9 11
REMARK H PARENT
REMARK Flexibility Score: inf
ROOT
ATOM      1  C   UNL     1      30.815   7.109  45.419  1.00  0.00     0.025 C 
ATOM      2  C   UNL     1      30.231   7.223  46.622  1.00  0.00     0.010 C 
ENDROOT
BRANCH   1   3
ATOM      3  C   UNL     1      31.386   5.869  44.860  1.00  0.00     0.064 C 
ATOM      4  O   UNL     1      32.568   5.876  44.429  1.00  0.00    -0.545 OA
ATOM      5  O   UNL     1      30.626   4.712  44.733  1.00  0.00    -0.545 OA
ENDBRANCH   1   3
BRANCH   2   6
ATOM      6  C   UNL     1      30.226   6.185  47.673  1.00  0.00    -0.026 A 
ATOM      7  C   UNL     1      29.000   5.697  48.152  1.00  0.00     0.008 A 
ATOM      8  C   UNL     1      31.421   5.753  48.276  1.00  0.00     0.008 A 
ATOM      9  C   UNL     1      28.972   4.752  49.182  1.00  0.00     0.001 A 
ATOM     10  C   UNL     1      31.389   4.806  49.305  1.00  0.00     0.001 A 
ATOM     11  C   UNL     1      30.165   4.303  49.754  1.00  0.00     0.000 A 
ENDBRANCH   2   6
TORSDOF 2
ENDMDL
MODEL 3
REMARK VINA RESULT:    -4.379     15.329     16.373
REMARK INTER + INTRA:          -4.987
REMARK INTER:                  -4.711
REMARK INTRA:                  -0.276
REMARK UNBOUND:                -0.096
REMARK SMILES O=C([O-])C=Cc1ccccc1
REMARK SMILES IDX 4 1 5 2 2 3 1 4 3 5 6 6 7 7 11 8 8 9 10 10 9 11
REMARK H PARENT
REMARK Flexibility Score: inf
ROOT
ATOM      1  C   UNL     1      23.637  -4.375  52.690  1.00  0.00     0.025 C 
ATOM      2  C   UNL     1      23.087  -3.481  53.526  1.00  0.00     0.010 C 
ENDROOT
BRANCH   1   3
ATOM      3  C   UNL     1      24.171  -5.694  53.080  1.00  0.00     0.064 C 
ATOM      4  O   UNL     1      25.415  -5.843  53.199  1.00  0.00    -0.545 OA
ATOM      5  O   UNL     1      23.338  -6.794  53.247  1.00  0.00    -0.545 OA
ENDBRANCH   1   3
BRANCH   2   6
ATOM      6  C   UNL     1      23.093  -3.572  55.001  1.00  0.00    -0.026 A 
ATOM      7  C   UNL     1      21.969  -4.095  55.661  1.00  0.00     0.008 A 
ATOM      8  C   UNL     1      24.155  -3.050  55.760  1.00  0.00     0.008 A 
ATOM      9  C   UNL     1      21.932  -4.144  57.058  1.00  0.00     0.001 A 
ATOM     10  C   UNL     1      24.115  -3.101  57.157  1.00  0.00     0.001 A 
ATOM     11  C   UNL     1      23.006  -3.652  57.805  1.00  0.00     0.000 A 
ENDBRANCH   2   6
TORSDOF 2
ENDMDL
MODEL 4
REMARK VINA RESULT:    -4.330      7.778      9.842
REMARK INTER + INTRA:          -4.932
REMARK INTER:                  -4.654
REMARK INTRA:                  -0.278
REMARK UNBOUND:                -0.096
REMARK SMILES O=C([O-])C=Cc1ccccc1
REMARK SMILES IDX 4 1 5 2 2 3 1 4 3 5 6 6 7 7 11 8 8 9 10 10 9 11
REMARK H PARENT
REMARK Flexibility Score: inf
ROOT
ATOM      1  C   UNL     1      29.516   6.479  45.281  1.00  0.00     0.025 C 
ATOM      2  C   UNL     1      29.592   6.885  46.558  1.00  0.00     0.010 C 
ENDROOT
BRANCH   1   3
ATOM      3  C   UNL     1      29.528   5.074  44.829  1.00  0.00     0.064 C 
ATOM      4  O   UNL     1      28.446   4.432  44.792  1.00  0.00    -0.545 OA
ATOM      5  O   UNL     1      30.714   4.422  44.513  1.00  0.00    -0.545 OA
ENDBRANCH   1   3
BRANCH   2   6
ATOM      6  C   UNL     1      29.893   6.017  47.716  1.00  0.00    -0.026 A 
ATOM      7  C   UNL     1      31.231   5.730  48.029  1.00  0.00     0.008 A 
ATOM      8  C   UNL     1      28.866   5.390  48.443  1.00  0.00     0.008 A 
ATOM      9  C   UNL     1      31.537   4.871  49.089  1.00  0.00     0.001 A 
ATOM     10  C   UNL     1      29.177   4.532  49.503  1.00  0.00     0.001 A 
ATOM     11  C   UNL     1      30.511   4.277  49.829  1.00  0.00     0.000 A 
ENDBRANCH   2   6
TORSDOF 2
ENDMDL
MODEL 5
REMARK VINA RESULT:    -4.306      9.966     11.162
REMARK INTER + INTRA:          -4.905
REMARK INTER:                  -4.646
REMARK INTRA:                  -0.259
REMARK UNBOUND:                -0.096
REMARK SMILES O=C([O-])C=Cc1ccccc1
REMARK SMILES IDX 4 1 5 2 2 3 1 4 3 5 6 6 7 7 11 8 8 9 10 10 9 11
REMARK H PARENT
REMARK Flexibility Score: inf
ROOT
ATOM      1  C   UNL     1      32.161   6.794  45.242  1.00  0.00     0.025 C 
ATOM      2  C   UNL     1      31.597   5.664  45.694  1.00  0.00     0.010 C 
ENDROOT
BRANCH   1   3
ATOM      3  C   UNL     1      32.260   8.060  45.994  1.00  0.00     0.064 C 
ATOM      4  O   UNL     1      33.276   8.274  46.706  1.00  0.00    -0.545 OA
ATOM      5  O   UNL     1      31.227   8.989  45.991  1.00  0.00    -0.545 OA
ENDBRANCH   1   3
BRANCH   2   6
ATOM      6  C   UNL     1      30.809   5.539  46.938  1.00  0.00    -0.026 A 
ATOM      7  C   UNL     1      31.468   5.243  48.142  1.00  0.00     0.008 A 
ATOM      8  C   UNL     1      29.404   5.606  46.921  1.00  0.00     0.008 A 
ATOM      9  C   UNL     1      30.736   5.070  49.321  1.00  0.00     0.001 A 
ATOM     10  C   UNL     1      28.677   5.433  48.102  1.00  0.00     0.001 A 
ATOM     11  C   UNL     1      29.343   5.170  49.302  1.00  0.00     0.000 A 
ENDBRANCH   2   6
TORSDOF 2
ENDMDL
MODEL 6
REMARK VINA RESULT:    -4.294      7.535      9.415
REMARK INTER + INTRA:          -4.891
REMARK INTER:                  -4.623
REMARK INTRA:                  -0.268
REMARK UNBOUND:                -0.096
REMARK SMILES O=C([O-])C=Cc1ccccc1
REMARK SMILES IDX 4 1 5 2 2 3 1 4 3 5 6 6 7 7 11 8 8 9 10 10 9 11
REMARK H PARENT
REMARK Flexibility Score: inf
ROOT
ATOM      1  C   UNL     1      27.417   5.915  46.246  1.00  0.00     0.025 C 
ATOM      2  C   UNL     1      27.941   6.337  47.407  1.00  0.00     0.010 C 
ENDROOT
BRANCH   1   3
ATOM      3  C   UNL     1      27.763   4.655  45.560  1.00  0.00     0.064 C 
ATOM      4  O   UNL     1      28.721   4.643  44.743  1.00  0.00    -0.545 OA
ATOM      5  O   UNL     1      27.010   3.501  45.739  1.00  0.00    -0.545 OA
ENDBRANCH   1   3
BRANCH   2   6
ATOM      6  C   UNL     1      29.088   5.718  48.103  1.00  0.00    -0.026 A 
ATOM      7  C   UNL     1      28.849   4.805  49.143  1.00  0.00     0.008 A 
ATOM      8  C   UNL     1      30.410   6.103  47.817  1.00  0.00     0.008 A 
ATOM      9  C   UNL     1      29.918   4.246  49.849  1.00  0.00     0.001 A 
ATOM     10  C   UNL     1      31.476   5.541  48.525  1.00  0.00     0.001 A 
ATOM     11  C   UNL     1      31.231   4.609  49.537  1.00  0.00     0.000 A 
ENDBRANCH   2   6
TORSDOF 2
ENDMDL
MODEL 7
REMARK VINA RESULT:    -4.288      9.082     10.913
REMARK INTER + INTRA:          -4.885
REMARK INTER:                  -4.679
REMARK INTRA:                  -0.206
REMARK UNBOUND:                -0.096
REMARK SMILES O=C([O-])C=Cc1ccccc1
REMARK SMILES IDX 4 1 5 2 2 3 1 4 3 5 6 6 7 7 11 8 8 9 10 10 9 11
REMARK H PARENT
REMARK Flexibility Score: inf
ROOT
ATOM      1  C   UNL     1      32.762   5.621  41.004  1.00  0.00     0.025 C 
ATOM      2  C   UNL     1      34.074   5.353  41.095  1.00  0.00     0.010 C 
ENDROOT
BRANCH   1   3
ATOM      3  C   UNL     1      31.985   5.667  39.750  1.00  0.00     0.064 C 
ATOM      4  O   UNL     1      32.030   6.703  39.036  1.00  0.00    -0.545 OA
ATOM      5  O   UNL     1      31.148   4.622  39.376  1.00  0.00    -0.545 OA
ENDBRANCH   1   3
BRANCH   2   6
ATOM      6  C   UNL     1      35.008   5.248  39.955  1.00  0.00    -0.026 A 
ATOM      7  C   UNL     1      35.467   3.982  39.558  1.00  0.00     0.008 A 
ATOM      8  C   UNL     1      35.526   6.395  39.329  1.00  0.00     0.008 A 
ATOM      9  C   UNL     1      36.390   3.863  38.514  1.00  0.00     0.001 A 
ATOM     10  C   UNL     1      36.449   6.272  38.285  1.00  0.00     0.001 A 
ATOM     11  C   UNL     1      36.876   5.006  37.875  1.00  0.00     0.000 A 
ENDBRANCH   2   6
TORSDOF 2
ENDMDL
MODEL 8
REMARK VINA RESULT:    -4.263      2.649      3.890
REMARK INTER + INTRA:          -4.858
REMARK INTER:                  -4.598
REMARK INTRA:                  -0.259
REMARK UNBOUND:                -0.096
REMARK SMILES O=C([O-])C=Cc1ccccc1
REMARK SMILES IDX 4 1 5 2 2 3 1 4 3 5 6 6 7 7 11 8 8 9 10 10 9 11
REMARK H PARENT
REMARK Flexibility Score: inf
ROOT
ATOM      1  C   UNL     1      24.114   2.361  39.752  1.00  0.00     0.025 C 
ATOM      2  C   UNL     1      23.589   3.124  40.722  1.00  0.00     0.010 C 
ENDROOT
BRANCH   1   3
ATOM      3  C   UNL     1      23.411   1.271  39.047  1.00  0.00     0.064 C 
ATOM      4  O   UNL     1      22.531   1.558  38.194  1.00  0.00    -0.545 OA
ATOM      5  O   UNL     1      23.647  -0.064  39.354  1.00  0.00    -0.545 OA
ENDBRANCH   1   3
BRANCH   2   6
ATOM      6  C   UNL     1      22.292   2.888  41.389  1.00  0.00    -0.026 A 
ATOM      7  C   UNL     1      21.156   3.587  40.949  1.00  0.00     0.008 A 
ATOM      8  C   UNL     1      22.194   2.060  42.521  1.00  0.00     0.008 A 
ATOM      9  C   UNL     1      19.930   3.417  41.598  1.00  0.00     0.001 A 
ATOM     10  C   UNL     1      20.965   1.892  43.167  1.00  0.00     0.001 A 
ATOM     11  C   UNL     1      19.833   2.567  42.703  1.00  0.00     0.000 A 
ENDBRANCH   2   6
TORSDOF 2
ENDMDL
MODEL 9
REMARK VINA RESULT:    -4.259     16.448     17.773
REMARK INTER + INTRA:          -4.853
REMARK INTER:                  -4.598
REMARK INTRA:                  -0.255
REMARK UNBOUND:                -0.096
REMARK SMILES O=C([O-])C=Cc1ccccc1
REMARK SMILES IDX 4 1 5 2 2 3 1 4 3 5 6 6 7 7 11 8 8 9 10 10 9 11
REMARK H PARENT
REMARK Flexibility Score: inf
ROOT
ATOM      1  C   UNL     1      19.580  -1.334  57.571  1.00  0.00     0.025 C 
ATOM      2  C   UNL     1      20.849  -0.900  57.531  1.00  0.00     0.010 C 
ENDROOT
BRANCH   1   3
ATOM      3  C   UNL     1      19.133  -2.702  57.244  1.00  0.00     0.064 C 
ATOM      4  O   UNL     1      19.202  -3.599  58.125  1.00  0.00    -0.545 OA
ATOM      5  O   UNL     1      18.708  -3.041  55.964  1.00  0.00    -0.545 OA
ENDBRANCH   1   3
BRANCH   2   6
ATOM      6  C   UNL     1      21.992  -1.650  56.971  1.00  0.00    -0.026 A 
ATOM      7  C   UNL     1      22.713  -2.524  57.800  1.00  0.00     0.008 A 
ATOM      8  C   UNL     1      22.436  -1.426  55.656  1.00  0.00     0.008 A 
ATOM      9  C   UNL     1      23.830  -3.204  57.304  1.00  0.00     0.001 A 
ATOM     10  C   UNL     1      23.553  -2.109  55.164  1.00  0.00     0.001 A 
ATOM     11  C   UNL     1      24.246  -3.001  55.986  1.00  0.00     0.000 A 
ENDBRANCH   2   6
TORSDOF 2
ENDMDL
