MODEL 1
REMARK VINA RESULT:    -3.878      0.000      0.000
REMARK INTER + INTRA:         -12.871
REMARK INTER:                  -9.773
REMARK INTRA:                  -3.098
REMARK UNBOUND:                -3.098
REMARK SMILES CCCCCCCCCCCCCCCCCCCCCCCCCCCC(=O)[O-]
REMARK SMILES IDX 15 1 16 2 17 3 18 4 19 5 20 6 21 7 22 8 23 9 24 10 25 11
REMARK SMILES IDX 26 12 27 13 28 14 29 15 30 16 14 17 13 18 12 19 11 20 10 21
REMARK SMILES IDX 9 22 8 23 7 24 6 25 5 26 4 27 3 28 2 29 1 30
REMARK H PARENT
REMARK Flexibility Score: inf
ROOT
ATOM      1  C   UNL     1      16.838  -0.070  15.910  1.00  0.00     0.000 C 
ENDROOT
BRANCH   1   2
ATOM      2  C   UNL     1      16.514  -0.532  14.478  1.00  0.00     0.000 C 
BRANCH   2   3
ATOM      3  C   UNL     1      15.310  -1.487  14.419  1.00  0.00     0.000 C 
BRANCH   3   4
ATOM      4  C   UNL     1      15.679  -2.873  13.865  1.00  0.00     0.000 C 
BRANCH   4   5
ATOM      5  C   UNL     1      15.944  -3.913  14.971  1.00  0.00     0.000 C 
BRANCH   5   6
ATOM      6  C   UNL     1      16.081  -5.370  14.487  1.00  0.00     0.000 C 
BRANCH   6   7
ATOM      7  C   UNL     1      16.884  -5.573  13.184  1.00  0.00     0.000 C 
BRANCH   7   8
ATOM      8  C   UNL     1      16.170  -6.444  12.128  1.00  0.00     0.000 C 
BRANCH   8   9
ATOM      9  C   UNL     1      15.500  -5.616  11.016  1.00  0.00     0.000 C 
BRANCH   9  10
ATOM     10  C   UNL     1      15.021  -6.492   9.839  1.00  0.00     0.000 C 
BRANCH  10  11
ATOM     11  C   UNL     1      16.060  -6.643   8.713  1.00  0.00     0.000 C 
BRANCH  11  12
ATOM     12  C   UNL     1      16.886  -5.368   8.485  1.00  0.00     0.006 C 
BRANCH  12  13
ATOM     13  C   UNL     1      18.262  -5.667   7.869  1.00  0.00     0.053 C 
BRANCH  13  14
ATOM     14  C   UNL     1      18.834  -4.474   7.162  1.00  0.00     0.041 C 
ATOM     15  O   UNL     1      18.912  -3.362   7.753  1.00  0.00    -0.550 OA
ATOM     16  O   UNL     1      19.264  -4.584   5.845  1.00  0.00    -0.550 OA
ENDBRANCH  13  14
ENDBRANCH  12  13
ENDBRANCH  11  12
ENDBRANCH  10  11
ENDBRANCH   9  10
ENDBRANCH   8   9
ENDBRANCH   7   8
ENDBRANCH   6   7
ENDBRANCH   5   6
ENDBRANCH   4   5
ENDBRANCH   3   4
ENDBRANCH   2   3
ENDBRANCH   1   2
BRANCH   1  17
ATOM     17  C   UNL     1      17.743  -1.068  16.665  1.00  0.00     0.000 C 
BRANCH  17  18
ATOM     18  C   UNL     1      17.031  -1.825  17.805  1.00  0.00     0.000 C 
BRANCH  18  19
ATOM     19  C   UNL     1      15.665  -1.247  18.221  1.00  0.00     0.000 C 
BRANCH  19  20
ATOM     20  C   UNL     1      14.459  -2.177  17.977  1.00  0.00     0.000 C 
BRANCH  20  21
ATOM     21  C   UNL     1      13.087  -1.482  17.973  1.00  0.00     0.000 C 
BRANCH  21  22
ATOM     22  C   UNL     1      12.821  -0.692  16.682  1.00  0.00    -0.000 C 
BRANCH  22  23
ATOM     23  C   UNL     1      12.140   0.648  16.996  1.00  0.00    -0.000 C 
BRANCH  23  24
ATOM     24  C   UNL     1      13.117   1.693  17.557  1.00  0.00    -0.000 C 
BRANCH  24  25
ATOM     25  C   UNL     1      14.352   1.892  16.661  1.00  0.00    -0.000 C 
BRANCH  25  26
ATOM     26  C   UNL     1      14.992   3.283  16.828  1.00  0.00    -0.000 C 
BRANCH  26  27
ATOM     27  C   UNL     1      14.972   4.156  15.561  1.00  0.00    -0.000 C 
BRANCH  27  28
ATOM     28  C   UNL     1      15.977   3.687  14.498  1.00  0.00    -0.000 C 
BRANCH  28  29
ATOM     29  C   UNL     1      16.900   4.834  14.073  1.00  0.00    -0.003 C 
ATOM     30  C   UNL     1      16.129   6.144  13.950  1.00  0.00     0.004 C 
ENDBRANCH  28  29
ENDBRANCH  27  28
ENDBRANCH  26  27
ENDBRANCH  25  26
ENDBRANCH  24  25
ENDBRANCH  23  24
ENDBRANCH  22  23
ENDBRANCH  21  22
ENDBRANCH  20  21
ENDBRANCH  19  20
ENDBRANCH  18  19
ENDBRANCH  17  18
ENDBRANCH   1  17
TORSDOF 26
ENDMDL
MODEL 2
REMARK VINA RESULT:    -3.780      9.108     13.673
REMARK INTER + INTRA:         -12.623
REMARK INTER:                  -7.646
REMARK INTRA:                  -4.977
REMARK UNBOUND:                -3.098
REMARK SMILES CCCCCCCCCCCCCCCCCCCCCCCCCCCC(=O)[O-]
REMARK SMILES IDX 15 1 16 2 17 3 18 4 19 5 20 6 21 7 22 8 23 9 24 10 25 11
REMARK SMILES IDX 26 12 27 13 28 14 29 15 30 16 14 17 13 18 12 19 11 20 10 21
REMARK SMILES IDX 9 22 8 23 7 24 6 25 5 26 4 27 3 28 2 29 1 30
REMARK H PARENT
REMARK Flexibility Score: inf
ROOT
ATOM      1  C   UNL     1      24.678   1.515   6.583  1.00  0.00     0.000 C 
ENDROOT
BRANCH   1   2
ATOM      2  C   UNL     1      24.239   2.925   6.150  1.00  0.00     0.000 C 
BRANCH   2   3
ATOM      3  C   UNL     1      22.787   2.968   5.647  1.00  0.00     0.000 C 
BRANCH   3   4
ATOM      4  C   UNL     1      21.927   1.831   6.222  1.00  0.00     0.000 C 
BRANCH   4   5
ATOM      5  C   UNL     1      21.115   1.085   5.145  1.00  0.00     0.000 C 
BRANCH   5   6
ATOM      6  C   UNL     1      21.792   0.980   3.764  1.00  0.00     0.000 C 
BRANCH   6   7
ATOM      7  C   UNL     1      22.900  -0.087   3.638  1.00  0.00     0.000 C 
BRANCH   7   8
ATOM      8  C   UNL     1      22.599  -1.407   4.379  1.00  0.00     0.000 C 
BRANCH   8   9
ATOM      9  C   UNL     1      23.803  -1.940   5.178  1.00  0.00     0.000 C 
BRANCH   9  10
ATOM     10  C   UNL     1      23.377  -2.657   6.476  1.00  0.00     0.000 C 
BRANCH  10  11
ATOM     11  C   UNL     1      22.004  -2.210   7.011  1.00  0.00     0.000 C 
BRANCH  11  12
ATOM     12  C   UNL     1      21.674  -2.807   8.388  1.00  0.00     0.006 C 
BRANCH  12  13
ATOM     13  C   UNL     1      22.930  -3.014   9.250  1.00  0.00     0.053 C 
BRANCH  13  14
ATOM     14  C   UNL     1      22.593  -3.488  10.632  1.00  0.00     0.041 C 
ATOM     15  O   UNL     1      21.833  -4.482  10.795  1.00  0.00    -0.550 OA
ATOM     16  O   UNL     1      23.102  -2.823  11.741  1.00  0.00    -0.550 OA
ENDBRANCH  13  14
ENDBRANCH  12  13
ENDBRANCH  11  12
ENDBRANCH  10  11
ENDBRANCH   9  10
ENDBRANCH   8   9
ENDBRANCH   7   8
ENDBRANCH   6   7
ENDBRANCH   5   6
ENDBRANCH   4   5
ENDBRANCH   3   4
ENDBRANCH   2   3
ENDBRANCH   1   2
BRANCH   1  17
ATOM     17  C   UNL     1      25.832   0.962   5.718  1.00  0.00     0.000 C 
BRANCH  17  18
ATOM     18  C   UNL     1      26.605   2.043   4.934  1.00  0.00     0.000 C 
BRANCH  18  19
ATOM     19  C   UNL     1      27.975   1.600   4.386  1.00  0.00     0.000 C 
BRANCH  19  20
ATOM     20  C   UNL     1      28.560   0.330   5.037  1.00  0.00     0.000 C 
BRANCH  20  21
ATOM     21  C   UNL     1      29.582   0.581   6.159  1.00  0.00     0.000 C 
BRANCH  21  22
ATOM     22  C   UNL     1      30.100   2.028   6.184  1.00  0.00    -0.000 C 
BRANCH  22  23
ATOM     23  C   UNL     1      29.930   2.641   7.581  1.00  0.00    -0.000 C 
BRANCH  23  24
ATOM     24  C   UNL     1      29.657   1.585   8.664  1.00  0.00    -0.000 C 
BRANCH  24  25
ATOM     25  C   UNL     1      28.564   2.021   9.655  1.00  0.00    -0.000 C 
BRANCH  25  26
ATOM     26  C   UNL     1      27.159   1.548   9.239  1.00  0.00    -0.000 C 
BRANCH  26  27
ATOM     27  C   UNL     1      26.672   0.275   9.953  1.00  0.00    -0.000 C 
BRANCH  27  28
ATOM     28  C   UNL     1      26.158  -0.796   8.978  1.00  0.00    -0.000 C 
BRANCH  28  29
ATOM     29  C   UNL     1      27.297  -1.716   8.526  1.00  0.00    -0.003 C 
ATOM     30  C   UNL     1      27.031  -2.280   7.135  1.00  0.00     0.004 C 
ENDBRANCH  28  29
ENDBRANCH  27  28
ENDBRANCH  26  27
ENDBRANCH  25  26
ENDBRANCH  24  25
ENDBRANCH  23  24
ENDBRANCH  22  23
ENDBRANCH  21  22
ENDBRANCH  20  21
ENDBRANCH  19  20
ENDBRANCH  18  19
ENDBRANCH  17  18
ENDBRANCH   1  17
TORSDOF 26
ENDMDL
MODEL 3
REMARK VINA RESULT:    -3.774      8.849     12.994
REMARK INTER + INTRA:         -12.609
REMARK INTER:                  -7.472
REMARK INTRA:                  -5.136
REMARK UNBOUND:                -3.098
REMARK SMILES CCCCCCCCCCCCCCCCCCCCCCCCCCCC(=O)[O-]
REMARK SMILES IDX 15 1 16 2 17 3 18 4 19 5 20 6 21 7 22 8 23 9 24 10 25 11
REMARK SMILES IDX 26 12 27 13 28 14 29 15 30 16 14 17 13 18 12 19 11 20 10 21
REMARK SMILES IDX 9 22 8 23 7 24 6 25 5 26 4 27 3 28 2 29 1 30
REMARK H PARENT
REMARK Flexibility Score: inf
ROOT
ATOM      1  C   UNL     1      25.675   1.020   5.328  1.00  0.00     0.000 C 
ENDROOT
BRANCH   1   2
ATOM      2  C   UNL     1      27.168   0.891   5.677  1.00  0.00     0.000 C 
BRANCH   2   3
ATOM      3  C   UNL     1      27.591   1.815   6.831  1.00  0.00     0.000 C 
BRANCH   3   4
ATOM      4  C   UNL     1      28.994   1.488   7.368  1.00  0.00     0.000 C 
BRANCH   4   5
ATOM      5  C   UNL     1      29.101   1.626   8.899  1.00  0.00     0.000 C 
BRANCH   5   6
ATOM      6  C   UNL     1      27.758   1.719   9.648  1.00  0.00     0.000 C 
BRANCH   6   7
ATOM      7  C   UNL     1      27.262   0.413  10.305  1.00  0.00     0.000 C 
BRANCH   7   8
ATOM      8  C   UNL     1      25.995  -0.183   9.656  1.00  0.00     0.000 C 
BRANCH   8   9
ATOM      9  C   UNL     1      26.303  -1.304   8.647  1.00  0.00     0.000 C 
BRANCH   9  10
ATOM     10  C   UNL     1      25.070  -1.691   7.803  1.00  0.00     0.000 C 
BRANCH  10  11
ATOM     11  C   UNL     1      25.022  -3.181   7.419  1.00  0.00     0.000 C 
BRANCH  11  12
ATOM     12  C   UNL     1      23.937  -3.961   8.177  1.00  0.00     0.006 C 
BRANCH  12  13
ATOM     13  C   UNL     1      22.922  -3.031   8.862  1.00  0.00     0.053 C 
BRANCH  13  14
ATOM     14  C   UNL     1      22.829  -3.287  10.337  1.00  0.00     0.041 C 
ATOM     15  O   UNL     1      23.563  -2.648  11.141  1.00  0.00    -0.550 OA
ATOM     16  O   UNL     1      21.947  -4.245  10.824  1.00  0.00    -0.550 OA
ENDBRANCH  13  14
ENDBRANCH  12  13
ENDBRANCH  11  12
ENDBRANCH  10  11
ENDBRANCH   9  10
ENDBRANCH   8   9
ENDBRANCH   7   8
ENDBRANCH   6   7
ENDBRANCH   5   6
ENDBRANCH   4   5
ENDBRANCH   3   4
ENDBRANCH   2   3
ENDBRANCH   1   2
BRANCH   1  17
ATOM     17  C   UNL     1      24.858   1.690   6.455  1.00  0.00     0.000 C 
BRANCH  17  18
ATOM     18  C   UNL     1      24.212   3.031   6.052  1.00  0.00     0.000 C 
BRANCH  18  19
ATOM     19  C   UNL     1      22.685   2.987   5.854  1.00  0.00     0.000 C 
BRANCH  19  20
ATOM     20  C   UNL     1      22.218   2.478   4.474  1.00  0.00     0.000 C 
BRANCH  20  21
ATOM     21  C   UNL     1      21.510   1.112   4.486  1.00  0.00     0.000 C 
BRANCH  21  22
ATOM     22  C   UNL     1      21.259   0.581   5.907  1.00  0.00    -0.000 C 
BRANCH  22  23
ATOM     23  C   UNL     1      21.745  -0.870   6.038  1.00  0.00    -0.000 C 
BRANCH  23  24
ATOM     24  C   UNL     1      22.801  -1.239   4.984  1.00  0.00    -0.000 C 
BRANCH  24  25
ATOM     25  C   UNL     1      22.434  -2.507   4.194  1.00  0.00    -0.000 C 
BRANCH  25  26
ATOM     26  C   UNL     1      21.874  -3.627   5.091  1.00  0.00    -0.000 C 
BRANCH  26  27
ATOM     27  C   UNL     1      20.591  -4.293   4.563  1.00  0.00    -0.000 C 
BRANCH  27  28
ATOM     28  C   UNL     1      19.612  -4.674   5.683  1.00  0.00    -0.000 C 
BRANCH  28  29
ATOM     29  C   UNL     1      19.945  -3.925   6.979  1.00  0.00    -0.003 C 
ATOM     30  C   UNL     1      19.554  -4.744   8.205  1.00  0.00     0.004 C 
ENDBRANCH  28  29
ENDBRANCH  27  28
ENDBRANCH  26  27
ENDBRANCH  25  26
ENDBRANCH  24  25
ENDBRANCH  23  24
ENDBRANCH  22  23
ENDBRANCH  21  22
ENDBRANCH  20  21
ENDBRANCH  19  20
ENDBRANCH  18  19
ENDBRANCH  17  18
ENDBRANCH   1  17
TORSDOF 26
ENDMDL
MODEL 4
REMARK VINA RESULT:    -3.765      8.811     13.005
REMARK INTER + INTRA:         -12.586
REMARK INTER:                  -8.008
REMARK INTRA:                  -4.578
REMARK UNBOUND:                -3.098
REMARK SMILES CCCCCCCCCCCCCCCCCCCCCCCCCCCC(=O)[O-]
REMARK SMILES IDX 15 1 16 2 17 3 18 4 19 5 20 6 21 7 22 8 23 9 24 10 25 11
REMARK SMILES IDX 26 12 27 13 28 14 29 15 30 16 14 17 13 18 12 19 11 20 10 21
REMARK SMILES IDX 9 22 8 23 7 24 6 25 5 26 4 27 3 28 2 29 1 30
REMARK H PARENT
REMARK Flexibility Score: inf
ROOT
ATOM      1  C   UNL     1      22.103   1.868   5.932  1.00  0.00     0.000 C 
ENDROOT
BRANCH   1   2
ATOM      2  C   UNL     1      23.079   3.045   5.761  1.00  0.00     0.000 C 
BRANCH   2   3
ATOM      3  C   UNL     1      24.503   2.711   6.235  1.00  0.00     0.000 C 
BRANCH   3   4
ATOM      4  C   UNL     1      24.666   1.233   6.626  1.00  0.00     0.000 C 
BRANCH   4   5
ATOM      5  C   UNL     1      26.048   0.660   6.257  1.00  0.00     0.000 C 
BRANCH   5   6
ATOM      6  C   UNL     1      27.249   1.567   6.591  1.00  0.00     0.000 C 
BRANCH   6   7
ATOM      7  C   UNL     1      28.029   1.205   7.874  1.00  0.00     0.000 C 
BRANCH   7   8
ATOM      8  C   UNL     1      27.348   1.662   9.181  1.00  0.00     0.000 C 
BRANCH   8   9
ATOM      9  C   UNL     1      27.479   0.635  10.321  1.00  0.00     0.000 C 
BRANCH   9  10
ATOM     10  C   UNL     1      27.089  -0.790   9.878  1.00  0.00     0.000 C 
BRANCH  10  11
ATOM     11  C   UNL     1      25.583  -0.969   9.615  1.00  0.00     0.000 C 
BRANCH  11  12
ATOM     12  C   UNL     1      25.274  -2.150   8.682  1.00  0.00     0.006 C 
BRANCH  12  13
ATOM     13  C   UNL     1      24.071  -2.976   9.165  1.00  0.00     0.053 C 
BRANCH  13  14
ATOM     14  C   UNL     1      23.963  -2.992  10.661  1.00  0.00     0.041 C 
ATOM     15  O   UNL     1      24.858  -3.546  11.356  1.00  0.00    -0.550 OA
ATOM     16  O   UNL     1      22.866  -2.412  11.288  1.00  0.00    -0.550 OA
ENDBRANCH  13  14
ENDBRANCH  12  13
ENDBRANCH  11  12
ENDBRANCH  10  11
ENDBRANCH   9  10
ENDBRANCH   8   9
ENDBRANCH   7   8
ENDBRANCH   6   7
ENDBRANCH   5   6
ENDBRANCH   4   5
ENDBRANCH   3   4
ENDBRANCH   2   3
ENDBRANCH   1   2
BRANCH   1  17
ATOM     17  C   UNL     1      20.841   2.013   5.053  1.00  0.00     0.000 C 
BRANCH  17  18
ATOM     18  C   UNL     1      20.755   0.989   3.903  1.00  0.00     0.000 C 
BRANCH  18  19
ATOM     19  C   UNL     1      22.014   0.887   3.022  1.00  0.00     0.000 C 
BRANCH  19  20
ATOM     20  C   UNL     1      22.514  -0.548   2.757  1.00  0.00     0.000 C 
BRANCH  20  21
ATOM     21  C   UNL     1      23.826  -0.926   3.466  1.00  0.00     0.000 C 
BRANCH  21  22
ATOM     22  C   UNL     1      23.702  -2.203   4.313  1.00  0.00    -0.000 C 
BRANCH  22  23
ATOM     23  C   UNL     1      23.182  -1.871   5.719  1.00  0.00    -0.000 C 
BRANCH  23  24
ATOM     24  C   UNL     1      21.700  -2.232   5.905  1.00  0.00    -0.000 C 
BRANCH  24  25
ATOM     25  C   UNL     1      21.046  -1.474   7.072  1.00  0.00    -0.000 C 
BRANCH  25  26
ATOM     26  C   UNL     1      20.205  -2.389   7.981  1.00  0.00    -0.000 C 
BRANCH  26  27
ATOM     27  C   UNL     1      20.735  -3.828   8.111  1.00  0.00    -0.000 C 
BRANCH  27  28
ATOM     28  C   UNL     1      19.625  -4.885   8.002  1.00  0.00    -0.000 C 
BRANCH  28  29
ATOM     29  C   UNL     1      18.391  -4.312   7.297  1.00  0.00    -0.003 C 
ATOM     30  C   UNL     1      18.142  -5.013   5.965  1.00  0.00     0.004 C 
ENDBRANCH  28  29
ENDBRANCH  27  28
ENDBRANCH  26  27
ENDBRANCH  25  26
ENDBRANCH  24  25
ENDBRANCH  23  24
ENDBRANCH  22  23
ENDBRANCH  21  22
ENDBRANCH  20  21
ENDBRANCH  19  20
ENDBRANCH  18  19
ENDBRANCH  17  18
ENDBRANCH   1  17
TORSDOF 26
ENDMDL
MODEL 5
REMARK VINA RESULT:    -3.720      9.250     12.931
REMARK INTER + INTRA:         -12.472
REMARK INTER:                  -6.816
REMARK INTRA:                  -5.655
REMARK UNBOUND:                -3.098
REMARK SMILES CCCCCCCCCCCCCCCCCCCCCCCCCCCC(=O)[O-]
REMARK SMILES IDX 15 1 16 2 17 3 18 4 19 5 20 6 21 7 22 8 23 9 24 10 25 11
REMARK SMILES IDX 26 12 27 13 28 14 29 15 30 16 14 17 13 18 12 19 11 20 10 21
REMARK SMILES IDX 9 22 8 23 7 24 6 25 5 26 4 27 3 28 2 29 1 30
REMARK H PARENT
REMARK Flexibility Score: inf
ROOT
ATOM      1  C   UNL     1      23.390   3.219   5.792  1.00  0.00     0.000 C 
ENDROOT
BRANCH   1   2
ATOM      2  C   UNL     1      22.124   2.355   5.920  1.00  0.00     0.000 C 
BRANCH   2   3
ATOM      3  C   UNL     1      21.490   2.021   4.558  1.00  0.00     0.000 C 
BRANCH   3   4
ATOM      4  C   UNL     1      22.435   2.308   3.380  1.00  0.00     0.000 C 
BRANCH   4   5
ATOM      5  C   UNL     1      22.993   1.027   2.729  1.00  0.00     0.000 C 
BRANCH   5   6
ATOM      6  C   UNL     1      22.153  -0.246   2.952  1.00  0.00     0.000 C 
BRANCH   6   7
ATOM      7  C   UNL     1      22.905  -1.451   3.559  1.00  0.00     0.000 C 
BRANCH   7   8
ATOM      8  C   UNL     1      22.108  -2.221   4.633  1.00  0.00     0.000 C 
BRANCH   8   9
ATOM      9  C   UNL     1      21.648  -1.328   5.800  1.00  0.00     0.000 C 
BRANCH   9  10
ATOM     10  C   UNL     1      21.581  -2.095   7.137  1.00  0.00     0.000 C 
BRANCH  10  11
ATOM     11  C   UNL     1      22.074  -3.551   7.044  1.00  0.00     0.000 C 
BRANCH  11  12
ATOM     12  C   UNL     1      22.546  -4.111   8.395  1.00  0.00     0.006 C 
BRANCH  12  13
ATOM     13  C   UNL     1      22.131  -3.216   9.574  1.00  0.00     0.053 C 
BRANCH  13  14
ATOM     14  C   UNL     1      22.899  -3.536  10.822  1.00  0.00     0.041 C 
ATOM     15  O   UNL     1      23.882  -2.822  11.163  1.00  0.00    -0.550 OA
ATOM     16  O   UNL     1      22.543  -4.632  11.598  1.00  0.00    -0.550 OA
ENDBRANCH  13  14
ENDBRANCH  12  13
ENDBRANCH  11  12
ENDBRANCH  10  11
ENDBRANCH   9  10
ENDBRANCH   8   9
ENDBRANCH   7   8
ENDBRANCH   6   7
ENDBRANCH   5   6
ENDBRANCH   4   5
ENDBRANCH   3   4
ENDBRANCH   2   3
ENDBRANCH   1   2
BRANCH   1  17
ATOM     17  C   UNL     1      24.662   2.480   6.262  1.00  0.00     0.000 C 
BRANCH  17  18
ATOM     18  C   UNL     1      24.443   0.984   6.570  1.00  0.00     0.000 C 
BRANCH  18  19
ATOM     19  C   UNL     1      25.270   0.011   5.708  1.00  0.00     0.000 C 
BRANCH  19  20
ATOM     20  C   UNL     1      25.575  -1.349   6.368  1.00  0.00     0.000 C 
BRANCH  20  21
ATOM     21  C   UNL     1      25.192  -1.457   7.854  1.00  0.00     0.000 C 
BRANCH  21  22
ATOM     22  C   UNL     1      26.271  -2.152   8.700  1.00  0.00    -0.000 C 
BRANCH  22  23
ATOM     23  C   UNL     1      26.744  -1.232   9.835  1.00  0.00    -0.000 C 
BRANCH  23  24
ATOM     24  C   UNL     1      26.193   0.197   9.711  1.00  0.00    -0.000 C 
BRANCH  24  25
ATOM     25  C   UNL     1      27.303   1.249   9.543  1.00  0.00    -0.000 C 
BRANCH  25  26
ATOM     26  C   UNL     1      28.231   0.952   8.351  1.00  0.00    -0.000 C 
BRANCH  26  27
ATOM     27  C   UNL     1      28.217   2.021   7.244  1.00  0.00    -0.000 C 
BRANCH  27  28
ATOM     28  C   UNL     1      28.573   1.454   5.862  1.00  0.00    -0.000 C 
BRANCH  28  29
ATOM     29  C   UNL     1      29.033  -0.005   5.970  1.00  0.00    -0.003 C 
ATOM     30  C   UNL     1      30.554  -0.105   5.962  1.00  0.00     0.004 C 
ENDBRANCH  28  29
ENDBRANCH  27  28
ENDBRANCH  26  27
ENDBRANCH  25  26
ENDBRANCH  24  25
ENDBRANCH  23  24
ENDBRANCH  22  23
ENDBRANCH  21  22
ENDBRANCH  20  21
ENDBRANCH  19  20
ENDBRANCH  18  19
ENDBRANCH  17  18
ENDBRANCH   1  17
TORSDOF 26
ENDMDL
MODEL 6
REMARK VINA RESULT:    -3.664      9.359     13.095
REMARK INTER + INTRA:         -12.330
REMARK INTER:                  -6.806
REMARK INTRA:                  -5.524
REMARK UNBOUND:                -3.098
REMARK SMILES CCCCCCCCCCCCCCCCCCCCCCCCCCCC(=O)[O-]
REMARK SMILES IDX 15 1 16 2 17 3 18 4 19 5 20 6 21 7 22 8 23 9 24 10 25 11
REMARK SMILES IDX 26 12 27 13 28 14 29 15 30 16 14 17 13 18 12 19 11 20 10 21
REMARK SMILES IDX 9 22 8 23 7 24 6 25 5 26 4 27 3 28 2 29 1 30
REMARK H PARENT
REMARK Flexibility Score: inf
ROOT
ATOM      1  C   UNL     1      23.913   3.076   5.805  1.00  0.00     0.000 C 
ENDROOT
BRANCH   1   2
ATOM      2  C   UNL     1      22.570   2.369   6.062  1.00  0.00     0.000 C 
BRANCH   2   3
ATOM      3  C   UNL     1      21.379   3.104   5.426  1.00  0.00     0.000 C 
BRANCH   3   4
ATOM      4  C   UNL     1      20.428   2.155   4.677  1.00  0.00     0.000 C 
BRANCH   4   5
ATOM      5  C   UNL     1      20.304   2.487   3.177  1.00  0.00     0.000 C 
BRANCH   5   6
ATOM      6  C   UNL     1      21.060   1.538   2.227  1.00  0.00     0.000 C 
BRANCH   6   7
ATOM      7  C   UNL     1      22.574   1.803   2.075  1.00  0.00     0.000 C 
BRANCH   7   8
ATOM      8  C   UNL     1      23.473   0.807   2.839  1.00  0.00     0.000 C 
BRANCH   8   9
ATOM      9  C   UNL     1      23.416  -0.620   2.266  1.00  0.00     0.000 C 
BRANCH   9  10
ATOM     10  C   UNL     1      22.775  -1.623   3.248  1.00  0.00     0.000 C 
BRANCH  10  11
ATOM     11  C   UNL     1      22.312  -0.988   4.572  1.00  0.00     0.000 C 
BRANCH  11  12
ATOM     12  C   UNL     1      21.709  -2.010   5.548  1.00  0.00     0.006 C 
BRANCH  12  13
ATOM     13  C   UNL     1      21.440  -1.404   6.934  1.00  0.00     0.053 C 
BRANCH  13  14
ATOM     14  C   UNL     1      20.933  -2.427   7.908  1.00  0.00     0.041 C 
ATOM     15  O   UNL     1      21.686  -2.858   8.825  1.00  0.00    -0.550 OA
ATOM     16  O   UNL     1      19.638  -2.918   7.793  1.00  0.00    -0.550 OA
ENDBRANCH  13  14
ENDBRANCH  12  13
ENDBRANCH  11  12
ENDBRANCH  10  11
ENDBRANCH   9  10
ENDBRANCH   8   9
ENDBRANCH   7   8
ENDBRANCH   6   7
ENDBRANCH   5   6
ENDBRANCH   4   5
ENDBRANCH   3   4
ENDBRANCH   2   3
ENDBRANCH   1   2
BRANCH   1  17
ATOM     17  C   UNL     1      25.112   2.304   6.398  1.00  0.00     0.000 C 
BRANCH  17  18
ATOM     18  C   UNL     1      24.853   0.797   6.600  1.00  0.00     0.000 C 
BRANCH  18  19
ATOM     19  C   UNL     1      25.735  -0.138   5.752  1.00  0.00     0.000 C 
BRANCH  19  20
ATOM     20  C   UNL     1      25.470  -1.645   5.949  1.00  0.00     0.000 C 
BRANCH  20  21
ATOM     21  C   UNL     1      26.166  -2.279   7.166  1.00  0.00     0.000 C 
BRANCH  21  22
ATOM     22  C   UNL     1      25.205  -2.534   8.338  1.00  0.00    -0.000 C 
BRANCH  22  23
ATOM     23  C   UNL     1      25.438  -1.513   9.462  1.00  0.00    -0.000 C 
BRANCH  23  24
ATOM     24  C   UNL     1      26.877  -0.975   9.486  1.00  0.00    -0.000 C 
BRANCH  24  25
ATOM     25  C   UNL     1      26.976   0.427  10.112  1.00  0.00    -0.000 C 
BRANCH  25  26
ATOM     26  C   UNL     1      27.476   1.490   9.116  1.00  0.00    -0.000 C 
BRANCH  26  27
ATOM     27  C   UNL     1      28.432   0.958   8.034  1.00  0.00    -0.000 C 
BRANCH  27  28
ATOM     28  C   UNL     1      28.908   2.053   7.068  1.00  0.00    -0.000 C 
BRANCH  28  29
ATOM     29  C   UNL     1      29.373   1.447   5.740  1.00  0.00    -0.003 C 
ATOM     30  C   UNL     1      28.477   1.888   4.587  1.00  0.00     0.004 C 
ENDBRANCH  28  29
ENDBRANCH  27  28
ENDBRANCH  26  27
ENDBRANCH  25  26
ENDBRANCH  24  25
ENDBRANCH  23  24
ENDBRANCH  22  23
ENDBRANCH  21  22
ENDBRANCH  20  21
ENDBRANCH  19  20
ENDBRANCH  18  19
ENDBRANCH  17  18
ENDBRANCH   1  17
TORSDOF 26
ENDMDL
MODEL 7
REMARK VINA RESULT:    -3.600      9.555     13.431
REMARK INTER + INTRA:         -12.169
REMARK INTER:                  -6.851
REMARK INTRA:                  -5.319
REMARK UNBOUND:                -3.098
REMARK SMILES CCCCCCCCCCCCCCCCCCCCCCCCCCCC(=O)[O-]
REMARK SMILES IDX 15 1 16 2 17 3 18 4 19 5 20 6 21 7 22 8 23 9 24 10 25 11
REMARK SMILES IDX 26 12 27 13 28 14 29 15 30 16 14 17 13 18 12 19 11 20 10 21
REMARK SMILES IDX 9 22 8 23 7 24 6 25 5 26 4 27 3 28 2 29 1 30
REMARK H PARENT
REMARK Flexibility Score: inf
ROOT
ATOM      1  C   UNL     1      22.769   3.001   5.649  1.00  0.00     0.000 C 
ENDROOT
BRANCH   1   2
ATOM      2  C   UNL     1      21.988   1.824   6.259  1.00  0.00     0.000 C 
BRANCH   2   3
ATOM      3  C   UNL     1      21.258   0.981   5.201  1.00  0.00     0.000 C 
BRANCH   3   4
ATOM      4  C   UNL     1      21.933   1.049   3.821  1.00  0.00     0.000 C 
BRANCH   4   5
ATOM      5  C   UNL     1      21.116   0.352   2.715  1.00  0.00     0.000 C 
BRANCH   5   6
ATOM      6  C   UNL     1      20.740   1.240   1.513  1.00  0.00     0.000 C 
BRANCH   6   7
ATOM      7  C   UNL     1      19.237   1.558   1.356  1.00  0.00     0.000 C 
BRANCH   7   8
ATOM      8  C   UNL     1      18.431   1.485   2.670  1.00  0.00     0.000 C 
BRANCH   8   9
ATOM      9  C   UNL     1      17.334   2.560   2.766  1.00  0.00     0.000 C 
BRANCH   9  10
ATOM     10  C   UNL     1      17.721   3.713   3.716  1.00  0.00     0.000 C 
BRANCH  10  11
ATOM     11  C   UNL     1      19.151   3.604   4.276  1.00  0.00     0.000 C 
BRANCH  11  12
ATOM     12  C   UNL     1      20.028   4.815   3.919  1.00  0.00     0.006 C 
BRANCH  12  13
ATOM     13  C   UNL     1      20.388   4.854   2.426  1.00  0.00     0.053 C 
BRANCH  13  14
ATOM     14  C   UNL     1      21.855   5.079   2.206  1.00  0.00     0.041 C 
ATOM     15  O   UNL     1      22.674   4.133   2.370  1.00  0.00    -0.550 OA
ATOM     16  O   UNL     1      22.320   6.336   1.839  1.00  0.00    -0.550 OA
ENDBRANCH  13  14
ENDBRANCH  12  13
ENDBRANCH  11  12
ENDBRANCH  10  11
ENDBRANCH   9  10
ENDBRANCH   8   9
ENDBRANCH   7   8
ENDBRANCH   6   7
ENDBRANCH   5   6
ENDBRANCH   4   5
ENDBRANCH   3   4
ENDBRANCH   2   3
ENDBRANCH   1   2
BRANCH   1  17
ATOM     17  C   UNL     1      24.256   3.007   6.070  1.00  0.00     0.000 C 
BRANCH  17  18
ATOM     18  C   UNL     1      25.188   2.258   5.096  1.00  0.00     0.000 C 
BRANCH  18  19
ATOM     19  C   UNL     1      25.954   1.069   5.707  1.00  0.00     0.000 C 
BRANCH  19  20
ATOM     20  C   UNL     1      25.403   0.559   7.054  1.00  0.00     0.000 C 
BRANCH  20  21
ATOM     21  C   UNL     1      24.734  -0.826   7.005  1.00  0.00     0.000 C 
BRANCH  21  22
ATOM     22  C   UNL     1      24.329  -1.244   5.583  1.00  0.00    -0.000 C 
BRANCH  22  23
ATOM     23  C   UNL     1      24.359  -2.772   5.437  1.00  0.00    -0.000 C 
BRANCH  23  24
ATOM     24  C   UNL     1      23.204  -3.309   4.578  1.00  0.00    -0.000 C 
BRANCH  24  25
ATOM     25  C   UNL     1      21.882  -2.564   4.828  1.00  0.00    -0.000 C 
BRANCH  25  26
ATOM     26  C   UNL     1      21.102  -3.123   6.033  1.00  0.00    -0.000 C 
BRANCH  26  27
ATOM     27  C   UNL     1      21.103  -2.216   7.276  1.00  0.00    -0.000 C 
BRANCH  27  28
ATOM     28  C   UNL     1      21.336  -2.993   8.581  1.00  0.00    -0.000 C 
BRANCH  28  29
ATOM     29  C   UNL     1      22.827  -3.281   8.788  1.00  0.00    -0.003 C 
ATOM     30  C   UNL     1      23.141  -4.755   8.557  1.00  0.00     0.004 C 
ENDBRANCH  28  29
ENDBRANCH  27  28
ENDBRANCH  26  27
ENDBRANCH  25  26
ENDBRANCH  24  25
ENDBRANCH  23  24
ENDBRANCH  22  23
ENDBRANCH  21  22
ENDBRANCH  20  21
ENDBRANCH  19  20
ENDBRANCH  18  19
ENDBRANCH  17  18
ENDBRANCH   1  17
TORSDOF 26
ENDMDL
MODEL 8
REMARK VINA RESULT:    -3.597      9.468     13.432
REMARK INTER + INTRA:         -12.162
REMARK INTER:                  -6.944
REMARK INTRA:                  -5.218
REMARK UNBOUND:                -3.098
REMARK SMILES CCCCCCCCCCCCCCCCCCCCCCCCCCCC(=O)[O-]
REMARK SMILES IDX 15 1 16 2 17 3 18 4 19 5 20 6 21 7 22 8 23 9 24 10 25 11
REMARK SMILES IDX 26 12 27 13 28 14 29 15 30 16 14 17 13 18 12 19 11 20 10 21
REMARK SMILES IDX 9 22 8 23 7 24 6 25 5 26 4 27 3 28 2 29 1 30
REMARK H PARENT
REMARK Flexibility Score: inf
ROOT
ATOM      1  C   UNL     1      21.421   2.992   5.079  1.00  0.00     0.000 C 
ENDROOT
BRANCH   1   2
ATOM      2  C   UNL     1      22.380   2.596   6.215  1.00  0.00     0.000 C 
BRANCH   2   3
ATOM      3  C   UNL     1      23.860   2.726   5.818  1.00  0.00     0.000 C 
BRANCH   3   4
ATOM      4  C   UNL     1      24.767   1.748   6.582  1.00  0.00     0.000 C 
BRANCH   4   5
ATOM      5  C   UNL     1      26.253   2.156   6.554  1.00  0.00     0.000 C 
BRANCH   5   6
ATOM      6  C   UNL     1      27.124   1.406   5.527  1.00  0.00     0.000 C 
BRANCH   6   7
ATOM      7  C   UNL     1      26.666  -0.026   5.175  1.00  0.00     0.000 C 
BRANCH   7   8
ATOM      8  C   UNL     1      27.264  -1.125   6.078  1.00  0.00     0.000 C 
BRANCH   8   9
ATOM      9  C   UNL     1      26.291  -1.606   7.170  1.00  0.00     0.000 C 
BRANCH   9  10
ATOM     10  C   UNL     1      26.849  -1.386   8.592  1.00  0.00     0.000 C 
BRANCH  10  11
ATOM     11  C   UNL     1      26.109  -0.296   9.389  1.00  0.00     0.000 C 
BRANCH  11  12
ATOM     12  C   UNL     1      27.036   0.837   9.856  1.00  0.00     0.006 C 
BRANCH  12  13
ATOM     13  C   UNL     1      28.446   0.723   9.255  1.00  0.00     0.053 C 
BRANCH  13  14
ATOM     14  C   UNL     1      29.148   2.047   9.209  1.00  0.00     0.041 C 
ATOM     15  O   UNL     1      29.461   2.562   8.100  1.00  0.00    -0.550 OA
ATOM     16  O   UNL     1      29.475   2.704  10.389  1.00  0.00    -0.550 OA
ENDBRANCH  13  14
ENDBRANCH  12  13
ENDBRANCH  11  12
ENDBRANCH  10  11
ENDBRANCH   9  10
ENDBRANCH   8   9
ENDBRANCH   7   8
ENDBRANCH   6   7
ENDBRANCH   5   6
ENDBRANCH   4   5
ENDBRANCH   3   4
ENDBRANCH   2   3
ENDBRANCH   1   2
BRANCH   1  17
ATOM     17  C   UNL     1      20.673   1.777   4.485  1.00  0.00     0.000 C 
BRANCH  17  18
ATOM     18  C   UNL     1      21.205   1.321   3.111  1.00  0.00     0.000 C 
BRANCH  18  19
ATOM     19  C   UNL     1      21.783  -0.106   3.074  1.00  0.00     0.000 C 
BRANCH  19  20
ATOM     20  C   UNL     1      23.136  -0.283   3.794  1.00  0.00     0.000 C 
BRANCH  20  21
ATOM     21  C   UNL     1      23.203  -1.460   4.783  1.00  0.00     0.000 C 
BRANCH  21  22
ATOM     22  C   UNL     1      22.816  -1.060   6.215  1.00  0.00    -0.000 C 
BRANCH  22  23
ATOM     23  C   UNL     1      21.350  -1.419   6.502  1.00  0.00    -0.000 C 
BRANCH  23  24
ATOM     24  C   UNL     1      21.087  -2.932   6.442  1.00  0.00    -0.000 C 
BRANCH  24  25
ATOM     25  C   UNL     1      20.351  -3.456   7.687  1.00  0.00    -0.000 C 
BRANCH  25  26
ATOM     26  C   UNL     1      21.300  -4.101   8.713  1.00  0.00    -0.000 C 
BRANCH  26  27
ATOM     27  C   UNL     1      22.031  -3.103   9.629  1.00  0.00    -0.000 C 
BRANCH  27  28
ATOM     28  C   UNL     1      23.542  -3.042   9.359  1.00  0.00    -0.000 C 
BRANCH  28  29
ATOM     29  C   UNL     1      24.338  -3.348  10.633  1.00  0.00    -0.003 C 
ATOM     30  C   UNL     1      25.194  -4.599  10.461  1.00  0.00     0.004 C 
ENDBRANCH  28  29
ENDBRANCH  27  28
ENDBRANCH  26  27
ENDBRANCH  25  26
ENDBRANCH  24  25
ENDBRANCH  23  24
ENDBRANCH  22  23
ENDBRANCH  21  22
ENDBRANCH  20  21
ENDBRANCH  19  20
ENDBRANCH  18  19
ENDBRANCH  17  18
ENDBRANCH   1  17
TORSDOF 26
ENDMDL
MODEL 9
REMARK VINA RESULT:    -3.584      9.285     13.258
REMARK INTER + INTRA:         -12.129
REMARK INTER:                  -6.746
REMARK INTRA:                  -5.383
REMARK UNBOUND:                -3.098
REMARK SMILES CCCCCCCCCCCCCCCCCCCCCCCCCCCC(=O)[O-]
REMARK SMILES IDX 15 1 16 2 17 3 18 4 19 5 20 6 21 7 22 8 23 9 24 10 25 11
REMARK SMILES IDX 26 12 27 13 28 14 29 15 30 16 14 17 13 18 12 19 11 20 10 21
REMARK SMILES IDX 9 22 8 23 7 24 6 25 5 26 4 27 3 28 2 29 1 30
REMARK H PARENT
REMARK Flexibility Score: inf
ROOT
ATOM      1  C   UNL     1      24.129   0.434   2.655  1.00  0.00     0.000 C 
ENDROOT
BRANCH   1   2
ATOM      2  C   UNL     1      23.414   1.738   2.258  1.00  0.00     0.000 C 
BRANCH   2   3
ATOM      3  C   UNL     1      21.906   1.544   2.030  1.00  0.00     0.000 C 
BRANCH   3   4
ATOM      4  C   UNL     1      21.050   2.469   2.911  1.00  0.00     0.000 C 
BRANCH   4   5
ATOM      5  C   UNL     1      20.327   1.721   4.047  1.00  0.00     0.000 C 
BRANCH   5   6
ATOM      6  C   UNL     1      20.783   2.089   5.473  1.00  0.00     0.000 C 
BRANCH   6   7
ATOM      7  C   UNL     1      22.246   1.742   5.823  1.00  0.00     0.000 C 
BRANCH   7   8
ATOM      8  C   UNL     1      23.194   2.960   5.868  1.00  0.00     0.000 C 
BRANCH   8   9
ATOM      9  C   UNL     1      24.637   2.588   6.254  1.00  0.00     0.000 C 
BRANCH   9  10
ATOM     10  C   UNL     1      24.804   1.077   6.521  1.00  0.00     0.000 C 
BRANCH  10  11
ATOM     11  C   UNL     1      26.167   0.515   6.078  1.00  0.00     0.000 C 
BRANCH  11  12
ATOM     12  C   UNL     1      27.104   0.216   7.259  1.00  0.00     0.006 C 
BRANCH  12  13
ATOM     13  C   UNL     1      27.661   1.497   7.900  1.00  0.00     0.053 C 
BRANCH  13  14
ATOM     14  C   UNL     1      27.503   1.496   9.391  1.00  0.00     0.041 C 
ATOM     15  O   UNL     1      26.628   0.767   9.936  1.00  0.00    -0.550 OA
ATOM     16  O   UNL     1      28.306   2.311  10.179  1.00  0.00    -0.550 OA
ENDBRANCH  13  14
ENDBRANCH  12  13
ENDBRANCH  11  12
ENDBRANCH  10  11
ENDBRANCH   9  10
ENDBRANCH   8   9
ENDBRANCH   7   8
ENDBRANCH   6   7
ENDBRANCH   5   6
ENDBRANCH   4   5
ENDBRANCH   3   4
ENDBRANCH   2   3
ENDBRANCH   1   2
BRANCH   1  17
ATOM     17  C   UNL     1      23.143  -0.729   2.905  1.00  0.00     0.000 C 
BRANCH  17  18
ATOM     18  C   UNL     1      23.349  -1.448   4.254  1.00  0.00     0.000 C 
BRANCH  18  19
ATOM     19  C   UNL     1      22.056  -1.775   5.025  1.00  0.00     0.000 C 
BRANCH  19  20
ATOM     20  C   UNL     1      22.213  -1.871   6.556  1.00  0.00     0.000 C 
BRANCH  20  21
ATOM     21  C   UNL     1      20.894  -1.904   7.349  1.00  0.00     0.000 C 
BRANCH  21  22
ATOM     22  C   UNL     1      20.800  -3.106   8.302  1.00  0.00    -0.000 C 
BRANCH  22  23
ATOM     23  C   UNL     1      22.201  -3.591   8.703  1.00  0.00    -0.000 C 
BRANCH  23  24
ATOM     24  C   UNL     1      22.422  -3.576  10.223  1.00  0.00    -0.000 C 
BRANCH  24  25
ATOM     25  C   UNL     1      23.694  -2.813  10.631  1.00  0.00    -0.000 C 
BRANCH  25  26
ATOM     26  C   UNL     1      24.543  -2.381   9.422  1.00  0.00    -0.000 C 
BRANCH  26  27
ATOM     27  C   UNL     1      26.043  -2.702   9.542  1.00  0.00    -0.000 C 
BRANCH  27  28
ATOM     28  C   UNL     1      26.634  -3.283   8.249  1.00  0.00    -0.000 C 
BRANCH  28  29
ATOM     29  C   UNL     1      25.559  -3.411   7.164  1.00  0.00    -0.003 C 
ATOM     30  C   UNL     1      26.163  -3.281   5.770  1.00  0.00     0.004 C 
ENDBRANCH  28  29
ENDBRANCH  27  28
ENDBRANCH  26  27
ENDBRANCH  25  26
ENDBRANCH  24  25
ENDBRANCH  23  24
ENDBRANCH  22  23
ENDBRANCH  21  22
ENDBRANCH  20  21
ENDBRANCH  19  20
ENDBRANCH  18  19
ENDBRANCH  17  18
ENDBRANCH   1  17
TORSDOF 26
ENDMDL
