MODEL 1
REMARK VINA RESULT:    -7.324      0.000      0.000
REMARK INTER + INTRA:          -8.922
REMARK INTER:                  -8.608
REMARK INTRA:                  -0.314
REMARK UNBOUND:                -0.314
REMARK SMILES O=c1cc(-c2ccc(O)c(O)c2)oc2cc(O)cc(O)c12
REMARK SMILES IDX 4 1 3 2 2 3 1 4 21 5 19 6 18 7 16 8 15 9 14 10 13 11 5 12
REMARK SMILES IDX 6 13 7 14 8 15 12 16 10 17 9 18 11 20 20 22 17 24
REMARK H PARENT 9 19 11 21 20 23 17 25
REMARK Flexibility Score: inf
ROOT
ATOM      1  C   UNL     1      -6.707   5.931  -0.814  1.00  0.00     0.138 A 
ATOM      2  C   UNL     1      -7.178   6.864   0.118  1.00  0.00     0.100 A 
ATOM      3  C   UNL     1      -8.274   6.545   0.922  1.00  0.00     0.197 A 
ATOM      4  O   UNL     1      -8.638   7.382   1.787  1.00  0.00    -0.289 OA
ATOM      5  C   UNL     1      -8.923   5.297   0.763  1.00  0.00     0.107 A 
ATOM      6  C   UNL     1     -10.070   4.875   1.502  1.00  0.00     0.134 A 
ATOM      7  C   UNL     1     -10.564   3.578   1.326  1.00  0.00     0.093 A 
ATOM      8  C   UNL     1      -9.990   2.705   0.399  1.00  0.00     0.123 A 
ATOM      9  C   UNL     1      -8.901   3.124  -0.363  1.00  0.00     0.094 A 
ATOM     10  C   UNL     1      -8.363   4.401  -0.187  1.00  0.00     0.146 A 
ATOM     11  O   UNL     1      -7.313   4.754  -0.921  1.00  0.00    -0.456 OA
ENDROOT
BRANCH   1  12
ATOM     12  C   UNL     1      -5.546   6.219  -1.695  1.00  0.00     0.021 A 
ATOM     13  C   UNL     1      -5.077   7.529  -1.897  1.00  0.00     0.016 A 
ATOM     14  C   UNL     1      -3.978   7.767  -2.724  1.00  0.00     0.051 A 
ATOM     15  C   UNL     1      -3.318   6.710  -3.360  1.00  0.00     0.157 A 
ATOM     16  C   UNL     1      -4.874   5.156  -2.323  1.00  0.00     0.062 A 
ATOM     17  C   UNL     1      -3.771   5.387  -3.154  1.00  0.00     0.158 A 
BRANCH  15  18
ATOM     18  O   UNL     1      -2.227   7.018  -4.175  1.00  0.00    -0.504 OA
ATOM     19  H   UNL     1      -1.441   6.401  -4.323  1.00  0.00     0.293 HD
ENDBRANCH  15  18
BRANCH  17  20
ATOM     20  O   UNL     1      -3.161   4.280  -3.749  1.00  0.00    -0.504 OA
ATOM     21  H   UNL     1      -2.983   4.198  -4.740  1.00  0.00     0.293 HD
ENDBRANCH  17  20
ENDBRANCH   1  12
BRANCH   6  22
ATOM     22  O   UNL     1     -10.769   5.692   2.395  1.00  0.00    -0.507 OA
ATOM     23  H   UNL     1     -10.367   6.448   2.928  1.00  0.00     0.293 HD
ENDBRANCH   6  22
BRANCH   8  24
ATOM     24  O   UNL     1     -10.498   1.421   0.221  1.00  0.00    -0.508 OA
ATOM     25  H   UNL     1     -11.443   1.267  -0.113  1.00  0.00     0.293 HD
ENDBRANCH   8  24
TORSDOF 5
ENDMDL
MODEL 2
REMARK VINA RESULT:    -7.138      0.974      1.531
REMARK INTER + INTRA:          -8.703
REMARK INTER:                  -8.413
REMARK INTRA:                  -0.290
REMARK UNBOUND:                -0.314
REMARK SMILES O=c1cc(-c2ccc(O)c(O)c2)oc2cc(O)cc(O)c12
REMARK SMILES IDX 4 1 3 2 2 3 1 4 21 5 19 6 18 7 16 8 15 9 14 10 13 11 5 12
REMARK SMILES IDX 6 13 7 14 8 15 12 16 10 17 9 18 11 20 20 22 17 24
REMARK H PARENT 9 19 11 21 20 23 17 25
REMARK Flexibility Score: inf
ROOT
ATOM      1  C   UNL     1      -6.087   5.551  -0.947  1.00  0.00     0.138 A 
ATOM      2  C   UNL     1      -6.493   6.571  -0.076  1.00  0.00     0.100 A 
ATOM      3  C   UNL     1      -7.635   6.398   0.707  1.00  0.00     0.197 A 
ATOM      4  O   UNL     1      -7.941   7.308   1.517  1.00  0.00    -0.289 OA
ATOM      5  C   UNL     1      -8.396   5.210   0.587  1.00  0.00     0.107 A 
ATOM      6  C   UNL     1      -9.598   4.936   1.308  1.00  0.00     0.134 A 
ATOM      7  C   UNL     1     -10.209   3.683   1.180  1.00  0.00     0.093 A 
ATOM      8  C   UNL     1      -9.695   2.715   0.314  1.00  0.00     0.123 A 
ATOM      9  C   UNL     1      -8.551   2.990  -0.431  1.00  0.00     0.094 A 
ATOM     10  C   UNL     1      -7.898   4.217  -0.300  1.00  0.00     0.146 A 
ATOM     11  O   UNL     1      -6.800   4.432  -1.016  1.00  0.00    -0.456 OA
ENDROOT
BRANCH   1  12
ATOM     12  C   UNL     1      -4.880   5.684  -1.803  1.00  0.00     0.021 A 
ATOM     13  C   UNL     1      -4.705   4.907  -2.962  1.00  0.00     0.016 A 
ATOM     14  C   UNL     1      -3.565   5.062  -3.752  1.00  0.00     0.051 A 
ATOM     15  C   UNL     1      -2.580   5.995  -3.412  1.00  0.00     0.157 A 
ATOM     16  C   UNL     1      -3.897   6.631  -1.470  1.00  0.00     0.062 A 
ATOM     17  C   UNL     1      -2.750   6.792  -2.257  1.00  0.00     0.158 A 
BRANCH  15  18
ATOM     18  O   UNL     1      -1.464   6.097  -4.243  1.00  0.00    -0.504 OA
ATOM     19  H   UNL     1      -1.514   6.254  -5.241  1.00  0.00     0.293 HD
ENDBRANCH  15  18
BRANCH  17  20
ATOM     20  O   UNL     1      -1.814   7.749  -1.857  1.00  0.00    -0.504 OA
ATOM     21  H   UNL     1      -0.867   7.792  -2.204  1.00  0.00     0.293 HD
ENDBRANCH  17  20
ENDBRANCH   1  12
BRANCH   6  22
ATOM     22  O   UNL     1     -10.240   5.860   2.138  1.00  0.00    -0.507 OA
ATOM     23  H   UNL     1      -9.891   6.184   3.026  1.00  0.00     0.293 HD
ENDBRANCH   6  22
BRANCH   8  24
ATOM     24  O   UNL     1     -10.319   1.477   0.182  1.00  0.00    -0.508 OA
ATOM     25  H   UNL     1     -11.253   1.313   0.540  1.00  0.00     0.293 HD
ENDBRANCH   8  24
TORSDOF 5
ENDMDL
MODEL 3
REMARK VINA RESULT:    -7.134     10.742     12.669
REMARK INTER + INTRA:          -8.699
REMARK INTER:                  -8.428
REMARK INTRA:                  -0.271
REMARK UNBOUND:                -0.314
REMARK SMILES O=c1cc(-c2ccc(O)c(O)c2)oc2cc(O)cc(O)c12
REMARK SMILES IDX 4 1 3 2 2 3 1 4 21 5 19 6 18 7 16 8 15 9 14 10 13 11 5 12
REMARK SMILES IDX 6 13 7 14 8 15 12 16 10 17 9 18 11 20 20 22 17 24
REMARK H PARENT 9 19 11 21 20 23 17 25
REMARK Flexibility Score: inf
ROOT
ATOM      1  C   UNL     1       3.376   5.994  -4.952  1.00  0.00     0.138 A 
ATOM      2  C   UNL     1       3.241   6.778  -3.799  1.00  0.00     0.100 A 
ATOM      3  C   UNL     1       4.133   6.608  -2.739  1.00  0.00     0.197 A 
ATOM      4  O   UNL     1       4.019   7.365  -1.741  1.00  0.00    -0.289 OA
ATOM      5  C   UNL     1       5.143   5.619  -2.822  1.00  0.00     0.107 A 
ATOM      6  C   UNL     1       6.088   5.332  -1.791  1.00  0.00     0.134 A 
ATOM      7  C   UNL     1       7.104   4.398  -2.027  1.00  0.00     0.093 A 
ATOM      8  C   UNL     1       7.176   3.700  -3.235  1.00  0.00     0.123 A 
ATOM      9  C   UNL     1       6.230   3.938  -4.229  1.00  0.00     0.094 A 
ATOM     10  C   UNL     1       5.224   4.888  -4.037  1.00  0.00     0.146 A 
ATOM     11  O   UNL     1       4.352   5.096  -5.018  1.00  0.00    -0.456 OA
ENDROOT
BRANCH   1  12
ATOM     12  C   UNL     1       2.453   6.133  -6.108  1.00  0.00     0.021 A 
ATOM     13  C   UNL     1       2.493   7.253  -6.957  1.00  0.00     0.016 A 
ATOM     14  C   UNL     1       1.619   7.350  -8.041  1.00  0.00     0.051 A 
ATOM     15  C   UNL     1       0.694   6.335  -8.309  1.00  0.00     0.157 A 
ATOM     16  C   UNL     1       1.533   5.107  -6.385  1.00  0.00     0.062 A 
ATOM     17  C   UNL     1       0.653   5.197  -7.470  1.00  0.00     0.158 A 
BRANCH  15  18
ATOM     18  O   UNL     1      -0.152   6.496  -9.407  1.00  0.00    -0.504 OA
ATOM     19  H   UNL     1      -1.153   6.616  -9.336  1.00  0.00     0.293 HD
ENDBRANCH  15  18
BRANCH  17  20
ATOM     20  O   UNL     1      -0.237   4.141  -7.676  1.00  0.00    -0.504 OA
ATOM     21  H   UNL     1      -0.855   3.776  -6.966  1.00  0.00     0.293 HD
ENDBRANCH  17  20
ENDBRANCH   1  12
BRANCH   6  22
ATOM     22  O   UNL     1       6.060   5.912  -0.519  1.00  0.00    -0.507 OA
ATOM     23  H   UNL     1       5.422   5.660   0.220  1.00  0.00     0.293 HD
ENDBRANCH   6  22
BRANCH   8  24
ATOM     24  O   UNL     1       8.182   2.763  -3.455  1.00  0.00    -0.508 OA
ATOM     25  H   UNL     1       8.985   2.972  -4.037  1.00  0.00     0.293 HD
ENDBRANCH   8  24
TORSDOF 5
ENDMDL
MODEL 4
REMARK VINA RESULT:    -6.937      1.312      1.680
REMARK INTER + INTRA:          -8.467
REMARK INTER:                  -8.165
REMARK INTRA:                  -0.302
REMARK UNBOUND:                -0.314
REMARK SMILES O=c1cc(-c2ccc(O)c(O)c2)oc2cc(O)cc(O)c12
REMARK SMILES IDX 4 1 3 2 2 3 1 4 21 5 19 6 18 7 16 8 15 9 14 10 13 11 5 12
REMARK SMILES IDX 6 13 7 14 8 15 12 16 10 17 9 18 11 20 20 22 17 24
REMARK H PARENT 9 19 11 21 20 23 17 25
REMARK Flexibility Score: inf
ROOT
ATOM      1  C   UNL     1      -5.461   5.584  -1.307  1.00  0.00     0.138 A 
ATOM      2  C   UNL     1      -5.663   6.727  -0.523  1.00  0.00     0.100 A 
ATOM      3  C   UNL     1      -6.778   6.805   0.312  1.00  0.00     0.197 A 
ATOM      4  O   UNL     1      -6.901   7.820   1.044  1.00  0.00    -0.289 OA
ATOM      5  C   UNL     1      -7.717   5.745   0.332  1.00  0.00     0.107 A 
ATOM      6  C   UNL     1      -8.909   5.728   1.117  1.00  0.00     0.134 A 
ATOM      7  C   UNL     1      -9.710   4.580   1.129  1.00  0.00     0.093 A 
ATOM      8  C   UNL     1      -9.394   3.471   0.341  1.00  0.00     0.123 A 
ATOM      9  C   UNL     1      -8.260   3.497  -0.467  1.00  0.00     0.094 A 
ATOM     10  C   UNL     1      -7.421   4.614  -0.475  1.00  0.00     0.146 A 
ATOM     11  O   UNL     1      -6.340   4.589  -1.246  1.00  0.00    -0.456 OA
ENDROOT
BRANCH   1  12
ATOM     12  C   UNL     1      -4.292   5.450  -2.214  1.00  0.00     0.021 A 
ATOM     13  C   UNL     1      -3.028   5.963  -1.874  1.00  0.00     0.016 A 
ATOM     14  C   UNL     1      -1.947   5.813  -2.744  1.00  0.00     0.051 A 
ATOM     15  C   UNL     1      -2.096   5.145  -3.964  1.00  0.00     0.157 A 
ATOM     16  C   UNL     1      -4.439   4.767  -3.434  1.00  0.00     0.062 A 
ATOM     17  C   UNL     1      -3.359   4.612  -4.312  1.00  0.00     0.158 A 
BRANCH  15  18
ATOM     18  O   UNL     1      -0.975   5.032  -4.787  1.00  0.00    -0.504 OA
ATOM     19  H   UNL     1      -0.981   5.222  -5.779  1.00  0.00     0.293 HD
ENDBRANCH  15  18
BRANCH  17  20
ATOM     20  O   UNL     1      -3.584   3.928  -5.508  1.00  0.00    -0.504 OA
ATOM     21  H   UNL     1      -2.883   3.795  -6.223  1.00  0.00     0.293 HD
ENDBRANCH  17  20
ENDBRANCH   1  12
BRANCH   6  22
ATOM     22  O   UNL     1      -9.361   6.810   1.879  1.00  0.00    -0.507 OA
ATOM     23  H   UNL     1      -9.889   7.591   1.522  1.00  0.00     0.293 HD
ENDBRANCH   6  22
BRANCH   8  24
ATOM     24  O   UNL     1     -10.206   2.340   0.348  1.00  0.00    -0.508 OA
ATOM     25  H   UNL     1     -10.602   1.965  -0.507  1.00  0.00     0.293 HD
ENDBRANCH   8  24
TORSDOF 5
ENDMDL
MODEL 5
REMARK VINA RESULT:    -6.742      2.148      3.388
REMARK INTER + INTRA:          -8.238
REMARK INTER:                  -7.957
REMARK INTRA:                  -0.281
REMARK UNBOUND:                -0.314
REMARK SMILES O=c1cc(-c2ccc(O)c(O)c2)oc2cc(O)cc(O)c12
REMARK SMILES IDX 4 1 3 2 2 3 1 4 21 5 19 6 18 7 16 8 15 9 14 10 13 11 5 12
REMARK SMILES IDX 6 13 7 14 8 15 12 16 10 17 9 18 11 20 20 22 17 24
REMARK H PARENT 9 19 11 21 20 23 17 25
REMARK Flexibility Score: inf
ROOT
ATOM      1  C   UNL     1      -4.293   5.603  -2.519  1.00  0.00     0.138 A 
ATOM      2  C   UNL     1      -4.402   6.897  -1.994  1.00  0.00     0.100 A 
ATOM      3  C   UNL     1      -5.483   7.222  -1.173  1.00  0.00     0.197 A 
ATOM      4  O   UNL     1      -5.522   8.375  -0.673  1.00  0.00    -0.289 OA
ATOM      5  C   UNL     1      -6.480   6.252  -0.908  1.00  0.00     0.107 A 
ATOM      6  C   UNL     1      -7.644   6.478  -0.113  1.00  0.00     0.134 A 
ATOM      7  C   UNL     1      -8.510   5.413   0.161  1.00  0.00     0.093 A 
ATOM      8  C   UNL     1      -8.285   4.143  -0.377  1.00  0.00     0.123 A 
ATOM      9  C   UNL     1      -7.178   3.924  -1.194  1.00  0.00     0.094 A 
ATOM     10  C   UNL     1      -6.277   4.958  -1.458  1.00  0.00     0.146 A 
ATOM     11  O   UNL     1      -5.225   4.702  -2.228  1.00  0.00    -0.456 OA
ENDROOT
BRANCH   1  12
ATOM     12  C   UNL     1      -3.165   5.205  -3.400  1.00  0.00     0.021 A 
ATOM     13  C   UNL     1      -3.349   4.346  -4.497  1.00  0.00     0.016 A 
ATOM     14  C   UNL     1      -2.270   3.998  -5.312  1.00  0.00     0.051 A 
ATOM     15  C   UNL     1      -0.990   4.502  -5.059  1.00  0.00     0.157 A 
ATOM     16  C   UNL     1      -1.881   5.723  -3.154  1.00  0.00     0.062 A 
ATOM     17  C   UNL     1      -0.794   5.379  -3.967  1.00  0.00     0.158 A 
BRANCH  15  18
ATOM     18  O   UNL     1       0.044   4.112  -5.911  1.00  0.00    -0.504 OA
ATOM     19  H   UNL     1       0.987   4.472  -5.856  1.00  0.00     0.293 HD
ENDBRANCH  15  18
BRANCH  17  20
ATOM     20  O   UNL     1       0.452   5.927  -3.655  1.00  0.00    -0.504 OA
ATOM     21  H   UNL     1       1.327   5.595  -4.036  1.00  0.00     0.293 HD
ENDBRANCH  17  20
ENDBRANCH   1  12
BRANCH   6  22
ATOM     22  O   UNL     1      -8.007   7.724   0.408  1.00  0.00    -0.507 OA
ATOM     23  H   UNL     1      -7.777   8.615  -0.003  1.00  0.00     0.293 HD
ENDBRANCH   6  22
BRANCH   8  24
ATOM     24  O   UNL     1      -9.160   3.094  -0.112  1.00  0.00    -0.508 OA
ATOM     25  H   UNL     1      -8.941   2.381   0.575  1.00  0.00     0.293 HD
ENDBRANCH   8  24
TORSDOF 5
ENDMDL
MODEL 6
REMARK VINA RESULT:    -6.717      7.482     11.100
REMARK INTER + INTRA:          -8.209
REMARK INTER:                  -7.937
REMARK INTRA:                  -0.271
REMARK UNBOUND:                -0.314
REMARK SMILES O=c1cc(-c2ccc(O)c(O)c2)oc2cc(O)cc(O)c12
REMARK SMILES IDX 4 1 3 2 2 3 1 4 21 5 19 6 18 7 16 8 15 9 14 10 13 11 5 12
REMARK SMILES IDX 6 13 7 14 8 15 12 16 10 17 9 18 11 20 20 22 17 24
REMARK H PARENT 9 19 11 21 20 23 17 25
REMARK Flexibility Score: inf
ROOT
ATOM      1  C   UNL     1       2.959   6.375  -4.388  1.00  0.00     0.138 A 
ATOM      2  C   UNL     1       3.154   6.744  -5.725  1.00  0.00     0.100 A 
ATOM      3  C   UNL     1       2.069   7.177  -6.489  1.00  0.00     0.197 A 
ATOM      4  O   UNL     1       2.287   7.554  -7.668  1.00  0.00    -0.289 OA
ATOM      5  C   UNL     1       0.774   7.204  -5.917  1.00  0.00     0.107 A 
ATOM      6  C   UNL     1      -0.413   7.594  -6.609  1.00  0.00     0.134 A 
ATOM      7  C   UNL     1      -1.623   7.675  -5.910  1.00  0.00     0.093 A 
ATOM      8  C   UNL     1      -1.702   7.326  -4.559  1.00  0.00     0.123 A 
ATOM      9  C   UNL     1      -0.559   6.897  -3.888  1.00  0.00     0.094 A 
ATOM     10  C   UNL     1       0.670   6.838  -4.549  1.00  0.00     0.146 A 
ATOM     11  O   UNL     1       1.739   6.440  -3.866  1.00  0.00    -0.456 OA
ENDROOT
BRANCH   1  12
ATOM     12  C   UNL     1       4.078   5.905  -3.531  1.00  0.00     0.021 A 
ATOM     13  C   UNL     1       4.324   6.461  -2.264  1.00  0.00     0.016 A 
ATOM     14  C   UNL     1       5.378   5.991  -1.478  1.00  0.00     0.051 A 
ATOM     15  C   UNL     1       6.203   4.956  -1.931  1.00  0.00     0.157 A 
ATOM     16  C   UNL     1       4.898   4.855  -3.980  1.00  0.00     0.062 A 
ATOM     17  C   UNL     1       5.957   4.379  -3.198  1.00  0.00     0.158 A 
BRANCH  15  18
ATOM     18  O   UNL     1       7.239   4.536  -1.096  1.00  0.00    -0.504 OA
ATOM     19  H   UNL     1       8.198   4.428  -1.397  1.00  0.00     0.293 HD
ENDBRANCH  15  18
BRANCH  17  20
ATOM     20  O   UNL     1       6.732   3.339  -3.715  1.00  0.00    -0.504 OA
ATOM     21  H   UNL     1       7.561   3.477  -4.276  1.00  0.00     0.293 HD
ENDBRANCH  17  20
ENDBRANCH   1  12
BRANCH   6  22
ATOM     22  O   UNL     1      -0.463   7.887  -7.975  1.00  0.00    -0.507 OA
ATOM     23  H   UNL     1      -0.919   7.321  -8.674  1.00  0.00     0.293 HD
ENDBRANCH   6  22
BRANCH   8  24
ATOM     24  O   UNL     1      -2.913   7.396  -3.877  1.00  0.00    -0.508 OA
ATOM     25  H   UNL     1      -3.798   7.438  -4.370  1.00  0.00     0.293 HD
ENDBRANCH   8  24
TORSDOF 5
ENDMDL
MODEL 7
REMARK VINA RESULT:    -6.699      9.463     12.211
REMARK INTER + INTRA:          -8.188
REMARK INTER:                  -7.914
REMARK INTRA:                  -0.274
REMARK UNBOUND:                -0.314
REMARK SMILES O=c1cc(-c2ccc(O)c(O)c2)oc2cc(O)cc(O)c12
REMARK SMILES IDX 4 1 3 2 2 3 1 4 21 5 19 6 18 7 16 8 15 9 14 10 13 11 5 12
REMARK SMILES IDX 6 13 7 14 8 15 12 16 10 17 9 18 11 20 20 22 17 24
REMARK H PARENT 9 19 11 21 20 23 17 25
REMARK Flexibility Score: inf
ROOT
ATOM      1  C   UNL     1       3.107   6.536  -4.447  1.00  0.00     0.138 A 
ATOM      2  C   UNL     1       1.749   6.397  -4.135  1.00  0.00     0.100 A 
ATOM      3  C   UNL     1       0.783   6.909  -5.003  1.00  0.00     0.197 A 
ATOM      4  O   UNL     1      -0.427   6.719  -4.722  1.00  0.00    -0.289 OA
ATOM      5  C   UNL     1       1.185   7.597  -6.173  1.00  0.00     0.107 A 
ATOM      6  C   UNL     1       0.291   8.191  -7.116  1.00  0.00     0.134 A 
ATOM      7  C   UNL     1       0.804   8.760  -8.287  1.00  0.00     0.093 A 
ATOM      8  C   UNL     1       2.180   8.807  -8.526  1.00  0.00     0.123 A 
ATOM      9  C   UNL     1       3.063   8.274  -7.589  1.00  0.00     0.094 A 
ATOM     10  C   UNL     1       2.581   7.669  -6.426  1.00  0.00     0.146 A 
ATOM     11  O   UNL     1       3.457   7.157  -5.568  1.00  0.00    -0.456 OA
ENDROOT
BRANCH   1  12
ATOM     12  C   UNL     1       4.175   6.012  -3.557  1.00  0.00     0.021 A 
ATOM     13  C   UNL     1       4.399   6.544  -2.275  1.00  0.00     0.016 A 
ATOM     14  C   UNL     1       5.404   6.023  -1.459  1.00  0.00     0.051 A 
ATOM     15  C   UNL     1       6.202   4.960  -1.895  1.00  0.00     0.157 A 
ATOM     16  C   UNL     1       4.968   4.935  -3.990  1.00  0.00     0.062 A 
ATOM     17  C   UNL     1       5.979   4.407  -3.177  1.00  0.00     0.158 A 
BRANCH  15  18
ATOM     18  O   UNL     1       7.190   4.489  -1.030  1.00  0.00    -0.504 OA
ATOM     19  H   UNL     1       7.810   3.720  -1.245  1.00  0.00     0.293 HD
ENDBRANCH  15  18
BRANCH  17  20
ATOM     20  O   UNL     1       6.729   3.342  -3.679  1.00  0.00    -0.504 OA
ATOM     21  H   UNL     1       7.040   3.272  -4.638  1.00  0.00     0.293 HD
ENDBRANCH  17  20
ENDBRANCH   1  12
BRANCH   6  22
ATOM     22  O   UNL     1      -1.093   8.270  -6.939  1.00  0.00    -0.507 OA
ATOM     23  H   UNL     1      -1.782   7.940  -7.597  1.00  0.00     0.293 HD
ENDBRANCH   6  22
BRANCH   8  24
ATOM     24  O   UNL     1       2.680   9.389  -9.688  1.00  0.00    -0.508 OA
ATOM     25  H   UNL     1       2.227  10.186 -10.119  1.00  0.00     0.293 HD
ENDBRANCH   8  24
TORSDOF 5
ENDMDL
MODEL 8
REMARK VINA RESULT:    -6.690      2.643      8.620
REMARK INTER + INTRA:          -8.178
REMARK INTER:                  -7.898
REMARK INTRA:                  -0.280
REMARK UNBOUND:                -0.314
REMARK SMILES O=c1cc(-c2ccc(O)c(O)c2)oc2cc(O)cc(O)c12
REMARK SMILES IDX 4 1 3 2 2 3 1 4 21 5 19 6 18 7 16 8 15 9 14 10 13 11 5 12
REMARK SMILES IDX 6 13 7 14 8 15 12 16 10 17 9 18 11 20 20 22 17 24
REMARK H PARENT 9 19 11 21 20 23 17 25
REMARK Flexibility Score: inf
ROOT
ATOM      1  C   UNL     1      -3.638   5.247  -3.374  1.00  0.00     0.138 A 
ATOM      2  C   UNL     1      -3.623   4.284  -4.391  1.00  0.00     0.100 A 
ATOM      3  C   UNL     1      -2.509   4.176  -5.226  1.00  0.00     0.197 A 
ATOM      4  O   UNL     1      -2.504   3.266  -6.093  1.00  0.00    -0.289 OA
ATOM      5  C   UNL     1      -1.420   5.065  -5.061  1.00  0.00     0.107 A 
ATOM      6  C   UNL     1      -0.245   5.072  -5.874  1.00  0.00     0.134 A 
ATOM      7  C   UNL     1       0.810   5.934  -5.552  1.00  0.00     0.093 A 
ATOM      8  C   UNL     1       0.712   6.828  -4.483  1.00  0.00     0.123 A 
ATOM      9  C   UNL     1      -0.449   6.864  -3.715  1.00  0.00     0.094 A 
ATOM     10  C   UNL     1      -1.506   5.993  -3.989  1.00  0.00     0.146 A 
ATOM     11  O   UNL     1      -2.589   6.047  -3.220  1.00  0.00    -0.456 OA
ENDROOT
BRANCH   1  12
ATOM     12  C   UNL     1      -4.798   5.406  -2.460  1.00  0.00     0.021 A 
ATOM     13  C   UNL     1      -5.247   6.672  -2.046  1.00  0.00     0.016 A 
ATOM     14  C   UNL     1      -6.346   6.789  -1.194  1.00  0.00     0.051 A 
ATOM     15  C   UNL     1      -7.027   5.653  -0.742  1.00  0.00     0.157 A 
ATOM     16  C   UNL     1      -5.490   4.265  -2.017  1.00  0.00     0.062 A 
ATOM     17  C   UNL     1      -6.594   4.374  -1.162  1.00  0.00     0.158 A 
BRANCH  15  18
ATOM     18  O   UNL     1      -8.116   5.841   0.110  1.00  0.00    -0.504 OA
ATOM     19  H   UNL     1      -8.504   5.117   0.699  1.00  0.00     0.293 HD
ENDBRANCH  15  18
BRANCH  17  20
ATOM     20  O   UNL     1      -7.225   3.195  -0.759  1.00  0.00    -0.504 OA
ATOM     21  H   UNL     1      -8.193   3.141  -0.475  1.00  0.00     0.293 HD
ENDBRANCH  17  20
ENDBRANCH   1  12
BRANCH   6  22
ATOM     22  O   UNL     1      -0.075   4.277  -7.011  1.00  0.00    -0.507 OA
ATOM     23  H   UNL     1       0.239   3.320  -7.009  1.00  0.00     0.293 HD
ENDBRANCH   6  22
BRANCH   8  24
ATOM     24  O   UNL     1       1.761   7.692  -4.181  1.00  0.00    -0.508 OA
ATOM     25  H   UNL     1       1.813   8.624  -4.578  1.00  0.00     0.293 HD
ENDBRANCH   8  24
TORSDOF 5
ENDMDL
MODEL 9
REMARK VINA RESULT:    -6.558      2.207      7.193
REMARK INTER + INTRA:          -8.022
REMARK INTER:                  -7.728
REMARK INTRA:                  -0.294
REMARK UNBOUND:                -0.314
REMARK SMILES O=c1cc(-c2ccc(O)c(O)c2)oc2cc(O)cc(O)c12
REMARK SMILES IDX 4 1 3 2 2 3 1 4 21 5 19 6 18 7 16 8 15 9 14 10 13 11 5 12
REMARK SMILES IDX 6 13 7 14 8 15 12 16 10 17 9 18 11 20 20 22 17 24
REMARK H PARENT 9 19 11 21 20 23 17 25
REMARK Flexibility Score: inf
ROOT
ATOM      1  C   UNL     1      -4.906   6.052  -1.581  1.00  0.00     0.138 A 
ATOM      2  C   UNL     1      -3.793   6.900  -1.506  1.00  0.00     0.100 A 
ATOM      3  C   UNL     1      -2.703   6.687  -2.351  1.00  0.00     0.197 A 
ATOM      4  O   UNL     1      -1.744   7.497  -2.298  1.00  0.00    -0.289 OA
ATOM      5  C   UNL     1      -2.715   5.593  -3.251  1.00  0.00     0.107 A 
ATOM      6  C   UNL     1      -1.647   5.257  -4.137  1.00  0.00     0.134 A 
ATOM      7  C   UNL     1      -1.815   4.211  -5.052  1.00  0.00     0.093 A 
ATOM      8  C   UNL     1      -2.988   3.453  -5.076  1.00  0.00     0.123 A 
ATOM      9  C   UNL     1      -4.016   3.741  -4.182  1.00  0.00     0.094 A 
ATOM     10  C   UNL     1      -3.894   4.801  -3.280  1.00  0.00     0.146 A 
ATOM     11  O   UNL     1      -4.906   5.054  -2.457  1.00  0.00    -0.456 OA
ENDROOT
BRANCH   1  12
ATOM     12  C   UNL     1      -6.091   6.233  -0.704  1.00  0.00     0.021 A 
ATOM     13  C   UNL     1      -7.276   5.502  -0.899  1.00  0.00     0.016 A 
ATOM     14  C   UNL     1      -8.369   5.687  -0.051  1.00  0.00     0.051 A 
ATOM     15  C   UNL     1      -8.307   6.595   1.011  1.00  0.00     0.157 A 
ATOM     16  C   UNL     1      -6.023   7.135   0.372  1.00  0.00     0.062 A 
ATOM     17  C   UNL     1      -7.116   7.327   1.226  1.00  0.00     0.158 A 
BRANCH  15  18
ATOM     18  O   UNL     1      -9.436   6.734   1.818  1.00  0.00    -0.504 OA
ATOM     19  H   UNL     1      -9.405   6.818   2.824  1.00  0.00     0.293 HD
ENDBRANCH  15  18
BRANCH  17  20
ATOM     20  O   UNL     1      -6.976   8.247   2.268  1.00  0.00    -0.504 OA
ATOM     21  H   UNL     1      -6.283   8.982   2.283  1.00  0.00     0.293 HD
ENDBRANCH  17  20
ENDBRANCH   1  12
BRANCH   6  22
ATOM     22  O   UNL     1      -0.404   5.896  -4.144  1.00  0.00    -0.507 OA
ATOM     23  H   UNL     1      -0.097   6.576  -3.465  1.00  0.00     0.293 HD
ENDBRANCH   6  22
BRANCH   8  24
ATOM     24  O   UNL     1      -3.138   2.404  -5.980  1.00  0.00    -0.508 OA
ATOM     25  H   UNL     1      -3.703   2.501  -6.816  1.00  0.00     0.293 HD
ENDBRANCH   8  24
TORSDOF 5
ENDMDL
