MODEL 1
REMARK VINA RESULT:    -4.195      0.000      0.000
REMARK INTER + INTRA:         -13.149
REMARK INTER:                 -11.063
REMARK INTRA:                  -2.086
REMARK UNBOUND:                -2.086
REMARK SMILES CCCCCCCCCCCCCCCCCCCCCCCCCCCCCC(=O)[O-]
REMARK SMILES IDX 16 1 17 2 18 3 19 4 20 5 21 6 22 7 23 8 24 9 25 10 26 11
REMARK SMILES IDX 27 12 28 13 29 14 30 15 31 16 32 17 15 18 14 19 13 20 12 21
REMARK SMILES IDX 11 22 10 23 9 24 8 25 7 26 6 27 5 28 4 29 3 30 2 31 1 32
REMARK H PARENT
REMARK Flexibility Score: inf
ROOT
ATOM      1  C   UNL     1      65.964  46.150  56.726  1.00  0.00     0.000 C 
ENDROOT
BRANCH   1   2
ATOM      2  C   UNL     1      65.368  46.752  58.017  1.00  0.00     0.000 C 
BRANCH   2   3
ATOM      3  C   UNL     1      65.863  48.181  58.321  1.00  0.00     0.000 C 
BRANCH   3   4
ATOM      4  C   UNL     1      67.138  48.598  57.569  1.00  0.00     0.000 C 
BRANCH   4   5
ATOM      5  C   UNL     1      68.393  48.561  58.456  1.00  0.00     0.000 C 
BRANCH   5   6
ATOM      6  C   UNL     1      69.068  49.937  58.595  1.00  0.00     0.000 C 
BRANCH   6   7
ATOM      7  C   UNL     1      68.111  51.129  58.369  1.00  0.00     0.000 C 
BRANCH   7   8
ATOM      8  C   UNL     1      68.782  52.266  57.579  1.00  0.00     0.000 C 
BRANCH   8   9
ATOM      9  C   UNL     1      68.261  52.392  56.135  1.00  0.00     0.000 C 
BRANCH   9  10
ATOM     10  C   UNL     1      68.439  51.137  55.260  1.00  0.00     0.000 C 
BRANCH  10  11
ATOM     11  C   UNL     1      69.807  51.082  54.560  1.00  0.00     0.000 C 
BRANCH  11  12
ATOM     12  C   UNL     1      70.301  52.467  54.106  1.00  0.00     0.000 C 
BRANCH  12  13
ATOM     13  C   UNL     1      70.215  52.682  52.579  1.00  0.00     0.006 C 
BRANCH  13  14
ATOM     14  C   UNL     1      70.383  51.371  51.799  1.00  0.00     0.053 C 
BRANCH  14  15
ATOM     15  C   UNL     1      69.221  51.156  50.883  1.00  0.00     0.041 C 
ATOM     16  O   UNL     1      68.998  51.961  49.940  1.00  0.00    -0.550 OA
ATOM     17  O   UNL     1      68.349  50.096  51.106  1.00  0.00    -0.550 OA
ENDBRANCH  14  15
ENDBRANCH  13  14
ENDBRANCH  12  13
ENDBRANCH  11  12
ENDBRANCH  10  11
ENDBRANCH   9  10
ENDBRANCH   8   9
ENDBRANCH   7   8
ENDBRANCH   6   7
ENDBRANCH   5   6
ENDBRANCH   4   5
ENDBRANCH   3   4
ENDBRANCH   2   3
ENDBRANCH   1   2
BRANCH   1  18
ATOM     18  C   UNL     1      65.752  44.621  56.609  1.00  0.00     0.000 C 
BRANCH  18  19
ATOM     19  C   UNL     1      65.751  43.901  57.969  1.00  0.00     0.000 C 
BRANCH  19  20
ATOM     20  C   UNL     1      66.836  42.819  58.105  1.00  0.00     0.000 C 
BRANCH  20  21
ATOM     21  C   UNL     1      66.299  41.404  57.840  1.00  0.00     0.000 C 
BRANCH  21  22
ATOM     22  C   UNL     1      64.787  41.282  58.103  1.00  0.00     0.000 C 
BRANCH  22  23
ATOM     23  C   UNL     1      64.412  40.129  59.059  1.00  0.00     0.000 C 
BRANCH  23  24
ATOM     24  C   UNL     1      63.815  38.923  58.313  1.00  0.00    -0.000 C 
BRANCH  24  25
ATOM     25  C   UNL     1      62.555  38.366  59.009  1.00  0.00    -0.000 C 
BRANCH  25  26
ATOM     26  C   UNL     1      61.469  37.890  58.029  1.00  0.00    -0.000 C 
BRANCH  26  27
ATOM     27  C   UNL     1      62.027  37.575  56.632  1.00  0.00    -0.000 C 
BRANCH  27  28
ATOM     28  C   UNL     1      60.926  37.448  55.564  1.00  0.00    -0.000 C 
BRANCH  28  29
ATOM     29  C   UNL     1      59.523  37.835  56.079  1.00  0.00    -0.000 C 
BRANCH  29  30
ATOM     30  C   UNL     1      58.444  37.683  54.997  1.00  0.00    -0.000 C 
BRANCH  30  31
ATOM     31  C   UNL     1      58.612  36.361  54.240  1.00  0.00    -0.003 C 
ATOM     32  C   UNL     1      57.641  36.269  53.065  1.00  0.00     0.004 C 
ENDBRANCH  30  31
ENDBRANCH  29  30
ENDBRANCH  28  29
ENDBRANCH  27  28
ENDBRANCH  26  27
ENDBRANCH  25  26
ENDBRANCH  24  25
ENDBRANCH  23  24
ENDBRANCH  22  23
ENDBRANCH  21  22
ENDBRANCH  20  21
ENDBRANCH  19  20
ENDBRANCH  18  19
ENDBRANCH   1  18
TORSDOF 28
ENDMDL
MODEL 2
REMARK VINA RESULT:    -4.134      4.768     14.045
REMARK INTER + INTRA:         -12.987
REMARK INTER:                 -10.650
REMARK INTRA:                  -2.337
REMARK UNBOUND:                -2.086
REMARK SMILES CCCCCCCCCCCCCCCCCCCCCCCCCCCCCC(=O)[O-]
REMARK SMILES IDX 16 1 17 2 18 3 19 4 20 5 21 6 22 7 23 8 24 9 25 10 26 11
REMARK SMILES IDX 27 12 28 13 29 14 30 15 31 16 32 17 15 18 14 19 13 20 12 21
REMARK SMILES IDX 11 22 10 23 9 24 8 25 7 26 6 27 5 28 4 29 3 30 2 31 1 32
REMARK H PARENT
REMARK Flexibility Score: inf
ROOT
ATOM      1  C   UNL     1      64.908  45.208  58.038  1.00  0.00     0.000 C 
ENDROOT
BRANCH   1   2
ATOM      2  C   UNL     1      65.749  44.684  56.853  1.00  0.00     0.000 C 
BRANCH   2   3
ATOM      3  C   UNL     1      65.862  43.146  56.804  1.00  0.00     0.000 C 
BRANCH   3   4
ATOM      4  C   UNL     1      65.381  42.421  58.072  1.00  0.00     0.000 C 
BRANCH   4   5
ATOM      5  C   UNL     1      66.301  41.260  58.480  1.00  0.00     0.000 C 
BRANCH   5   6
ATOM      6  C   UNL     1      65.591  39.896  58.453  1.00  0.00     0.000 C 
BRANCH   6   7
ATOM      7  C   UNL     1      64.060  39.991  58.264  1.00  0.00     0.000 C 
BRANCH   7   8
ATOM      8  C   UNL     1      63.473  38.707  57.651  1.00  0.00     0.000 C 
BRANCH   8   9
ATOM      9  C   UNL     1      62.167  38.253  58.329  1.00  0.00     0.000 C 
BRANCH   9  10
ATOM     10  C   UNL     1      61.551  36.957  57.769  1.00  0.00     0.000 C 
BRANCH  10  11
ATOM     11  C   UNL     1      60.868  37.157  56.406  1.00  0.00     0.000 C 
BRANCH  11  12
ATOM     12  C   UNL     1      59.771  38.235  56.441  1.00  0.00     0.000 C 
BRANCH  12  13
ATOM     13  C   UNL     1      58.551  37.902  55.555  1.00  0.00     0.006 C 
BRANCH  13  14
ATOM     14  C   UNL     1      58.869  36.817  54.517  1.00  0.00     0.053 C 
BRANCH  14  15
ATOM     15  C   UNL     1      57.682  36.572  53.639  1.00  0.00     0.041 C 
ATOM     16  O   UNL     1      57.175  35.422  53.564  1.00  0.00    -0.550 OA
ATOM     17  O   UNL     1      57.172  37.604  52.860  1.00  0.00    -0.550 OA
ENDBRANCH  14  15
ENDBRANCH  13  14
ENDBRANCH  12  13
ENDBRANCH  11  12
ENDBRANCH  10  11
ENDBRANCH   9  10
ENDBRANCH   8   9
ENDBRANCH   7   8
ENDBRANCH   6   7
ENDBRANCH   5   6
ENDBRANCH   4   5
ENDBRANCH   3   4
ENDBRANCH   2   3
ENDBRANCH   1   2
BRANCH   1  18
ATOM     18  C   UNL     1      65.362  46.598  58.545  1.00  0.00     0.000 C 
BRANCH  18  19
ATOM     19  C   UNL     1      66.325  47.312  57.580  1.00  0.00     0.000 C 
BRANCH  19  20
ATOM     20  C   UNL     1      66.999  48.559  58.177  1.00  0.00     0.000 C 
BRANCH  20  21
ATOM     21  C   UNL     1      66.008  49.708  58.425  1.00  0.00     0.000 C 
BRANCH  21  22
ATOM     22  C   UNL     1      66.708  51.028  58.796  1.00  0.00     0.000 C 
BRANCH  22  23
ATOM     23  C   UNL     1      65.995  52.285  58.254  1.00  0.00     0.000 C 
BRANCH  23  24
ATOM     24  C   UNL     1      66.527  52.709  56.874  1.00  0.00    -0.000 C 
BRANCH  24  25
ATOM     25  C   UNL     1      68.034  53.040  56.902  1.00  0.00    -0.000 C 
BRANCH  25  26
ATOM     26  C   UNL     1      68.840  52.339  55.794  1.00  0.00    -0.000 C 
BRANCH  26  27
ATOM     27  C   UNL     1      68.516  50.841  55.682  1.00  0.00    -0.000 C 
BRANCH  27  28
ATOM     28  C   UNL     1      69.705  49.943  56.063  1.00  0.00    -0.000 C 
BRANCH  28  29
ATOM     29  C   UNL     1      70.193  50.152  57.513  1.00  0.00    -0.000 C 
BRANCH  29  30
ATOM     30  C   UNL     1      71.660  49.736  57.699  1.00  0.00    -0.000 C 
BRANCH  30  31
ATOM     31  C   UNL     1      71.906  48.333  57.133  1.00  0.00    -0.003 C 
ATOM     32  C   UNL     1      72.563  47.425  58.171  1.00  0.00     0.004 C 
ENDBRANCH  30  31
ENDBRANCH  29  30
ENDBRANCH  28  29
ENDBRANCH  27  28
ENDBRANCH  26  27
ENDBRANCH  25  26
ENDBRANCH  24  25
ENDBRANCH  23  24
ENDBRANCH  22  23
ENDBRANCH  21  22
ENDBRANCH  20  21
ENDBRANCH  19  20
ENDBRANCH  18  19
ENDBRANCH   1  18
TORSDOF 28
ENDMDL
MODEL 3
REMARK VINA RESULT:    -4.105      5.646     14.465
REMARK INTER + INTRA:         -12.911
REMARK INTER:                 -10.868
REMARK INTRA:                  -2.043
REMARK UNBOUND:                -2.086
REMARK SMILES CCCCCCCCCCCCCCCCCCCCCCCCCCCCCC(=O)[O-]
REMARK SMILES IDX 16 1 17 2 18 3 19 4 20 5 21 6 22 7 23 8 24 9 25 10 26 11
REMARK SMILES IDX 27 12 28 13 29 14 30 15 31 16 32 17 15 18 14 19 13 20 12 21
REMARK SMILES IDX 11 22 10 23 9 24 8 25 7 26 6 27 5 28 4 29 3 30 2 31 1 32
REMARK H PARENT
REMARK Flexibility Score: inf
ROOT
ATOM      1  C   UNL     1      69.290  50.991  52.199  1.00  0.00     0.000 C 
ENDROOT
BRANCH   1   2
ATOM      2  C   UNL     1      70.679  51.665  52.191  1.00  0.00     0.000 C 
BRANCH   2   3
ATOM      3  C   UNL     1      70.697  53.055  52.861  1.00  0.00     0.000 C 
BRANCH   3   4
ATOM      4  C   UNL     1      69.862  53.165  54.148  1.00  0.00     0.000 C 
BRANCH   4   5
ATOM      5  C   UNL     1      70.713  53.047  55.422  1.00  0.00     0.000 C 
BRANCH   5   6
ATOM      6  C   UNL     1      70.023  52.230  56.528  1.00  0.00     0.000 C 
BRANCH   6   7
ATOM      7  C   UNL     1      70.818  50.981  56.971  1.00  0.00     0.000 C 
BRANCH   7   8
ATOM      8  C   UNL     1      70.138  49.675  56.526  1.00  0.00     0.000 C 
BRANCH   8   9
ATOM      9  C   UNL     1      68.667  49.866  56.111  1.00  0.00     0.000 C 
BRANCH   9  10
ATOM     10  C   UNL     1      67.626  49.430  57.158  1.00  0.00     0.000 C 
BRANCH  10  11
ATOM     11  C   UNL     1      67.186  47.965  56.994  1.00  0.00     0.000 C 
BRANCH  11  12
ATOM     12  C   UNL     1      66.640  47.357  58.298  1.00  0.00     0.000 C 
BRANCH  12  13
ATOM     13  C   UNL     1      65.211  46.788  58.161  1.00  0.00     0.006 C 
BRANCH  13  14
ATOM     14  C   UNL     1      65.166  45.274  58.402  1.00  0.00     0.053 C 
BRANCH  14  15
ATOM     15  C   UNL     1      65.770  44.544  57.245  1.00  0.00     0.041 C 
ATOM     16  O   UNL     1      66.382  43.459  57.428  1.00  0.00    -0.550 OA
ATOM     17  O   UNL     1      65.705  45.093  55.969  1.00  0.00    -0.550 OA
ENDBRANCH  14  15
ENDBRANCH  13  14
ENDBRANCH  12  13
ENDBRANCH  11  12
ENDBRANCH  10  11
ENDBRANCH   9  10
ENDBRANCH   8   9
ENDBRANCH   7   8
ENDBRANCH   6   7
ENDBRANCH   5   6
ENDBRANCH   4   5
ENDBRANCH   3   4
ENDBRANCH   2   3
ENDBRANCH   1   2
BRANCH   1  18
ATOM     18  C   UNL     1      68.754  50.677  50.781  1.00  0.00     0.000 C 
BRANCH  18  19
ATOM     19  C   UNL     1      69.093  51.766  49.748  1.00  0.00     0.000 C 
BRANCH  19  20
ATOM     20  C   UNL     1      68.094  52.936  49.721  1.00  0.00     0.000 C 
BRANCH  20  21
ATOM     21  C   UNL     1      68.671  54.193  49.051  1.00  0.00     0.000 C 
BRANCH  21  22
ATOM     22  C   UNL     1      68.129  54.410  47.626  1.00  0.00     0.000 C 
BRANCH  22  23
ATOM     23  C   UNL     1      69.215  54.796  46.599  1.00  0.00     0.000 C 
BRANCH  23  24
ATOM     24  C   UNL     1      69.535  53.646  45.628  1.00  0.00    -0.000 C 
BRANCH  24  25
ATOM     25  C   UNL     1      68.964  53.894  44.215  1.00  0.00    -0.000 C 
BRANCH  25  26
ATOM     26  C   UNL     1      68.041  52.768  43.719  1.00  0.00    -0.000 C 
BRANCH  26  27
ATOM     27  C   UNL     1      68.620  52.015  42.510  1.00  0.00    -0.000 C 
BRANCH  27  28
ATOM     28  C   UNL     1      69.367  52.939  41.533  1.00  0.00    -0.000 C 
BRANCH  28  29
ATOM     29  C   UNL     1      70.595  52.274  40.874  1.00  0.00    -0.000 C 
BRANCH  29  30
ATOM     30  C   UNL     1      70.537  50.741  40.951  1.00  0.00    -0.000 C 
BRANCH  30  31
ATOM     31  C   UNL     1      70.738  50.117  39.566  1.00  0.00    -0.003 C 
ATOM     32  C   UNL     1      70.437  48.620  39.584  1.00  0.00     0.004 C 
ENDBRANCH  30  31
ENDBRANCH  29  30
ENDBRANCH  28  29
ENDBRANCH  27  28
ENDBRANCH  26  27
ENDBRANCH  25  26
ENDBRANCH  24  25
ENDBRANCH  23  24
ENDBRANCH  22  23
ENDBRANCH  21  22
ENDBRANCH  20  21
ENDBRANCH  19  20
ENDBRANCH  18  19
ENDBRANCH   1  18
TORSDOF 28
ENDMDL
MODEL 4
REMARK VINA RESULT:    -4.080      1.687      2.176
REMARK INTER + INTRA:         -12.845
REMARK INTER:                 -10.951
REMARK INTRA:                  -1.894
REMARK UNBOUND:                -2.086
REMARK SMILES CCCCCCCCCCCCCCCCCCCCCCCCCCCCCC(=O)[O-]
REMARK SMILES IDX 16 1 17 2 18 3 19 4 20 5 21 6 22 7 23 8 24 9 25 10 26 11
REMARK SMILES IDX 27 12 28 13 29 14 30 15 31 16 32 17 15 18 14 19 13 20 12 21
REMARK SMILES IDX 11 22 10 23 9 24 8 25 7 26 6 27 5 28 4 29 3 30 2 31 1 32
REMARK H PARENT
REMARK Flexibility Score: inf
ROOT
ATOM      1  C   UNL     1      66.060  46.362  58.390  1.00  0.00     0.000 C 
ENDROOT
BRANCH   1   2
ATOM      2  C   UNL     1      66.089  47.735  57.684  1.00  0.00     0.000 C 
BRANCH   2   3
ATOM      3  C   UNL     1      67.122  48.716  58.277  1.00  0.00     0.000 C 
BRANCH   3   4
ATOM      4  C   UNL     1      67.837  49.605  57.246  1.00  0.00     0.000 C 
BRANCH   4   5
ATOM      5  C   UNL     1      69.112  48.959  56.684  1.00  0.00     0.000 C 
BRANCH   5   6
ATOM      6  C   UNL     1      70.310  49.064  57.643  1.00  0.00     0.000 C 
BRANCH   6   7
ATOM      7  C   UNL     1      71.636  48.541  57.048  1.00  0.00     0.000 C 
BRANCH   7   8
ATOM      8  C   UNL     1      72.738  49.616  57.059  1.00  0.00     0.000 C 
BRANCH   8   9
ATOM      9  C   UNL     1      72.330  50.896  57.813  1.00  0.00     0.000 C 
BRANCH   9  10
ATOM     10  C   UNL     1      72.278  52.175  56.958  1.00  0.00     0.000 C 
BRANCH  10  11
ATOM     11  C   UNL     1      71.009  52.271  56.095  1.00  0.00     0.000 C 
BRANCH  11  12
ATOM     12  C   UNL     1      71.139  51.519  54.759  1.00  0.00     0.000 C 
BRANCH  12  13
ATOM     13  C   UNL     1      69.823  51.464  53.953  1.00  0.00     0.006 C 
BRANCH  13  14
ATOM     14  C   UNL     1      70.041  50.948  52.524  1.00  0.00     0.053 C 
BRANCH  14  15
ATOM     15  C   UNL     1      69.841  52.051  51.535  1.00  0.00     0.041 C 
ATOM     16  O   UNL     1      69.786  51.798  50.303  1.00  0.00    -0.550 OA
ATOM     17  O   UNL     1      69.771  53.369  51.972  1.00  0.00    -0.550 OA
ENDBRANCH  14  15
ENDBRANCH  13  14
ENDBRANCH  12  13
ENDBRANCH  11  12
ENDBRANCH  10  11
ENDBRANCH   9  10
ENDBRANCH   8   9
ENDBRANCH   7   8
ENDBRANCH   6   7
ENDBRANCH   5   6
ENDBRANCH   4   5
ENDBRANCH   3   4
ENDBRANCH   2   3
ENDBRANCH   1   2
BRANCH   1  18
ATOM     18  C   UNL     1      65.075  45.360  57.741  1.00  0.00     0.000 C 
BRANCH  18  19
ATOM     19  C   UNL     1      65.212  43.929  58.291  1.00  0.00     0.000 C 
BRANCH  19  20
ATOM     20  C   UNL     1      65.402  42.857  57.204  1.00  0.00     0.000 C 
BRANCH  20  21
ATOM     21  C   UNL     1      66.208  41.646  57.700  1.00  0.00     0.000 C 
BRANCH  21  22
ATOM     22  C   UNL     1      65.445  40.808  58.742  1.00  0.00     0.000 C 
BRANCH  22  23
ATOM     23  C   UNL     1      63.991  40.484  58.335  1.00  0.00     0.000 C 
BRANCH  23  24
ATOM     24  C   UNL     1      63.824  39.022  57.883  1.00  0.00    -0.000 C 
BRANCH  24  25
ATOM     25  C   UNL     1      62.730  38.282  58.681  1.00  0.00    -0.000 C 
BRANCH  25  26
ATOM     26  C   UNL     1      61.546  37.816  57.816  1.00  0.00    -0.000 C 
BRANCH  26  27
ATOM     27  C   UNL     1      60.184  38.180  58.428  1.00  0.00    -0.000 C 
BRANCH  27  28
ATOM     28  C   UNL     1      59.003  37.842  57.501  1.00  0.00    -0.000 C 
BRANCH  28  29
ATOM     29  C   UNL     1      59.257  38.210  56.023  1.00  0.00    -0.000 C 
BRANCH  29  30
ATOM     30  C   UNL     1      59.055  37.013  55.082  1.00  0.00    -0.000 C 
BRANCH  30  31
ATOM     31  C   UNL     1      57.852  37.240  54.161  1.00  0.00    -0.003 C 
ATOM     32  C   UNL     1      57.684  36.084  53.176  1.00  0.00     0.004 C 
ENDBRANCH  30  31
ENDBRANCH  29  30
ENDBRANCH  28  29
ENDBRANCH  27  28
ENDBRANCH  26  27
ENDBRANCH  25  26
ENDBRANCH  24  25
ENDBRANCH  23  24
ENDBRANCH  22  23
ENDBRANCH  21  22
ENDBRANCH  20  21
ENDBRANCH  19  20
ENDBRANCH  18  19
ENDBRANCH   1  18
TORSDOF 28
ENDMDL
MODEL 5
REMARK VINA RESULT:    -4.078      1.313      2.029
REMARK INTER + INTRA:         -12.839
REMARK INTER:                 -11.410
REMARK INTRA:                  -1.429
REMARK UNBOUND:                -2.086
REMARK SMILES CCCCCCCCCCCCCCCCCCCCCCCCCCCCCC(=O)[O-]
REMARK SMILES IDX 16 1 17 2 18 3 19 4 20 5 21 6 22 7 23 8 24 9 25 10 26 11
REMARK SMILES IDX 27 12 28 13 29 14 30 15 31 16 32 17 15 18 14 19 13 20 12 21
REMARK SMILES IDX 11 22 10 23 9 24 8 25 7 26 6 27 5 28 4 29 3 30 2 31 1 32
REMARK H PARENT
REMARK Flexibility Score: inf
ROOT
ATOM      1  C   UNL     1      65.946  46.220  57.336  1.00  0.00     0.000 C 
ENDROOT
BRANCH   1   2
ATOM      2  C   UNL     1      66.057  47.518  58.166  1.00  0.00     0.000 C 
BRANCH   2   3
ATOM      3  C   UNL     1      67.506  48.013  58.352  1.00  0.00     0.000 C 
BRANCH   3   4
ATOM      4  C   UNL     1      67.907  49.197  57.456  1.00  0.00     0.000 C 
BRANCH   4   5
ATOM      5  C   UNL     1      66.986  50.415  57.630  1.00  0.00     0.000 C 
BRANCH   5   6
ATOM      6  C   UNL     1      67.578  51.702  57.031  1.00  0.00     0.000 C 
BRANCH   6   7
ATOM      7  C   UNL     1      68.423  51.470  55.759  1.00  0.00     0.000 C 
BRANCH   7   8
ATOM      8  C   UNL     1      69.653  52.394  55.706  1.00  0.00     0.000 C 
BRANCH   8   9
ATOM      9  C   UNL     1      69.792  53.142  54.366  1.00  0.00     0.000 C 
BRANCH   9  10
ATOM     10  C   UNL     1      70.744  52.490  53.346  1.00  0.00     0.000 C 
BRANCH  10  11
ATOM     11  C   UNL     1      70.316  51.068  52.948  1.00  0.00     0.000 C 
BRANCH  11  12
ATOM     12  C   UNL     1      69.214  51.054  51.875  1.00  0.00     0.000 C 
BRANCH  12  13
ATOM     13  C   UNL     1      69.725  51.406  50.461  1.00  0.00     0.006 C 
BRANCH  13  14
ATOM     14  C   UNL     1      68.708  52.235  49.667  1.00  0.00     0.053 C 
BRANCH  14  15
ATOM     15  C   UNL     1      68.821  53.682  50.026  1.00  0.00     0.041 C 
ATOM     16  O   UNL     1      67.794  54.409  50.067  1.00  0.00    -0.550 OA
ATOM     17  O   UNL     1      70.072  54.242  50.260  1.00  0.00    -0.550 OA
ENDBRANCH  14  15
ENDBRANCH  13  14
ENDBRANCH  12  13
ENDBRANCH  11  12
ENDBRANCH  10  11
ENDBRANCH   9  10
ENDBRANCH   8   9
ENDBRANCH   7   8
ENDBRANCH   6   7
ENDBRANCH   5   6
ENDBRANCH   4   5
ENDBRANCH   3   4
ENDBRANCH   2   3
ENDBRANCH   1   2
BRANCH   1  18
ATOM     18  C   UNL     1      64.972  45.184  57.947  1.00  0.00     0.000 C 
BRANCH  18  19
ATOM     19  C   UNL     1      65.666  43.885  58.393  1.00  0.00     0.000 C 
BRANCH  19  20
ATOM     20  C   UNL     1      66.110  42.982  57.229  1.00  0.00     0.000 C 
BRANCH  20  21
ATOM     21  C   UNL     1      66.052  41.487  57.584  1.00  0.00     0.000 C 
BRANCH  21  22
ATOM     22  C   UNL     1      64.632  41.015  57.943  1.00  0.00     0.000 C 
BRANCH  22  23
ATOM     23  C   UNL     1      64.580  39.590  58.535  1.00  0.00     0.000 C 
BRANCH  23  24
ATOM     24  C   UNL     1      63.204  38.928  58.343  1.00  0.00    -0.000 C 
BRANCH  24  25
ATOM     25  C   UNL     1      63.037  38.317  56.936  1.00  0.00    -0.000 C 
BRANCH  25  26
ATOM     26  C   UNL     1      61.960  37.221  56.865  1.00  0.00    -0.000 C 
BRANCH  26  27
ATOM     27  C   UNL     1      60.997  37.410  55.682  1.00  0.00    -0.000 C 
BRANCH  27  28
ATOM     28  C   UNL     1      59.658  38.042  56.098  1.00  0.00    -0.000 C 
BRANCH  28  29
ATOM     29  C   UNL     1      58.470  37.604  55.213  1.00  0.00    -0.000 C 
BRANCH  29  30
ATOM     30  C   UNL     1      58.828  36.418  54.305  1.00  0.00    -0.000 C 
BRANCH  30  31
ATOM     31  C   UNL     1      57.624  36.000  53.453  1.00  0.00    -0.003 C 
ATOM     32  C   UNL     1      57.017  37.200  52.729  1.00  0.00     0.004 C 
ENDBRANCH  30  31
ENDBRANCH  29  30
ENDBRANCH  28  29
ENDBRANCH  27  28
ENDBRANCH  26  27
ENDBRANCH  25  26
ENDBRANCH  24  25
ENDBRANCH  23  24
ENDBRANCH  22  23
ENDBRANCH  21  22
ENDBRANCH  20  21
ENDBRANCH  19  20
ENDBRANCH  18  19
ENDBRANCH   1  18
TORSDOF 28
ENDMDL
MODEL 6
REMARK VINA RESULT:    -4.064      9.202     14.099
REMARK INTER + INTRA:         -12.802
REMARK INTER:                  -9.326
REMARK INTRA:                  -3.476
REMARK UNBOUND:                -2.086
REMARK SMILES CCCCCCCCCCCCCCCCCCCCCCCCCCCCCC(=O)[O-]
REMARK SMILES IDX 16 1 17 2 18 3 19 4 20 5 21 6 22 7 23 8 24 9 25 10 26 11
REMARK SMILES IDX 27 12 28 13 29 14 30 15 31 16 32 17 15 18 14 19 13 20 12 21
REMARK SMILES IDX 11 22 10 23 9 24 8 25 7 26 6 27 5 28 4 29 3 30 2 31 1 32
REMARK H PARENT
REMARK Flexibility Score: inf
ROOT
ATOM      1  C   UNL     1      69.189  50.794  52.348  1.00  0.00     0.000 C 
ENDROOT
BRANCH   1   2
ATOM      2  C   UNL     1      70.638  51.317  52.451  1.00  0.00     0.000 C 
BRANCH   2   3
ATOM      3  C   UNL     1      70.823  52.427  53.506  1.00  0.00     0.000 C 
BRANCH   3   4
ATOM      4  C   UNL     1      70.236  53.794  53.119  1.00  0.00     0.000 C 
BRANCH   4   5
ATOM      5  C   UNL     1      69.716  54.584  54.330  1.00  0.00     0.000 C 
BRANCH   5   6
ATOM      6  C   UNL     1      70.336  54.119  55.659  1.00  0.00     0.000 C 
BRANCH   6   7
ATOM      7  C   UNL     1      69.370  54.199  56.862  1.00  0.00     0.000 C 
BRANCH   7   8
ATOM      8  C   UNL     1      67.970  53.662  56.516  1.00  0.00     0.000 C 
BRANCH   8   9
ATOM      9  C   UNL     1      67.764  52.193  56.928  1.00  0.00     0.000 C 
BRANCH   9  10
ATOM     10  C   UNL     1      68.027  51.155  55.821  1.00  0.00     0.000 C 
BRANCH  10  11
ATOM     11  C   UNL     1      68.732  49.891  56.338  1.00  0.00     0.000 C 
BRANCH  11  12
ATOM     12  C   UNL     1      70.246  49.896  56.060  1.00  0.00     0.000 C 
BRANCH  12  13
ATOM     13  C   UNL     1      71.061  50.694  57.100  1.00  0.00     0.006 C 
BRANCH  13  14
ATOM     14  C   UNL     1      72.454  51.070  56.579  1.00  0.00     0.053 C 
BRANCH  14  15
ATOM     15  C   UNL     1      73.464  50.053  57.009  1.00  0.00     0.041 C 
ATOM     16  O   UNL     1      74.666  50.161  56.651  1.00  0.00    -0.550 OA
ATOM     17  O   UNL     1      73.063  48.954  57.760  1.00  0.00    -0.550 OA
ENDBRANCH  14  15
ENDBRANCH  13  14
ENDBRANCH  12  13
ENDBRANCH  11  12
ENDBRANCH  10  11
ENDBRANCH   9  10
ENDBRANCH   8   9
ENDBRANCH   7   8
ENDBRANCH   6   7
ENDBRANCH   5   6
ENDBRANCH   4   5
ENDBRANCH   3   4
ENDBRANCH   2   3
ENDBRANCH   1   2
BRANCH   1  18
ATOM     18  C   UNL     1      68.694  50.641  50.890  1.00  0.00     0.000 C 
BRANCH  18  19
ATOM     19  C   UNL     1      69.250  51.720  49.943  1.00  0.00     0.000 C 
BRANCH  19  20
ATOM     20  C   UNL     1      68.191  52.717  49.441  1.00  0.00     0.000 C 
BRANCH  20  21
ATOM     21  C   UNL     1      68.563  54.178  49.738  1.00  0.00     0.000 C 
BRANCH  21  22
ATOM     22  C   UNL     1      68.880  54.982  48.465  1.00  0.00     0.000 C 
BRANCH  22  23
ATOM     23  C   UNL     1      70.007  54.370  47.606  1.00  0.00     0.000 C 
BRANCH  23  24
ATOM     24  C   UNL     1      69.982  54.885  46.156  1.00  0.00    -0.000 C 
BRANCH  24  25
ATOM     25  C   UNL     1      69.746  53.753  45.134  1.00  0.00    -0.000 C 
BRANCH  25  26
ATOM     26  C   UNL     1      68.356  53.797  44.476  1.00  0.00    -0.000 C 
BRANCH  26  27
ATOM     27  C   UNL     1      68.408  53.542  42.962  1.00  0.00    -0.000 C 
BRANCH  27  28
ATOM     28  C   UNL     1      69.698  52.830  42.519  1.00  0.00    -0.000 C 
BRANCH  28  29
ATOM     29  C   UNL     1      69.441  51.541  41.709  1.00  0.00    -0.000 C 
BRANCH  29  30
ATOM     30  C   UNL     1      70.743  50.898  41.210  1.00  0.00    -0.000 C 
BRANCH  30  31
ATOM     31  C   UNL     1      70.625  50.499  39.735  1.00  0.00    -0.003 C 
ATOM     32  C   UNL     1      70.584  48.980  39.575  1.00  0.00     0.004 C 
ENDBRANCH  30  31
ENDBRANCH  29  30
ENDBRANCH  28  29
ENDBRANCH  27  28
ENDBRANCH  26  27
ENDBRANCH  25  26
ENDBRANCH  24  25
ENDBRANCH  23  24
ENDBRANCH  22  23
ENDBRANCH  21  22
ENDBRANCH  20  21
ENDBRANCH  19  20
ENDBRANCH  18  19
ENDBRANCH   1  18
TORSDOF 28
ENDMDL
MODEL 7
REMARK VINA RESULT:    -4.050      8.643     14.835
REMARK INTER + INTRA:         -12.766
REMARK INTER:                  -9.130
REMARK INTRA:                  -3.637
REMARK UNBOUND:                -2.086
REMARK SMILES CCCCCCCCCCCCCCCCCCCCCCCCCCCCCC(=O)[O-]
REMARK SMILES IDX 16 1 17 2 18 3 19 4 20 5 21 6 22 7 23 8 24 9 25 10 26 11
REMARK SMILES IDX 27 12 28 13 29 14 30 15 31 16 32 17 15 18 14 19 13 20 12 21
REMARK SMILES IDX 11 22 10 23 9 24 8 25 7 26 6 27 5 28 4 29 3 30 2 31 1 32
REMARK H PARENT
REMARK Flexibility Score: inf
ROOT
ATOM      1  C   UNL     1      68.771  50.649  50.928  1.00  0.00     0.000 C 
ENDROOT
BRANCH   1   2
ATOM      2  C   UNL     1      69.423  51.165  52.230  1.00  0.00     0.000 C 
BRANCH   2   3
ATOM      3  C   UNL     1      70.920  51.506  52.080  1.00  0.00     0.000 C 
BRANCH   3   4
ATOM      4  C   UNL     1      71.245  53.009  52.086  1.00  0.00     0.000 C 
BRANCH   4   5
ATOM      5  C   UNL     1      70.058  53.874  52.537  1.00  0.00     0.000 C 
BRANCH   5   6
ATOM      6  C   UNL     1      70.391  54.764  53.746  1.00  0.00     0.000 C 
BRANCH   6   7
ATOM      7  C   UNL     1      69.282  54.798  54.822  1.00  0.00     0.000 C 
BRANCH   7   8
ATOM      8  C   UNL     1      69.189  53.471  55.596  1.00  0.00     0.000 C 
BRANCH   8   9
ATOM      9  C   UNL     1      69.946  53.495  56.937  1.00  0.00     0.000 C 
BRANCH   9  10
ATOM     10  C   UNL     1      71.238  52.660  56.978  1.00  0.00     0.000 C 
BRANCH  10  11
ATOM     11  C   UNL     1      71.449  51.816  55.709  1.00  0.00     0.000 C 
BRANCH  11  12
ATOM     12  C   UNL     1      71.500  50.306  55.999  1.00  0.00     0.000 C 
BRANCH  12  13
ATOM     13  C   UNL     1      70.291  49.793  56.812  1.00  0.00     0.006 C 
BRANCH  13  14
ATOM     14  C   UNL     1      68.992  49.820  55.996  1.00  0.00     0.053 C 
BRANCH  14  15
ATOM     15  C   UNL     1      67.812  49.589  56.886  1.00  0.00     0.041 C 
ATOM     16  O   UNL     1      67.220  50.563  57.422  1.00  0.00    -0.550 OA
ATOM     17  O   UNL     1      67.401  48.291  57.169  1.00  0.00    -0.550 OA
ENDBRANCH  14  15
ENDBRANCH  13  14
ENDBRANCH  12  13
ENDBRANCH  11  12
ENDBRANCH  10  11
ENDBRANCH   9  10
ENDBRANCH   8   9
ENDBRANCH   7   8
ENDBRANCH   6   7
ENDBRANCH   5   6
ENDBRANCH   4   5
ENDBRANCH   3   4
ENDBRANCH   2   3
ENDBRANCH   1   2
BRANCH   1  18
ATOM     18  C   UNL     1      69.006  51.581  49.714  1.00  0.00     0.000 C 
BRANCH  18  19
ATOM     19  C   UNL     1      68.095  52.821  49.714  1.00  0.00     0.000 C 
BRANCH  19  20
ATOM     20  C   UNL     1      68.743  54.073  49.096  1.00  0.00     0.000 C 
BRANCH  20  21
ATOM     21  C   UNL     1      67.780  54.850  48.184  1.00  0.00     0.000 C 
BRANCH  21  22
ATOM     22  C   UNL     1      68.197  54.805  46.703  1.00  0.00     0.000 C 
BRANCH  22  23
ATOM     23  C   UNL     1      69.665  54.384  46.481  1.00  0.00     0.000 C 
BRANCH  23  24
ATOM     24  C   UNL     1      69.946  53.990  45.020  1.00  0.00    -0.000 C 
BRANCH  24  25
ATOM     25  C   UNL     1      68.736  53.301  44.355  1.00  0.00    -0.000 C 
BRANCH  25  26
ATOM     26  C   UNL     1      68.509  53.730  42.895  1.00  0.00    -0.000 C 
BRANCH  26  27
ATOM     27  C   UNL     1      69.682  54.545  42.327  1.00  0.00    -0.000 C 
BRANCH  27  28
ATOM     28  C   UNL     1      69.807  54.425  40.798  1.00  0.00    -0.000 C 
BRANCH  28  29
ATOM     29  C   UNL     1      71.176  53.884  40.334  1.00  0.00    -0.000 C 
BRANCH  29  30
ATOM     30  C   UNL     1      71.040  52.633  39.455  1.00  0.00    -0.000 C 
BRANCH  30  31
ATOM     31  C   UNL     1      70.072  51.626  40.085  1.00  0.00    -0.003 C 
ATOM     32  C   UNL     1      70.771  50.772  41.140  1.00  0.00     0.004 C 
ENDBRANCH  30  31
ENDBRANCH  29  30
ENDBRANCH  28  29
ENDBRANCH  27  28
ENDBRANCH  26  27
ENDBRANCH  25  26
ENDBRANCH  24  25
ENDBRANCH  23  24
ENDBRANCH  22  23
ENDBRANCH  21  22
ENDBRANCH  20  21
ENDBRANCH  19  20
ENDBRANCH  18  19
ENDBRANCH   1  18
TORSDOF 28
ENDMDL
MODEL 8
REMARK VINA RESULT:    -3.904      1.937      4.448
REMARK INTER + INTRA:         -12.380
REMARK INTER:                  -9.782
REMARK INTRA:                  -2.598
REMARK UNBOUND:                -2.086
REMARK SMILES CCCCCCCCCCCCCCCCCCCCCCCCCCCCCC(=O)[O-]
REMARK SMILES IDX 16 1 17 2 18 3 19 4 20 5 21 6 22 7 23 8 24 9 25 10 26 11
REMARK SMILES IDX 27 12 28 13 29 14 30 15 31 16 32 17 15 18 14 19 13 20 12 21
REMARK SMILES IDX 11 22 10 23 9 24 8 25 7 26 6 27 5 28 4 29 3 30 2 31 1 32
REMARK H PARENT
REMARK Flexibility Score: inf
ROOT
ATOM      1  C   UNL     1      67.501  50.693  56.937  1.00  0.00     0.000 C 
ENDROOT
BRANCH   1   2
ATOM      2  C   UNL     1      67.128  52.090  57.478  1.00  0.00     0.000 C 
BRANCH   2   3
ATOM      3  C   UNL     1      67.523  53.246  56.536  1.00  0.00     0.000 C 
BRANCH   3   4
ATOM      4  C   UNL     1      68.712  54.096  57.016  1.00  0.00     0.000 C 
BRANCH   4   5
ATOM      5  C   UNL     1      69.348  53.555  58.305  1.00  0.00     0.000 C 
BRANCH   5   6
ATOM      6  C   UNL     1      70.758  52.982  58.082  1.00  0.00     0.000 C 
BRANCH   6   7
ATOM      7  C   UNL     1      70.835  51.444  58.204  1.00  0.00     0.000 C 
BRANCH   7   8
ATOM      8  C   UNL     1      71.344  50.786  56.909  1.00  0.00     0.000 C 
BRANCH   8   9
ATOM      9  C   UNL     1      71.112  51.651  55.656  1.00  0.00     0.000 C 
BRANCH   9  10
ATOM     10  C   UNL     1      70.228  51.011  54.570  1.00  0.00     0.000 C 
BRANCH  10  11
ATOM     11  C   UNL     1      70.352  51.710  53.206  1.00  0.00     0.000 C 
BRANCH  11  12
ATOM     12  C   UNL     1      69.486  51.051  52.118  1.00  0.00     0.000 C 
BRANCH  12  13
ATOM     13  C   UNL     1      69.831  51.521  50.687  1.00  0.00     0.006 C 
BRANCH  13  14
ATOM     14  C   UNL     1      68.578  51.696  49.819  1.00  0.00     0.053 C 
BRANCH  14  15
ATOM     15  C   UNL     1      68.196  53.140  49.739  1.00  0.00     0.041 C 
ATOM     16  O   UNL     1      67.169  53.491  49.103  1.00  0.00    -0.550 OA
ATOM     17  O   UNL     1      69.009  54.105  50.324  1.00  0.00    -0.550 OA
ENDBRANCH  14  15
ENDBRANCH  13  14
ENDBRANCH  12  13
ENDBRANCH  11  12
ENDBRANCH  10  11
ENDBRANCH   9  10
ENDBRANCH   8   9
ENDBRANCH   7   8
ENDBRANCH   6   7
ENDBRANCH   5   6
ENDBRANCH   4   5
ENDBRANCH   3   4
ENDBRANCH   2   3
ENDBRANCH   1   2
BRANCH   1  18
ATOM     18  C   UNL     1      67.441  49.583  58.013  1.00  0.00     0.000 C 
BRANCH  18  19
ATOM     19  C   UNL     1      66.072  48.885  58.093  1.00  0.00     0.000 C 
BRANCH  19  20
ATOM     20  C   UNL     1      66.095  47.410  57.658  1.00  0.00     0.000 C 
BRANCH  20  21
ATOM     21  C   UNL     1      65.482  46.471  58.710  1.00  0.00     0.000 C 
BRANCH  21  22
ATOM     22  C   UNL     1      65.909  45.004  58.520  1.00  0.00     0.000 C 
BRANCH  22  23
ATOM     23  C   UNL     1      65.759  44.495  57.071  1.00  0.00     0.000 C 
BRANCH  23  24
ATOM     24  C   UNL     1      65.436  42.992  57.010  1.00  0.00    -0.000 C 
BRANCH  24  25
ATOM     25  C   UNL     1      66.672  42.114  57.303  1.00  0.00    -0.000 C 
BRANCH  25  26
ATOM     26  C   UNL     1      66.516  41.227  58.550  1.00  0.00    -0.000 C 
BRANCH  26  27
ATOM     27  C   UNL     1      65.050  40.876  58.850  1.00  0.00    -0.000 C 
BRANCH  27  28
ATOM     28  C   UNL     1      64.762  39.369  58.742  1.00  0.00    -0.000 C 
BRANCH  28  29
ATOM     29  C   UNL     1      63.544  39.037  57.854  1.00  0.00    -0.000 C 
BRANCH  29  30
ATOM     30  C   UNL     1      62.308  38.651  58.681  1.00  0.00    -0.000 C 
BRANCH  30  31
ATOM     31  C   UNL     1      61.659  37.377  58.129  1.00  0.00    -0.003 C 
ATOM     32  C   UNL     1      61.747  37.327  56.605  1.00  0.00     0.004 C 
ENDBRANCH  30  31
ENDBRANCH  29  30
ENDBRANCH  28  29
ENDBRANCH  27  28
ENDBRANCH  26  27
ENDBRANCH  25  26
ENDBRANCH  24  25
ENDBRANCH  23  24
ENDBRANCH  22  23
ENDBRANCH  21  22
ENDBRANCH  20  21
ENDBRANCH  19  20
ENDBRANCH  18  19
ENDBRANCH   1  18
TORSDOF 28
ENDMDL
MODEL 9
REMARK VINA RESULT:    -3.859      9.060     13.268
REMARK INTER + INTRA:         -12.263
REMARK INTER:                  -8.974
REMARK INTRA:                  -3.289
REMARK UNBOUND:                -2.086
REMARK SMILES CCCCCCCCCCCCCCCCCCCCCCCCCCCCCC(=O)[O-]
REMARK SMILES IDX 16 1 17 2 18 3 19 4 20 5 21 6 22 7 23 8 24 9 25 10 26 11
REMARK SMILES IDX 27 12 28 13 29 14 30 15 31 16 32 17 15 18 14 19 13 20 12 21
REMARK SMILES IDX 11 22 10 23 9 24 8 25 7 26 6 27 5 28 4 29 3 30 2 31 1 32
REMARK H PARENT
REMARK Flexibility Score: inf
ROOT
ATOM      1  C   UNL     1      69.499  51.345  52.048  1.00  0.00     0.000 C 
ENDROOT
BRANCH   1   2
ATOM      2  C   UNL     1      69.666  51.368  50.513  1.00  0.00     0.000 C 
BRANCH   2   3
ATOM      3  C   UNL     1      68.437  51.925  49.764  1.00  0.00     0.000 C 
BRANCH   3   4
ATOM      4  C   UNL     1      68.318  53.458  49.764  1.00  0.00     0.000 C 
BRANCH   4   5
ATOM      5  C   UNL     1      67.393  53.984  48.655  1.00  0.00     0.000 C 
BRANCH   5   6
ATOM      6  C   UNL     1      68.153  54.741  47.552  1.00  0.00     0.000 C 
BRANCH   6   7
ATOM      7  C   UNL     1      69.455  54.045  47.098  1.00  0.00     0.000 C 
BRANCH   7   8
ATOM      8  C   UNL     1      69.553  53.944  45.565  1.00  0.00     0.000 C 
BRANCH   8   9
ATOM      9  C   UNL     1      68.211  54.196  44.853  1.00  0.00     0.000 C 
BRANCH   9  10
ATOM     10  C   UNL     1      68.288  54.289  43.318  1.00  0.00     0.000 C 
BRANCH  10  11
ATOM     11  C   UNL     1      69.451  53.476  42.725  1.00  0.00     0.000 C 
BRANCH  11  12
ATOM     12  C   UNL     1      68.973  52.279  41.883  1.00  0.00     0.000 C 
BRANCH  12  13
ATOM     13  C   UNL     1      69.586  52.238  40.466  1.00  0.00     0.006 C 
BRANCH  13  14
ATOM     14  C   UNL     1      69.322  50.901  39.761  1.00  0.00     0.053 C 
BRANCH  14  15
ATOM     15  C   UNL     1      70.373  49.902  40.127  1.00  0.00     0.041 C 
ATOM     16  O   UNL     1      70.374  48.759  39.600  1.00  0.00    -0.550 OA
ATOM     17  O   UNL     1      71.321  50.217  41.093  1.00  0.00    -0.550 OA
ENDBRANCH  14  15
ENDBRANCH  13  14
ENDBRANCH  12  13
ENDBRANCH  11  12
ENDBRANCH  10  11
ENDBRANCH   9  10
ENDBRANCH   8   9
ENDBRANCH   7   8
ENDBRANCH   6   7
ENDBRANCH   5   6
ENDBRANCH   4   5
ENDBRANCH   3   4
ENDBRANCH   2   3
ENDBRANCH   1   2
BRANCH   1  18
ATOM     18  C   UNL     1      70.832  51.139  52.806  1.00  0.00     0.000 C 
BRANCH  18  19
ATOM     19  C   UNL     1      71.022  52.115  53.980  1.00  0.00     0.000 C 
BRANCH  19  20
ATOM     20  C   UNL     1      70.260  53.442  53.819  1.00  0.00     0.000 C 
BRANCH  20  21
ATOM     21  C   UNL     1      70.068  54.182  55.153  1.00  0.00     0.000 C 
BRANCH  21  22
ATOM     22  C   UNL     1      68.737  53.831  55.841  1.00  0.00     0.000 C 
BRANCH  22  23
ATOM     23  C   UNL     1      68.905  53.055  57.165  1.00  0.00     0.000 C 
BRANCH  23  24
ATOM     24  C   UNL     1      67.998  51.814  57.234  1.00  0.00    -0.000 C 
BRANCH  24  25
ATOM     25  C   UNL     1      67.996  51.014  55.914  1.00  0.00    -0.000 C 
BRANCH  25  26
ATOM     26  C   UNL     1      69.042  49.886  55.876  1.00  0.00    -0.000 C 
BRANCH  26  27
ATOM     27  C   UNL     1      69.227  49.201  57.239  1.00  0.00    -0.000 C 
BRANCH  27  28
ATOM     28  C   UNL     1      70.705  48.964  57.593  1.00  0.00    -0.000 C 
BRANCH  28  29
ATOM     29  C   UNL     1      71.686  49.507  56.532  1.00  0.00    -0.000 C 
BRANCH  29  30
ATOM     30  C   UNL     1      72.725  50.464  57.136  1.00  0.00    -0.000 C 
BRANCH  30  31
ATOM     31  C   UNL     1      72.052  51.731  57.673  1.00  0.00    -0.003 C 
ATOM     32  C   UNL     1      72.970  52.944  57.540  1.00  0.00     0.004 C 
ENDBRANCH  30  31
ENDBRANCH  29  30
ENDBRANCH  28  29
ENDBRANCH  27  28
ENDBRANCH  26  27
ENDBRANCH  25  26
ENDBRANCH  24  25
ENDBRANCH  23  24
ENDBRANCH  22  23
ENDBRANCH  21  22
ENDBRANCH  20  21
ENDBRANCH  19  20
ENDBRANCH  18  19
ENDBRANCH   1  18
TORSDOF 28
ENDMDL
