MODEL 1
REMARK VINA RESULT:    -6.670      0.000      0.000
REMARK INTER + INTRA:          -8.106
REMARK INTER:                  -7.839
REMARK INTRA:                  -0.266
REMARK UNBOUND:                -0.266
REMARK SMILES O=c1cc(-c2ccc(O)c(O)c2)oc2cc(O)cc(O)c12
REMARK SMILES IDX 4 1 3 2 2 3 1 4 21 5 19 6 18 7 16 8 15 9 14 10 13 11 5 12
REMARK SMILES IDX 6 13 7 14 8 15 12 16 10 17 9 18 11 20 20 22 17 24
REMARK H PARENT 9 19 11 21 20 23 17 25
REMARK Flexibility Score: inf
ROOT
ATOM      1  C   UNL     1       7.335   8.248 -15.006  1.00  0.00     0.138 A 
ATOM      2  C   UNL     1       6.982   8.563 -13.686  1.00  0.00     0.100 A 
ATOM      3  C   UNL     1       7.302   9.817 -13.166  1.00  0.00     0.197 A 
ATOM      4  O   UNL     1       6.918  10.091 -11.999  1.00  0.00    -0.289 OA
ATOM      5  C   UNL     1       8.009  10.749 -13.962  1.00  0.00     0.107 A 
ATOM      6  C   UNL     1       8.425  12.042 -13.523  1.00  0.00     0.134 A 
ATOM      7  C   UNL     1       9.016  12.923 -14.435  1.00  0.00     0.093 A 
ATOM      8  C   UNL     1       9.261  12.539 -15.754  1.00  0.00     0.123 A 
ATOM      9  C   UNL     1       8.907  11.258 -16.180  1.00  0.00     0.094 A 
ATOM     10  C   UNL     1       8.284  10.368 -15.302  1.00  0.00     0.146 A 
ATOM     11  O   UNL     1       7.950   9.163 -15.751  1.00  0.00    -0.456 OA
ENDROOT
BRANCH   1  12
ATOM     12  C   UNL     1       7.019   6.929 -15.610  1.00  0.00     0.021 A 
ATOM     13  C   UNL     1       6.208   6.815 -16.752  1.00  0.00     0.016 A 
ATOM     14  C   UNL     1       5.919   5.560 -17.292  1.00  0.00     0.051 A 
ATOM     15  C   UNL     1       6.422   4.395 -16.703  1.00  0.00     0.157 A 
ATOM     16  C   UNL     1       7.512   5.757 -15.010  1.00  0.00     0.062 A 
ATOM     17  C   UNL     1       7.226   4.495 -15.545  1.00  0.00     0.158 A 
BRANCH  15  18
ATOM     18  O   UNL     1       6.096   3.173 -17.294  1.00  0.00    -0.504 OA
ATOM     19  H   UNL     1       5.845   3.065 -18.266  1.00  0.00     0.293 HD
ENDBRANCH  15  18
BRANCH  17  20
ATOM     20  O   UNL     1       7.759   3.378 -14.899  1.00  0.00    -0.504 OA
ATOM     21  H   UNL     1       8.207   2.609 -15.377  1.00  0.00     0.293 HD
ENDBRANCH  17  20
ENDBRANCH   1  12
BRANCH   6  22
ATOM     22  O   UNL     1       8.305  12.496 -12.205  1.00  0.00    -0.507 OA
ATOM     23  H   UNL     1       7.708  12.083 -11.505  1.00  0.00     0.293 HD
ENDBRANCH   6  22
BRANCH   8  24
ATOM     24  O   UNL     1       9.865  13.438 -16.630  1.00  0.00    -0.508 OA
ATOM     25  H   UNL     1      10.584  14.080 -16.318  1.00  0.00     0.293 HD
ENDBRANCH   8  24
TORSDOF 5
ENDMDL
MODEL 2
REMARK VINA RESULT:    -6.573      2.645      4.504
REMARK INTER + INTRA:          -7.992
REMARK INTER:                  -7.677
REMARK INTRA:                  -0.315
REMARK UNBOUND:                -0.266
REMARK SMILES O=c1cc(-c2ccc(O)c(O)c2)oc2cc(O)cc(O)c12
REMARK SMILES IDX 4 1 3 2 2 3 1 4 21 5 19 6 18 7 16 8 15 9 14 10 13 11 5 12
REMARK SMILES IDX 6 13 7 14 8 15 12 16 10 17 9 18 11 20 20 22 17 24
REMARK H PARENT 9 19 11 21 20 23 17 25
REMARK Flexibility Score: inf
ROOT
ATOM      1  C   UNL     1       8.182  11.064 -14.737  1.00  0.00     0.138 A 
ATOM      2  C   UNL     1       8.741  12.254 -14.248  1.00  0.00     0.100 A 
ATOM      3  C   UNL     1       9.273  13.184 -15.141  1.00  0.00     0.197 A 
ATOM      4  O   UNL     1       9.712  14.268 -14.677  1.00  0.00    -0.289 OA
ATOM      5  C   UNL     1       9.274  12.906 -16.529  1.00  0.00     0.107 A 
ATOM      6  C   UNL     1       9.827  13.762 -17.528  1.00  0.00     0.134 A 
ATOM      7  C   UNL     1       9.666  13.437 -18.880  1.00  0.00     0.093 A 
ATOM      8  C   UNL     1       9.027  12.259 -19.268  1.00  0.00     0.123 A 
ATOM      9  C   UNL     1       8.531  11.388 -18.297  1.00  0.00     0.094 A 
ATOM     10  C   UNL     1       8.645  11.702 -16.941  1.00  0.00     0.146 A 
ATOM     11  O   UNL     1       8.146  10.853 -16.049  1.00  0.00    -0.456 OA
ENDROOT
BRANCH   1  12
ATOM     12  C   UNL     1       7.602  10.040 -13.831  1.00  0.00     0.021 A 
ATOM     13  C   UNL     1       7.334  10.317 -12.479  1.00  0.00     0.016 A 
ATOM     14  C   UNL     1       6.798   9.331 -11.648  1.00  0.00     0.051 A 
ATOM     15  C   UNL     1       6.526   8.051 -12.141  1.00  0.00     0.157 A 
ATOM     16  C   UNL     1       7.341   8.749 -14.322  1.00  0.00     0.062 A 
ATOM     17  C   UNL     1       6.804   7.755 -13.495  1.00  0.00     0.158 A 
BRANCH  15  18
ATOM     18  O   UNL     1       5.989   7.112 -11.257  1.00  0.00    -0.504 OA
ATOM     19  H   UNL     1       6.223   7.061 -10.276  1.00  0.00     0.293 HD
ENDBRANCH  15  18
BRANCH  17  20
ATOM     20  O   UNL     1       6.565   6.499 -14.057  1.00  0.00    -0.504 OA
ATOM     21  H   UNL     1       6.912   5.633 -13.671  1.00  0.00     0.293 HD
ENDBRANCH  17  20
ENDBRANCH   1  12
BRANCH   6  22
ATOM     22  O   UNL     1      10.558  14.921 -17.247  1.00  0.00    -0.507 OA
ATOM     23  H   UNL     1      10.899  15.180 -16.335  1.00  0.00     0.293 HD
ENDBRANCH   6  22
BRANCH   8  24
ATOM     24  O   UNL     1       8.900  11.961 -20.622  1.00  0.00    -0.508 OA
ATOM     25  H   UNL     1       8.424  12.589 -21.260  1.00  0.00     0.293 HD
ENDBRANCH   8  24
TORSDOF 5
ENDMDL
MODEL 3
REMARK VINA RESULT:    -6.543      3.302      7.559
REMARK INTER + INTRA:          -7.957
REMARK INTER:                  -7.694
REMARK INTRA:                  -0.262
REMARK UNBOUND:                -0.266
REMARK SMILES O=c1cc(-c2ccc(O)c(O)c2)oc2cc(O)cc(O)c12
REMARK SMILES IDX 4 1 3 2 2 3 1 4 21 5 19 6 18 7 16 8 15 9 14 10 13 11 5 12
REMARK SMILES IDX 6 13 7 14 8 15 12 16 10 17 9 18 11 20 20 22 17 24
REMARK H PARENT 9 19 11 21 20 23 17 25
REMARK Flexibility Score: inf
ROOT
ATOM      1  C   UNL     1       9.625  12.008 -16.630  1.00  0.00     0.138 A 
ATOM      2  C   UNL     1      10.476  10.909 -16.816  1.00  0.00     0.100 A 
ATOM      3  C   UNL     1      10.305   9.765 -16.037  1.00  0.00     0.197 A 
ATOM      4  O   UNL     1      11.045   8.773 -16.269  1.00  0.00    -0.289 OA
ATOM      5  C   UNL     1       9.298   9.733 -15.043  1.00  0.00     0.107 A 
ATOM      6  C   UNL     1       9.059   8.637 -14.161  1.00  0.00     0.134 A 
ATOM      7  C   UNL     1       7.960   8.674 -13.296  1.00  0.00     0.093 A 
ATOM      8  C   UNL     1       7.125   9.790 -13.238  1.00  0.00     0.123 A 
ATOM      9  C   UNL     1       7.381  10.891 -14.057  1.00  0.00     0.094 A 
ATOM     10  C   UNL     1       8.450  10.870 -14.956  1.00  0.00     0.146 A 
ATOM     11  O   UNL     1       8.651  11.932 -15.729  1.00  0.00    -0.456 OA
ENDROOT
BRANCH   1  12
ATOM     12  C   UNL     1       9.762  13.250 -17.433  1.00  0.00     0.021 A 
ATOM     13  C   UNL     1      10.420  14.385 -16.930  1.00  0.00     0.016 A 
ATOM     14  C   UNL     1      10.525  15.543 -17.703  1.00  0.00     0.051 A 
ATOM     15  C   UNL     1       9.971  15.598 -18.986  1.00  0.00     0.157 A 
ATOM     16  C   UNL     1       9.193  13.311 -18.717  1.00  0.00     0.062 A 
ATOM     17  C   UNL     1       9.294  14.468 -19.499  1.00  0.00     0.158 A 
BRANCH  15  18
ATOM     18  O   UNL     1      10.113  16.785 -19.708  1.00  0.00    -0.504 OA
ATOM     19  H   UNL     1      10.056  17.706 -19.296  1.00  0.00     0.293 HD
ENDBRANCH  15  18
BRANCH  17  20
ATOM     20  O   UNL     1       8.711  14.450 -20.767  1.00  0.00    -0.504 OA
ATOM     21  H   UNL     1       9.224  14.289 -21.622  1.00  0.00     0.293 HD
ENDBRANCH  17  20
ENDBRANCH   1  12
BRANCH   6  22
ATOM     22  O   UNL     1       9.881   7.508 -14.078  1.00  0.00    -0.507 OA
ATOM     23  H   UNL     1      10.372   7.212 -13.249  1.00  0.00     0.293 HD
ENDBRANCH   6  22
BRANCH   8  24
ATOM     24  O   UNL     1       6.049   9.797 -12.354  1.00  0.00    -0.508 OA
ATOM     25  H   UNL     1       5.465  10.618 -12.236  1.00  0.00     0.293 HD
ENDBRANCH   8  24
TORSDOF 5
ENDMDL
MODEL 4
REMARK VINA RESULT:    -6.478      3.210      5.753
REMARK INTER + INTRA:          -7.880
REMARK INTER:                  -7.618
REMARK INTRA:                  -0.262
REMARK UNBOUND:                -0.266
REMARK SMILES O=c1cc(-c2ccc(O)c(O)c2)oc2cc(O)cc(O)c12
REMARK SMILES IDX 4 1 3 2 2 3 1 4 21 5 19 6 18 7 16 8 15 9 14 10 13 11 5 12
REMARK SMILES IDX 6 13 7 14 8 15 12 16 10 17 9 18 11 20 20 22 17 24
REMARK H PARENT 9 19 11 21 20 23 17 25
REMARK Flexibility Score: inf
ROOT
ATOM      1  C   UNL     1       9.388  12.094 -16.203  1.00  0.00     0.138 A 
ATOM      2  C   UNL     1      10.359  13.045 -15.856  1.00  0.00     0.100 A 
ATOM      3  C   UNL     1      10.589  14.134 -16.697  1.00  0.00     0.197 A 
ATOM      4  O   UNL     1      11.422  15.002 -16.329  1.00  0.00    -0.289 OA
ATOM      5  C   UNL     1       9.866  14.254 -17.908  1.00  0.00     0.107 A 
ATOM      6  C   UNL     1      10.047  15.299 -18.863  1.00  0.00     0.134 A 
ATOM      7  C   UNL     1       9.193  15.378 -19.969  1.00  0.00     0.093 A 
ATOM      8  C   UNL     1       8.205  14.417 -20.188  1.00  0.00     0.123 A 
ATOM      9  C   UNL     1       8.055  13.360 -19.289  1.00  0.00     0.094 A 
ATOM     10  C   UNL     1       8.869  13.273 -18.157  1.00  0.00     0.146 A 
ATOM     11  O   UNL     1       8.684  12.259 -17.319  1.00  0.00    -0.456 OA
ENDROOT
BRANCH   1  12
ATOM     12  C   UNL     1       9.103  10.916 -15.345  1.00  0.00     0.021 A 
ATOM     13  C   UNL     1       9.678   9.659 -15.600  1.00  0.00     0.016 A 
ATOM     14  C   UNL     1       9.383   8.567 -14.782  1.00  0.00     0.051 A 
ATOM     15  C   UNL     1       8.505   8.700 -13.701  1.00  0.00     0.157 A 
ATOM     16  C   UNL     1       8.210  11.045 -14.267  1.00  0.00     0.062 A 
ATOM     17  C   UNL     1       7.909   9.955 -13.442  1.00  0.00     0.158 A 
BRANCH  15  18
ATOM     18  O   UNL     1       8.255   7.569 -12.921  1.00  0.00    -0.504 OA
ATOM     19  H   UNL     1       7.534   7.517 -12.216  1.00  0.00     0.293 HD
ENDBRANCH  15  18
BRANCH  17  20
ATOM     20  O   UNL     1       7.019  10.163 -12.386  1.00  0.00    -0.504 OA
ATOM     21  H   UNL     1       6.938   9.550 -11.587  1.00  0.00     0.293 HD
ENDBRANCH  17  20
ENDBRANCH   1  12
BRANCH   6  22
ATOM     22  O   UNL     1      11.058  16.262 -18.784  1.00  0.00    -0.507 OA
ATOM     23  H   UNL     1      10.906  17.246 -18.625  1.00  0.00     0.293 HD
ENDBRANCH   6  22
BRANCH   8  24
ATOM     24  O   UNL     1       7.384  14.520 -21.308  1.00  0.00    -0.508 OA
ATOM     25  H   UNL     1       6.465  14.944 -21.254  1.00  0.00     0.293 HD
ENDBRANCH   8  24
TORSDOF 5
ENDMDL
MODEL 5
REMARK VINA RESULT:    -6.462      2.581      7.204
REMARK INTER + INTRA:          -7.862
REMARK INTER:                  -7.592
REMARK INTRA:                  -0.270
REMARK UNBOUND:                -0.266
REMARK SMILES O=c1cc(-c2ccc(O)c(O)c2)oc2cc(O)cc(O)c12
REMARK SMILES IDX 4 1 3 2 2 3 1 4 21 5 19 6 18 7 16 8 15 9 14 10 13 11 5 12
REMARK SMILES IDX 6 13 7 14 8 15 12 16 10 17 9 18 11 20 20 22 17 24
REMARK H PARENT 9 19 11 21 20 23 17 25
REMARK Flexibility Score: inf
ROOT
ATOM      1  C   UNL     1       9.027  12.269 -15.203  1.00  0.00     0.138 A 
ATOM      2  C   UNL     1       8.251  12.667 -14.104  1.00  0.00     0.100 A 
ATOM      3  C   UNL     1       7.698  11.700 -13.265  1.00  0.00     0.197 A 
ATOM      4  O   UNL     1       7.058  12.089 -12.253  1.00  0.00    -0.289 OA
ATOM      5  C   UNL     1       7.895  10.327 -13.546  1.00  0.00     0.107 A 
ATOM      6  C   UNL     1       7.344   9.254 -12.784  1.00  0.00     0.134 A 
ATOM      7  C   UNL     1       7.703   7.936 -13.088  1.00  0.00     0.093 A 
ATOM      8  C   UNL     1       8.544   7.647 -14.163  1.00  0.00     0.123 A 
ATOM      9  C   UNL     1       9.046   8.686 -14.949  1.00  0.00     0.094 A 
ATOM     10  C   UNL     1       8.734  10.014 -14.649  1.00  0.00     0.146 A 
ATOM     11  O   UNL     1       9.243  10.974 -15.413  1.00  0.00    -0.456 OA
ENDROOT
BRANCH   1  12
ATOM     12  C   UNL     1       9.640  13.256 -16.128  1.00  0.00     0.021 A 
ATOM     13  C   UNL     1      10.738  14.045 -15.744  1.00  0.00     0.016 A 
ATOM     14  C   UNL     1      11.286  14.973 -16.632  1.00  0.00     0.051 A 
ATOM     15  C   UNL     1      10.751  15.139 -17.914  1.00  0.00     0.157 A 
ATOM     16  C   UNL     1       9.094  13.434 -17.411  1.00  0.00     0.062 A 
ATOM     17  C   UNL     1       9.638  14.362 -18.307  1.00  0.00     0.158 A 
BRANCH  15  18
ATOM     18  O   UNL     1      11.349  16.082 -18.753  1.00  0.00    -0.504 OA
ATOM     19  H   UNL     1      11.573  17.026 -18.472  1.00  0.00     0.293 HD
ENDBRANCH  15  18
BRANCH  17  20
ATOM     20  O   UNL     1       9.046  14.476 -19.567  1.00  0.00    -0.504 OA
ATOM     21  H   UNL     1       8.792  13.687 -20.144  1.00  0.00     0.293 HD
ENDBRANCH  17  20
ENDBRANCH   1  12
BRANCH   6  22
ATOM     22  O   UNL     1       6.427   9.426 -11.741  1.00  0.00    -0.507 OA
ATOM     23  H   UNL     1       6.082   8.687 -11.149  1.00  0.00     0.293 HD
ENDBRANCH   6  22
BRANCH   8  24
ATOM     24  O   UNL     1       8.868   6.322 -14.445  1.00  0.00    -0.508 OA
ATOM     25  H   UNL     1       9.634   5.853 -13.976  1.00  0.00     0.293 HD
ENDBRANCH   8  24
TORSDOF 5
ENDMDL
MODEL 6
REMARK VINA RESULT:    -6.391      3.705      6.483
REMARK INTER + INTRA:          -7.779
REMARK INTER:                  -7.509
REMARK INTRA:                  -0.270
REMARK UNBOUND:                -0.266
REMARK SMILES O=c1cc(-c2ccc(O)c(O)c2)oc2cc(O)cc(O)c12
REMARK SMILES IDX 4 1 3 2 2 3 1 4 21 5 19 6 18 7 16 8 15 9 14 10 13 11 5 12
REMARK SMILES IDX 6 13 7 14 8 15 12 16 10 17 9 18 11 20 20 22 17 24
REMARK H PARENT 9 19 11 21 20 23 17 25
REMARK Flexibility Score: inf
ROOT
ATOM      1  C   UNL     1       9.335  11.968 -17.950  1.00  0.00     0.138 A 
ATOM      2  C   UNL     1       8.845  11.642 -19.223  1.00  0.00     0.100 A 
ATOM      3  C   UNL     1       8.653  12.651 -20.167  1.00  0.00     0.197 A 
ATOM      4  O   UNL     1       8.271  12.320 -21.320  1.00  0.00    -0.289 OA
ATOM      5  C   UNL     1       8.923  13.997 -19.824  1.00  0.00     0.107 A 
ATOM      6  C   UNL     1       8.725  15.113 -20.691  1.00  0.00     0.134 A 
ATOM      7  C   UNL     1       9.137  16.387 -20.282  1.00  0.00     0.093 A 
ATOM      8  C   UNL     1       9.684  16.596 -19.016  1.00  0.00     0.123 A 
ATOM      9  C   UNL     1       9.831  15.521 -18.139  1.00  0.00     0.094 A 
ATOM     10  C   UNL     1       9.462  14.232 -18.531  1.00  0.00     0.146 A 
ATOM     11  O   UNL     1       9.633  13.233 -17.671  1.00  0.00    -0.456 OA
ENDROOT
BRANCH   1  12
ATOM     12  C   UNL     1       9.557  10.934 -16.908  1.00  0.00     0.021 A 
ATOM     13  C   UNL     1      10.611  10.008 -16.999  1.00  0.00     0.016 A 
ATOM     14  C   UNL     1      10.789   9.040 -16.009  1.00  0.00     0.051 A 
ATOM     15  C   UNL     1       9.921   8.968 -14.914  1.00  0.00     0.157 A 
ATOM     16  C   UNL     1       8.677  10.852 -15.815  1.00  0.00     0.062 A 
ATOM     17  C   UNL     1       8.849   9.884 -14.818  1.00  0.00     0.158 A 
BRANCH  15  18
ATOM     18  O   UNL     1      10.157   7.977 -13.959  1.00  0.00    -0.504 OA
ATOM     19  H   UNL     1      10.191   6.989 -14.166  1.00  0.00     0.293 HD
ENDBRANCH  15  18
BRANCH  17  20
ATOM     20  O   UNL     1       7.939   9.871 -13.759  1.00  0.00    -0.504 OA
ATOM     21  H   UNL     1       6.936   9.844 -13.876  1.00  0.00     0.293 HD
ENDBRANCH  17  20
ENDBRANCH   1  12
BRANCH   6  22
ATOM     22  O   UNL     1       8.111  15.028 -21.945  1.00  0.00    -0.507 OA
ATOM     23  H   UNL     1       7.414  14.346 -22.201  1.00  0.00     0.293 HD
ENDBRANCH   6  22
BRANCH   8  24
ATOM     24  O   UNL     1      10.068  17.880 -18.638  1.00  0.00    -0.508 OA
ATOM     25  H   UNL     1      10.835  18.035 -17.994  1.00  0.00     0.293 HD
ENDBRANCH   8  24
TORSDOF 5
ENDMDL
MODEL 7
REMARK VINA RESULT:    -6.381      3.483      7.919
REMARK INTER + INTRA:          -7.767
REMARK INTER:                  -7.455
REMARK INTRA:                  -0.312
REMARK UNBOUND:                -0.266
REMARK SMILES O=c1cc(-c2ccc(O)c(O)c2)oc2cc(O)cc(O)c12
REMARK SMILES IDX 4 1 3 2 2 3 1 4 21 5 19 6 18 7 16 8 15 9 14 10 13 11 5 12
REMARK SMILES IDX 6 13 7 14 8 15 12 16 10 17 9 18 11 20 20 22 17 24
REMARK H PARENT 9 19 11 21 20 23 17 25
REMARK Flexibility Score: inf
ROOT
ATOM      1  C   UNL     1       8.646  12.777 -18.203  1.00  0.00     0.138 A 
ATOM      2  C   UNL     1       8.592  11.412 -18.522  1.00  0.00     0.100 A 
ATOM      3  C   UNL     1       8.497  10.468 -17.500  1.00  0.00     0.197 A 
ATOM      4  O   UNL     1       8.388   9.255 -17.820  1.00  0.00    -0.289 OA
ATOM      5  C   UNL     1       8.489  10.891 -16.149  1.00  0.00     0.107 A 
ATOM      6  C   UNL     1       8.437  10.015 -15.024  1.00  0.00     0.134 A 
ATOM      7  C   UNL     1       8.318  10.552 -13.736  1.00  0.00     0.093 A 
ATOM      8  C   UNL     1       8.308  11.932 -13.529  1.00  0.00     0.123 A 
ATOM      9  C   UNL     1       8.413  12.798 -14.618  1.00  0.00     0.094 A 
ATOM     10  C   UNL     1       8.498  12.292 -15.918  1.00  0.00     0.146 A 
ATOM     11  O   UNL     1       8.582  13.150 -16.929  1.00  0.00    -0.456 OA
ENDROOT
BRANCH   1  12
ATOM     12  C   UNL     1       8.748  13.823 -19.251  1.00  0.00     0.021 A 
ATOM     13  C   UNL     1       8.388  13.569 -20.586  1.00  0.00     0.016 A 
ATOM     14  C   UNL     1       8.504  14.571 -21.552  1.00  0.00     0.051 A 
ATOM     15  C   UNL     1       8.986  15.839 -21.214  1.00  0.00     0.157 A 
ATOM     16  C   UNL     1       9.246  15.094 -18.915  1.00  0.00     0.062 A 
ATOM     17  C   UNL     1       9.365  16.103 -19.878  1.00  0.00     0.158 A 
BRANCH  15  18
ATOM     18  O   UNL     1       9.075  16.795 -22.228  1.00  0.00    -0.504 OA
ATOM     19  H   UNL     1       9.683  17.601 -22.193  1.00  0.00     0.293 HD
ENDBRANCH  15  18
BRANCH  17  20
ATOM     20  O   UNL     1       9.861  17.342 -19.466  1.00  0.00    -0.504 OA
ATOM     21  H   UNL     1       9.599  17.796 -18.603  1.00  0.00     0.293 HD
ENDBRANCH  17  20
ENDBRANCH   1  12
BRANCH   6  22
ATOM     22  O   UNL     1       8.525   8.622 -15.113  1.00  0.00    -0.507 OA
ATOM     23  H   UNL     1       8.452   8.093 -15.968  1.00  0.00     0.293 HD
ENDBRANCH   6  22
BRANCH   8  24
ATOM     24  O   UNL     1       8.203  12.430 -12.232  1.00  0.00    -0.508 OA
ATOM     25  H   UNL     1       8.742  13.232 -11.928  1.00  0.00     0.293 HD
ENDBRANCH   8  24
TORSDOF 5
ENDMDL
MODEL 8
REMARK VINA RESULT:    -6.346      3.780      7.087
REMARK INTER + INTRA:          -7.725
REMARK INTER:                  -7.418
REMARK INTRA:                  -0.307
REMARK UNBOUND:                -0.266
REMARK SMILES O=c1cc(-c2ccc(O)c(O)c2)oc2cc(O)cc(O)c12
REMARK SMILES IDX 4 1 3 2 2 3 1 4 21 5 19 6 18 7 16 8 15 9 14 10 13 11 5 12
REMARK SMILES IDX 6 13 7 14 8 15 12 16 10 17 9 18 11 20 20 22 17 24
REMARK H PARENT 9 19 11 21 20 23 17 25
REMARK Flexibility Score: inf
ROOT
ATOM      1  C   UNL     1       8.317  12.904 -17.452  1.00  0.00     0.138 A 
ATOM      2  C   UNL     1       8.717  12.308 -18.657  1.00  0.00     0.100 A 
ATOM      3  C   UNL     1       8.846  13.091 -19.805  1.00  0.00     0.197 A 
ATOM      4  O   UNL     1       9.265  12.539 -20.856  1.00  0.00    -0.289 OA
ATOM      5  C   UNL     1       8.541  14.472 -19.753  1.00  0.00     0.107 A 
ATOM      6  C   UNL     1       8.596  15.359 -20.869  1.00  0.00     0.134 A 
ATOM      7  C   UNL     1       8.384  16.729 -20.673  1.00  0.00     0.093 A 
ATOM      8  C   UNL     1       8.061  17.236 -19.414  1.00  0.00     0.123 A 
ATOM      9  C   UNL     1       7.952  16.370 -18.325  1.00  0.00     0.094 A 
ATOM     10  C   UNL     1       8.191  15.002 -18.482  1.00  0.00     0.146 A 
ATOM     11  O   UNL     1       8.091  14.214 -17.418  1.00  0.00    -0.456 OA
ENDROOT
BRANCH   1  12
ATOM     12  C   UNL     1       8.165  12.118 -16.202  1.00  0.00     0.021 A 
ATOM     13  C   UNL     1       7.783  10.766 -16.222  1.00  0.00     0.016 A 
ATOM     14  C   UNL     1       7.637  10.054 -15.029  1.00  0.00     0.051 A 
ATOM     15  C   UNL     1       7.860  10.674 -13.795  1.00  0.00     0.157 A 
ATOM     16  C   UNL     1       8.375  12.744 -14.961  1.00  0.00     0.062 A 
ATOM     17  C   UNL     1       8.230  12.038 -13.760  1.00  0.00     0.158 A 
BRANCH  15  18
ATOM     18  O   UNL     1       7.699   9.905 -12.640  1.00  0.00    -0.504 OA
ATOM     19  H   UNL     1       6.822   9.494 -12.354  1.00  0.00     0.293 HD
ENDBRANCH  15  18
BRANCH  17  20
ATOM     20  O   UNL     1       8.464  12.726 -12.568  1.00  0.00    -0.504 OA
ATOM     21  H   UNL     1       8.285  13.712 -12.441  1.00  0.00     0.293 HD
ENDBRANCH  17  20
ENDBRANCH   1  12
BRANCH   6  22
ATOM     22  O   UNL     1       8.827  14.946 -22.185  1.00  0.00    -0.507 OA
ATOM     23  H   UNL     1       8.390  14.151 -22.625  1.00  0.00     0.293 HD
ENDBRANCH   6  22
BRANCH   8  24
ATOM     24  O   UNL     1       7.843  18.603 -19.260  1.00  0.00    -0.508 OA
ATOM     25  H   UNL     1       6.910  18.997 -19.291  1.00  0.00     0.293 HD
ENDBRANCH   8  24
TORSDOF 5
ENDMDL
MODEL 9
REMARK VINA RESULT:    -6.286      2.439      6.412
REMARK INTER + INTRA:          -7.655
REMARK INTER:                  -7.355
REMARK INTRA:                  -0.300
REMARK UNBOUND:                -0.266
REMARK SMILES O=c1cc(-c2ccc(O)c(O)c2)oc2cc(O)cc(O)c12
REMARK SMILES IDX 4 1 3 2 2 3 1 4 21 5 19 6 18 7 16 8 15 9 14 10 13 11 5 12
REMARK SMILES IDX 6 13 7 14 8 15 12 16 10 17 9 18 11 20 20 22 17 24
REMARK H PARENT 9 19 11 21 20 23 17 25
REMARK Flexibility Score: inf
ROOT
ATOM      1  C   UNL     1       7.964  11.534 -16.194  1.00  0.00     0.138 A 
ATOM      2  C   UNL     1       8.135  12.136 -14.939  1.00  0.00     0.100 A 
ATOM      3  C   UNL     1       7.900  11.394 -13.781  1.00  0.00     0.197 A 
ATOM      4  O   UNL     1       8.121  11.943 -12.670  1.00  0.00    -0.289 OA
ATOM      5  C   UNL     1       7.461  10.052 -13.881  1.00  0.00     0.107 A 
ATOM      6  C   UNL     1       7.152   9.213 -12.769  1.00  0.00     0.134 A 
ATOM      7  C   UNL     1       6.838   7.867 -12.987  1.00  0.00     0.093 A 
ATOM      8  C   UNL     1       6.765   7.343 -14.278  1.00  0.00     0.123 A 
ATOM      9  C   UNL     1       7.013   8.168 -15.376  1.00  0.00     0.094 A 
ATOM     10  C   UNL     1       7.362   9.508 -15.189  1.00  0.00     0.146 A 
ATOM     11  O   UNL     1       7.605  10.256 -16.260  1.00  0.00    -0.456 OA
ENDROOT
BRANCH   1  12
ATOM     12  C   UNL     1       8.200  12.277 -17.458  1.00  0.00     0.021 A 
ATOM     13  C   UNL     1       7.830  13.626 -17.602  1.00  0.00     0.016 A 
ATOM     14  C   UNL     1       8.055  14.296 -18.806  1.00  0.00     0.051 A 
ATOM     15  C   UNL     1       8.643  13.638 -19.891  1.00  0.00     0.157 A 
ATOM     16  C   UNL     1       8.778  11.613 -18.554  1.00  0.00     0.062 A 
ATOM     17  C   UNL     1       9.006  12.279 -19.765  1.00  0.00     0.158 A 
BRANCH  15  18
ATOM     18  O   UNL     1       8.841  14.367 -21.066  1.00  0.00    -0.504 OA
ATOM     19  H   UNL     1       9.051  13.950 -21.961  1.00  0.00     0.293 HD
ENDBRANCH  15  18
BRANCH  17  20
ATOM     20  O   UNL     1       9.593  11.554 -20.805  1.00  0.00    -0.504 OA
ATOM     21  H   UNL     1       9.142  11.373 -21.690  1.00  0.00     0.293 HD
ENDBRANCH  17  20
ENDBRANCH   1  12
BRANCH   6  22
ATOM     22  O   UNL     1       7.113   9.657 -11.443  1.00  0.00    -0.507 OA
ATOM     23  H   UNL     1       6.696  10.522 -11.136  1.00  0.00     0.293 HD
ENDBRANCH   6  22
BRANCH   8  24
ATOM     24  O   UNL     1       6.435   6.002 -14.457  1.00  0.00    -0.508 OA
ATOM     25  H   UNL     1       5.545   5.629 -14.147  1.00  0.00     0.293 HD
ENDBRANCH   8  24
TORSDOF 5
ENDMDL
