MODEL 1
REMARK VINA RESULT:    -4.014      0.000      0.000
REMARK INTER + INTRA:          -6.763
REMARK INTER:                  -6.126
REMARK INTRA:                  -0.637
REMARK UNBOUND:                -0.637
REMARK SMILES O=C([O-])CCCCCCCCC(=O)[O-]
REMARK SMILES IDX 7 1 6 2 5 3 4 4 2 5 1 6 3 7 8 8 9 9 10 10 11 11 12 12 13 13
REMARK SMILES IDX 14 14
REMARK H PARENT
REMARK Flexibility Score: inf
ROOT
ATOM      1  C   UNL     1     -99.133 -62.967 -68.755  1.00  0.00     0.000 C 
ENDROOT
BRANCH   1   2
ATOM      2  C   UNL     1     -98.138 -62.164 -69.607  1.00  0.00     0.000 C 
BRANCH   2   3
ATOM      3  C   UNL     1     -96.837 -62.932 -69.880  1.00  0.00     0.006 C 
BRANCH   3   4
ATOM      4  C   UNL     1     -96.076 -62.392 -71.099  1.00  0.00     0.053 C 
BRANCH   4   5
ATOM      5  C   UNL     1     -95.436 -61.079 -70.776  1.00  0.00     0.041 C 
ATOM      6  O   UNL     1     -95.883 -60.015 -71.279  1.00  0.00    -0.550 OA
ATOM      7  O   UNL     1     -94.314 -61.036 -69.958  1.00  0.00    -0.550 OA
ENDBRANCH   4   5
ENDBRANCH   3   4
ENDBRANCH   2   3
ENDBRANCH   1   2
BRANCH   1   8
ATOM      8  C   UNL     1     -99.963 -62.040 -67.859  1.00  0.00     0.000 C 
BRANCH   8   9
ATOM      9  C   UNL     1     -99.569 -62.201 -66.386  1.00  0.00     0.000 C 
BRANCH   9  10
ATOM     10  C   UNL     1     -99.219 -60.843 -65.759  1.00  0.00     0.006 C 
BRANCH  10  11
ATOM     11  C   UNL     1     -99.361 -59.687 -66.756  1.00  0.00     0.053 C 
BRANCH  11  12
ATOM     12  C   UNL     1     -98.068 -58.954 -66.942  1.00  0.00     0.041 C 
ATOM     13  O   UNL     1     -97.369 -59.151 -67.971  1.00  0.00    -0.550 OA
ATOM     14  O   UNL     1     -97.619 -58.076 -65.963  1.00  0.00    -0.550 OA
ENDBRANCH  11  12
ENDBRANCH  10  11
ENDBRANCH   9  10
ENDBRANCH   8   9
ENDBRANCH   1   8
TORSDOF 9
ENDMDL
MODEL 2
REMARK VINA RESULT:    -3.882      0.815      4.849
REMARK INTER + INTRA:          -6.561
REMARK INTER:                  -5.978
REMARK INTRA:                  -0.584
REMARK UNBOUND:                -0.637
REMARK SMILES O=C([O-])CCCCCCCCC(=O)[O-]
REMARK SMILES IDX 7 1 6 2 5 3 4 4 2 5 1 6 3 7 8 8 9 9 10 10 11 11 12 12 13 13
REMARK SMILES IDX 14 14
REMARK H PARENT
REMARK Flexibility Score: inf
ROOT
ATOM      1  C   UNL     1    -100.025 -62.066 -67.671  1.00  0.00     0.000 C 
ENDROOT
BRANCH   1   2
ATOM      2  C   UNL     1     -99.630 -62.097 -66.187  1.00  0.00     0.000 C 
BRANCH   2   3
ATOM      3  C   UNL     1     -99.127 -60.737 -65.679  1.00  0.00     0.006 C 
BRANCH   3   4
ATOM      4  C   UNL     1     -99.327 -59.613 -66.704  1.00  0.00     0.053 C 
BRANCH   4   5
ATOM      5  C   UNL     1     -98.043 -58.881 -66.933  1.00  0.00     0.041 C 
ATOM      6  O   UNL     1     -97.384 -59.070 -67.990  1.00  0.00    -0.550 OA
ATOM      7  O   UNL     1     -97.545 -58.028 -65.957  1.00  0.00    -0.550 OA
ENDBRANCH   4   5
ENDBRANCH   3   4
ENDBRANCH   2   3
ENDBRANCH   1   2
BRANCH   1   8
ATOM      8  C   UNL     1     -99.141 -63.012 -68.494  1.00  0.00     0.000 C 
BRANCH   8   9
ATOM      9  C   UNL     1     -98.486 -62.272 -69.666  1.00  0.00     0.000 C 
BRANCH   9  10
ATOM     10  C   UNL     1     -97.025 -62.712 -69.847  1.00  0.00     0.006 C 
BRANCH  10  11
ATOM     11  C   UNL     1     -96.142 -61.584 -70.394  1.00  0.00     0.053 C 
BRANCH  11  12
ATOM     12  C   UNL     1     -94.686 -61.921 -70.292  1.00  0.00     0.041 C 
ATOM     13  O   UNL     1     -94.324 -63.038 -69.837  1.00  0.00    -0.550 OA
ATOM     14  O   UNL     1     -93.728 -60.988 -70.670  1.00  0.00    -0.550 OA
ENDBRANCH  11  12
ENDBRANCH  10  11
ENDBRANCH   9  10
ENDBRANCH   8   9
ENDBRANCH   1   8
TORSDOF 9
ENDMDL
MODEL 3
REMARK VINA RESULT:    -3.719      2.768      3.380
REMARK INTER + INTRA:          -6.313
REMARK INTER:                  -5.855
REMARK INTRA:                  -0.458
REMARK UNBOUND:                -0.637
REMARK SMILES O=C([O-])CCCCCCCCC(=O)[O-]
REMARK SMILES IDX 7 1 6 2 5 3 4 4 2 5 1 6 3 7 8 8 9 9 10 10 11 11 12 12 13 13
REMARK SMILES IDX 14 14
REMARK H PARENT
REMARK Flexibility Score: inf
ROOT
ATOM      1  C   UNL     1     -99.852 -62.626 -67.549  1.00  0.00     0.000 C 
ENDROOT
BRANCH   1   2
ATOM      2  C   UNL     1     -99.183 -62.976 -68.888  1.00  0.00     0.000 C 
BRANCH   2   3
ATOM      3  C   UNL     1     -98.098 -61.966 -69.289  1.00  0.00     0.006 C 
BRANCH   3   4
ATOM      4  C   UNL     1     -96.964 -62.608 -70.099  1.00  0.00     0.053 C 
BRANCH   4   5
ATOM      5  C   UNL     1     -95.921 -61.590 -70.436  1.00  0.00     0.041 C 
ATOM      6  O   UNL     1     -94.743 -61.724 -70.011  1.00  0.00    -0.550 OA
ATOM      7  O   UNL     1     -96.261 -60.465 -71.176  1.00  0.00    -0.550 OA
ENDBRANCH   4   5
ENDBRANCH   3   4
ENDBRANCH   2   3
ENDBRANCH   1   2
BRANCH   1   8
ATOM      8  C   UNL     1     -99.986 -61.108 -67.382  1.00  0.00     0.000 C 
BRANCH   8   9
ATOM      9  C   UNL     1     -99.283 -60.630 -66.106  1.00  0.00     0.000 C 
BRANCH   9  10
ATOM     10  C   UNL     1     -99.610 -61.550 -64.919  1.00  0.00     0.006 C 
BRANCH  10  11
ATOM     11  C   UNL     1     -98.356 -61.950 -64.131  1.00  0.00     0.053 C 
BRANCH  11  12
ATOM     12  C   UNL     1     -98.468 -63.338 -63.581  1.00  0.00     0.041 C 
ATOM     13  O   UNL     1     -97.432 -64.023 -63.369  1.00  0.00    -0.550 OA
ATOM     14  O   UNL     1     -99.719 -63.888 -63.330  1.00  0.00    -0.550 OA
ENDBRANCH  11  12
ENDBRANCH  10  11
ENDBRANCH   9  10
ENDBRANCH   8   9
ENDBRANCH   1   8
TORSDOF 9
ENDMDL
MODEL 4
REMARK VINA RESULT:    -3.706      1.677      5.067
REMARK INTER + INTRA:          -6.294
REMARK INTER:                  -5.663
REMARK INTRA:                  -0.630
REMARK UNBOUND:                -0.637
REMARK SMILES O=C([O-])CCCCCCCCC(=O)[O-]
REMARK SMILES IDX 7 1 6 2 5 3 4 4 2 5 1 6 3 7 8 8 9 9 10 10 11 11 12 12 13 13
REMARK SMILES IDX 14 14
REMARK H PARENT
REMARK Flexibility Score: inf
ROOT
ATOM      1  C   UNL     1    -100.667 -60.812 -67.015  1.00  0.00     0.000 C 
ENDROOT
BRANCH   1   2
ATOM      2  C   UNL     1     -99.944 -59.510 -66.637  1.00  0.00     0.000 C 
BRANCH   2   3
ATOM      3  C   UNL     1     -98.422 -59.603 -66.820  1.00  0.00     0.006 C 
BRANCH   3   4
ATOM      4  C   UNL     1     -97.677 -58.419 -66.189  1.00  0.00     0.053 C 
BRANCH   4   5
ATOM      5  C   UNL     1     -96.916 -58.865 -64.981  1.00  0.00     0.041 C 
ATOM      6  O   UNL     1     -95.999 -58.144 -64.508  1.00  0.00    -0.550 OA
ATOM      7  O   UNL     1     -97.186 -60.100 -64.406  1.00  0.00    -0.550 OA
ENDBRANCH   4   5
ENDBRANCH   3   4
ENDBRANCH   2   3
ENDBRANCH   1   2
BRANCH   1   8
ATOM      8  C   UNL     1     -99.682 -61.984 -67.097  1.00  0.00     0.000 C 
BRANCH   8   9
ATOM      9  C   UNL     1     -99.856 -62.760 -68.408  1.00  0.00     0.000 C 
BRANCH   9  10
ATOM     10  C   UNL     1     -98.496 -63.066 -69.052  1.00  0.00     0.006 C 
BRANCH  10  11
ATOM     11  C   UNL     1     -97.917 -61.855 -69.795  1.00  0.00     0.053 C 
BRANCH  11  12
ATOM     12  C   UNL     1     -96.741 -62.234 -70.640  1.00  0.00     0.041 C 
ATOM     13  O   UNL     1     -95.925 -63.106 -70.239  1.00  0.00    -0.550 OA
ATOM     14  O   UNL     1     -96.527 -61.601 -71.858  1.00  0.00    -0.550 OA
ENDBRANCH  11  12
ENDBRANCH  10  11
ENDBRANCH   9  10
ENDBRANCH   8   9
ENDBRANCH   1   8
TORSDOF 9
ENDMDL
MODEL 5
REMARK VINA RESULT:    -3.656      1.713      5.609
REMARK INTER + INTRA:          -6.216
REMARK INTER:                  -5.822
REMARK INTRA:                  -0.394
REMARK UNBOUND:                -0.637
REMARK SMILES O=C([O-])CCCCCCCCC(=O)[O-]
REMARK SMILES IDX 7 1 6 2 5 3 4 4 2 5 1 6 3 7 8 8 9 9 10 10 11 11 12 12 13 13
REMARK SMILES IDX 14 14
REMARK H PARENT
REMARK Flexibility Score: inf
ROOT
ATOM      1  C   UNL     1     -98.403 -62.163 -69.633  1.00  0.00     0.000 C 
ENDROOT
BRANCH   1   2
ATOM      2  C   UNL     1     -99.045 -63.052 -68.557  1.00  0.00     0.000 C 
BRANCH   2   3
ATOM      3  C   UNL     1    -100.169 -62.338 -67.792  1.00  0.00     0.006 C 
BRANCH   3   4
ATOM      4  C   UNL     1     -99.670 -61.652 -66.513  1.00  0.00     0.053 C 
BRANCH   4   5
ATOM      5  C   UNL     1    -100.167 -60.243 -66.449  1.00  0.00     0.041 C 
ATOM      6  O   UNL     1    -101.353 -60.003 -66.100  1.00  0.00    -0.550 OA
ATOM      7  O   UNL     1     -99.335 -59.195 -66.823  1.00  0.00    -0.550 OA
ENDBRANCH   4   5
ENDBRANCH   3   4
ENDBRANCH   2   3
ENDBRANCH   1   2
BRANCH   1   8
ATOM      8  C   UNL     1     -97.002 -62.667 -70.000  1.00  0.00     0.000 C 
BRANCH   8   9
ATOM      9  C   UNL     1     -96.443 -61.910 -71.210  1.00  0.00     0.000 C 
BRANCH   9  10
ATOM     10  C   UNL     1     -95.480 -60.798 -70.767  1.00  0.00     0.006 C 
BRANCH  10  11
ATOM     11  C   UNL     1     -94.014 -61.153 -71.045  1.00  0.00     0.053 C 
BRANCH  11  12
ATOM     12  C   UNL     1     -93.370 -61.812 -69.864  1.00  0.00     0.041 C 
ATOM     13  O   UNL     1     -93.300 -63.068 -69.798  1.00  0.00    -0.550 OA
ATOM     14  O   UNL     1     -92.875 -61.040 -68.821  1.00  0.00    -0.550 OA
ENDBRANCH  11  12
ENDBRANCH  10  11
ENDBRANCH   9  10
ENDBRANCH   8   9
ENDBRANCH   1   8
TORSDOF 9
ENDMDL
MODEL 6
REMARK VINA RESULT:    -3.439      2.194      5.693
REMARK INTER + INTRA:          -5.886
REMARK INTER:                  -5.417
REMARK INTRA:                  -0.468
REMARK UNBOUND:                -0.637
REMARK SMILES O=C([O-])CCCCCCCCC(=O)[O-]
REMARK SMILES IDX 7 1 6 2 5 3 4 4 2 5 1 6 3 7 8 8 9 9 10 10 11 11 12 12 13 13
REMARK SMILES IDX 14 14
REMARK H PARENT
REMARK Flexibility Score: inf
ROOT
ATOM      1  C   UNL     1     -99.924 -62.593 -67.791  1.00  0.00     0.000 C 
ENDROOT
BRANCH   1   2
ATOM      2  C   UNL     1     -99.613 -61.188 -67.253  1.00  0.00     0.000 C 
BRANCH   2   3
ATOM      3  C   UNL     1     -99.775 -61.088 -65.729  1.00  0.00     0.006 C 
BRANCH   3   4
ATOM      4  C   UNL     1     -99.494 -62.417 -65.016  1.00  0.00     0.053 C 
BRANCH   4   5
ATOM      5  C   UNL     1     -98.332 -62.274 -64.084  1.00  0.00     0.041 C 
ATOM      6  O   UNL     1     -97.668 -61.204 -64.057  1.00  0.00    -0.550 OA
ATOM      7  O   UNL     1     -97.949 -63.341 -63.282  1.00  0.00    -0.550 OA
ENDBRANCH   4   5
ENDBRANCH   3   4
ENDBRANCH   2   3
ENDBRANCH   1   2
BRANCH   1   8
ATOM      8  C   UNL     1     -99.016 -62.942 -68.975  1.00  0.00     0.000 C 
BRANCH   8   9
ATOM      9  C   UNL     1     -97.875 -61.927 -69.113  1.00  0.00     0.000 C 
BRANCH   9  10
ATOM     10  C   UNL     1     -96.989 -62.255 -70.324  1.00  0.00     0.006 C 
BRANCH  10  11
ATOM     11  C   UNL     1     -96.244 -61.023 -70.850  1.00  0.00     0.053 C 
BRANCH  11  12
ATOM     12  C   UNL     1     -94.817 -61.337 -71.180  1.00  0.00     0.041 C 
ATOM     13  O   UNL     1     -93.897 -61.034 -70.375  1.00  0.00    -0.550 OA
ATOM     14  O   UNL     1     -94.500 -61.937 -72.392  1.00  0.00    -0.550 OA
ENDBRANCH  11  12
ENDBRANCH  10  11
ENDBRANCH   9  10
ENDBRANCH   8   9
ENDBRANCH   1   8
TORSDOF 9
ENDMDL
MODEL 7
REMARK VINA RESULT:    -3.248     13.376     14.529
REMARK INTER + INTRA:          -5.594
REMARK INTER:                  -4.588
REMARK INTRA:                  -1.006
REMARK UNBOUND:                -0.637
REMARK SMILES O=C([O-])CCCCCCCCC(=O)[O-]
REMARK SMILES IDX 7 1 6 2 5 3 4 4 2 5 1 6 3 7 8 8 9 9 10 10 11 11 12 12 13 13
REMARK SMILES IDX 14 14
REMARK H PARENT
REMARK Flexibility Score: inf
ROOT
ATOM      1  C   UNL     1     -94.009 -46.867 -68.869  1.00  0.00     0.000 C 
ENDROOT
BRANCH   1   2
ATOM      2  C   UNL     1     -93.460 -46.116 -70.092  1.00  0.00     0.000 C 
BRANCH   2   3
ATOM      3  C   UNL     1     -93.503 -46.961 -71.374  1.00  0.00     0.006 C 
BRANCH   3   4
ATOM      4  C   UNL     1     -94.426 -48.181 -71.247  1.00  0.00     0.053 C 
BRANCH   4   5
ATOM      5  C   UNL     1     -94.975 -48.561 -72.586  1.00  0.00     0.041 C 
ATOM      6  O   UNL     1     -95.389 -47.674 -73.377  1.00  0.00    -0.550 OA
ATOM      7  O   UNL     1     -95.078 -49.900 -72.940  1.00  0.00    -0.550 OA
ENDBRANCH   4   5
ENDBRANCH   3   4
ENDBRANCH   2   3
ENDBRANCH   1   2
BRANCH   1   8
ATOM      8  C   UNL     1     -95.023 -46.006 -68.105  1.00  0.00     0.000 C 
BRANCH   8   9
ATOM      9  C   UNL     1     -96.016 -45.342 -69.066  1.00  0.00     0.000 C 
BRANCH   9  10
ATOM     10  C   UNL     1     -97.167 -46.297 -69.416  1.00  0.00     0.006 C 
BRANCH  10  11
ATOM     11  C   UNL     1     -97.543 -46.234 -70.902  1.00  0.00     0.053 C 
BRANCH  11  12
ATOM     12  C   UNL     1     -98.689 -47.143 -71.221  1.00  0.00     0.041 C 
ATOM     13  O   UNL     1     -98.519 -48.140 -71.972  1.00  0.00    -0.550 OA
ATOM     14  O   UNL     1     -99.954 -46.871 -70.715  1.00  0.00    -0.550 OA
ENDBRANCH  11  12
ENDBRANCH  10  11
ENDBRANCH   9  10
ENDBRANCH   8   9
ENDBRANCH   1   8
TORSDOF 9
ENDMDL
MODEL 8
REMARK VINA RESULT:    -3.241     13.487     15.043
REMARK INTER + INTRA:          -5.584
REMARK INTER:                  -4.578
REMARK INTRA:                  -1.006
REMARK UNBOUND:                -0.637
REMARK SMILES O=C([O-])CCCCCCCCC(=O)[O-]
REMARK SMILES IDX 7 1 6 2 5 3 4 4 2 5 1 6 3 7 8 8 9 9 10 10 11 11 12 12 13 13
REMARK SMILES IDX 14 14
REMARK H PARENT
REMARK Flexibility Score: inf
ROOT
ATOM      1  C   UNL     1     -95.042 -46.114 -68.032  1.00  0.00     0.000 C 
ENDROOT
BRANCH   1   2
ATOM      2  C   UNL     1     -96.040 -45.420 -68.971  1.00  0.00     0.000 C 
BRANCH   2   3
ATOM      3  C   UNL     1     -97.217 -46.326 -69.360  1.00  0.00     0.006 C 
BRANCH   3   4
ATOM      4  C   UNL     1     -97.536 -46.270 -70.860  1.00  0.00     0.053 C 
BRANCH   4   5
ATOM      5  C   UNL     1     -98.640 -47.222 -71.196  1.00  0.00     0.041 C 
ATOM      6  O   UNL     1     -98.421 -48.208 -71.947  1.00  0.00    -0.550 OA
ATOM      7  O   UNL     1     -99.925 -46.993 -70.720  1.00  0.00    -0.550 OA
ENDBRANCH   4   5
ENDBRANCH   3   4
ENDBRANCH   2   3
ENDBRANCH   1   2
BRANCH   1   8
ATOM      8  C   UNL     1     -93.976 -46.876 -68.829  1.00  0.00     0.000 C 
BRANCH   8   9
ATOM      9  C   UNL     1     -93.427 -46.019 -69.975  1.00  0.00     0.000 C 
BRANCH   9  10
ATOM     10  C   UNL     1     -93.499 -46.773 -71.311  1.00  0.00     0.006 C 
BRANCH  10  11
ATOM     11  C   UNL     1     -94.326 -48.061 -71.208  1.00  0.00     0.053 C 
BRANCH  11  12
ATOM     12  C   UNL     1     -94.911 -48.450 -72.531  1.00  0.00     0.041 C 
ATOM     13  O   UNL     1     -94.987 -49.663 -72.859  1.00  0.00    -0.550 OA
ATOM     14  O   UNL     1     -95.346 -47.469 -73.414  1.00  0.00    -0.550 OA
ENDBRANCH  11  12
ENDBRANCH  10  11
ENDBRANCH   9  10
ENDBRANCH   8   9
ENDBRANCH   1   8
TORSDOF 9
ENDMDL
MODEL 9
REMARK VINA RESULT:    -3.081     13.656     14.932
REMARK INTER + INTRA:          -5.340
REMARK INTER:                  -4.789
REMARK INTRA:                  -0.550
REMARK UNBOUND:                -0.637
REMARK SMILES O=C([O-])CCCCCCCCC(=O)[O-]
REMARK SMILES IDX 7 1 6 2 5 3 4 4 2 5 1 6 3 7 8 8 9 9 10 10 11 11 12 12 13 13
REMARK SMILES IDX 14 14
REMARK H PARENT
REMARK Flexibility Score: inf
ROOT
ATOM      1  C   UNL     1     -98.451 -46.885 -69.566  1.00  0.00     0.000 C 
ENDROOT
BRANCH   1   2
ATOM      2  C   UNL     1     -97.963 -46.917 -71.023  1.00  0.00     0.000 C 
BRANCH   2   3
ATOM      3  C   UNL     1     -98.642 -48.018 -71.851  1.00  0.00     0.006 C 
BRANCH   3   4
ATOM      4  C   UNL     1     -99.369 -47.466 -73.085  1.00  0.00     0.053 C 
BRANCH   4   5
ATOM      5  C   UNL     1    -100.848 -47.467 -72.862  1.00  0.00     0.041 C 
ATOM      6  O   UNL     1    -101.324 -47.095 -71.757  1.00  0.00    -0.550 OA
ATOM      7  O   UNL     1    -101.701 -47.926 -73.858  1.00  0.00    -0.550 OA
ENDBRANCH   4   5
ENDBRANCH   3   4
ENDBRANCH   2   3
ENDBRANCH   1   2
BRANCH   1   8
ATOM      8  C   UNL     1     -97.543 -46.003 -68.701  1.00  0.00     0.000 C 
BRANCH   8   9
ATOM      9  C   UNL     1     -96.260 -45.631 -69.452  1.00  0.00     0.000 C 
BRANCH   9  10
ATOM     10  C   UNL     1     -95.039 -45.694 -68.522  1.00  0.00     0.006 C 
BRANCH  10  11
ATOM     11  C   UNL     1     -94.200 -46.958 -68.748  1.00  0.00     0.053 C 
BRANCH  11  12
ATOM     12  C   UNL     1     -93.793 -47.103 -70.182  1.00  0.00     0.041 C 
ATOM     13  O   UNL     1     -94.229 -48.062 -70.872  1.00  0.00    -0.550 OA
ATOM     14  O   UNL     1     -92.906 -46.196 -70.748  1.00  0.00    -0.550 OA
ENDBRANCH  11  12
ENDBRANCH  10  11
ENDBRANCH   9  10
ENDBRANCH   8   9
ENDBRANCH   1   8
TORSDOF 9
ENDMDL
