MODEL 1
REMARK VINA RESULT:    -5.710      0.000      0.000
REMARK INTER + INTRA:          -7.910
REMARK INTER:                  -7.212
REMARK INTRA:                  -0.698
REMARK UNBOUND:                -0.698
REMARK SMILES O=C(C=Cc1ccc(O)cc1)c1ccc(O)cc1O
REMARK SMILES IDX 4 1 3 2 5 3 6 4 7 5 8 6 11 7 10 8 9 9 2 11 1 12 12 13 18 14
REMARK SMILES IDX 13 15 17 16 14 17 15 18 19 19 16 21
REMARK H PARENT 9 10 19 20 16 22
REMARK Flexibility Score: inf
ROOT
ATOM      1  C   UNL     1      25.315  27.646 -14.534  1.00  0.00     0.012 C 
ATOM      2  C   UNL     1      24.606  28.529 -13.817  1.00  0.00     0.053 C 
ENDROOT
BRANCH   1   3
ATOM      3  C   UNL     1      24.812  26.303 -14.916  1.00  0.00    -0.025 A 
ATOM      4  C   UNL     1      25.538  25.121 -14.662  1.00  0.00     0.012 A 
ATOM      5  C   UNL     1      25.026  23.880 -15.053  1.00  0.00     0.047 A 
ATOM      6  C   UNL     1      23.795  23.799 -15.709  1.00  0.00     0.115 A 
ATOM      7  C   UNL     1      23.583  26.212 -15.591  1.00  0.00     0.012 A 
ATOM      8  C   UNL     1      23.074  24.969 -15.979  1.00  0.00     0.047 A 
BRANCH   6   9
ATOM      9  O   UNL     1      23.298  22.554 -16.091  1.00  0.00    -0.508 OA
ATOM     10  H   UNL     1      23.385  21.742 -15.491  1.00  0.00     0.293 HD
ENDBRANCH   6   9
ENDBRANCH   1   3
BRANCH   2  11
ATOM     11  C   UNL     1      25.135  29.865 -13.466  1.00  0.00     0.189 C 
ATOM     12  O   UNL     1      24.428  30.894 -13.646  1.00  0.00    -0.289 OA
BRANCH  11  13
ATOM     13  C   UNL     1      26.508  30.009 -12.933  1.00  0.00     0.064 A 
ATOM     14  C   UNL     1      27.583  30.453 -13.743  1.00  0.00     0.130 A 
ATOM     15  C   UNL     1      26.762  29.656 -11.596  1.00  0.00     0.020 A 
ATOM     16  C   UNL     1      28.878  30.502 -13.212  1.00  0.00     0.093 A 
ATOM     17  C   UNL     1      28.056  29.724 -11.075  1.00  0.00     0.047 A 
ATOM     18  C   UNL     1      29.117  30.141 -11.881  1.00  0.00     0.119 A 
BRANCH  14  19
ATOM     19  O   UNL     1      27.398  30.879 -15.061  1.00  0.00    -0.507 OA
ATOM     20  H   UNL     1      28.124  31.322 -15.607  1.00  0.00     0.293 HD
ENDBRANCH  14  19
BRANCH  18  21
ATOM     21  O   UNL     1      30.403  30.196 -11.351  1.00  0.00    -0.508 OA
ATOM     22  H   UNL     1      30.707  29.554 -10.628  1.00  0.00     0.293 HD
ENDBRANCH  18  21
ENDBRANCH  11  13
ENDBRANCH   2  11
TORSDOF 6
ENDMDL
MODEL 2
REMARK VINA RESULT:    -5.705      2.821      4.075
REMARK INTER + INTRA:          -7.904
REMARK INTER:                  -7.311
REMARK INTRA:                  -0.593
REMARK UNBOUND:                -0.698
REMARK SMILES O=C(C=Cc1ccc(O)cc1)c1ccc(O)cc1O
REMARK SMILES IDX 4 1 3 2 5 3 6 4 7 5 8 6 11 7 10 8 9 9 2 11 1 12 12 13 18 14
REMARK SMILES IDX 13 15 17 16 14 17 15 18 19 19 16 21
REMARK H PARENT 9 10 19 20 16 22
REMARK Flexibility Score: inf
ROOT
ATOM      1  C   UNL     1      26.965  27.586 -12.593  1.00  0.00     0.012 C 
ATOM      2  C   UNL     1      27.392  28.412 -11.627  1.00  0.00     0.053 C 
ENDROOT
BRANCH   1   3
ATOM      3  C   UNL     1      26.849  26.116 -12.427  1.00  0.00    -0.025 A 
ATOM      4  C   UNL     1      26.275  25.526 -11.283  1.00  0.00     0.012 A 
ATOM      5  C   UNL     1      26.199  24.134 -11.169  1.00  0.00     0.047 A 
ATOM      6  C   UNL     1      26.701  23.314 -12.183  1.00  0.00     0.115 A 
ATOM      7  C   UNL     1      27.366  25.283 -13.434  1.00  0.00     0.012 A 
ATOM      8  C   UNL     1      27.287  23.892 -13.316  1.00  0.00     0.047 A 
BRANCH   6   9
ATOM      9  O   UNL     1      26.617  21.930 -12.054  1.00  0.00    -0.508 OA
ATOM     10  H   UNL     1      25.943  21.495 -11.437  1.00  0.00     0.293 HD
ENDBRANCH   6   9
ENDBRANCH   1   3
BRANCH   2  11
ATOM     11  C   UNL     1      27.482  29.875 -11.824  1.00  0.00     0.189 C 
ATOM     12  O   UNL     1      28.364  30.544 -11.220  1.00  0.00    -0.289 OA
BRANCH  11  13
ATOM     13  C   UNL     1      26.517  30.571 -12.705  1.00  0.00     0.064 A 
ATOM     14  C   UNL     1      26.811  30.851 -14.063  1.00  0.00     0.130 A 
ATOM     15  C   UNL     1      25.290  31.002 -12.170  1.00  0.00     0.020 A 
ATOM     16  C   UNL     1      25.896  31.578 -14.835  1.00  0.00     0.093 A 
ATOM     17  C   UNL     1      24.380  31.712 -12.957  1.00  0.00     0.047 A 
ATOM     18  C   UNL     1      24.681  32.006 -14.287  1.00  0.00     0.119 A 
BRANCH  14  19
ATOM     19  O   UNL     1      27.981  30.403 -14.681  1.00  0.00    -0.507 OA
ATOM     20  H   UNL     1      28.895  30.787 -14.483  1.00  0.00     0.293 HD
ENDBRANCH  14  19
BRANCH  18  21
ATOM     21  O   UNL     1      23.768  32.722 -15.057  1.00  0.00    -0.508 OA
ATOM     22  H   UNL     1      24.018  33.601 -15.494  1.00  0.00     0.293 HD
ENDBRANCH  18  21
ENDBRANCH  11  13
ENDBRANCH   2  11
TORSDOF 6
ENDMDL
MODEL 3
REMARK VINA RESULT:    -5.697      2.128      2.815
REMARK INTER + INTRA:          -7.894
REMARK INTER:                  -7.240
REMARK INTRA:                  -0.654
REMARK UNBOUND:                -0.698
REMARK SMILES O=C(C=Cc1ccc(O)cc1)c1ccc(O)cc1O
REMARK SMILES IDX 4 1 3 2 5 3 6 4 7 5 8 6 11 7 10 8 9 9 2 11 1 12 12 13 18 14
REMARK SMILES IDX 13 15 17 16 14 17 15 18 19 19 16 21
REMARK H PARENT 9 10 19 20 16 22
REMARK Flexibility Score: inf
ROOT
ATOM      1  C   UNL     1      26.806  25.955 -13.611  1.00  0.00     0.012 C 
ATOM      2  C   UNL     1      25.788  26.826 -13.634  1.00  0.00     0.053 C 
ENDROOT
BRANCH   1   3
ATOM      3  C   UNL     1      26.635  24.494 -13.414  1.00  0.00    -0.025 A 
ATOM      4  C   UNL     1      25.707  23.733 -14.154  1.00  0.00     0.012 A 
ATOM      5  C   UNL     1      25.575  22.360 -13.923  1.00  0.00     0.047 A 
ATOM      6  C   UNL     1      26.353  21.730 -12.949  1.00  0.00     0.115 A 
ATOM      7  C   UNL     1      27.401  23.854 -12.425  1.00  0.00     0.012 A 
ATOM      8  C   UNL     1      27.266  22.481 -12.198  1.00  0.00     0.047 A 
BRANCH   6   9
ATOM      9  O   UNL     1      26.209  20.362 -12.731  1.00  0.00    -0.508 OA
ATOM     10  H   UNL     1      26.137  19.978 -11.797  1.00  0.00     0.293 HD
ENDBRANCH   6   9
ENDBRANCH   1   3
BRANCH   2  11
ATOM     11  C   UNL     1      25.996  28.275 -13.847  1.00  0.00     0.189 C 
ATOM     12  O   UNL     1      25.329  28.890 -14.724  1.00  0.00    -0.289 OA
BRANCH  11  13
ATOM     13  C   UNL     1      27.009  29.008 -13.057  1.00  0.00     0.064 A 
ATOM     14  C   UNL     1      27.926  29.904 -13.662  1.00  0.00     0.130 A 
ATOM     15  C   UNL     1      27.092  28.780 -11.672  1.00  0.00     0.020 A 
ATOM     16  C   UNL     1      28.915  30.518 -12.882  1.00  0.00     0.093 A 
ATOM     17  C   UNL     1      28.074  29.411 -10.904  1.00  0.00     0.047 A 
ATOM     18  C   UNL     1      28.990  30.276 -11.505  1.00  0.00     0.119 A 
BRANCH  14  19
ATOM     19  O   UNL     1      27.867  30.228 -15.020  1.00  0.00    -0.507 OA
ATOM     20  H   UNL     1      27.374  31.036 -15.376  1.00  0.00     0.293 HD
ENDBRANCH  14  19
BRANCH  18  21
ATOM     21  O   UNL     1      29.968  30.891 -10.729  1.00  0.00    -0.508 OA
ATOM     22  H   UNL     1      29.753  31.682 -10.135  1.00  0.00     0.293 HD
ENDBRANCH  18  21
ENDBRANCH  11  13
ENDBRANCH   2  11
TORSDOF 6
ENDMDL
MODEL 4
REMARK VINA RESULT:    -5.614      3.195      4.003
REMARK INTER + INTRA:          -7.790
REMARK INTER:                  -7.134
REMARK INTRA:                  -0.655
REMARK UNBOUND:                -0.698
REMARK SMILES O=C(C=Cc1ccc(O)cc1)c1ccc(O)cc1O
REMARK SMILES IDX 4 1 3 2 5 3 6 4 7 5 8 6 11 7 10 8 9 9 2 11 1 12 12 13 18 14
REMARK SMILES IDX 13 15 17 16 14 17 15 18 19 19 16 21
REMARK H PARENT 9 10 19 20 16 22
REMARK Flexibility Score: inf
ROOT
ATOM      1  C   UNL     1      26.098  24.537 -13.188  1.00  0.00     0.012 C 
ATOM      2  C   UNL     1      27.022  25.506 -13.117  1.00  0.00     0.053 C 
ENDROOT
BRANCH   1   3
ATOM      3  C   UNL     1      26.337  23.138 -12.753  1.00  0.00    -0.025 A 
ATOM      4  C   UNL     1      25.468  22.081 -13.090  1.00  0.00     0.012 A 
ATOM      5  C   UNL     1      25.731  20.781 -12.646  1.00  0.00     0.047 A 
ATOM      6  C   UNL     1      26.852  20.519 -11.854  1.00  0.00     0.115 A 
ATOM      7  C   UNL     1      27.454  22.867 -11.944  1.00  0.00     0.012 A 
ATOM      8  C   UNL     1      27.713  21.566 -11.502  1.00  0.00     0.047 A 
BRANCH   6   9
ATOM      9  O   UNL     1      27.101  19.219 -11.421  1.00  0.00    -0.508 OA
ATOM     10  H   UNL     1      27.365  18.485 -12.067  1.00  0.00     0.293 HD
ENDBRANCH   6   9
ENDBRANCH   1   3
BRANCH   2  11
ATOM     11  C   UNL     1      26.743  26.893 -13.546  1.00  0.00     0.189 C 
ATOM     12  O   UNL     1      26.280  27.120 -14.698  1.00  0.00    -0.289 OA
BRANCH  11  13
ATOM     13  C   UNL     1      27.035  28.028 -12.643  1.00  0.00     0.064 A 
ATOM     14  C   UNL     1      27.400  29.305 -13.138  1.00  0.00     0.130 A 
ATOM     15  C   UNL     1      26.987  27.825 -11.252  1.00  0.00     0.020 A 
ATOM     16  C   UNL     1      27.739  30.327 -12.242  1.00  0.00     0.093 A 
ATOM     17  C   UNL     1      27.313  28.858 -10.370  1.00  0.00     0.047 A 
ATOM     18  C   UNL     1      27.694  30.107 -10.860  1.00  0.00     0.119 A 
BRANCH  14  19
ATOM     19  O   UNL     1      27.410  29.601 -14.504  1.00  0.00    -0.507 OA
ATOM     20  H   UNL     1      26.576  29.607 -15.076  1.00  0.00     0.293 HD
ENDBRANCH  14  19
BRANCH  18  21
ATOM     21  O   UNL     1      28.024  31.125  -9.969  1.00  0.00    -0.508 OA
ATOM     22  H   UNL     1      28.108  30.952  -8.975  1.00  0.00     0.293 HD
ENDBRANCH  18  21
ENDBRANCH  11  13
ENDBRANCH   2  11
TORSDOF 6
ENDMDL
MODEL 5
REMARK VINA RESULT:    -5.602      3.884      6.382
REMARK INTER + INTRA:          -7.775
REMARK INTER:                  -7.100
REMARK INTRA:                  -0.674
REMARK UNBOUND:                -0.698
REMARK SMILES O=C(C=Cc1ccc(O)cc1)c1ccc(O)cc1O
REMARK SMILES IDX 4 1 3 2 5 3 6 4 7 5 8 6 11 7 10 8 9 9 2 11 1 12 12 13 18 14
REMARK SMILES IDX 13 15 17 16 14 17 15 18 19 19 16 21
REMARK H PARENT 9 10 19 20 16 22
REMARK Flexibility Score: inf
ROOT
ATOM      1  C   UNL     1      23.079  30.644 -11.780  1.00  0.00     0.012 C 
ATOM      2  C   UNL     1      24.006  31.214 -12.564  1.00  0.00     0.053 C 
ENDROOT
BRANCH   1   3
ATOM      3  C   UNL     1      22.025  31.405 -11.065  1.00  0.00    -0.025 A 
ATOM      4  C   UNL     1      20.655  31.269 -11.368  1.00  0.00     0.012 A 
ATOM      5  C   UNL     1      19.700  32.018 -10.673  1.00  0.00     0.047 A 
ATOM      6  C   UNL     1      20.095  32.917  -9.679  1.00  0.00     0.115 A 
ATOM      7  C   UNL     1      22.413  32.324 -10.076  1.00  0.00     0.012 A 
ATOM      8  C   UNL     1      21.454  33.071  -9.383  1.00  0.00     0.047 A 
BRANCH   6   9
ATOM      9  O   UNL     1      19.131  33.655  -8.996  1.00  0.00    -0.508 OA
ATOM     10  H   UNL     1      18.786  33.366  -8.088  1.00  0.00     0.293 HD
ENDBRANCH   6   9
ENDBRANCH   1   3
BRANCH   2  11
ATOM     11  C   UNL     1      25.034  30.422 -13.273  1.00  0.00     0.189 C 
ATOM     12  O   UNL     1      24.716  29.717 -14.270  1.00  0.00    -0.289 OA
BRANCH  11  13
ATOM     13  C   UNL     1      26.435  30.422 -12.800  1.00  0.00     0.064 A 
ATOM     14  C   UNL     1      27.528  30.528 -13.696  1.00  0.00     0.130 A 
ATOM     15  C   UNL     1      26.693  30.274 -11.425  1.00  0.00     0.020 A 
ATOM     16  C   UNL     1      28.838  30.449 -13.206  1.00  0.00     0.093 A 
ATOM     17  C   UNL     1      28.005  30.213 -10.949  1.00  0.00     0.047 A 
ATOM     18  C   UNL     1      29.079  30.294 -11.836  1.00  0.00     0.119 A 
BRANCH  14  19
ATOM     19  O   UNL     1      27.353  30.738 -15.066  1.00  0.00    -0.507 OA
ATOM     20  H   UNL     1      28.104  31.008 -15.686  1.00  0.00     0.293 HD
ENDBRANCH  14  19
BRANCH  18  21
ATOM     21  O   UNL     1      30.381  30.223 -11.348  1.00  0.00    -0.508 OA
ATOM     22  H   UNL     1      30.697  29.437 -10.792  1.00  0.00     0.293 HD
ENDBRANCH  18  21
ENDBRANCH  11  13
ENDBRANCH   2  11
TORSDOF 6
ENDMDL
MODEL 6
REMARK VINA RESULT:    -5.495      3.004      7.708
REMARK INTER + INTRA:          -7.638
REMARK INTER:                  -6.986
REMARK INTRA:                  -0.652
REMARK UNBOUND:                -0.698
REMARK SMILES O=C(C=Cc1ccc(O)cc1)c1ccc(O)cc1O
REMARK SMILES IDX 4 1 3 2 5 3 6 4 7 5 8 6 11 7 10 8 9 9 2 11 1 12 12 13 18 14
REMARK SMILES IDX 13 15 17 16 14 17 15 18 19 19 16 21
REMARK H PARENT 9 10 19 20 16 22
REMARK Flexibility Score: inf
ROOT
ATOM      1  C   UNL     1      26.487  26.710 -12.505  1.00  0.00     0.012 C 
ATOM      2  C   UNL     1      27.077  25.895 -13.392  1.00  0.00     0.053 C 
ENDROOT
BRANCH   1   3
ATOM      3  C   UNL     1      27.136  27.919 -11.941  1.00  0.00    -0.025 A 
ATOM      4  C   UNL     1      27.036  28.266 -10.578  1.00  0.00     0.012 A 
ATOM      5  C   UNL     1      27.656  29.423 -10.096  1.00  0.00     0.047 A 
ATOM      6  C   UNL     1      28.373  30.253 -10.963  1.00  0.00     0.115 A 
ATOM      7  C   UNL     1      27.845  28.768 -12.807  1.00  0.00     0.012 A 
ATOM      8  C   UNL     1      28.464  29.924 -12.321  1.00  0.00     0.047 A 
BRANCH   6   9
ATOM      9  O   UNL     1      28.986  31.402 -10.467  1.00  0.00    -0.508 OA
ATOM     10  H   UNL     1      28.444  32.195 -10.146  1.00  0.00     0.293 HD
ENDBRANCH   6   9
ENDBRANCH   1   3
BRANCH   2  11
ATOM     11  C   UNL     1      26.393  24.706 -13.945  1.00  0.00     0.189 C 
ATOM     12  O   UNL     1      25.665  24.811 -14.970  1.00  0.00    -0.289 OA
BRANCH  11  13
ATOM     13  C   UNL     1      26.532  23.390 -13.283  1.00  0.00     0.064 A 
ATOM     14  C   UNL     1      25.542  22.382 -13.405  1.00  0.00     0.130 A 
ATOM     15  C   UNL     1      27.658  23.145 -12.477  1.00  0.00     0.020 A 
ATOM     16  C   UNL     1      25.684  21.181 -12.699  1.00  0.00     0.093 A 
ATOM     17  C   UNL     1      27.794  21.936 -11.791  1.00  0.00     0.047 A 
ATOM     18  C   UNL     1      26.807  20.954 -11.895  1.00  0.00     0.119 A 
BRANCH  14  19
ATOM     19  O   UNL     1      24.427  22.528 -14.234  1.00  0.00    -0.507 OA
ATOM     20  H   UNL     1      23.550  22.051 -14.072  1.00  0.00     0.293 HD
ENDBRANCH  14  19
BRANCH  18  21
ATOM     21  O   UNL     1      26.952  19.757 -11.198  1.00  0.00    -0.508 OA
ATOM     22  H   UNL     1      27.459  19.711 -10.323  1.00  0.00     0.293 HD
ENDBRANCH  18  21
ENDBRANCH  11  13
ENDBRANCH   2  11
TORSDOF 6
ENDMDL
MODEL 7
REMARK VINA RESULT:    -5.484      2.985      4.280
REMARK INTER + INTRA:          -7.624
REMARK INTER:                  -6.919
REMARK INTRA:                  -0.706
REMARK UNBOUND:                -0.698
REMARK SMILES O=C(C=Cc1ccc(O)cc1)c1ccc(O)cc1O
REMARK SMILES IDX 4 1 3 2 5 3 6 4 7 5 8 6 11 7 10 8 9 9 2 11 1 12 12 13 18 14
REMARK SMILES IDX 13 15 17 16 14 17 15 18 19 19 16 21
REMARK H PARENT 9 10 19 20 16 22
REMARK Flexibility Score: inf
ROOT
ATOM      1  C   UNL     1      26.473  27.488 -11.888  1.00  0.00     0.012 C 
ATOM      2  C   UNL     1      27.401  28.265 -11.311  1.00  0.00     0.053 C 
ENDROOT
BRANCH   1   3
ATOM      3  C   UNL     1      26.580  26.011 -11.986  1.00  0.00    -0.025 A 
ATOM      4  C   UNL     1      26.125  25.149 -10.967  1.00  0.00     0.012 A 
ATOM      5  C   UNL     1      26.259  23.764 -11.102  1.00  0.00     0.047 A 
ATOM      6  C   UNL     1      26.857  23.220 -12.241  1.00  0.00     0.115 A 
ATOM      7  C   UNL     1      27.195  25.455 -13.120  1.00  0.00     0.012 A 
ATOM      8  C   UNL     1      27.327  24.069 -13.251  1.00  0.00     0.047 A 
BRANCH   6   9
ATOM      9  O   UNL     1      26.983  21.838 -12.360  1.00  0.00    -0.508 OA
ATOM     10  H   UNL     1      26.484  21.205 -11.746  1.00  0.00     0.293 HD
ENDBRANCH   6   9
ENDBRANCH   1   3
BRANCH   2  11
ATOM     11  C   UNL     1      27.253  29.733 -11.219  1.00  0.00     0.189 C 
ATOM     12  O   UNL     1      27.683  30.352 -10.208  1.00  0.00    -0.289 OA
BRANCH  11  13
ATOM     13  C   UNL     1      26.572  30.484 -12.297  1.00  0.00     0.064 A 
ATOM     14  C   UNL     1      25.343  31.156 -12.080  1.00  0.00     0.130 A 
ATOM     15  C   UNL     1      27.139  30.499 -13.584  1.00  0.00     0.020 A 
ATOM     16  C   UNL     1      24.700  31.791 -13.151  1.00  0.00     0.093 A 
ATOM     17  C   UNL     1      26.494  31.149 -14.638  1.00  0.00     0.047 A 
ATOM     18  C   UNL     1      25.273  31.791 -14.428  1.00  0.00     0.119 A 
BRANCH  14  19
ATOM     19  O   UNL     1      24.750  31.238 -10.818  1.00  0.00    -0.507 OA
ATOM     20  H   UNL     1      25.262  31.110  -9.955  1.00  0.00     0.293 HD
ENDBRANCH  14  19
BRANCH  18  21
ATOM     21  O   UNL     1      24.638  32.428 -15.491  1.00  0.00    -0.508 OA
ATOM     22  H   UNL     1      23.644  32.321 -15.655  1.00  0.00     0.293 HD
ENDBRANCH  18  21
ENDBRANCH  11  13
ENDBRANCH   2  11
TORSDOF 6
ENDMDL
MODEL 8
REMARK VINA RESULT:    -5.453      3.096      4.364
REMARK INTER + INTRA:          -7.586
REMARK INTER:                  -6.969
REMARK INTRA:                  -0.617
REMARK UNBOUND:                -0.698
REMARK SMILES O=C(C=Cc1ccc(O)cc1)c1ccc(O)cc1O
REMARK SMILES IDX 4 1 3 2 5 3 6 4 7 5 8 6 11 7 10 8 9 9 2 11 1 12 12 13 18 14
REMARK SMILES IDX 13 15 17 16 14 17 15 18 19 19 16 21
REMARK H PARENT 9 10 19 20 16 22
REMARK Flexibility Score: inf
ROOT
ATOM      1  C   UNL     1      26.820  25.700 -13.739  1.00  0.00     0.012 C 
ATOM      2  C   UNL     1      26.038  26.780 -13.601  1.00  0.00     0.053 C 
ENDROOT
BRANCH   1   3
ATOM      3  C   UNL     1      26.911  24.616 -12.730  1.00  0.00    -0.025 A 
ATOM      4  C   UNL     1      26.298  24.705 -11.464  1.00  0.00     0.012 A 
ATOM      5  C   UNL     1      26.423  23.660 -10.543  1.00  0.00     0.047 A 
ATOM      6  C   UNL     1      27.168  22.522 -10.864  1.00  0.00     0.115 A 
ATOM      7  C   UNL     1      27.671  23.474 -13.037  1.00  0.00     0.012 A 
ATOM      8  C   UNL     1      27.794  22.432 -12.113  1.00  0.00     0.047 A 
BRANCH   6   9
ATOM      9  O   UNL     1      27.283  21.490  -9.935  1.00  0.00    -0.508 OA
ATOM     10  H   UNL     1      26.671  20.683  -9.961  1.00  0.00     0.293 HD
ENDBRANCH   6   9
ENDBRANCH   1   3
BRANCH   2  11
ATOM     11  C   UNL     1      25.961  27.835 -14.635  1.00  0.00     0.189 C 
ATOM     12  O   UNL     1      26.231  27.565 -15.838  1.00  0.00    -0.289 OA
BRANCH  11  13
ATOM     13  C   UNL     1      25.598  29.221 -14.264  1.00  0.00     0.064 A 
ATOM     14  C   UNL     1      26.382  30.332 -14.662  1.00  0.00     0.130 A 
ATOM     15  C   UNL     1      24.465  29.438 -13.460  1.00  0.00     0.020 A 
ATOM     16  C   UNL     1      26.038  31.617 -14.223  1.00  0.00     0.093 A 
ATOM     17  C   UNL     1      24.125  30.727 -13.043  1.00  0.00     0.047 A 
ATOM     18  C   UNL     1      24.912  31.818 -13.417  1.00  0.00     0.119 A 
BRANCH  14  19
ATOM     19  O   UNL     1      27.485  30.202 -15.510  1.00  0.00    -0.507 OA
ATOM     20  H   UNL     1      27.936  30.989 -15.957  1.00  0.00     0.293 HD
ENDBRANCH  14  19
BRANCH  18  21
ATOM     21  O   UNL     1      24.566  33.096 -12.986  1.00  0.00    -0.508 OA
ATOM     22  H   UNL     1      25.267  33.760 -12.682  1.00  0.00     0.293 HD
ENDBRANCH  18  21
ENDBRANCH  11  13
ENDBRANCH   2  11
TORSDOF 6
ENDMDL
MODEL 9
REMARK VINA RESULT:    -5.383      4.272      7.458
REMARK INTER + INTRA:          -7.497
REMARK INTER:                  -6.877
REMARK INTRA:                  -0.621
REMARK UNBOUND:                -0.698
REMARK SMILES O=C(C=Cc1ccc(O)cc1)c1ccc(O)cc1O
REMARK SMILES IDX 4 1 3 2 5 3 6 4 7 5 8 6 11 7 10 8 9 9 2 11 1 12 12 13 18 14
REMARK SMILES IDX 13 15 17 16 14 17 15 18 19 19 16 21
REMARK H PARENT 9 10 19 20 16 22
REMARK Flexibility Score: inf
ROOT
ATOM      1  C   UNL     1      26.400  27.047 -11.237  1.00  0.00     0.012 C 
ATOM      2  C   UNL     1      26.127  25.777 -11.567  1.00  0.00     0.053 C 
ENDROOT
BRANCH   1   3
ATOM      3  C   UNL     1      26.603  28.130 -12.231  1.00  0.00    -0.025 A 
ATOM      4  C   UNL     1      27.707  29.005 -12.185  1.00  0.00     0.012 A 
ATOM      5  C   UNL     1      27.848  30.018 -13.139  1.00  0.00     0.047 A 
ATOM      6  C   UNL     1      26.888  30.181 -14.141  1.00  0.00     0.115 A 
ATOM      7  C   UNL     1      25.635  28.313 -13.234  1.00  0.00     0.012 A 
ATOM      8  C   UNL     1      25.779  29.327 -14.186  1.00  0.00     0.047 A 
BRANCH   6   9
ATOM      9  O   UNL     1      27.043  31.194 -15.084  1.00  0.00    -0.508 OA
ATOM     10  H   UNL     1      26.725  31.082 -16.040  1.00  0.00     0.293 HD
ENDBRANCH   6   9
ENDBRANCH   1   3
BRANCH   2  11
ATOM     11  C   UNL     1      25.917  24.726 -10.547  1.00  0.00     0.189 C 
ATOM     12  O   UNL     1      25.443  25.025  -9.417  1.00  0.00    -0.289 OA
BRANCH  11  13
ATOM     13  C   UNL     1      26.291  23.323 -10.832  1.00  0.00     0.064 A 
ATOM     14  C   UNL     1      27.079  22.561  -9.934  1.00  0.00     0.130 A 
ATOM     15  C   UNL     1      25.888  22.741 -12.047  1.00  0.00     0.020 A 
ATOM     16  C   UNL     1      27.468  21.261 -10.282  1.00  0.00     0.093 A 
ATOM     17  C   UNL     1      26.271  21.439 -12.375  1.00  0.00     0.047 A 
ATOM     18  C   UNL     1      27.065  20.698 -11.499  1.00  0.00     0.119 A 
BRANCH  14  19
ATOM     19  O   UNL     1      27.465  23.047  -8.683  1.00  0.00    -0.507 OA
ATOM     20  H   UNL     1      27.059  22.728  -7.814  1.00  0.00     0.293 HD
ENDBRANCH  14  19
BRANCH  18  21
ATOM     21  O   UNL     1      27.447  19.404 -11.843  1.00  0.00    -0.508 OA
ATOM     22  H   UNL     1      26.772  18.720 -12.162  1.00  0.00     0.293 HD
ENDBRANCH  18  21
ENDBRANCH  11  13
ENDBRANCH   2  11
TORSDOF 6
ENDMDL
