MODEL 1
REMARK VINA RESULT:    -2.417      0.000      0.000
REMARK INTER + INTRA:          -2.417
REMARK INTER:                  -2.417
REMARK INTRA:                   0.000
REMARK UNBOUND:                 0.000
REMARK SMILES CC(=O)[O-]
REMARK SMILES IDX 1 1 2 2 3 3 4 4
REMARK H PARENT
REMARK Flexibility Score: inf
ROOT
ATOM      1  C   UNL     1       5.405  41.974   0.953  1.00  0.00     0.063 C 
ATOM      2  C   UNL     1       4.973  40.582   0.636  1.00  0.00     0.038 C 
ATOM      3  O   UNL     1       4.102  40.014   1.344  1.00  0.00    -0.550 OA
ATOM      4  O   UNL     1       5.491  39.929  -0.475  1.00  0.00    -0.550 OA
ENDROOT
TORSDOF 0
ENDMDL
MODEL 2
REMARK VINA RESULT:    -2.340     12.573     12.940
REMARK INTER + INTRA:          -2.340
REMARK INTER:                  -2.340
REMARK INTRA:                   0.000
REMARK UNBOUND:                 0.000
REMARK SMILES CC(=O)[O-]
REMARK SMILES IDX 1 1 2 2 3 3 4 4
REMARK H PARENT
REMARK Flexibility Score: inf
ROOT
ATOM      1  C   UNL     1      16.809  35.518   1.763  1.00  0.00     0.063 C 
ATOM      2  C   UNL     1      16.328  34.433   0.861  1.00  0.00     0.038 C 
ATOM      3  O   UNL     1      16.724  33.250   1.028  1.00  0.00    -0.550 OA
ATOM      4  O   UNL     1      15.398  34.714  -0.131  1.00  0.00    -0.550 OA
ENDROOT
TORSDOF 0
ENDMDL
MODEL 3
REMARK VINA RESULT:    -2.274      1.423      1.823
REMARK INTER + INTRA:          -2.274
REMARK INTER:                  -2.274
REMARK INTRA:                   0.000
REMARK UNBOUND:                 0.000
REMARK SMILES CC(=O)[O-]
REMARK SMILES IDX 1 1 2 2 3 3 4 4
REMARK H PARENT
REMARK Flexibility Score: inf
ROOT
ATOM      1  C   UNL     1       4.804  39.916  -0.893  1.00  0.00     0.063 C 
ATOM      2  C   UNL     1       4.640  40.621   0.411  1.00  0.00     0.038 C 
ATOM      3  O   UNL     1       4.090  40.036   1.380  1.00  0.00    -0.550 OA
ATOM      4  O   UNL     1       5.143  41.905   0.576  1.00  0.00    -0.550 OA
ENDROOT
TORSDOF 0
ENDMDL
MODEL 4
REMARK VINA RESULT:    -2.234      1.860      2.175
REMARK INTER + INTRA:          -2.234
REMARK INTER:                  -2.234
REMARK INTRA:                   0.000
REMARK UNBOUND:                 0.000
REMARK SMILES CC(=O)[O-]
REMARK SMILES IDX 1 1 2 2 3 3 4 4
REMARK H PARENT
REMARK Flexibility Score: inf
ROOT
ATOM      1  C   UNL     1       4.569  40.506   0.483  1.00  0.00     0.063 C 
ATOM      2  C   UNL     1       5.033  39.830  -0.763  1.00  0.00     0.038 C 
ATOM      3  O   UNL     1       6.214  39.407  -0.849  1.00  0.00    -0.550 OA
ATOM      4  O   UNL     1       4.146  39.617  -1.810  1.00  0.00    -0.550 OA
ENDROOT
TORSDOF 0
ENDMDL
MODEL 5
REMARK VINA RESULT:    -2.198     13.075     13.340
REMARK INTER + INTRA:          -2.198
REMARK INTER:                  -2.198
REMARK INTRA:                   0.000
REMARK UNBOUND:                 0.000
REMARK SMILES CC(=O)[O-]
REMARK SMILES IDX 1 1 2 2 3 3 4 4
REMARK H PARENT
REMARK Flexibility Score: inf
ROOT
ATOM      1  C   UNL     1      16.868  43.330   4.216  1.00  0.00     0.063 C 
ATOM      2  C   UNL     1      16.932  43.210   5.701  1.00  0.00     0.038 C 
ATOM      3  O   UNL     1      16.047  42.566   6.321  1.00  0.00    -0.550 OA
ATOM      4  O   UNL     1      18.000  43.760   6.398  1.00  0.00    -0.550 OA
ENDROOT
TORSDOF 0
ENDMDL
MODEL 6
REMARK VINA RESULT:    -2.133     11.845     12.250
REMARK INTER + INTRA:          -2.133
REMARK INTER:                  -2.133
REMARK INTRA:                   0.000
REMARK UNBOUND:                 0.000
REMARK SMILES CC(=O)[O-]
REMARK SMILES IDX 1 1 2 2 3 3 4 4
REMARK H PARENT
REMARK Flexibility Score: inf
ROOT
ATOM      1  C   UNL     1      14.832  43.824   3.430  1.00  0.00     0.063 C 
ATOM      2  C   UNL     1      16.049  43.890   4.289  1.00  0.00     0.038 C 
ATOM      3  O   UNL     1      17.039  43.155   4.040  1.00  0.00    -0.550 OA
ATOM      4  O   UNL     1      16.114  44.803   5.334  1.00  0.00    -0.550 OA
ENDROOT
TORSDOF 0
ENDMDL
MODEL 7
REMARK VINA RESULT:    -2.128     13.941     14.182
REMARK INTER + INTRA:          -2.128
REMARK INTER:                  -2.128
REMARK INTRA:                   0.000
REMARK UNBOUND:                 0.000
REMARK SMILES CC(=O)[O-]
REMARK SMILES IDX 1 1 2 2 3 3 4 4
REMARK H PARENT
REMARK Flexibility Score: inf
ROOT
ATOM      1  C   UNL     1      17.569  44.005   6.575  1.00  0.00     0.063 C 
ATOM      2  C   UNL     1      16.624  44.912   7.288  1.00  0.00     0.038 C 
ATOM      3  O   UNL     1      16.785  45.158   8.511  1.00  0.00    -0.550 OA
ATOM      4  O   UNL     1      15.595  45.532   6.590  1.00  0.00    -0.550 OA
ENDROOT
TORSDOF 0
ENDMDL
MODEL 8
REMARK VINA RESULT:    -2.096      9.580      9.865
REMARK INTER + INTRA:          -2.096
REMARK INTER:                  -2.096
REMARK INTRA:                   0.000
REMARK UNBOUND:                 0.000
REMARK SMILES CC(=O)[O-]
REMARK SMILES IDX 1 1 2 2 3 3 4 4
REMARK H PARENT
REMARK Flexibility Score: inf
ROOT
ATOM      1  C   UNL     1      12.792  42.532   3.067  1.00  0.00     0.063 C 
ATOM      2  C   UNL     1      13.783  43.343   3.831  1.00  0.00     0.038 C 
ATOM      3  O   UNL     1      13.626  43.535   5.064  1.00  0.00    -0.550 OA
ATOM      4  O   UNL     1      14.912  43.843   3.194  1.00  0.00    -0.550 OA
ENDROOT
TORSDOF 0
ENDMDL
MODEL 9
REMARK VINA RESULT:    -2.088     12.250     12.566
REMARK INTER + INTRA:          -2.088
REMARK INTER:                  -2.088
REMARK INTRA:                   0.000
REMARK UNBOUND:                 0.000
REMARK SMILES CC(=O)[O-]
REMARK SMILES IDX 1 1 2 2 3 3 4 4
REMARK H PARENT
REMARK Flexibility Score: inf
ROOT
ATOM      1  C   UNL     1      16.895  43.349   4.294  1.00  0.00     0.063 C 
ATOM      2  C   UNL     1      16.075  44.528   4.695  1.00  0.00     0.038 C 
ATOM      3  O   UNL     1      16.008  44.869   5.904  1.00  0.00    -0.550 OA
ATOM      4  O   UNL     1      15.429  45.287   3.728  1.00  0.00    -0.550 OA
ENDROOT
TORSDOF 0
ENDMDL
