MODEL 1
REMARK VINA RESULT:    -2.274      0.000      0.000
REMARK INTER + INTRA:          -2.274
REMARK INTER:                  -2.274
REMARK INTRA:                   0.000
REMARK UNBOUND:                 0.000
REMARK SMILES CC1=CC[C@@H]2[C@@H](C1)C2(C)C
REMARK SMILES IDX 1 1 2 2 3 3 4 4 5 5 6 6 7 7 8 8 9 9 10 10
REMARK H PARENT
REMARK Flexibility Score: inf
ROOT
ATOM      1  C   UNL     1     167.512 156.390 139.610  1.00  0.00     0.039 C 
ATOM      2  C   UNL     1     166.150 156.818 139.139  1.00  0.00    -0.077 C 
ATOM      3  C   UNL     1     165.183 155.875 138.936  1.00  0.00    -0.028 C 
ATOM      4  C   UNL     1     163.788 156.243 138.434  1.00  0.00     0.031 C 
ATOM      5  C   UNL     1     163.891 157.586 137.702  1.00  0.00     0.003 C 
ATOM      6  C   UNL     1     164.374 158.531 138.867  1.00  0.00     0.003 C 
ATOM      7  C   UNL     1     165.888 158.298 138.833  1.00  0.00     0.034 C 
ATOM      8  C   UNL     1     163.316 158.974 137.881  1.00  0.00    -0.029 C 
ATOM      9  C   UNL     1     161.873 159.032 138.390  1.00  0.00     0.012 C 
ATOM     10  C   UNL     1     163.754 160.043 136.876  1.00  0.00     0.012 C 
ENDROOT
TORSDOF 0
ENDMDL
MODEL 2
REMARK VINA RESULT:    -2.273     14.891     17.172
REMARK INTER + INTRA:          -2.273
REMARK INTER:                  -2.273
REMARK INTRA:                   0.000
REMARK UNBOUND:                 0.000
REMARK SMILES CC1=CC[C@@H]2[C@@H](C1)C2(C)C
REMARK SMILES IDX 1 1 2 2 3 3 4 4 5 5 6 6 7 7 8 8 9 9 10 10
REMARK H PARENT
REMARK Flexibility Score: inf
ROOT
ATOM      1  C   UNL     1     164.525 175.679 139.633  1.00  0.00     0.039 C 
ATOM      2  C   UNL     1     165.881 175.213 139.182  1.00  0.00    -0.077 C 
ATOM      3  C   UNL     1     166.887 176.123 139.028  1.00  0.00    -0.028 C 
ATOM      4  C   UNL     1     168.279 175.715 138.548  1.00  0.00     0.031 C 
ATOM      5  C   UNL     1     168.143 174.398 137.776  1.00  0.00     0.003 C 
ATOM      6  C   UNL     1     167.597 173.441 138.902  1.00  0.00     0.003 C 
ATOM      7  C   UNL     1     166.093 173.733 138.841  1.00  0.00     0.034 C 
ATOM      8  C   UNL     1     168.661 172.984 137.929  1.00  0.00    -0.029 C 
ATOM      9  C   UNL     1     170.087 172.857 138.469  1.00  0.00     0.012 C 
ATOM     10  C   UNL     1     168.206 171.962 136.883  1.00  0.00     0.012 C 
ENDROOT
TORSDOF 0
ENDMDL
MODEL 3
REMARK VINA RESULT:    -2.068     15.466     16.415
REMARK INTER + INTRA:          -2.068
REMARK INTER:                  -2.068
REMARK INTRA:                   0.000
REMARK UNBOUND:                 0.000
REMARK SMILES CC1=CC[C@@H]2[C@@H](C1)C2(C)C
REMARK SMILES IDX 1 1 2 2 3 3 4 4 5 5 6 6 7 7 8 8 9 9 10 10
REMARK H PARENT
REMARK Flexibility Score: inf
ROOT
ATOM      1  C   UNL     1     171.901 171.598 138.120  1.00  0.00     0.039 C 
ATOM      2  C   UNL     1     170.588 172.328 138.066  1.00  0.00    -0.077 C 
ATOM      3  C   UNL     1     169.756 172.137 137.000  1.00  0.00    -0.028 C 
ATOM      4  C   UNL     1     168.421 172.868 136.875  1.00  0.00     0.031 C 
ATOM      5  C   UNL     1     168.500 174.140 137.727  1.00  0.00     0.003 C 
ATOM      6  C   UNL     1     168.714 173.532 139.164  1.00  0.00     0.003 C 
ATOM      7  C   UNL     1     170.233 173.323 139.178  1.00  0.00     0.034 C 
ATOM      8  C   UNL     1     167.774 174.694 138.933  1.00  0.00    -0.029 C 
ATOM      9  C   UNL     1     166.274 174.396 138.996  1.00  0.00     0.012 C 
ATOM     10  C   UNL     1     168.251 176.047 139.470  1.00  0.00     0.012 C 
ENDROOT
TORSDOF 0
ENDMDL
MODEL 4
REMARK VINA RESULT:    -2.056     15.191     16.201
REMARK INTER + INTRA:          -2.056
REMARK INTER:                  -2.056
REMARK INTRA:                   0.000
REMARK UNBOUND:                 0.000
REMARK SMILES CC1=CC[C@@H]2[C@@H](C1)C2(C)C
REMARK SMILES IDX 1 1 2 2 3 3 4 4 5 5 6 6 7 7 8 8 9 9 10 10
REMARK H PARENT
REMARK Flexibility Score: inf
ROOT
ATOM      1  C   UNL     1     171.795 171.949 136.877  1.00  0.00     0.039 C 
ATOM      2  C   UNL     1     170.633 172.588 137.585  1.00  0.00    -0.077 C 
ATOM      3  C   UNL     1     170.812 173.107 138.836  1.00  0.00    -0.028 C 
ATOM      4  C   UNL     1     169.665 173.745 139.618  1.00  0.00     0.031 C 
ATOM      5  C   UNL     1     168.350 173.183 139.065  1.00  0.00     0.003 C 
ATOM      6  C   UNL     1     168.406 173.686 137.574  1.00  0.00     0.003 C 
ATOM      7  C   UNL     1     169.252 172.588 136.919  1.00  0.00     0.034 C 
ATOM      8  C   UNL     1     167.126 173.746 138.376  1.00  0.00    -0.029 C 
ATOM      9  C   UNL     1     166.672 175.126 138.857  1.00  0.00     0.012 C 
ATOM     10  C   UNL     1     166.040 172.748 137.965  1.00  0.00     0.012 C 
ENDROOT
TORSDOF 0
ENDMDL
MODEL 5
REMARK VINA RESULT:    -2.037     15.706     17.102
REMARK INTER + INTRA:          -2.037
REMARK INTER:                  -2.037
REMARK INTRA:                   0.000
REMARK UNBOUND:                 0.000
REMARK SMILES CC1=CC[C@@H]2[C@@H](C1)C2(C)C
REMARK SMILES IDX 1 1 2 2 3 3 4 4 5 5 6 6 7 7 8 8 9 9 10 10
REMARK H PARENT
REMARK Flexibility Score: inf
ROOT
ATOM      1  C   UNL     1     168.866 173.094 137.167  1.00  0.00     0.039 C 
ATOM      2  C   UNL     1     167.884 173.894 137.976  1.00  0.00    -0.077 C 
ATOM      3  C   UNL     1     167.980 175.256 137.994  1.00  0.00    -0.028 C 
ATOM      4  C   UNL     1     167.029 176.123 138.817  1.00  0.00     0.031 C 
ATOM      5  C   UNL     1     166.459 175.254 139.944  1.00  0.00     0.003 C 
ATOM      6  C   UNL     1     165.696 174.149 139.121  1.00  0.00     0.003 C 
ATOM      7  C   UNL     1     166.831 173.164 138.819  1.00  0.00     0.034 C 
ATOM      8  C   UNL     1     165.088 174.767 140.361  1.00  0.00    -0.029 C 
ATOM      9  C   UNL     1     163.941 175.759 140.151  1.00  0.00     0.012 C 
ATOM     10  C   UNL     1     165.019 173.855 141.589  1.00  0.00     0.012 C 
ENDROOT
TORSDOF 0
ENDMDL
MODEL 6
REMARK VINA RESULT:    -2.026      1.310      4.378
REMARK INTER + INTRA:          -2.026
REMARK INTER:                  -2.026
REMARK INTRA:                   0.000
REMARK UNBOUND:                 0.000
REMARK SMILES CC1=CC[C@@H]2[C@@H](C1)C2(C)C
REMARK SMILES IDX 1 1 2 2 3 3 4 4 5 5 6 6 7 7 8 8 9 9 10 10
REMARK H PARENT
REMARK Flexibility Score: inf
ROOT
ATOM      1  C   UNL     1     159.706 158.905 139.495  1.00  0.00     0.039 C 
ATOM      2  C   UNL     1     161.069 158.920 138.862  1.00  0.00    -0.077 C 
ATOM      3  C   UNL     1     161.226 159.464 137.619  1.00  0.00    -0.028 C 
ATOM      4  C   UNL     1     162.580 159.486 136.911  1.00  0.00     0.031 C 
ATOM      5  C   UNL     1     163.441 158.368 137.510  1.00  0.00     0.003 C 
ATOM      6  C   UNL     1     163.546 158.835 139.011  1.00  0.00     0.003 C 
ATOM      7  C   UNL     1     162.247 158.266 139.593  1.00  0.00     0.034 C 
ATOM      8  C   UNL     1     164.745 158.284 138.273  1.00  0.00    -0.029 C 
ATOM      9  C   UNL     1     165.823 159.286 137.853  1.00  0.00     0.012 C 
ATOM     10  C   UNL     1     165.206 156.890 138.708  1.00  0.00     0.012 C 
ENDROOT
TORSDOF 0
ENDMDL
MODEL 7
REMARK VINA RESULT:    -2.021      1.627      4.399
REMARK INTER + INTRA:          -2.021
REMARK INTER:                  -2.021
REMARK INTRA:                   0.000
REMARK UNBOUND:                 0.000
REMARK SMILES CC1=CC[C@@H]2[C@@H](C1)C2(C)C
REMARK SMILES IDX 1 1 2 2 3 3 4 4 5 5 6 6 7 7 8 8 9 9 10 10
REMARK H PARENT
REMARK Flexibility Score: inf
ROOT
ATOM      1  C   UNL     1     162.041 158.553 139.501  1.00  0.00     0.039 C 
ATOM      2  C   UNL     1     163.312 157.751 139.484  1.00  0.00    -0.077 C 
ATOM      3  C   UNL     1     163.553 156.895 138.448  1.00  0.00    -0.028 C 
ATOM      4  C   UNL     1     164.814 156.035 138.386  1.00  0.00     0.031 C 
ATOM      5  C   UNL     1     165.344 155.875 139.816  1.00  0.00     0.003 C 
ATOM      6  C   UNL     1     165.662 157.371 140.191  1.00  0.00     0.003 C 
ATOM      7  C   UNL     1     164.288 157.860 140.663  1.00  0.00     0.034 C 
ATOM      8  C   UNL     1     166.607 156.249 140.560  1.00  0.00    -0.029 C 
ATOM      9  C   UNL     1     167.905 156.143 139.756  1.00  0.00     0.012 C 
ATOM     10  C   UNL     1     166.665 155.896 142.049  1.00  0.00     0.012 C 
ENDROOT
TORSDOF 0
ENDMDL
MODEL 8
REMARK VINA RESULT:    -2.015      1.373      2.376
REMARK INTER + INTRA:          -2.015
REMARK INTER:                  -2.015
REMARK INTRA:                   0.000
REMARK UNBOUND:                 0.000
REMARK SMILES CC1=CC[C@@H]2[C@@H](C1)C2(C)C
REMARK SMILES IDX 1 1 2 2 3 3 4 4 5 5 6 6 7 7 8 8 9 9 10 10
REMARK H PARENT
REMARK Flexibility Score: inf
ROOT
ATOM      1  C   UNL     1     165.203 155.875 138.752  1.00  0.00     0.039 C 
ATOM      2  C   UNL     1     164.312 157.077 138.898  1.00  0.00    -0.077 C 
ATOM      3  C   UNL     1     163.965 157.507 140.147  1.00  0.00    -0.028 C 
ATOM      4  C   UNL     1     163.043 158.706 140.361  1.00  0.00     0.031 C 
ATOM      5  C   UNL     1     162.204 158.886 139.091  1.00  0.00     0.003 C 
ATOM      6  C   UNL     1     163.325 159.181 138.024  1.00  0.00     0.003 C 
ATOM      7  C   UNL     1     163.756 157.760 137.643  1.00  0.00     0.034 C 
ATOM      8  C   UNL     1     162.030 159.961 138.040  1.00  0.00    -0.029 C 
ATOM      9  C   UNL     1     162.094 161.403 138.552  1.00  0.00     0.012 C 
ATOM     10  C   UNL     1     161.062 159.660 136.893  1.00  0.00     0.012 C 
ENDROOT
TORSDOF 0
ENDMDL
MODEL 9
REMARK VINA RESULT:    -2.005     18.262     19.635
REMARK INTER + INTRA:          -2.005
REMARK INTER:                  -2.005
REMARK INTRA:                   0.000
REMARK UNBOUND:                 0.000
REMARK SMILES CC1=CC[C@@H]2[C@@H](C1)C2(C)C
REMARK SMILES IDX 1 1 2 2 3 3 4 4 5 5 6 6 7 7 8 8 9 9 10 10
REMARK H PARENT
REMARK Flexibility Score: inf
ROOT
ATOM      1  C   UNL     1     175.818 175.937 142.695  1.00  0.00     0.039 C 
ATOM      2  C   UNL     1     175.224 175.460 141.399  1.00  0.00    -0.077 C 
ATOM      3  C   UNL     1     175.517 176.124 140.242  1.00  0.00    -0.028 C 
ATOM      4  C   UNL     1     174.924 175.705 138.898  1.00  0.00     0.031 C 
ATOM      5  C   UNL     1     173.636 174.923 139.176  1.00  0.00     0.003 C 
ATOM      6  C   UNL     1     174.194 173.695 139.990  1.00  0.00     0.003 C 
ATOM      7  C   UNL     1     174.249 174.277 141.407  1.00  0.00     0.034 C 
ATOM      8  C   UNL     1     173.135 173.517 138.924  1.00  0.00    -0.029 C 
ATOM      9  C   UNL     1     173.580 172.883 137.604  1.00  0.00     0.012 C 
ATOM     10  C   UNL     1     171.732 173.178 139.435  1.00  0.00     0.012 C 
ENDROOT
TORSDOF 0
ENDMDL
