MODEL 1
REMARK VINA RESULT:    -5.377      0.000      0.000
REMARK INTER + INTRA:          -8.213
REMARK INTER:                  -7.891
REMARK INTRA:                  -0.321
REMARK UNBOUND:                -0.321
REMARK SMILES O=C([O-])CCCCCCCC(=O)[O-]
REMARK SMILES IDX 7 1 6 2 5 3 4 4 2 5 1 6 3 7 8 8 9 9 10 10 11 11 12 12 13 13
REMARK H PARENT
REMARK Flexibility Score: inf
ROOT
ATOM      1  C   UNL     1      15.156   0.803  14.438  1.00  0.00     0.000 C 
ENDROOT
BRANCH   1   2
ATOM      2  C   UNL     1      14.811   1.626  15.689  1.00  0.00     0.000 C 
BRANCH   2   3
ATOM      3  C   UNL     1      13.316   1.563  16.046  1.00  0.00     0.006 C 
BRANCH   3   4
ATOM      4  C   UNL     1      13.062   1.850  17.531  1.00  0.00     0.053 C 
BRANCH   4   5
ATOM      5  C   UNL     1      13.450   0.690  18.396  1.00  0.00     0.041 C 
ATOM      6  O   UNL     1      14.124   0.877  19.444  1.00  0.00    -0.550 OA
ATOM      7  O   UNL     1      13.092  -0.601  18.030  1.00  0.00    -0.550 OA
ENDBRANCH   4   5
ENDBRANCH   3   4
ENDBRANCH   2   3
ENDBRANCH   1   2
BRANCH   1   8
ATOM      8  C   UNL     1      15.144   1.643  13.153  1.00  0.00     0.000 C 
BRANCH   8   9
ATOM      9  C   UNL     1      15.358   0.760  11.918  1.00  0.00     0.006 C 
BRANCH   9  10
ATOM     10  C   UNL     1      16.798   0.867  11.408  1.00  0.00     0.053 C 
BRANCH  10  11
ATOM     11  C   UNL     1      17.437  -0.485  11.354  1.00  0.00     0.041 C 
ATOM     12  O   UNL     1      18.003  -0.959  12.374  1.00  0.00    -0.550 OA
ATOM     13  O   UNL     1      17.451  -1.200  10.163  1.00  0.00    -0.550 OA
ENDBRANCH  10  11
ENDBRANCH   9  10
ENDBRANCH   8   9
ENDBRANCH   1   8
TORSDOF 8
ENDMDL
MODEL 2
REMARK VINA RESULT:    -5.370      0.303      6.763
REMARK INTER + INTRA:          -8.203
REMARK INTER:                  -7.872
REMARK INTRA:                  -0.331
REMARK UNBOUND:                -0.321
REMARK SMILES O=C([O-])CCCCCCCC(=O)[O-]
REMARK SMILES IDX 7 1 6 2 5 3 4 4 2 5 1 6 3 7 8 8 9 9 10 10 11 11 12 12 13 13
REMARK H PARENT
REMARK Flexibility Score: inf
ROOT
ATOM      1  C   UNL     1      14.878   0.833  14.176  1.00  0.00     0.000 C 
ENDROOT
BRANCH   1   2
ATOM      2  C   UNL     1      15.126   1.721  12.946  1.00  0.00     0.000 C 
BRANCH   2   3
ATOM      3  C   UNL     1      15.406   0.906  11.673  1.00  0.00     0.006 C 
BRANCH   3   4
ATOM      4  C   UNL     1      16.902   0.852  11.336  1.00  0.00     0.053 C 
BRANCH   4   5
ATOM      5  C   UNL     1      17.397  -0.558  11.229  1.00  0.00     0.041 C 
ATOM      6  O   UNL     1      17.389  -1.150  10.117  1.00  0.00    -0.550 OA
ATOM      7  O   UNL     1      17.841  -1.227  12.362  1.00  0.00    -0.550 OA
ENDBRANCH   4   5
ENDBRANCH   3   4
ENDBRANCH   2   3
ENDBRANCH   1   2
BRANCH   1   8
ATOM      8  C   UNL     1      14.675   1.645  15.463  1.00  0.00     0.000 C 
BRANCH   8   9
ATOM      9  C   UNL     1      13.198   1.660  15.875  1.00  0.00     0.006 C 
BRANCH   9  10
ATOM     10  C   UNL     1      13.052   1.803  17.393  1.00  0.00     0.053 C 
BRANCH  10  11
ATOM     11  C   UNL     1      13.586   0.591  18.089  1.00  0.00     0.041 C 
ATOM     12  O   UNL     1      13.065  -0.537  17.885  1.00  0.00    -0.550 OA
ATOM     13  O   UNL     1      14.628   0.715  19.000  1.00  0.00    -0.550 OA
ENDBRANCH  10  11
ENDBRANCH   9  10
ENDBRANCH   8   9
ENDBRANCH   1   8
TORSDOF 8
ENDMDL
MODEL 3
REMARK VINA RESULT:    -5.302      1.804      6.239
REMARK INTER + INTRA:          -8.102
REMARK INTER:                  -7.604
REMARK INTRA:                  -0.498
REMARK UNBOUND:                -0.321
REMARK SMILES O=C([O-])CCCCCCCC(=O)[O-]
REMARK SMILES IDX 7 1 6 2 5 3 4 4 2 5 1 6 3 7 8 8 9 9 10 10 11 11 12 12 13 13
REMARK H PARENT
REMARK Flexibility Score: inf
ROOT
ATOM      1  C   UNL     1      12.910   2.079  16.232  1.00  0.00     0.000 C 
ENDROOT
BRANCH   1   2
ATOM      2  C   UNL     1      13.645   0.938  15.511  1.00  0.00     0.000 C 
BRANCH   2   3
ATOM      3  C   UNL     1      15.025   1.363  14.982  1.00  0.00     0.006 C 
BRANCH   3   4
ATOM      4  C   UNL     1      14.985   1.737  13.494  1.00  0.00     0.053 C 
BRANCH   4   5
ATOM      5  C   UNL     1      15.587   0.667  12.635  1.00  0.00     0.041 C 
ATOM      6  O   UNL     1      16.314  -0.224  13.149  1.00  0.00    -0.550 OA
ATOM      7  O   UNL     1      15.369   0.672  11.263  1.00  0.00    -0.550 OA
ENDBRANCH   4   5
ENDBRANCH   3   4
ENDBRANCH   2   3
ENDBRANCH   1   2
BRANCH   1   8
ATOM      8  C   UNL     1      13.172   2.091  17.745  1.00  0.00     0.000 C 
BRANCH   8   9
ATOM      9  C   UNL     1      13.315   0.665  18.289  1.00  0.00     0.006 C 
BRANCH   9  10
ATOM     10  C   UNL     1      14.323   0.613  19.441  1.00  0.00     0.053 C 
BRANCH  10  11
ATOM     11  C   UNL     1      15.525  -0.189  19.051  1.00  0.00     0.041 C 
ATOM     12  O   UNL     1      16.297   0.227  18.148  1.00  0.00    -0.550 OA
ATOM     13  O   UNL     1      15.763  -1.419  19.651  1.00  0.00    -0.550 OA
ENDBRANCH  10  11
ENDBRANCH   9  10
ENDBRANCH   8   9
ENDBRANCH   1   8
TORSDOF 8
ENDMDL
MODEL 4
REMARK VINA RESULT:    -5.285      3.051      6.035
REMARK INTER + INTRA:          -8.078
REMARK INTER:                  -7.255
REMARK INTRA:                  -0.822
REMARK UNBOUND:                -0.321
REMARK SMILES O=C([O-])CCCCCCCC(=O)[O-]
REMARK SMILES IDX 7 1 6 2 5 3 4 4 2 5 1 6 3 7 8 8 9 9 10 10 11 11 12 12 13 13
REMARK H PARENT
REMARK Flexibility Score: inf
ROOT
ATOM      1  C   UNL     1      12.891   1.960  16.167  1.00  0.00     0.000 C 
ENDROOT
BRANCH   1   2
ATOM      2  C   UNL     1      13.474   1.147  15.000  1.00  0.00     0.000 C 
BRANCH   2   3
ATOM      3  C   UNL     1      14.989   1.353  14.833  1.00  0.00     0.006 C 
BRANCH   3   4
ATOM      4  C   UNL     1      15.750   0.023  14.767  1.00  0.00     0.053 C 
BRANCH   4   5
ATOM      5  C   UNL     1      16.182  -0.440  16.126  1.00  0.00     0.041 C 
ATOM      6  O   UNL     1      16.820   0.336  16.887  1.00  0.00    -0.550 OA
ATOM      7  O   UNL     1      15.905  -1.736  16.540  1.00  0.00    -0.550 OA
ENDBRANCH   4   5
ENDBRANCH   3   4
ENDBRANCH   2   3
ENDBRANCH   1   2
BRANCH   1   8
ATOM      8  C   UNL     1      13.962   2.407  17.172  1.00  0.00     0.000 C 
BRANCH   8   9
ATOM      9  C   UNL     1      13.598   1.965  18.595  1.00  0.00     0.006 C 
BRANCH   9  10
ATOM     10  C   UNL     1      13.744   0.449  18.754  1.00  0.00     0.053 C 
BRANCH  10  11
ATOM     11  C   UNL     1      14.608   0.125  19.932  1.00  0.00     0.041 C 
ATOM     12  O   UNL     1      14.387   0.668  21.047  1.00  0.00    -0.550 OA
ATOM     13  O   UNL     1      15.687  -0.738  19.787  1.00  0.00    -0.550 OA
ENDBRANCH  10  11
ENDBRANCH   9  10
ENDBRANCH   8   9
ENDBRANCH   1   8
TORSDOF 8
ENDMDL
MODEL 5
REMARK VINA RESULT:    -5.270     15.182     17.475
REMARK INTER + INTRA:          -8.057
REMARK INTER:                  -7.278
REMARK INTRA:                  -0.779
REMARK UNBOUND:                -0.321
REMARK SMILES O=C([O-])CCCCCCCC(=O)[O-]
REMARK SMILES IDX 7 1 6 2 5 3 4 4 2 5 1 6 3 7 8 8 9 9 10 10 11 11 12 12 13 13
REMARK H PARENT
REMARK Flexibility Score: inf
ROOT
ATOM      1  C   UNL     1      27.369  -2.929   6.038  1.00  0.00     0.000 C 
ENDROOT
BRANCH   1   2
ATOM      2  C   UNL     1      28.395  -4.071   5.977  1.00  0.00     0.000 C 
BRANCH   2   3
ATOM      3  C   UNL     1      29.847  -3.567   6.035  1.00  0.00     0.006 C 
BRANCH   3   4
ATOM      4  C   UNL     1      30.693  -4.351   7.047  1.00  0.00     0.053 C 
BRANCH   4   5
ATOM      5  C   UNL     1      32.154  -4.055   6.898  1.00  0.00     0.041 C 
ATOM      6  O   UNL     1      32.872  -4.767   6.147  1.00  0.00    -0.550 OA
ATOM      7  O   UNL     1      32.729  -3.011   7.613  1.00  0.00    -0.550 OA
ENDBRANCH   4   5
ENDBRANCH   3   4
ENDBRANCH   2   3
ENDBRANCH   1   2
BRANCH   1   8
ATOM      8  C   UNL     1      27.004  -2.535   7.477  1.00  0.00     0.000 C 
BRANCH   8   9
ATOM      9  C   UNL     1      27.613  -1.177   7.844  1.00  0.00     0.006 C 
BRANCH   9  10
ATOM     10  C   UNL     1      28.283  -1.228   9.221  1.00  0.00     0.053 C 
BRANCH  10  11
ATOM     11  C   UNL     1      29.765  -1.378   9.078  1.00  0.00     0.041 C 
ATOM     12  O   UNL     1      30.379  -0.754   8.174  1.00  0.00    -0.550 OA
ATOM     13  O   UNL     1      30.458  -2.247   9.911  1.00  0.00    -0.550 OA
ENDBRANCH  10  11
ENDBRANCH   9  10
ENDBRANCH   8   9
ENDBRANCH   1   8
TORSDOF 8
ENDMDL
MODEL 6
REMARK VINA RESULT:    -5.224      3.018      3.464
REMARK INTER + INTRA:          -7.988
REMARK INTER:                  -7.158
REMARK INTRA:                  -0.830
REMARK UNBOUND:                -0.321
REMARK SMILES O=C([O-])CCCCCCCC(=O)[O-]
REMARK SMILES IDX 7 1 6 2 5 3 4 4 2 5 1 6 3 7 8 8 9 9 10 10 11 11 12 12 13 13
REMARK H PARENT
REMARK Flexibility Score: inf
ROOT
ATOM      1  C   UNL     1      12.931   1.996  15.961  1.00  0.00     0.000 C 
ENDROOT
BRANCH   1   2
ATOM      2  C   UNL     1      13.874   2.419  17.098  1.00  0.00     0.000 C 
BRANCH   2   3
ATOM      3  C   UNL     1      13.398   1.927  18.476  1.00  0.00     0.006 C 
BRANCH   3   4
ATOM      4  C   UNL     1      13.645   0.425  18.671  1.00  0.00     0.053 C 
BRANCH   4   5
ATOM      5  C   UNL     1      14.497   0.154  19.873  1.00  0.00     0.041 C 
ATOM      6  O   UNL     1      14.404   0.884  20.895  1.00  0.00    -0.550 OA
ATOM      7  O   UNL     1      15.415  -0.889  19.854  1.00  0.00    -0.550 OA
ENDBRANCH   4   5
ENDBRANCH   3   4
ENDBRANCH   2   3
ENDBRANCH   1   2
BRANCH   1   8
ATOM      8  C   UNL     1      13.571   0.974  15.009  1.00  0.00     0.000 C 
BRANCH   8   9
ATOM      9  C   UNL     1      15.028   1.343  14.707  1.00  0.00     0.006 C 
BRANCH   9  10
ATOM     10  C   UNL     1      15.926   0.102  14.727  1.00  0.00     0.053 C 
BRANCH  10  11
ATOM     11  C   UNL     1      16.102  -0.394  16.128  1.00  0.00     0.041 C 
ATOM     12  O   UNL     1      16.769   0.277  16.958  1.00  0.00    -0.550 OA
ATOM     13  O   UNL     1      15.571  -1.622  16.502  1.00  0.00    -0.550 OA
ENDBRANCH  10  11
ENDBRANCH   9  10
ENDBRANCH   8   9
ENDBRANCH   1   8
TORSDOF 8
ENDMDL
MODEL 7
REMARK VINA RESULT:    -5.222      1.539      2.534
REMARK INTER + INTRA:          -7.985
REMARK INTER:                  -7.381
REMARK INTRA:                  -0.604
REMARK UNBOUND:                -0.321
REMARK SMILES O=C([O-])CCCCCCCC(=O)[O-]
REMARK SMILES IDX 7 1 6 2 5 3 4 4 2 5 1 6 3 7 8 8 9 9 10 10 11 11 12 12 13 13
REMARK H PARENT
REMARK Flexibility Score: inf
ROOT
ATOM      1  C   UNL     1      12.905   2.013  16.037  1.00  0.00     0.000 C 
ENDROOT
BRANCH   1   2
ATOM      2  C   UNL     1      13.821   2.072  17.269  1.00  0.00     0.000 C 
BRANCH   2   3
ATOM      3  C   UNL     1      13.207   1.381  18.497  1.00  0.00     0.006 C 
BRANCH   3   4
ATOM      4  C   UNL     1      13.345  -0.146  18.432  1.00  0.00     0.053 C 
BRANCH   4   5
ATOM      5  C   UNL     1      14.756  -0.566  18.154  1.00  0.00     0.041 C 
ATOM      6  O   UNL     1      15.021  -1.267  17.141  1.00  0.00    -0.550 OA
ATOM      7  O   UNL     1      15.774  -0.207  19.028  1.00  0.00    -0.550 OA
ENDBRANCH   4   5
ENDBRANCH   3   4
ENDBRANCH   2   3
ENDBRANCH   1   2
BRANCH   1   8
ATOM      8  C   UNL     1      13.436   1.072  14.946  1.00  0.00     0.000 C 
BRANCH   8   9
ATOM      9  C   UNL     1      14.924   1.327  14.677  1.00  0.00     0.006 C 
BRANCH   9  10
ATOM     10  C   UNL     1      15.155   1.757  13.226  1.00  0.00     0.053 C 
BRANCH  10  11
ATOM     11  C   UNL     1      15.767   0.641  12.439  1.00  0.00     0.041 C 
ATOM     12  O   UNL     1      16.445  -0.245  13.021  1.00  0.00    -0.550 OA
ATOM     13  O   UNL     1      15.629   0.608  11.057  1.00  0.00    -0.550 OA
ENDBRANCH  10  11
ENDBRANCH   9  10
ENDBRANCH   8   9
ENDBRANCH   1   8
TORSDOF 8
ENDMDL
MODEL 8
REMARK VINA RESULT:    -5.199      0.810      6.729
REMARK INTER + INTRA:          -7.952
REMARK INTER:                  -7.594
REMARK INTRA:                  -0.359
REMARK UNBOUND:                -0.321
REMARK SMILES O=C([O-])CCCCCCCC(=O)[O-]
REMARK SMILES IDX 7 1 6 2 5 3 4 4 2 5 1 6 3 7 8 8 9 9 10 10 11 11 12 12 13 13
REMARK H PARENT
REMARK Flexibility Score: inf
ROOT
ATOM      1  C   UNL     1      13.906   1.285  14.802  1.00  0.00     0.000 C 
ENDROOT
BRANCH   1   2
ATOM      2  C   UNL     1      14.426   0.406  13.654  1.00  0.00     0.000 C 
BRANCH   2   3
ATOM      3  C   UNL     1      15.456   1.131  12.772  1.00  0.00     0.006 C 
BRANCH   3   4
ATOM      4  C   UNL     1      15.579   0.494  11.382  1.00  0.00     0.053 C 
BRANCH   4   5
ATOM      5  C   UNL     1      16.924  -0.133  11.173  1.00  0.00     0.041 C 
ATOM      6  O   UNL     1      17.627  -0.470  12.163  1.00  0.00    -0.550 OA
ATOM      7  O   UNL     1      17.414  -0.317   9.886  1.00  0.00    -0.550 OA
ENDBRANCH   4   5
ENDBRANCH   3   4
ENDBRANCH   2   3
ENDBRANCH   1   2
BRANCH   1   8
ATOM      8  C   UNL     1      14.924   1.434  15.943  1.00  0.00     0.000 C 
BRANCH   8   9
ATOM      9  C   UNL     1      14.377   2.341  17.051  1.00  0.00     0.006 C 
BRANCH   9  10
ATOM     10  C   UNL     1      13.203   1.677  17.777  1.00  0.00     0.053 C 
BRANCH  10  11
ATOM     11  C   UNL     1      13.654   0.432  18.474  1.00  0.00     0.041 C 
ATOM     12  O   UNL     1      14.506   0.497  19.398  1.00  0.00    -0.550 OA
ATOM     13  O   UNL     1      13.169  -0.805  18.069  1.00  0.00    -0.550 OA
ENDBRANCH  10  11
ENDBRANCH   9  10
ENDBRANCH   8   9
ENDBRANCH   1   8
TORSDOF 8
ENDMDL
MODEL 9
REMARK VINA RESULT:    -5.163      2.697      6.346
REMARK INTER + INTRA:          -7.899
REMARK INTER:                  -7.525
REMARK INTRA:                  -0.374
REMARK UNBOUND:                -0.321
REMARK SMILES O=C([O-])CCCCCCCC(=O)[O-]
REMARK SMILES IDX 7 1 6 2 5 3 4 4 2 5 1 6 3 7 8 8 9 9 10 10 11 11 12 12 13 13
REMARK H PARENT
REMARK Flexibility Score: inf
ROOT
ATOM      1  C   UNL     1      13.473   2.155  18.514  1.00  0.00     0.000 C 
ENDROOT
BRANCH   1   2
ATOM      2  C   UNL     1      12.915   2.346  17.095  1.00  0.00     0.000 C 
BRANCH   2   3
ATOM      3  C   UNL     1      13.378   1.249  16.122  1.00  0.00     0.006 C 
BRANCH   3   4
ATOM      4  C   UNL     1      14.687   1.619  15.412  1.00  0.00     0.053 C 
BRANCH   4   5
ATOM      5  C   UNL     1      14.691   1.168  13.983  1.00  0.00     0.041 C 
ATOM      6  O   UNL     1      14.087   0.114  13.649  1.00  0.00    -0.550 OA
ATOM      7  O   UNL     1      15.388   1.896  13.026  1.00  0.00    -0.550 OA
ENDBRANCH   4   5
ENDBRANCH   3   4
ENDBRANCH   2   3
ENDBRANCH   1   2
BRANCH   1   8
ATOM      8  C   UNL     1      13.665   0.676  18.881  1.00  0.00     0.000 C 
BRANCH   8   9
ATOM      9  C   UNL     1      14.468   0.533  20.179  1.00  0.00     0.006 C 
BRANCH   9  10
ATOM     10  C   UNL     1      14.788  -0.937  20.469  1.00  0.00     0.053 C 
BRANCH  10  11
ATOM     11  C   UNL     1      15.755  -1.472  19.460  1.00  0.00     0.041 C 
ATOM     12  O   UNL     1      15.541  -2.583  18.907  1.00  0.00    -0.550 OA
ATOM     13  O   UNL     1      16.916  -0.768  19.168  1.00  0.00    -0.550 OA
ENDBRANCH  10  11
ENDBRANCH   9  10
ENDBRANCH   8   9
ENDBRANCH   1   8
TORSDOF 8
ENDMDL
