MODEL 1
REMARK VINA RESULT:    -2.045      0.000      0.000
REMARK INTER + INTRA:          -8.619
REMARK INTER:                  -4.436
REMARK INTRA:                  -4.184
REMARK UNBOUND:                -4.184
REMARK SMILES CCCCCCCCCCCCCCCCCCCCCC(=O)[O-]
REMARK SMILES IDX 12 1 11 2 10 3 9 4 8 5 7 6 6 7 5 8 4 9 3 10 2 11 1 12 13 13
REMARK SMILES IDX 14 14 15 15 16 16 17 17 18 18 19 19 20 20 21 21 22 22 23 23
REMARK SMILES IDX 24 24
REMARK H PARENT
REMARK Flexibility Score: inf
ROOT
ATOM      1  C   UNL     1       0.425   6.878  -8.894  1.00  0.00     0.000 C 
ENDROOT
BRANCH   1   2
ATOM      2  C   UNL     1       0.273   6.795  -7.364  1.00  0.00     0.000 C 
BRANCH   2   3
ATOM      3  C   UNL     1      -1.177   6.676  -6.860  1.00  0.00     0.000 C 
BRANCH   3   4
ATOM      4  C   UNL     1      -2.209   6.722  -7.999  1.00  0.00    -0.000 C 
BRANCH   4   5
ATOM      5  C   UNL     1      -2.986   5.404  -8.149  1.00  0.00    -0.000 C 
BRANCH   5   6
ATOM      6  C   UNL     1      -3.265   5.038  -9.614  1.00  0.00    -0.000 C 
BRANCH   6   7
ATOM      7  C   UNL     1      -3.178   6.276 -10.516  1.00  0.00    -0.000 C 
BRANCH   7   8
ATOM      8  C   UNL     1      -4.543   6.597 -11.142  1.00  0.00    -0.000 C 
BRANCH   8   9
ATOM      9  C   UNL     1      -4.981   8.049 -10.894  1.00  0.00    -0.000 C 
BRANCH   9  10
ATOM     10  C   UNL     1      -6.092   8.159  -9.838  1.00  0.00    -0.000 C 
BRANCH  10  11
ATOM     11  C   UNL     1      -5.519   8.579  -8.480  1.00  0.00    -0.003 C 
ATOM     12  C   UNL     1      -5.876   7.569  -7.393  1.00  0.00     0.004 C 
ENDBRANCH  10  11
ENDBRANCH   9  10
ENDBRANCH   8   9
ENDBRANCH   7   8
ENDBRANCH   6   7
ENDBRANCH   5   6
ENDBRANCH   4   5
ENDBRANCH   3   4
ENDBRANCH   2   3
ENDBRANCH   1   2
BRANCH   1  13
ATOM     13  C   UNL     1       1.233   8.105  -9.351  1.00  0.00     0.000 C 
BRANCH  13  14
ATOM     14  C   UNL     1       1.116   9.283  -8.361  1.00  0.00     0.000 C 
BRANCH  14  15
ATOM     15  C   UNL     1       0.179  10.404  -8.841  1.00  0.00     0.000 C 
BRANCH  15  16
ATOM     16  C   UNL     1      -1.241  10.279  -8.262  1.00  0.00     0.000 C 
BRANCH  16  17
ATOM     17  C   UNL     1      -2.303   9.987  -9.336  1.00  0.00     0.000 C 
BRANCH  17  18
ATOM     18  C   UNL     1      -1.750   9.737 -10.754  1.00  0.00     0.000 C 
BRANCH  18  19
ATOM     19  C   UNL     1      -2.302  10.708 -11.820  1.00  0.00     0.000 C 
BRANCH  19  20
ATOM     20  C   UNL     1      -3.369  11.654 -11.248  1.00  0.00     0.006 C 
BRANCH  20  21
ATOM     21  C   UNL     1      -3.056  13.113 -11.594  1.00  0.00     0.053 C 
BRANCH  21  22
ATOM     22  C   UNL     1      -1.742  13.519 -11.005  1.00  0.00     0.041 C 
ATOM     23  O   UNL     1      -0.827  13.970 -11.744  1.00  0.00    -0.550 OA
ATOM     24  O   UNL     1      -1.546  13.453  -9.632  1.00  0.00    -0.550 OA
ENDBRANCH  21  22
ENDBRANCH  20  21
ENDBRANCH  19  20
ENDBRANCH  18  19
ENDBRANCH  17  18
ENDBRANCH  16  17
ENDBRANCH  15  16
ENDBRANCH  14  15
ENDBRANCH  13  14
ENDBRANCH   1  13
TORSDOF 20
ENDMDL
MODEL 2
REMARK VINA RESULT:    -2.022      8.619     10.869
REMARK INTER + INTRA:          -8.571
REMARK INTER:                  -4.327
REMARK INTRA:                  -4.243
REMARK UNBOUND:                -4.184
REMARK SMILES CCCCCCCCCCCCCCCCCCCCCC(=O)[O-]
REMARK SMILES IDX 12 1 11 2 10 3 9 4 8 5 7 6 6 7 5 8 4 9 3 10 2 11 1 12 13 13
REMARK SMILES IDX 14 14 15 15 16 16 17 17 18 18 19 19 20 20 21 21 22 22 23 23
REMARK SMILES IDX 24 24
REMARK H PARENT
REMARK Flexibility Score: inf
ROOT
ATOM      1  C   UNL     1      -1.897  12.852  -0.718  1.00  0.00     0.000 C 
ENDROOT
BRANCH   1   2
ATOM      2  C   UNL     1      -0.370  12.660  -0.763  1.00  0.00     0.000 C 
BRANCH   2   3
ATOM      3  C   UNL     1       0.343  12.793   0.596  1.00  0.00     0.000 C 
BRANCH   3   4
ATOM      4  C   UNL     1       0.040  14.127   1.300  1.00  0.00    -0.000 C 
BRANCH   4   5
ATOM      5  C   UNL     1      -0.763  13.943   2.598  1.00  0.00    -0.000 C 
BRANCH   5   6
ATOM      6  C   UNL     1      -0.988  12.467   2.958  1.00  0.00    -0.000 C 
BRANCH   6   7
ATOM      7  C   UNL     1      -2.483  12.127   2.972  1.00  0.00    -0.000 C 
BRANCH   7   8
ATOM      8  C   UNL     1      -2.761  10.836   2.186  1.00  0.00    -0.000 C 
BRANCH   8   9
ATOM      9  C   UNL     1      -1.534   9.913   2.110  1.00  0.00    -0.000 C 
BRANCH   9  10
ATOM     10  C   UNL     1      -1.278   9.387   0.689  1.00  0.00    -0.000 C 
BRANCH  10  11
ATOM     11  C   UNL     1       0.163   8.885   0.541  1.00  0.00    -0.003 C 
ATOM     12  C   UNL     1       1.042   9.383   1.685  1.00  0.00     0.004 C 
ENDBRANCH  10  11
ENDBRANCH   9  10
ENDBRANCH   8   9
ENDBRANCH   7   8
ENDBRANCH   6   7
ENDBRANCH   5   6
ENDBRANCH   4   5
ENDBRANCH   3   4
ENDBRANCH   2   3
ENDBRANCH   1   2
BRANCH   1  13
ATOM     13  C   UNL     1      -2.387  13.979  -1.644  1.00  0.00     0.000 C 
BRANCH  13  14
ATOM     14  C   UNL     1      -2.856  15.220  -0.858  1.00  0.00     0.000 C 
BRANCH  14  15
ATOM     15  C   UNL     1      -1.824  16.360  -0.826  1.00  0.00     0.000 C 
BRANCH  15  16
ATOM     16  C   UNL     1      -0.959  16.413  -2.097  1.00  0.00     0.000 C 
BRANCH  16  17
ATOM     17  C   UNL     1       0.538  16.201  -1.812  1.00  0.00     0.000 C 
BRANCH  17  18
ATOM     18  C   UNL     1       1.257  15.229  -2.768  1.00  0.00     0.000 C 
BRANCH  18  19
ATOM     19  C   UNL     1       0.407  14.806  -3.986  1.00  0.00     0.000 C 
BRANCH  19  20
ATOM     20  C   UNL     1       0.508  13.300  -4.270  1.00  0.00     0.006 C 
BRANCH  20  21
ATOM     21  C   UNL     1       1.756  12.698  -3.618  1.00  0.00     0.053 C 
BRANCH  21  22
ATOM     22  C   UNL     1       2.661  12.117  -4.658  1.00  0.00     0.041 C 
ATOM     23  O   UNL     1       2.969  10.896  -4.622  1.00  0.00    -0.550 OA
ATOM     24  O   UNL     1       3.122  12.912  -5.699  1.00  0.00    -0.550 OA
ENDBRANCH  21  22
ENDBRANCH  20  21
ENDBRANCH  19  20
ENDBRANCH  18  19
ENDBRANCH  17  18
ENDBRANCH  16  17
ENDBRANCH  15  16
ENDBRANCH  14  15
ENDBRANCH  13  14
ENDBRANCH   1  13
TORSDOF 20
ENDMDL
MODEL 3
REMARK VINA RESULT:    -1.969      2.771      5.304
REMARK INTER + INTRA:          -8.455
REMARK INTER:                  -4.587
REMARK INTRA:                  -3.869
REMARK UNBOUND:                -4.184
REMARK SMILES CCCCCCCCCCCCCCCCCCCCCC(=O)[O-]
REMARK SMILES IDX 12 1 11 2 10 3 9 4 8 5 7 6 6 7 5 8 4 9 3 10 2 11 1 12 13 13
REMARK SMILES IDX 14 14 15 15 16 16 17 17 18 18 19 19 20 20 21 21 22 22 23 23
REMARK SMILES IDX 24 24
REMARK H PARENT
REMARK Flexibility Score: inf
ROOT
ATOM      1  C   UNL     1       0.065  12.427 -13.352  1.00  0.00     0.000 C 
ENDROOT
BRANCH   1   2
ATOM      2  C   UNL     1       0.267  11.114 -12.574  1.00  0.00     0.000 C 
BRANCH   2   3
ATOM      3  C   UNL     1      -0.672   9.964 -12.985  1.00  0.00     0.000 C 
BRANCH   3   4
ATOM      4  C   UNL     1      -1.827   9.754 -11.990  1.00  0.00    -0.000 C 
BRANCH   4   5
ATOM      5  C   UNL     1      -3.209   9.902 -12.645  1.00  0.00    -0.000 C 
BRANCH   5   6
ATOM      6  C   UNL     1      -4.299  10.333 -11.652  1.00  0.00    -0.000 C 
BRANCH   6   7
ATOM      7  C   UNL     1      -3.911   9.960 -10.216  1.00  0.00    -0.000 C 
BRANCH   7   8
ATOM      8  C   UNL     1      -5.038   9.174  -9.528  1.00  0.00    -0.000 C 
BRANCH   8   9
ATOM      9  C   UNL     1      -4.922   7.657  -9.747  1.00  0.00    -0.000 C 
BRANCH   9  10
ATOM     10  C   UNL     1      -5.826   6.853  -8.799  1.00  0.00    -0.000 C 
BRANCH  10  11
ATOM     11  C   UNL     1      -6.018   7.589  -7.468  1.00  0.00    -0.003 C 
ATOM     12  C   UNL     1      -5.966   6.621  -6.290  1.00  0.00     0.004 C 
ENDBRANCH  10  11
ENDBRANCH   9  10
ENDBRANCH   8   9
ENDBRANCH   7   8
ENDBRANCH   6   7
ENDBRANCH   5   6
ENDBRANCH   4   5
ENDBRANCH   3   4
ENDBRANCH   2   3
ENDBRANCH   1   2
BRANCH   1  13
ATOM     13  C   UNL     1      -0.442  13.577 -12.464  1.00  0.00     0.000 C 
BRANCH  13  14
ATOM     14  C   UNL     1      -1.967  13.512 -12.238  1.00  0.00     0.000 C 
BRANCH  14  15
ATOM     15  C   UNL     1      -2.366  13.318 -10.765  1.00  0.00     0.000 C 
BRANCH  15  16
ATOM     16  C   UNL     1      -1.150  13.225  -9.828  1.00  0.00     0.000 C 
BRANCH  16  17
ATOM     17  C   UNL     1      -1.084  11.892  -9.062  1.00  0.00     0.000 C 
BRANCH  17  18
ATOM     18  C   UNL     1       0.324  11.275  -8.940  1.00  0.00     0.000 C 
BRANCH  18  19
ATOM     19  C   UNL     1       0.324   9.735  -8.831  1.00  0.00     0.000 C 
BRANCH  19  20
ATOM     20  C   UNL     1      -1.003   9.190  -8.282  1.00  0.00     0.006 C 
BRANCH  20  21
ATOM     21  C   UNL     1      -1.234   7.745  -8.731  1.00  0.00     0.053 C 
BRANCH  21  22
ATOM     22  C   UNL     1      -1.615   6.889  -7.564  1.00  0.00     0.041 C 
ATOM     23  O   UNL     1      -2.569   6.072  -7.660  1.00  0.00    -0.550 OA
ATOM     24  O   UNL     1      -0.882   6.954  -6.387  1.00  0.00    -0.550 OA
ENDBRANCH  21  22
ENDBRANCH  20  21
ENDBRANCH  19  20
ENDBRANCH  18  19
ENDBRANCH  17  18
ENDBRANCH  16  17
ENDBRANCH  15  16
ENDBRANCH  14  15
ENDBRANCH  13  14
ENDBRANCH   1  13
TORSDOF 20
ENDMDL
MODEL 4
REMARK VINA RESULT:    -1.967      2.799      5.436
REMARK INTER + INTRA:          -8.450
REMARK INTER:                  -4.451
REMARK INTRA:                  -3.999
REMARK UNBOUND:                -4.184
REMARK SMILES CCCCCCCCCCCCCCCCCCCCCC(=O)[O-]
REMARK SMILES IDX 12 1 11 2 10 3 9 4 8 5 7 6 6 7 5 8 4 9 3 10 2 11 1 12 13 13
REMARK SMILES IDX 14 14 15 15 16 16 17 17 18 18 19 19 20 20 21 21 22 22 23 23
REMARK SMILES IDX 24 24
REMARK H PARENT
REMARK Flexibility Score: inf
ROOT
ATOM      1  C   UNL     1       0.044   7.455  -9.839  1.00  0.00     0.000 C 
ENDROOT
BRANCH   1   2
ATOM      2  C   UNL     1      -1.215   6.690  -9.393  1.00  0.00     0.000 C 
BRANCH   2   3
ATOM      3  C   UNL     1      -1.002   5.716  -8.219  1.00  0.00     0.000 C 
BRANCH   3   4
ATOM      4  C   UNL     1      -1.104   6.406  -6.847  1.00  0.00    -0.000 C 
BRANCH   4   5
ATOM      5  C   UNL     1       0.258   6.533  -6.145  1.00  0.00    -0.000 C 
BRANCH   5   6
ATOM      6  C   UNL     1       1.295   5.525  -6.664  1.00  0.00    -0.000 C 
BRANCH   6   7
ATOM      7  C   UNL     1       2.580   6.237  -7.104  1.00  0.00    -0.000 C 
BRANCH   7   8
ATOM      8  C   UNL     1       2.434   7.762  -6.980  1.00  0.00    -0.000 C 
BRANCH   8   9
ATOM      9  C   UNL     1       3.155   8.519  -8.107  1.00  0.00    -0.000 C 
BRANCH   9  10
ATOM     10  C   UNL     1       3.011  10.044  -7.979  1.00  0.00    -0.000 C 
BRANCH  10  11
ATOM     11  C   UNL     1       2.581  10.438  -6.561  1.00  0.00    -0.003 C 
ATOM     12  C   UNL     1       3.477  11.537  -5.998  1.00  0.00     0.004 C 
ENDBRANCH  10  11
ENDBRANCH   9  10
ENDBRANCH   8   9
ENDBRANCH   7   8
ENDBRANCH   6   7
ENDBRANCH   5   6
ENDBRANCH   4   5
ENDBRANCH   3   4
ENDBRANCH   2   3
ENDBRANCH   1   2
BRANCH   1  13
ATOM     13  C   UNL     1      -0.141   8.982  -9.808  1.00  0.00     0.000 C 
BRANCH  13  14
ATOM     14  C   UNL     1      -0.756   9.470  -8.480  1.00  0.00     0.000 C 
BRANCH  14  15
ATOM     15  C   UNL     1      -2.078  10.236  -8.655  1.00  0.00     0.000 C 
BRANCH  15  16
ATOM     16  C   UNL     1      -2.323  10.675 -10.108  1.00  0.00     0.000 C 
BRANCH  16  17
ATOM     17  C   UNL     1      -2.099  12.181 -10.325  1.00  0.00     0.000 C 
BRANCH  17  18
ATOM     18  C   UNL     1      -0.631  12.602 -10.541  1.00  0.00     0.000 C 
BRANCH  18  19
ATOM     19  C   UNL     1      -0.125  13.651  -9.527  1.00  0.00     0.000 C 
BRANCH  19  20
ATOM     20  C   UNL     1       0.629  13.008  -8.354  1.00  0.00     0.006 C 
BRANCH  20  21
ATOM     21  C   UNL     1      -0.262  12.913  -7.112  1.00  0.00     0.053 C 
BRANCH  21  22
ATOM     22  C   UNL     1       0.355  13.655  -5.968  1.00  0.00     0.041 C 
ATOM     23  O   UNL     1       1.323  14.437  -6.167  1.00  0.00    -0.550 OA
ATOM     24  O   UNL     1      -0.174  13.527  -4.691  1.00  0.00    -0.550 OA
ENDBRANCH  21  22
ENDBRANCH  20  21
ENDBRANCH  19  20
ENDBRANCH  18  19
ENDBRANCH  17  18
ENDBRANCH  16  17
ENDBRANCH  15  16
ENDBRANCH  14  15
ENDBRANCH  13  14
ENDBRANCH   1  13
TORSDOF 20
ENDMDL
MODEL 5
REMARK VINA RESULT:    -1.962      2.766      6.333
REMARK INTER + INTRA:          -8.439
REMARK INTER:                  -4.467
REMARK INTRA:                  -3.972
REMARK UNBOUND:                -4.184
REMARK SMILES CCCCCCCCCCCCCCCCCCCCCC(=O)[O-]
REMARK SMILES IDX 12 1 11 2 10 3 9 4 8 5 7 6 6 7 5 8 4 9 3 10 2 11 1 12 13 13
REMARK SMILES IDX 14 14 15 15 16 16 17 17 18 18 19 19 20 20 21 21 22 22 23 23
REMARK SMILES IDX 24 24
REMARK H PARENT
REMARK Flexibility Score: inf
ROOT
ATOM      1  C   UNL     1      -1.407   9.706  -9.310  1.00  0.00     0.000 C 
ENDROOT
BRANCH   1   2
ATOM      2  C   UNL     1      -0.573  10.775 -10.041  1.00  0.00     0.000 C 
BRANCH   2   3
ATOM      3  C   UNL     1      -0.111  11.952  -9.161  1.00  0.00     0.000 C 
BRANCH   3   4
ATOM      4  C   UNL     1      -0.393  13.321  -9.803  1.00  0.00    -0.000 C 
BRANCH   4   5
ATOM      5  C   UNL     1      -1.767  13.383 -10.490  1.00  0.00    -0.000 C 
BRANCH   5   6
ATOM      6  C   UNL     1      -1.673  13.713 -11.987  1.00  0.00    -0.000 C 
BRANCH   6   7
ATOM      7  C   UNL     1      -2.530  12.749 -12.817  1.00  0.00    -0.000 C 
BRANCH   7   8
ATOM      8  C   UNL     1      -3.705  12.206 -11.988  1.00  0.00    -0.000 C 
BRANCH   8   9
ATOM      9  C   UNL     1      -4.120  10.787 -12.409  1.00  0.00    -0.000 C 
BRANCH   9  10
ATOM     10  C   UNL     1      -3.014  10.053 -13.181  1.00  0.00    -0.000 C 
BRANCH  10  11
ATOM     11  C   UNL     1      -3.140   8.535 -13.010  1.00  0.00    -0.003 C 
ATOM     12  C   UNL     1      -1.886   7.945 -12.369  1.00  0.00     0.004 C 
ENDBRANCH  10  11
ENDBRANCH   9  10
ENDBRANCH   8   9
ENDBRANCH   7   8
ENDBRANCH   6   7
ENDBRANCH   5   6
ENDBRANCH   4   5
ENDBRANCH   3   4
ENDBRANCH   2   3
ENDBRANCH   1   2
BRANCH   1  13
ATOM     13  C   UNL     1      -2.803  10.210  -8.904  1.00  0.00     0.000 C 
BRANCH  13  14
ATOM     14  C   UNL     1      -3.738   9.059  -8.476  1.00  0.00     0.000 C 
BRANCH  14  15
ATOM     15  C   UNL     1      -4.895   8.804  -9.456  1.00  0.00     0.000 C 
BRANCH  15  16
ATOM     16  C   UNL     1      -4.907   7.366  -9.999  1.00  0.00     0.000 C 
BRANCH  16  17
ATOM     17  C   UNL     1      -4.163   6.374  -9.088  1.00  0.00     0.000 C 
BRANCH  17  18
ATOM     18  C   UNL     1      -3.040   5.570  -9.772  1.00  0.00     0.000 C 
BRANCH  18  19
ATOM     19  C   UNL     1      -1.630   5.864  -9.214  1.00  0.00     0.000 C 
BRANCH  19  20
ATOM     20  C   UNL     1      -1.547   5.636  -7.697  1.00  0.00     0.006 C 
BRANCH  20  21
ATOM     21  C   UNL     1      -1.092   6.906  -6.973  1.00  0.00     0.053 C 
BRANCH  21  22
ATOM     22  C   UNL     1       0.331   6.772  -6.527  1.00  0.00     0.041 C 
ATOM     23  O   UNL     1       0.597   6.509  -5.324  1.00  0.00    -0.550 OA
ATOM     24  O   UNL     1       1.361   6.883  -7.451  1.00  0.00    -0.550 OA
ENDBRANCH  21  22
ENDBRANCH  20  21
ENDBRANCH  19  20
ENDBRANCH  18  19
ENDBRANCH  17  18
ENDBRANCH  16  17
ENDBRANCH  15  16
ENDBRANCH  14  15
ENDBRANCH  13  14
ENDBRANCH   1  13
TORSDOF 20
ENDMDL
MODEL 6
REMARK VINA RESULT:    -1.946      2.302      4.397
REMARK INTER + INTRA:          -8.405
REMARK INTER:                  -3.868
REMARK INTRA:                  -4.537
REMARK UNBOUND:                -4.184
REMARK SMILES CCCCCCCCCCCCCCCCCCCCCC(=O)[O-]
REMARK SMILES IDX 12 1 11 2 10 3 9 4 8 5 7 6 6 7 5 8 4 9 3 10 2 11 1 12 13 13
REMARK SMILES IDX 14 14 15 15 16 16 17 17 18 18 19 19 20 20 21 21 22 22 23 23
REMARK SMILES IDX 24 24
REMARK H PARENT
REMARK Flexibility Score: inf
ROOT
ATOM      1  C   UNL     1       2.010   6.600  -9.339  1.00  0.00     0.000 C 
ENDROOT
BRANCH   1   2
ATOM      2  C   UNL     1       0.900   7.317 -10.128  1.00  0.00     0.000 C 
BRANCH   2   3
ATOM      3  C   UNL     1      -0.352   7.679  -9.307  1.00  0.00     0.000 C 
BRANCH   3   4
ATOM      4  C   UNL     1      -0.038   7.927  -7.822  1.00  0.00    -0.000 C 
BRANCH   4   5
ATOM      5  C   UNL     1      -0.796   6.972  -6.887  1.00  0.00    -0.000 C 
BRANCH   5   6
ATOM      6  C   UNL     1       0.139   6.061  -6.077  1.00  0.00    -0.000 C 
BRANCH   6   7
ATOM      7  C   UNL     1       0.338   4.713  -6.781  1.00  0.00    -0.000 C 
BRANCH   7   8
ATOM      8  C   UNL     1      -0.979   4.212  -7.394  1.00  0.00    -0.000 C 
BRANCH   8   9
ATOM      9  C   UNL     1      -0.876   3.978  -8.909  1.00  0.00    -0.000 C 
BRANCH   9  10
ATOM     10  C   UNL     1      -2.133   4.440  -9.664  1.00  0.00    -0.000 C 
BRANCH  10  11
ATOM     11  C   UNL     1      -3.240   4.852  -8.687  1.00  0.00    -0.003 C 
ATOM     12  C   UNL     1      -3.795   6.231  -9.031  1.00  0.00     0.004 C 
ENDBRANCH  10  11
ENDBRANCH   9  10
ENDBRANCH   8   9
ENDBRANCH   7   8
ENDBRANCH   6   7
ENDBRANCH   5   6
ENDBRANCH   4   5
ENDBRANCH   3   4
ENDBRANCH   2   3
ENDBRANCH   1   2
BRANCH   1  13
ATOM     13  C   UNL     1       3.415   7.143  -9.654  1.00  0.00     0.000 C 
BRANCH  13  14
ATOM     14  C   UNL     1       4.240   7.407  -8.378  1.00  0.00     0.000 C 
BRANCH  14  15
ATOM     15  C   UNL     1       3.481   7.100  -7.076  1.00  0.00     0.000 C 
BRANCH  15  16
ATOM     16  C   UNL     1       3.339   8.332  -6.166  1.00  0.00     0.000 C 
BRANCH  16  17
ATOM     17  C   UNL     1       3.668   9.650  -6.887  1.00  0.00     0.000 C 
BRANCH  17  18
ATOM     18  C   UNL     1       2.445  10.477  -7.332  1.00  0.00     0.000 C 
BRANCH  18  19
ATOM     19  C   UNL     1       2.307  10.617  -8.863  1.00  0.00     0.000 C 
BRANCH  19  20
ATOM     20  C   UNL     1       1.134  11.525  -9.261  1.00  0.00     0.006 C 
BRANCH  20  21
ATOM     21  C   UNL     1       0.114  11.637  -8.125  1.00  0.00     0.053 C 
BRANCH  21  22
ATOM     22  C   UNL     1      -1.270  11.777  -8.678  1.00  0.00     0.041 C 
ATOM     23  O   UNL     1      -1.622  12.846  -9.245  1.00  0.00    -0.550 OA
ATOM     24  O   UNL     1      -2.154  10.708  -8.616  1.00  0.00    -0.550 OA
ENDBRANCH  21  22
ENDBRANCH  20  21
ENDBRANCH  19  20
ENDBRANCH  18  19
ENDBRANCH  17  18
ENDBRANCH  16  17
ENDBRANCH  15  16
ENDBRANCH  14  15
ENDBRANCH  13  14
ENDBRANCH   1  13
TORSDOF 20
ENDMDL
MODEL 7
REMARK VINA RESULT:    -1.918      2.033      4.750
REMARK INTER + INTRA:          -8.344
REMARK INTER:                  -4.850
REMARK INTRA:                  -3.494
REMARK UNBOUND:                -4.184
REMARK SMILES CCCCCCCCCCCCCCCCCCCCCC(=O)[O-]
REMARK SMILES IDX 12 1 11 2 10 3 9 4 8 5 7 6 6 7 5 8 4 9 3 10 2 11 1 12 13 13
REMARK SMILES IDX 14 14 15 15 16 16 17 17 18 18 19 19 20 20 21 21 22 22 23 23
REMARK SMILES IDX 24 24
REMARK H PARENT
REMARK Flexibility Score: inf
ROOT
ATOM      1  C   UNL     1      -4.657   6.794  -8.046  1.00  0.00     0.000 C 
ENDROOT
BRANCH   1   2
ATOM      2  C   UNL     1      -5.032   8.251  -8.374  1.00  0.00     0.000 C 
BRANCH   2   3
ATOM      3  C   UNL     1      -6.415   8.434  -9.026  1.00  0.00     0.000 C 
BRANCH   3   4
ATOM      4  C   UNL     1      -6.329   8.734 -10.533  1.00  0.00    -0.000 C 
BRANCH   4   5
ATOM      5  C   UNL     1      -5.125   9.620 -10.893  1.00  0.00    -0.000 C 
BRANCH   5   6
ATOM      6  C   UNL     1      -4.223   8.994 -11.968  1.00  0.00    -0.000 C 
BRANCH   6   7
ATOM      7  C   UNL     1      -3.768  10.049 -12.984  1.00  0.00    -0.000 C 
BRANCH   7   8
ATOM      8  C   UNL     1      -4.973  10.685 -13.694  1.00  0.00    -0.000 C 
BRANCH   8   9
ATOM      9  C   UNL     1      -4.817  12.202 -13.881  1.00  0.00    -0.000 C 
BRANCH   9  10
ATOM     10  C   UNL     1      -5.151  12.992 -12.605  1.00  0.00    -0.000 C 
BRANCH  10  11
ATOM     11  C   UNL     1      -3.887  13.612 -11.997  1.00  0.00    -0.003 C 
ATOM     12  C   UNL     1      -2.801  13.800 -13.053  1.00  0.00     0.004 C 
ENDBRANCH  10  11
ENDBRANCH   9  10
ENDBRANCH   8   9
ENDBRANCH   7   8
ENDBRANCH   6   7
ENDBRANCH   5   6
ENDBRANCH   4   5
ENDBRANCH   3   4
ENDBRANCH   2   3
ENDBRANCH   1   2
BRANCH   1  13
ATOM     13  C   UNL     1      -3.228   6.430  -8.486  1.00  0.00     0.000 C 
BRANCH  13  14
ATOM     14  C   UNL     1      -2.487   7.628  -9.115  1.00  0.00     0.000 C 
BRANCH  14  15
ATOM     15  C   UNL     1      -1.205   8.026  -8.364  1.00  0.00     0.000 C 
BRANCH  15  16
ATOM     16  C   UNL     1      -0.847   9.511  -8.544  1.00  0.00     0.000 C 
BRANCH  16  17
ATOM     17  C   UNL     1      -2.083  10.427  -8.565  1.00  0.00     0.000 C 
BRANCH  17  18
ATOM     18  C   UNL     1      -2.211  11.326  -9.811  1.00  0.00     0.000 C 
BRANCH  18  19
ATOM     19  C   UNL     1      -0.877  11.950 -10.273  1.00  0.00     0.000 C 
BRANCH  19  20
ATOM     20  C   UNL     1      -0.738  13.416  -9.835  1.00  0.00     0.006 C 
BRANCH  20  21
ATOM     21  C   UNL     1       0.531  13.626  -9.004  1.00  0.00     0.053 C 
BRANCH  21  22
ATOM     22  C   UNL     1       0.365  13.036  -7.638  1.00  0.00     0.041 C 
ATOM     23  O   UNL     1      -0.684  13.254  -6.976  1.00  0.00    -0.550 OA
ATOM     24  O   UNL     1       1.344  12.200  -7.119  1.00  0.00    -0.550 OA
ENDBRANCH  21  22
ENDBRANCH  20  21
ENDBRANCH  19  20
ENDBRANCH  18  19
ENDBRANCH  17  18
ENDBRANCH  16  17
ENDBRANCH  15  16
ENDBRANCH  14  15
ENDBRANCH  13  14
ENDBRANCH   1  13
TORSDOF 20
ENDMDL
MODEL 8
REMARK VINA RESULT:    -1.896      4.142      7.452
REMARK INTER + INTRA:          -8.296
REMARK INTER:                  -4.610
REMARK INTRA:                  -3.686
REMARK UNBOUND:                -4.184
REMARK SMILES CCCCCCCCCCCCCCCCCCCCCC(=O)[O-]
REMARK SMILES IDX 12 1 11 2 10 3 9 4 8 5 7 6 6 7 5 8 4 9 3 10 2 11 1 12 13 13
REMARK SMILES IDX 14 14 15 15 16 16 17 17 18 18 19 19 20 20 21 21 22 22 23 23
REMARK SMILES IDX 24 24
REMARK H PARENT
REMARK Flexibility Score: inf
ROOT
ATOM      1  C   UNL     1       1.491  10.362 -11.457  1.00  0.00     0.000 C 
ENDROOT
BRANCH   1   2
ATOM      2  C   UNL     1       2.320  10.625 -10.187  1.00  0.00     0.000 C 
BRANCH   2   3
ATOM      3  C   UNL     1       2.716  12.096  -9.961  1.00  0.00     0.000 C 
BRANCH   3   4
ATOM      4  C   UNL     1       2.716  12.491  -8.474  1.00  0.00    -0.000 C 
BRANCH   4   5
ATOM      5  C   UNL     1       2.610  14.010  -8.265  1.00  0.00    -0.000 C 
BRANCH   5   6
ATOM      6  C   UNL     1       1.906  14.385  -6.951  1.00  0.00    -0.000 C 
BRANCH   6   7
ATOM      7  C   UNL     1       1.286  13.148  -6.289  1.00  0.00    -0.000 C 
BRANCH   7   8
ATOM      8  C   UNL     1      -0.160  13.426  -5.850  1.00  0.00    -0.000 C 
BRANCH   8   9
ATOM      9  C   UNL     1      -0.351  13.304  -4.330  1.00  0.00    -0.000 C 
BRANCH   9  10
ATOM     10  C   UNL     1       0.204  14.516  -3.566  1.00  0.00    -0.000 C 
BRANCH  10  11
ATOM     11  C   UNL     1       1.216  14.078  -2.501  1.00  0.00    -0.003 C 
ATOM     12  C   UNL     1       1.458  12.572  -2.556  1.00  0.00     0.004 C 
ENDBRANCH  10  11
ENDBRANCH   9  10
ENDBRANCH   8   9
ENDBRANCH   7   8
ENDBRANCH   6   7
ENDBRANCH   5   6
ENDBRANCH   4   5
ENDBRANCH   3   4
ENDBRANCH   2   3
ENDBRANCH   1   2
BRANCH   1  13
ATOM     13  C   UNL     1       1.028  11.657 -12.148  1.00  0.00     0.000 C 
BRANCH  13  14
ATOM     14  C   UNL     1      -0.439  11.576 -12.619  1.00  0.00     0.000 C 
BRANCH  14  15
ATOM     15  C   UNL     1      -1.378  12.554 -11.891  1.00  0.00     0.000 C 
BRANCH  15  16
ATOM     16  C   UNL     1      -0.622  13.536 -10.981  1.00  0.00     0.000 C 
BRANCH  16  17
ATOM     17  C   UNL     1      -0.790  13.216  -9.485  1.00  0.00     0.000 C 
BRANCH  17  18
ATOM     18  C   UNL     1      -1.602  11.943  -9.173  1.00  0.00     0.000 C 
BRANCH  18  19
ATOM     19  C   UNL     1      -0.821  10.886  -8.363  1.00  0.00     0.000 C 
BRANCH  19  20
ATOM     20  C   UNL     1      -1.121   9.455  -8.835  1.00  0.00     0.006 C 
BRANCH  20  21
ATOM     21  C   UNL     1      -0.082   8.467  -8.295  1.00  0.00     0.053 C 
BRANCH  21  22
ATOM     22  C   UNL     1      -0.754   7.240  -7.764  1.00  0.00     0.041 C 
ATOM     23  O   UNL     1      -1.124   6.328  -8.551  1.00  0.00    -0.550 OA
ATOM     24  O   UNL     1      -0.924   7.078  -6.396  1.00  0.00    -0.550 OA
ENDBRANCH  21  22
ENDBRANCH  20  21
ENDBRANCH  19  20
ENDBRANCH  18  19
ENDBRANCH  17  18
ENDBRANCH  16  17
ENDBRANCH  15  16
ENDBRANCH  14  15
ENDBRANCH  13  14
ENDBRANCH   1  13
TORSDOF 20
ENDMDL
MODEL 9
REMARK VINA RESULT:    -1.895      8.678     11.395
REMARK INTER + INTRA:          -8.294
REMARK INTER:                  -4.218
REMARK INTRA:                  -4.077
REMARK UNBOUND:                -4.184
REMARK SMILES CCCCCCCCCCCCCCCCCCCCCC(=O)[O-]
REMARK SMILES IDX 12 1 11 2 10 3 9 4 8 5 7 6 6 7 5 8 4 9 3 10 2 11 1 12 13 13
REMARK SMILES IDX 14 14 15 15 16 16 17 17 18 18 19 19 20 20 21 21 22 22 23 23
REMARK SMILES IDX 24 24
REMARK H PARENT
REMARK Flexibility Score: inf
ROOT
ATOM      1  C   UNL     1      -2.123  12.686  -0.167  1.00  0.00     0.000 C 
ENDROOT
BRANCH   1   2
ATOM      2  C   UNL     1      -2.830  13.976  -0.623  1.00  0.00     0.000 C 
BRANCH   2   3
ATOM      3  C   UNL     1      -1.974  14.911  -1.497  1.00  0.00     0.000 C 
BRANCH   3   4
ATOM      4  C   UNL     1      -2.047  16.380  -1.046  1.00  0.00    -0.000 C 
BRANCH   4   5
ATOM      5  C   UNL     1      -0.951  17.251  -1.681  1.00  0.00    -0.000 C 
BRANCH   5   6
ATOM      6  C   UNL     1      -0.101  16.488  -2.709  1.00  0.00    -0.000 C 
BRANCH   6   7
ATOM      7  C   UNL     1       1.361  16.400  -2.254  1.00  0.00    -0.000 C 
BRANCH   7   8
ATOM      8  C   UNL     1       1.554  17.075  -0.888  1.00  0.00    -0.000 C 
BRANCH   8   9
ATOM      9  C   UNL     1       2.143  16.123   0.166  1.00  0.00    -0.000 C 
BRANCH   9  10
ATOM     10  C   UNL     1       1.106  15.126   0.706  1.00  0.00    -0.000 C 
BRANCH  10  11
ATOM     11  C   UNL     1       0.997  15.220   2.232  1.00  0.00    -0.003 C 
ATOM     12  C   UNL     1       1.866  14.167   2.914  1.00  0.00     0.004 C 
ENDBRANCH  10  11
ENDBRANCH   9  10
ENDBRANCH   8   9
ENDBRANCH   7   8
ENDBRANCH   6   7
ENDBRANCH   5   6
ENDBRANCH   4   5
ENDBRANCH   3   4
ENDBRANCH   2   3
ENDBRANCH   1   2
BRANCH   1  13
ATOM     13  C   UNL     1      -1.711  12.721   1.315  1.00  0.00     0.000 C 
BRANCH  13  14
ATOM     14  C   UNL     1      -0.519  11.788   1.613  1.00  0.00     0.000 C 
BRANCH  14  15
ATOM     15  C   UNL     1      -0.516  10.501   0.772  1.00  0.00     0.000 C 
BRANCH  15  16
ATOM     16  C   UNL     1       0.812  10.279   0.029  1.00  0.00     0.000 C 
BRANCH  16  17
ATOM     17  C   UNL     1       1.752  11.495   0.105  1.00  0.00     0.000 C 
BRANCH  17  18
ATOM     18  C   UNL     1       2.117  12.128  -1.253  1.00  0.00     0.000 C 
BRANCH  18  19
ATOM     19  C   UNL     1       0.914  12.737  -2.004  1.00  0.00     0.000 C 
BRANCH  19  20
ATOM     20  C   UNL     1       1.149  12.803  -3.521  1.00  0.00     0.006 C 
BRANCH  20  21
ATOM     21  C   UNL     1      -0.121  13.240  -4.257  1.00  0.00     0.053 C 
BRANCH  21  22
ATOM     22  C   UNL     1       0.221  13.804  -5.600  1.00  0.00     0.041 C 
ATOM     23  O   UNL     1       1.178  14.614  -5.724  1.00  0.00    -0.550 OA
ATOM     24  O   UNL     1      -0.481  13.393  -6.725  1.00  0.00    -0.550 OA
ENDBRANCH  21  22
ENDBRANCH  20  21
ENDBRANCH  19  20
ENDBRANCH  18  19
ENDBRANCH  17  18
ENDBRANCH  16  17
ENDBRANCH  15  16
ENDBRANCH  14  15
ENDBRANCH  13  14
ENDBRANCH   1  13
TORSDOF 20
ENDMDL
