MODEL 1
REMARK VINA RESULT:    -4.482      0.000      0.000
REMARK INTER + INTRA:         -10.180
REMARK INTER:                  -8.151
REMARK INTRA:                  -2.029
REMARK UNBOUND:                -2.029
REMARK SMILES CCCCCCCCCCCCCCCC(=O)[O-]
REMARK SMILES IDX 9 1 10 2 11 3 12 4 13 5 14 6 15 7 16 8 17 9 18 10 8 11 7 12
REMARK SMILES IDX 6 13 5 14 4 15 3 16 2 17 1 18
REMARK H PARENT
REMARK Flexibility Score: inf
ROOT
ATOM      1  C   UNL     1      -5.294  -5.969   8.113  1.00  0.00     0.000 C 
ENDROOT
BRANCH   1   2
ATOM      2  C   UNL     1      -6.300  -5.966   6.946  1.00  0.00     0.000 C 
BRANCH   2   3
ATOM      3  C   UNL     1      -5.791  -5.191   5.718  1.00  0.00     0.000 C 
BRANCH   3   4
ATOM      4  C   UNL     1      -5.828  -6.030   4.430  1.00  0.00     0.000 C 
BRANCH   4   5
ATOM      5  C   UNL     1      -6.145  -7.521   4.670  1.00  0.00     0.000 C 
BRANCH   5   6
ATOM      6  C   UNL     1      -4.958  -8.432   4.305  1.00  0.00     0.006 C 
BRANCH   6   7
ATOM      7  C   UNL     1      -4.001  -8.641   5.485  1.00  0.00     0.053 C 
BRANCH   7   8
ATOM      8  C   UNL     1      -2.706  -7.917   5.284  1.00  0.00     0.041 C 
ATOM      9  O   UNL     1      -2.613  -6.692   5.564  1.00  0.00    -0.550 OA
ATOM     10  O   UNL     1      -1.608  -8.587   4.756  1.00  0.00    -0.550 OA
ENDBRANCH   7   8
ENDBRANCH   6   7
ENDBRANCH   5   6
ENDBRANCH   4   5
ENDBRANCH   3   4
ENDBRANCH   2   3
ENDBRANCH   1   2
BRANCH   1  11
ATOM     11  C   UNL     1      -4.158  -4.930   8.012  1.00  0.00     0.000 C 
BRANCH  11  12
ATOM     12  C   UNL     1      -4.331  -3.681   8.897  1.00  0.00    -0.000 C 
BRANCH  12  13
ATOM     13  C   UNL     1      -5.640  -3.642   9.707  1.00  0.00    -0.000 C 
BRANCH  13  14
ATOM     14  C   UNL     1      -6.570  -2.469   9.327  1.00  0.00    -0.000 C 
BRANCH  14  15
ATOM     15  C   UNL     1      -6.619  -2.229   7.808  1.00  0.00    -0.000 C 
BRANCH  15  16
ATOM     16  C   UNL     1      -7.953  -2.667   7.182  1.00  0.00    -0.000 C 
BRANCH  16  17
ATOM     17  C   UNL     1      -8.089  -2.233   5.715  1.00  0.00    -0.003 C 
ATOM     18  C   UNL     1      -7.910  -0.724   5.571  1.00  0.00     0.004 C 
ENDBRANCH  16  17
ENDBRANCH  15  16
ENDBRANCH  14  15
ENDBRANCH  13  14
ENDBRANCH  12  13
ENDBRANCH  11  12
ENDBRANCH   1  11
TORSDOF 14
ENDMDL
MODEL 2
REMARK VINA RESULT:    -4.379      3.025      6.110
REMARK INTER + INTRA:          -9.992
REMARK INTER:                  -7.580
REMARK INTRA:                  -2.412
REMARK UNBOUND:                -2.029
REMARK SMILES CCCCCCCCCCCCCCCC(=O)[O-]
REMARK SMILES IDX 9 1 10 2 11 3 12 4 13 5 14 6 15 7 16 8 17 9 18 10 8 11 7 12
REMARK SMILES IDX 6 13 5 14 4 15 3 16 2 17 1 18
REMARK H PARENT
REMARK Flexibility Score: inf
ROOT
ATOM      1  C   UNL     1      -4.135  -5.258   7.707  1.00  0.00     0.000 C 
ENDROOT
BRANCH   1   2
ATOM      2  C   UNL     1      -4.996  -5.831   8.849  1.00  0.00     0.000 C 
BRANCH   2   3
ATOM      3  C   UNL     1      -5.814  -4.754   9.581  1.00  0.00     0.000 C 
BRANCH   3   4
ATOM      4  C   UNL     1      -5.353  -3.326   9.245  1.00  0.00     0.000 C 
BRANCH   4   5
ATOM      5  C   UNL     1      -6.515  -2.332   9.036  1.00  0.00     0.000 C 
BRANCH   5   6
ATOM      6  C   UNL     1      -6.518  -1.735   7.617  1.00  0.00     0.006 C 
BRANCH   6   7
ATOM      7  C   UNL     1      -7.882  -1.145   7.236  1.00  0.00     0.053 C 
BRANCH   7   8
ATOM      8  C   UNL     1      -7.897  -0.650   5.823  1.00  0.00     0.041 C 
ATOM      9  O   UNL     1      -7.524  -1.400   4.883  1.00  0.00    -0.550 OA
ATOM     10  O   UNL     1      -8.293   0.654   5.548  1.00  0.00    -0.550 OA
ENDBRANCH   7   8
ENDBRANCH   6   7
ENDBRANCH   5   6
ENDBRANCH   4   5
ENDBRANCH   3   4
ENDBRANCH   2   3
ENDBRANCH   1   2
BRANCH   1  11
ATOM     11  C   UNL     1      -3.839  -6.233   6.547  1.00  0.00     0.000 C 
BRANCH  11  12
ATOM     12  C   UNL     1      -4.518  -7.610   6.659  1.00  0.00    -0.000 C 
BRANCH  12  13
ATOM     13  C   UNL     1      -5.502  -7.937   5.520  1.00  0.00    -0.000 C 
BRANCH  13  14
ATOM     14  C   UNL     1      -5.603  -6.827   4.450  1.00  0.00    -0.000 C 
BRANCH  14  15
ATOM     15  C   UNL     1      -6.965  -6.114   4.471  1.00  0.00    -0.000 C 
BRANCH  15  16
ATOM     16  C   UNL     1      -6.944  -4.821   5.302  1.00  0.00    -0.000 C 
BRANCH  16  17
ATOM     17  C   UNL     1      -8.120  -4.731   6.287  1.00  0.00    -0.003 C 
ATOM     18  C   UNL     1      -8.273  -6.027   7.077  1.00  0.00     0.004 C 
ENDBRANCH  16  17
ENDBRANCH  15  16
ENDBRANCH  14  15
ENDBRANCH  13  14
ENDBRANCH  12  13
ENDBRANCH  11  12
ENDBRANCH   1  11
TORSDOF 14
ENDMDL
MODEL 3
REMARK VINA RESULT:    -4.326      1.467      2.863
REMARK INTER + INTRA:          -9.895
REMARK INTER:                  -8.179
REMARK INTRA:                  -1.716
REMARK UNBOUND:                -2.029
REMARK SMILES CCCCCCCCCCCCCCCC(=O)[O-]
REMARK SMILES IDX 9 1 10 2 11 3 12 4 13 5 14 6 15 7 16 8 17 9 18 10 8 11 7 12
REMARK SMILES IDX 6 13 5 14 4 15 3 16 2 17 1 18
REMARK H PARENT
REMARK Flexibility Score: inf
ROOT
ATOM      1  C   UNL     1      -5.771  -4.833   9.646  1.00  0.00     0.000 C 
ENDROOT
BRANCH   1   2
ATOM      2  C   UNL     1      -5.139  -5.916   8.751  1.00  0.00     0.000 C 
BRANCH   2   3
ATOM      3  C   UNL     1      -4.188  -5.338   7.690  1.00  0.00     0.000 C 
BRANCH   3   4
ATOM      4  C   UNL     1      -3.843  -6.350   6.585  1.00  0.00     0.000 C 
BRANCH   4   5
ATOM      5  C   UNL     1      -4.359  -7.777   6.870  1.00  0.00     0.000 C 
BRANCH   5   6
ATOM      6  C   UNL     1      -3.537  -8.848   6.131  1.00  0.00     0.006 C 
BRANCH   6   7
ATOM      7  C   UNL     1      -2.270  -8.269   5.487  1.00  0.00     0.053 C 
BRANCH   7   8
ATOM      8  C   UNL     1      -1.898  -9.004   4.236  1.00  0.00     0.041 C 
ATOM      9  O   UNL     1      -2.653  -9.903   3.779  1.00  0.00    -0.550 OA
ATOM     10  O   UNL     1      -0.699  -8.719   3.593  1.00  0.00    -0.550 OA
ENDBRANCH   7   8
ENDBRANCH   6   7
ENDBRANCH   5   6
ENDBRANCH   4   5
ENDBRANCH   3   4
ENDBRANCH   2   3
ENDBRANCH   1   2
BRANCH   1  11
ATOM     11  C   UNL     1      -5.272  -3.394   9.398  1.00  0.00     0.000 C 
BRANCH  11  12
ATOM     12  C   UNL     1      -6.375  -2.359   9.110  1.00  0.00    -0.000 C 
BRANCH  12  13
ATOM     13  C   UNL     1      -7.396  -2.785   8.039  1.00  0.00    -0.000 C 
BRANCH  13  14
ATOM     14  C   UNL     1      -6.802  -2.866   6.615  1.00  0.00    -0.000 C 
BRANCH  14  15
ATOM     15  C   UNL     1      -7.890  -2.923   5.529  1.00  0.00    -0.000 C 
BRANCH  15  16
ATOM     16  C   UNL     1      -7.783  -4.179   4.649  1.00  0.00    -0.000 C 
BRANCH  16  17
ATOM     17  C   UNL     1      -7.205  -5.385   5.405  1.00  0.00    -0.003 C 
ATOM     18  C   UNL     1      -6.876  -6.526   4.447  1.00  0.00     0.004 C 
ENDBRANCH  16  17
ENDBRANCH  15  16
ENDBRANCH  14  15
ENDBRANCH  13  14
ENDBRANCH  12  13
ENDBRANCH  11  12
ENDBRANCH   1  11
TORSDOF 14
ENDMDL
MODEL 4
REMARK VINA RESULT:    -4.307      1.032      3.142
REMARK INTER + INTRA:          -9.862
REMARK INTER:                  -8.102
REMARK INTRA:                  -1.759
REMARK UNBOUND:                -2.029
REMARK SMILES CCCCCCCCCCCCCCCC(=O)[O-]
REMARK SMILES IDX 9 1 10 2 11 3 12 4 13 5 14 6 15 7 16 8 17 9 18 10 8 11 7 12
REMARK SMILES IDX 6 13 5 14 4 15 3 16 2 17 1 18
REMARK H PARENT
REMARK Flexibility Score: inf
ROOT
ATOM      1  C   UNL     1      -7.345  -4.281   6.005  1.00  0.00     0.000 C 
ENDROOT
BRANCH   1   2
ATOM      2  C   UNL     1      -6.207  -4.935   5.199  1.00  0.00     0.000 C 
BRANCH   2   3
ATOM      3  C   UNL     1      -6.648  -6.216   4.469  1.00  0.00     0.000 C 
BRANCH   3   4
ATOM      4  C   UNL     1      -6.953  -7.374   5.434  1.00  0.00     0.000 C 
BRANCH   4   5
ATOM      5  C   UNL     1      -5.901  -8.503   5.398  1.00  0.00     0.000 C 
BRANCH   5   6
ATOM      6  C   UNL     1      -4.709  -8.156   4.487  1.00  0.00     0.006 C 
BRANCH   6   7
ATOM      7  C   UNL     1      -3.575  -9.183   4.595  1.00  0.00     0.053 C 
BRANCH   7   8
ATOM      8  C   UNL     1      -2.243  -8.523   4.773  1.00  0.00     0.041 C 
ATOM      9  O   UNL     1      -2.077  -7.661   5.676  1.00  0.00    -0.550 OA
ATOM     10  O   UNL     1      -1.193  -8.834   3.917  1.00  0.00    -0.550 OA
ENDBRANCH   7   8
ENDBRANCH   6   7
ENDBRANCH   5   6
ENDBRANCH   4   5
ENDBRANCH   3   4
ENDBRANCH   2   3
ENDBRANCH   1   2
BRANCH   1  11
ATOM     11  C   UNL     1      -7.689  -2.830   5.609  1.00  0.00     0.000 C 
BRANCH  11  12
ATOM     12  C   UNL     1      -7.521  -1.787   6.730  1.00  0.00    -0.000 C 
BRANCH  12  13
ATOM     13  C   UNL     1      -6.286  -1.998   7.626  1.00  0.00    -0.000 C 
BRANCH  13  14
ATOM     14  C   UNL     1      -6.630  -2.200   9.119  1.00  0.00    -0.000 C 
BRANCH  14  15
ATOM     15  C   UNL     1      -5.664  -3.172   9.817  1.00  0.00    -0.000 C 
BRANCH  15  16
ATOM     16  C   UNL     1      -4.888  -4.052   8.825  1.00  0.00    -0.000 C 
BRANCH  16  17
ATOM     17  C   UNL     1      -5.274  -5.536   8.922  1.00  0.00    -0.003 C 
ATOM     18  C   UNL     1      -4.359  -6.398   8.057  1.00  0.00     0.004 C 
ENDBRANCH  16  17
ENDBRANCH  15  16
ENDBRANCH  14  15
ENDBRANCH  13  14
ENDBRANCH  12  13
ENDBRANCH  11  12
ENDBRANCH   1  11
TORSDOF 14
ENDMDL
MODEL 5
REMARK VINA RESULT:    -4.246      2.465      6.154
REMARK INTER + INTRA:          -9.750
REMARK INTER:                  -7.717
REMARK INTRA:                  -2.033
REMARK UNBOUND:                -2.029
REMARK SMILES CCCCCCCCCCCCCCCC(=O)[O-]
REMARK SMILES IDX 9 1 10 2 11 3 12 4 13 5 14 6 15 7 16 8 17 9 18 10 8 11 7 12
REMARK SMILES IDX 6 13 5 14 4 15 3 16 2 17 1 18
REMARK H PARENT
REMARK Flexibility Score: inf
ROOT
ATOM      1  C   UNL     1      -3.849  -7.747   7.189  1.00  0.00     0.000 C 
ENDROOT
BRANCH   1   2
ATOM      2  C   UNL     1      -3.922  -6.285   6.710  1.00  0.00     0.000 C 
BRANCH   2   3
ATOM      3  C   UNL     1      -4.128  -5.286   7.861  1.00  0.00     0.000 C 
BRANCH   3   4
ATOM      4  C   UNL     1      -5.313  -5.660   8.768  1.00  0.00     0.000 C 
BRANCH   4   5
ATOM      5  C   UNL     1      -6.230  -4.467   9.111  1.00  0.00     0.000 C 
BRANCH   5   6
ATOM      6  C   UNL     1      -7.566  -4.526   8.347  1.00  0.00     0.006 C 
BRANCH   6   7
ATOM      7  C   UNL     1      -7.806  -3.272   7.496  1.00  0.00     0.053 C 
BRANCH   7   8
ATOM      8  C   UNL     1      -6.661  -3.004   6.568  1.00  0.00     0.041 C 
ATOM      9  O   UNL     1      -5.961  -1.966   6.707  1.00  0.00    -0.550 OA
ATOM     10  O   UNL     1      -6.389  -3.884   5.527  1.00  0.00    -0.550 OA
ENDBRANCH   7   8
ENDBRANCH   6   7
ENDBRANCH   5   6
ENDBRANCH   4   5
ENDBRANCH   3   4
ENDBRANCH   2   3
ENDBRANCH   1   2
BRANCH   1  11
ATOM     11  C   UNL     1      -2.686  -8.579   6.607  1.00  0.00     0.000 C 
BRANCH  11  12
ATOM     12  C   UNL     1      -2.355  -8.296   5.129  1.00  0.00    -0.000 C 
BRANCH  12  13
ATOM     13  C   UNL     1      -2.894  -9.344   4.137  1.00  0.00    -0.000 C 
BRANCH  13  14
ATOM     14  C   UNL     1      -4.324  -9.044   3.635  1.00  0.00    -0.000 C 
BRANCH  14  15
ATOM     15  C   UNL     1      -5.397  -9.794   4.441  1.00  0.00    -0.000 C 
BRANCH  15  16
ATOM     16  C   UNL     1      -6.775  -9.117   4.366  1.00  0.00    -0.000 C 
BRANCH  16  17
ATOM     17  C   UNL     1      -6.728  -7.631   4.751  1.00  0.00    -0.003 C 
ATOM     18  C   UNL     1      -7.413  -7.390   6.093  1.00  0.00     0.004 C 
ENDBRANCH  16  17
ENDBRANCH  15  16
ENDBRANCH  14  15
ENDBRANCH  13  14
ENDBRANCH  12  13
ENDBRANCH  11  12
ENDBRANCH   1  11
TORSDOF 14
ENDMDL
MODEL 6
REMARK VINA RESULT:    -4.223      2.657      6.372
REMARK INTER + INTRA:          -9.708
REMARK INTER:                  -7.611
REMARK INTRA:                  -2.097
REMARK UNBOUND:                -2.029
REMARK SMILES CCCCCCCCCCCCCCCC(=O)[O-]
REMARK SMILES IDX 9 1 10 2 11 3 12 4 13 5 14 6 15 7 16 8 17 9 18 10 8 11 7 12
REMARK SMILES IDX 6 13 5 14 4 15 3 16 2 17 1 18
REMARK H PARENT
REMARK Flexibility Score: inf
ROOT
ATOM      1  C   UNL     1      -4.994  -5.836   8.646  1.00  0.00     0.000 C 
ENDROOT
BRANCH   1   2
ATOM      2  C   UNL     1      -5.670  -4.866   9.633  1.00  0.00     0.000 C 
BRANCH   2   3
ATOM      3  C   UNL     1      -5.224  -3.407   9.442  1.00  0.00     0.000 C 
BRANCH   3   4
ATOM      4  C   UNL     1      -6.389  -2.471   9.081  1.00  0.00     0.000 C 
BRANCH   4   5
ATOM      5  C   UNL     1      -7.704  -3.213   8.762  1.00  0.00     0.000 C 
BRANCH   5   6
ATOM      6  C   UNL     1      -8.367  -2.690   7.475  1.00  0.00     0.006 C 
BRANCH   6   7
ATOM      7  C   UNL     1      -7.554  -1.569   6.815  1.00  0.00     0.053 C 
BRANCH   7   8
ATOM      8  C   UNL     1      -7.651  -1.617   5.322  1.00  0.00     0.041 C 
ATOM      9  O   UNL     1      -7.830  -2.716   4.732  1.00  0.00    -0.550 OA
ATOM     10  O   UNL     1      -7.511  -0.451   4.578  1.00  0.00    -0.550 OA
ENDBRANCH   7   8
ENDBRANCH   6   7
ENDBRANCH   5   6
ENDBRANCH   4   5
ENDBRANCH   3   4
ENDBRANCH   2   3
ENDBRANCH   1   2
BRANCH   1  11
ATOM     11  C   UNL     1      -4.392  -5.184   7.383  1.00  0.00     0.000 C 
BRANCH  11  12
ATOM     12  C   UNL     1      -5.415  -4.775   6.306  1.00  0.00    -0.000 C 
BRANCH  12  13
ATOM     13  C   UNL     1      -6.468  -5.849   5.977  1.00  0.00    -0.000 C 
BRANCH  13  14
ATOM     14  C   UNL     1      -6.320  -6.449   4.561  1.00  0.00    -0.000 C 
BRANCH  14  15
ATOM     15  C   UNL     1      -6.043  -7.962   4.591  1.00  0.00    -0.000 C 
BRANCH  15  16
ATOM     16  C   UNL     1      -4.543  -8.289   4.653  1.00  0.00    -0.000 C 
BRANCH  16  17
ATOM     17  C   UNL     1      -4.078  -8.678   6.064  1.00  0.00    -0.003 C 
ATOM     18  C   UNL     1      -2.629  -8.262   6.299  1.00  0.00     0.004 C 
ENDBRANCH  16  17
ENDBRANCH  15  16
ENDBRANCH  14  15
ENDBRANCH  13  14
ENDBRANCH  12  13
ENDBRANCH  11  12
ENDBRANCH   1  11
TORSDOF 14
ENDMDL
MODEL 7
REMARK VINA RESULT:    -4.211      1.557      3.619
REMARK INTER + INTRA:          -9.686
REMARK INTER:                  -7.791
REMARK INTRA:                  -1.894
REMARK UNBOUND:                -2.029
REMARK SMILES CCCCCCCCCCCCCCCC(=O)[O-]
REMARK SMILES IDX 9 1 10 2 11 3 12 4 13 5 14 6 15 7 16 8 17 9 18 10 8 11 7 12
REMARK SMILES IDX 6 13 5 14 4 15 3 16 2 17 1 18
REMARK H PARENT
REMARK Flexibility Score: inf
ROOT
ATOM      1  C   UNL     1      -7.248  -6.560   4.403  1.00  0.00     0.000 C 
ENDROOT
BRANCH   1   2
ATOM      2  C   UNL     1      -5.791  -6.063   4.365  1.00  0.00     0.000 C 
BRANCH   2   3
ATOM      3  C   UNL     1      -4.827  -6.972   5.147  1.00  0.00     0.000 C 
BRANCH   3   4
ATOM      4  C   UNL     1      -5.455  -8.325   5.517  1.00  0.00     0.000 C 
BRANCH   4   5
ATOM      5  C   UNL     1      -4.816  -9.526   4.786  1.00  0.00     0.000 C 
BRANCH   5   6
ATOM      6  C   UNL     1      -4.009  -9.088   3.551  1.00  0.00     0.006 C 
BRANCH   6   7
ATOM      7  C   UNL     1      -2.671  -9.830   3.437  1.00  0.00     0.053 C 
BRANCH   7   8
ATOM      8  C   UNL     1      -1.528  -8.992   3.920  1.00  0.00     0.041 C 
ATOM      9  O   UNL     1      -1.654  -8.280   4.951  1.00  0.00    -0.550 OA
ATOM     10  O   UNL     1      -0.332  -8.972   3.211  1.00  0.00    -0.550 OA
ENDBRANCH   7   8
ENDBRANCH   6   7
ENDBRANCH   5   6
ENDBRANCH   4   5
ENDBRANCH   3   4
ENDBRANCH   2   3
ENDBRANCH   1   2
BRANCH   1  11
ATOM     11  C   UNL     1      -8.326  -5.455   4.400  1.00  0.00     0.000 C 
BRANCH  11  12
ATOM     12  C   UNL     1      -7.793  -4.019   4.569  1.00  0.00    -0.000 C 
BRANCH  12  13
ATOM     13  C   UNL     1      -8.542  -3.173   5.615  1.00  0.00    -0.000 C 
BRANCH  13  14
ATOM     14  C   UNL     1      -8.444  -3.733   7.051  1.00  0.00    -0.000 C 
BRANCH  14  15
ATOM     15  C   UNL     1      -6.989  -3.962   7.493  1.00  0.00    -0.000 C 
BRANCH  15  16
ATOM     16  C   UNL     1      -6.716  -5.417   7.905  1.00  0.00    -0.000 C 
BRANCH  16  17
ATOM     17  C   UNL     1      -5.394  -5.578   8.671  1.00  0.00    -0.003 C 
ATOM     18  C   UNL     1      -4.297  -4.711   8.058  1.00  0.00     0.004 C 
ENDBRANCH  16  17
ENDBRANCH  15  16
ENDBRANCH  14  15
ENDBRANCH  13  14
ENDBRANCH  12  13
ENDBRANCH  11  12
ENDBRANCH   1  11
TORSDOF 14
ENDMDL
MODEL 8
REMARK VINA RESULT:    -4.175      0.879      1.531
REMARK INTER + INTRA:          -9.620
REMARK INTER:                  -7.671
REMARK INTRA:                  -1.949
REMARK UNBOUND:                -2.029
REMARK SMILES CCCCCCCCCCCCCCCC(=O)[O-]
REMARK SMILES IDX 9 1 10 2 11 3 12 4 13 5 14 6 15 7 16 8 17 9 18 10 8 11 7 12
REMARK SMILES IDX 6 13 5 14 4 15 3 16 2 17 1 18
REMARK H PARENT
REMARK Flexibility Score: inf
ROOT
ATOM      1  C   UNL     1      -4.313  -4.625   8.111  1.00  0.00     0.000 C 
ENDROOT
BRANCH   1   2
ATOM      2  C   UNL     1      -5.035  -5.979   8.246  1.00  0.00     0.000 C 
BRANCH   2   3
ATOM      3  C   UNL     1      -6.186  -6.147   7.240  1.00  0.00     0.000 C 
BRANCH   3   4
ATOM      4  C   UNL     1      -5.957  -5.362   5.938  1.00  0.00     0.000 C 
BRANCH   4   5
ATOM      5  C   UNL     1      -5.749  -6.261   4.701  1.00  0.00     0.000 C 
BRANCH   5   6
ATOM      6  C   UNL     1      -5.573  -7.742   5.084  1.00  0.00     0.006 C 
BRANCH   6   7
ATOM      7  C   UNL     1      -4.193  -8.285   4.692  1.00  0.00     0.053 C 
BRANCH   7   8
ATOM      8  C   UNL     1      -3.129  -7.838   5.647  1.00  0.00     0.041 C 
ATOM      9  O   UNL     1      -2.747  -8.600   6.574  1.00  0.00    -0.550 OA
ATOM     10  O   UNL     1      -2.584  -6.564   5.535  1.00  0.00    -0.550 OA
ENDBRANCH   7   8
ENDBRANCH   6   7
ENDBRANCH   5   6
ENDBRANCH   4   5
ENDBRANCH   3   4
ENDBRANCH   2   3
ENDBRANCH   1   2
BRANCH   1  11
ATOM     11  C   UNL     1      -4.639  -3.588   9.206  1.00  0.00     0.000 C 
BRANCH  11  12
ATOM     12  C   UNL     1      -5.747  -4.003  10.193  1.00  0.00    -0.000 C 
BRANCH  12  13
ATOM     13  C   UNL     1      -6.989  -3.091  10.188  1.00  0.00    -0.000 C 
BRANCH  13  14
ATOM     14  C   UNL     1      -7.743  -3.079   8.840  1.00  0.00    -0.000 C 
BRANCH  14  15
ATOM     15  C   UNL     1      -7.609  -1.735   8.106  1.00  0.00    -0.000 C 
BRANCH  15  16
ATOM     16  C   UNL     1      -6.907  -1.870   6.746  1.00  0.00    -0.000 C 
BRANCH  16  17
ATOM     17  C   UNL     1      -7.897  -1.966   5.575  1.00  0.00    -0.003 C 
ATOM     18  C   UNL     1      -8.196  -0.587   4.995  1.00  0.00     0.004 C 
ENDBRANCH  16  17
ENDBRANCH  15  16
ENDBRANCH  14  15
ENDBRANCH  13  14
ENDBRANCH  12  13
ENDBRANCH  11  12
ENDBRANCH   1  11
TORSDOF 14
ENDMDL
MODEL 9
REMARK VINA RESULT:    -4.139      1.432      3.901
REMARK INTER + INTRA:          -9.555
REMARK INTER:                  -7.762
REMARK INTRA:                  -1.794
REMARK UNBOUND:                -2.029
REMARK SMILES CCCCCCCCCCCCCCCC(=O)[O-]
REMARK SMILES IDX 9 1 10 2 11 3 12 4 13 5 14 6 15 7 16 8 17 9 18 10 8 11 7 12
REMARK SMILES IDX 6 13 5 14 4 15 3 16 2 17 1 18
REMARK H PARENT
REMARK Flexibility Score: inf
ROOT
ATOM      1  C   UNL     1      -5.861  -2.966   7.276  1.00  0.00     0.000 C 
ENDROOT
BRANCH   1   2
ATOM      2  C   UNL     1      -6.103  -3.764   8.571  1.00  0.00     0.000 C 
BRANCH   2   3
ATOM      3  C   UNL     1      -5.888  -5.276   8.392  1.00  0.00     0.000 C 
BRANCH   3   4
ATOM      4  C   UNL     1      -4.466  -5.624   7.922  1.00  0.00     0.000 C 
BRANCH   4   5
ATOM      5  C   UNL     1      -4.361  -6.999   7.230  1.00  0.00     0.000 C 
BRANCH   5   6
ATOM      6  C   UNL     1      -3.451  -6.955   5.988  1.00  0.00     0.006 C 
BRANCH   6   7
ATOM      7  C   UNL     1      -2.422  -8.092   5.980  1.00  0.00     0.053 C 
BRANCH   7   8
ATOM      8  C   UNL     1      -2.247  -8.673   4.611  1.00  0.00     0.041 C 
ATOM      9  O   UNL     1      -1.109  -8.697   4.071  1.00  0.00    -0.550 OA
ATOM     10  O   UNL     1      -3.349  -9.157   3.915  1.00  0.00    -0.550 OA
ENDBRANCH   7   8
ENDBRANCH   6   7
ENDBRANCH   5   6
ENDBRANCH   4   5
ENDBRANCH   3   4
ENDBRANCH   2   3
ENDBRANCH   1   2
BRANCH   1  11
ATOM     11  C   UNL     1      -6.803  -1.763   7.052  1.00  0.00     0.000 C 
BRANCH  11  12
ATOM     12  C   UNL     1      -7.869  -1.961   5.958  1.00  0.00    -0.000 C 
BRANCH  12  13
ATOM     13  C   UNL     1      -8.962  -2.990   6.302  1.00  0.00    -0.000 C 
BRANCH  13  14
ATOM     14  C   UNL     1      -8.950  -4.235   5.387  1.00  0.00    -0.000 C 
BRANCH  14  15
ATOM     15  C   UNL     1      -7.725  -4.267   4.457  1.00  0.00    -0.000 C 
BRANCH  15  16
ATOM     16  C   UNL     1      -6.870  -5.530   4.646  1.00  0.00    -0.000 C 
BRANCH  16  17
ATOM     17  C   UNL     1      -7.653  -6.822   4.367  1.00  0.00    -0.003 C 
ATOM     18  C   UNL     1      -6.782  -8.053   4.604  1.00  0.00     0.004 C 
ENDBRANCH  16  17
ENDBRANCH  15  16
ENDBRANCH  14  15
ENDBRANCH  13  14
ENDBRANCH  12  13
ENDBRANCH  11  12
ENDBRANCH   1  11
TORSDOF 14
ENDMDL
