MODEL 1
REMARK VINA RESULT:    -3.265      0.000      0.000
REMARK INTER + INTRA:          -7.177
REMARK INTER:                  -6.129
REMARK INTRA:                  -1.048
REMARK UNBOUND:                -1.048
REMARK SMILES O=C([O-])CCCCCCCCCCCCCCC(=O)[O-]
REMARK SMILES IDX 10 1 9 2 8 3 7 4 6 5 5 6 4 7 2 8 1 9 3 10 11 11 12 12 13 13
REMARK SMILES IDX 14 14 15 15 16 16 17 17 18 18 19 19 20 20
REMARK H PARENT
REMARK Flexibility Score: inf
ROOT
ATOM      1  C   UNL     1      -4.771   7.388  -2.803  1.00  0.00     0.000 C 
ENDROOT
BRANCH   1   2
ATOM      2  C   UNL     1      -4.458   7.052  -4.272  1.00  0.00     0.000 C 
BRANCH   2   3
ATOM      3  C   UNL     1      -3.166   7.737  -4.769  1.00  0.00     0.000 C 
BRANCH   3   4
ATOM      4  C   UNL     1      -1.947   6.796  -4.823  1.00  0.00     0.000 C 
BRANCH   4   5
ATOM      5  C   UNL     1      -1.468   6.431  -6.240  1.00  0.00     0.000 C 
BRANCH   5   6
ATOM      6  C   UNL     1      -0.875   5.017  -6.379  1.00  0.00     0.006 C 
BRANCH   6   7
ATOM      7  C   UNL     1      -1.931   3.912  -6.250  1.00  0.00     0.053 C 
BRANCH   7   8
ATOM      8  C   UNL     1      -1.327   2.679  -5.657  1.00  0.00     0.041 C 
ATOM      9  O   UNL     1      -1.156   1.652  -6.367  1.00  0.00    -0.550 OA
ATOM     10  O   UNL     1      -0.908   2.677  -4.333  1.00  0.00    -0.550 OA
ENDBRANCH   7   8
ENDBRANCH   6   7
ENDBRANCH   5   6
ENDBRANCH   4   5
ENDBRANCH   3   4
ENDBRANCH   2   3
ENDBRANCH   1   2
BRANCH   1  11
ATOM     11  C   UNL     1      -4.523   8.868  -2.472  1.00  0.00     0.000 C 
BRANCH  11  12
ATOM     12  C   UNL     1      -3.779   9.057  -1.138  1.00  0.00     0.000 C 
BRANCH  12  13
ATOM     13  C   UNL     1      -2.661   8.023  -0.932  1.00  0.00     0.000 C 
BRANCH  13  14
ATOM     14  C   UNL     1      -1.295   8.675  -0.667  1.00  0.00     0.000 C 
BRANCH  14  15
ATOM     15  C   UNL     1      -1.458  10.018   0.054  1.00  0.00     0.000 C 
BRANCH  15  16
ATOM     16  C   UNL     1      -1.542   9.819   1.575  1.00  0.00     0.006 C 
BRANCH  16  17
ATOM     17  C   UNL     1      -2.066  11.068   2.297  1.00  0.00     0.053 C 
BRANCH  17  18
ATOM     18  C   UNL     1      -3.544  10.996   2.528  1.00  0.00     0.041 C 
ATOM     19  O   UNL     1      -4.004  11.007   3.701  1.00  0.00    -0.550 OA
ATOM     20  O   UNL     1      -4.417  10.952   1.448  1.00  0.00    -0.550 OA
ENDBRANCH  17  18
ENDBRANCH  16  17
ENDBRANCH  15  16
ENDBRANCH  14  15
ENDBRANCH  13  14
ENDBRANCH  12  13
ENDBRANCH  11  12
ENDBRANCH   1  11
TORSDOF 15
ENDMDL
MODEL 2
REMARK VINA RESULT:    -3.204      1.440      8.328
REMARK INTER + INTRA:          -7.061
REMARK INTER:                  -5.835
REMARK INTRA:                  -1.226
REMARK UNBOUND:                -1.048
REMARK SMILES O=C([O-])CCCCCCCCCCCCCCC(=O)[O-]
REMARK SMILES IDX 10 1 9 2 8 3 7 4 6 5 5 6 4 7 2 8 1 9 3 10 11 11 12 12 13 13
REMARK SMILES IDX 14 14 15 15 16 16 17 17 18 18 19 19 20 20
REMARK H PARENT
REMARK Flexibility Score: inf
ROOT
ATOM      1  C   UNL     1      -4.377   7.316  -2.355  1.00  0.00     0.000 C 
ENDROOT
BRANCH   1   2
ATOM      2  C   UNL     1      -4.994   8.543  -1.661  1.00  0.00     0.000 C 
BRANCH   2   3
ATOM      3  C   UNL     1      -5.052   9.776  -2.588  1.00  0.00     0.000 C 
BRANCH   3   4
ATOM      4  C   UNL     1      -4.336  11.015  -2.018  1.00  0.00     0.000 C 
BRANCH   4   5
ATOM      5  C   UNL     1      -2.800  10.914  -1.964  1.00  0.00     0.000 C 
BRANCH   5   6
ATOM      6  C   UNL     1      -2.238  10.244  -0.697  1.00  0.00     0.006 C 
BRANCH   6   7
ATOM      7  C   UNL     1      -2.681  10.943   0.594  1.00  0.00     0.053 C 
BRANCH   7   8
ATOM      8  C   UNL     1      -2.150  10.218   1.790  1.00  0.00     0.041 C 
ATOM      9  O   UNL     1      -1.323   9.277   1.646  1.00  0.00    -0.550 OA
ATOM     10  O   UNL     1      -2.529  10.611   3.067  1.00  0.00    -0.550 OA
ENDBRANCH   7   8
ENDBRANCH   6   7
ENDBRANCH   5   6
ENDBRANCH   4   5
ENDBRANCH   3   4
ENDBRANCH   2   3
ENDBRANCH   1   2
BRANCH   1  11
ATOM     11  C   UNL     1      -3.877   7.631  -3.773  1.00  0.00     0.000 C 
BRANCH  11  12
ATOM     12  C   UNL     1      -2.345   7.763  -3.843  1.00  0.00     0.000 C 
BRANCH  12  13
ATOM     13  C   UNL     1      -1.869   8.441  -5.138  1.00  0.00     0.000 C 
BRANCH  13  14
ATOM     14  C   UNL     1      -1.084   7.486  -6.051  1.00  0.00     0.000 C 
BRANCH  14  15
ATOM     15  C   UNL     1      -0.875   6.127  -5.373  1.00  0.00     0.000 C 
BRANCH  15  16
ATOM     16  C   UNL     1      -1.849   5.078  -5.929  1.00  0.00     0.006 C 
BRANCH  16  17
ATOM     17  C   UNL     1      -1.123   3.931  -6.644  1.00  0.00     0.053 C 
BRANCH  17  18
ATOM     18  C   UNL     1      -1.214   2.649  -5.874  1.00  0.00     0.041 C 
ATOM     19  O   UNL     1      -1.170   1.543  -6.475  1.00  0.00    -0.550 OA
ATOM     20  O   UNL     1      -1.314   2.675  -4.489  1.00  0.00    -0.550 OA
ENDBRANCH  17  18
ENDBRANCH  16  17
ENDBRANCH  15  16
ENDBRANCH  14  15
ENDBRANCH  13  14
ENDBRANCH  12  13
ENDBRANCH  11  12
ENDBRANCH   1  11
TORSDOF 15
ENDMDL
MODEL 3
REMARK VINA RESULT:    -2.952      1.200      1.770
REMARK INTER + INTRA:          -6.589
REMARK INTER:                  -5.666
REMARK INTRA:                  -0.923
REMARK UNBOUND:                -1.048
REMARK SMILES O=C([O-])CCCCCCCCCCCCCCC(=O)[O-]
REMARK SMILES IDX 10 1 9 2 8 3 7 4 6 5 5 6 4 7 2 8 1 9 3 10 11 11 12 12 13 13
REMARK SMILES IDX 14 14 15 15 16 16 17 17 18 18 19 19 20 20
REMARK H PARENT
REMARK Flexibility Score: inf
ROOT
ATOM      1  C   UNL     1      -4.236   7.589  -2.517  1.00  0.00     0.000 C 
ENDROOT
BRANCH   1   2
ATOM      2  C   UNL     1      -4.605   7.225  -3.967  1.00  0.00     0.000 C 
BRANCH   2   3
ATOM      3  C   UNL     1      -3.487   7.589  -4.967  1.00  0.00     0.000 C 
BRANCH   3   4
ATOM      4  C   UNL     1      -2.071   7.522  -4.364  1.00  0.00     0.000 C 
BRANCH   4   5
ATOM      5  C   UNL     1      -1.268   6.258  -4.725  1.00  0.00     0.000 C 
BRANCH   5   6
ATOM      6  C   UNL     1      -2.120   5.043  -5.134  1.00  0.00     0.006 C 
BRANCH   6   7
ATOM      7  C   UNL     1      -1.468   4.200  -6.237  1.00  0.00     0.053 C 
BRANCH   7   8
ATOM      8  C   UNL     1      -1.230   2.804  -5.755  1.00  0.00     0.041 C 
ATOM      9  O   UNL     1      -1.276   2.541  -4.524  1.00  0.00    -0.550 OA
ATOM     10  O   UNL     1      -1.004   1.782  -6.669  1.00  0.00    -0.550 OA
ENDBRANCH   7   8
ENDBRANCH   6   7
ENDBRANCH   5   6
ENDBRANCH   4   5
ENDBRANCH   3   4
ENDBRANCH   2   3
ENDBRANCH   1   2
BRANCH   1  11
ATOM     11  C   UNL     1      -4.686   9.008  -2.134  1.00  0.00     0.000 C 
BRANCH  11  12
ATOM     12  C   UNL     1      -4.346  10.047  -3.217  1.00  0.00     0.000 C 
BRANCH  12  13
ATOM     13  C   UNL     1      -3.371  11.124  -2.717  1.00  0.00     0.000 C 
BRANCH  13  14
ATOM     14  C   UNL     1      -3.064  10.993  -1.217  1.00  0.00     0.000 C 
BRANCH  14  15
ATOM     15  C   UNL     1      -1.745  10.246  -0.990  1.00  0.00     0.000 C 
BRANCH  15  16
ATOM     16  C   UNL     1      -1.682   9.656   0.427  1.00  0.00     0.006 C 
BRANCH  16  17
ATOM     17  C   UNL     1      -3.055   9.642   1.111  1.00  0.00     0.053 C 
BRANCH  17  18
ATOM     18  C   UNL     1      -3.072  10.494   2.343  1.00  0.00     0.041 C 
ATOM     19  O   UNL     1      -4.166  10.864   2.844  1.00  0.00    -0.550 OA
ATOM     20  O   UNL     1      -1.879  10.854   2.957  1.00  0.00    -0.550 OA
ENDBRANCH  17  18
ENDBRANCH  16  17
ENDBRANCH  15  16
ENDBRANCH  14  15
ENDBRANCH  13  14
ENDBRANCH  12  13
ENDBRANCH  11  12
ENDBRANCH   1  11
TORSDOF 15
ENDMDL
MODEL 4
REMARK VINA RESULT:    -2.755      1.710      2.642
REMARK INTER + INTRA:          -6.219
REMARK INTER:                  -5.108
REMARK INTRA:                  -1.111
REMARK UNBOUND:                -1.048
REMARK SMILES O=C([O-])CCCCCCCCCCCCCCC(=O)[O-]
REMARK SMILES IDX 10 1 9 2 8 3 7 4 6 5 5 6 4 7 2 8 1 9 3 10 11 11 12 12 13 13
REMARK SMILES IDX 14 14 15 15 16 16 17 17 18 18 19 19 20 20
REMARK H PARENT
REMARK Flexibility Score: inf
ROOT
ATOM      1  C   UNL     1      -2.355  10.900  -5.484  1.00  0.00     0.000 C 
ENDROOT
BRANCH   1   2
ATOM      2  C   UNL     1      -1.856   9.511  -5.922  1.00  0.00     0.000 C 
BRANCH   2   3
ATOM      3  C   UNL     1      -0.966   8.841  -4.853  1.00  0.00     0.000 C 
BRANCH   3   4
ATOM      4  C   UNL     1      -0.875   7.310  -4.993  1.00  0.00     0.000 C 
BRANCH   4   5
ATOM      5  C   UNL     1      -2.229   6.582  -5.082  1.00  0.00     0.000 C 
BRANCH   5   6
ATOM      6  C   UNL     1      -2.235   5.331  -5.981  1.00  0.00     0.006 C 
BRANCH   6   7
ATOM      7  C   UNL     1      -1.018   4.426  -5.753  1.00  0.00     0.053 C 
BRANCH   7   8
ATOM      8  C   UNL     1      -1.449   3.004  -5.583  1.00  0.00     0.041 C 
ATOM      9  O   UNL     1      -1.946   2.617  -4.492  1.00  0.00    -0.550 OA
ATOM     10  O   UNL     1      -1.346   2.115  -6.645  1.00  0.00    -0.550 OA
ENDBRANCH   7   8
ENDBRANCH   6   7
ENDBRANCH   5   6
ENDBRANCH   4   5
ENDBRANCH   3   4
ENDBRANCH   2   3
ENDBRANCH   1   2
BRANCH   1  11
ATOM     11  C   UNL     1      -2.232  11.117  -3.968  1.00  0.00     0.000 C 
BRANCH  11  12
ATOM     12  C   UNL     1      -3.590  11.037  -3.248  1.00  0.00     0.000 C 
BRANCH  12  13
ATOM     13  C   UNL     1      -4.261   9.663  -3.404  1.00  0.00     0.000 C 
BRANCH  13  14
ATOM     14  C   UNL     1      -4.766   9.097  -2.067  1.00  0.00     0.000 C 
BRANCH  14  15
ATOM     15  C   UNL     1      -3.622   8.984  -1.052  1.00  0.00     0.000 C 
BRANCH  15  16
ATOM     16  C   UNL     1      -3.906   9.834   0.195  1.00  0.00     0.006 C 
BRANCH  16  17
ATOM     17  C   UNL     1      -2.721   9.850   1.170  1.00  0.00     0.053 C 
BRANCH  17  18
ATOM     18  C   UNL     1      -3.041  10.609   2.421  1.00  0.00     0.041 C 
ATOM     19  O   UNL     1      -4.234  10.906   2.696  1.00  0.00    -0.550 OA
ATOM     20  O   UNL     1      -2.025  10.960   3.301  1.00  0.00    -0.550 OA
ENDBRANCH  17  18
ENDBRANCH  16  17
ENDBRANCH  15  16
ENDBRANCH  14  15
ENDBRANCH  13  14
ENDBRANCH  12  13
ENDBRANCH  11  12
ENDBRANCH   1  11
TORSDOF 15
ENDMDL
MODEL 5
REMARK VINA RESULT:    -2.571      2.112      2.637
REMARK INTER + INTRA:          -5.874
REMARK INTER:                  -4.786
REMARK INTRA:                  -1.088
REMARK UNBOUND:                -1.048
REMARK SMILES O=C([O-])CCCCCCCCCCCCCCC(=O)[O-]
REMARK SMILES IDX 10 1 9 2 8 3 7 4 6 5 5 6 4 7 2 8 1 9 3 10 11 11 12 12 13 13
REMARK SMILES IDX 14 14 15 15 16 16 17 17 18 18 19 19 20 20
REMARK H PARENT
REMARK Flexibility Score: inf
ROOT
ATOM      1  C   UNL     1      -3.899   7.792  -2.532  1.00  0.00     0.000 C 
ENDROOT
BRANCH   1   2
ATOM      2  C   UNL     1      -3.926   7.403  -4.021  1.00  0.00     0.000 C 
BRANCH   2   3
ATOM      3  C   UNL     1      -3.194   8.432  -4.910  1.00  0.00     0.000 C 
BRANCH   3   4
ATOM      4  C   UNL     1      -1.681   8.173  -5.040  1.00  0.00     0.000 C 
BRANCH   4   5
ATOM      5  C   UNL     1      -1.301   6.941  -5.883  1.00  0.00     0.000 C 
BRANCH   5   6
ATOM      6  C   UNL     1      -1.031   5.660  -5.072  1.00  0.00     0.006 C 
BRANCH   6   7
ATOM      7  C   UNL     1      -2.036   4.541  -5.372  1.00  0.00     0.053 C 
BRANCH   7   8
ATOM      8  C   UNL     1      -1.332   3.229  -5.513  1.00  0.00     0.041 C 
ATOM      9  O   UNL     1      -1.184   2.477  -4.513  1.00  0.00    -0.550 OA
ATOM     10  O   UNL     1      -0.879   2.813  -6.759  1.00  0.00    -0.550 OA
ENDBRANCH   7   8
ENDBRANCH   6   7
ENDBRANCH   5   6
ENDBRANCH   4   5
ENDBRANCH   3   4
ENDBRANCH   2   3
ENDBRANCH   1   2
BRANCH   1  11
ATOM     11  C   UNL     1      -5.281   8.213  -2.009  1.00  0.00     0.000 C 
BRANCH  11  12
ATOM     12  C   UNL     1      -5.344   9.707  -1.643  1.00  0.00     0.000 C 
BRANCH  12  13
ATOM     13  C   UNL     1      -4.242  10.529  -2.330  1.00  0.00     0.000 C 
BRANCH  13  14
ATOM     14  C   UNL     1      -3.054  10.819  -1.399  1.00  0.00     0.000 C 
BRANCH  14  15
ATOM     15  C   UNL     1      -3.493  10.809   0.070  1.00  0.00     0.000 C 
BRANCH  15  16
ATOM     16  C   UNL     1      -2.711   9.756   0.870  1.00  0.00     0.006 C 
BRANCH  16  17
ATOM     17  C   UNL     1      -1.257   9.628   0.398  1.00  0.00     0.053 C 
BRANCH  17  18
ATOM     18  C   UNL     1      -0.984   8.284  -0.204  1.00  0.00     0.041 C 
ATOM     19  O   UNL     1      -0.875   7.269   0.533  1.00  0.00    -0.550 OA
ATOM     20  O   UNL     1      -0.884   8.146  -1.583  1.00  0.00    -0.550 OA
ENDBRANCH  17  18
ENDBRANCH  16  17
ENDBRANCH  15  16
ENDBRANCH  14  15
ENDBRANCH  13  14
ENDBRANCH  12  13
ENDBRANCH  11  12
ENDBRANCH   1  11
TORSDOF 15
ENDMDL
MODEL 6
REMARK VINA RESULT:    -2.418      3.048      7.864
REMARK INTER + INTRA:          -5.586
REMARK INTER:                  -4.761
REMARK INTRA:                  -0.825
REMARK UNBOUND:                -1.048
REMARK SMILES O=C([O-])CCCCCCCCCCCCCCC(=O)[O-]
REMARK SMILES IDX 10 1 9 2 8 3 7 4 6 5 5 6 4 7 2 8 1 9 3 10 11 11 12 12 13 13
REMARK SMILES IDX 14 14 15 15 16 16 17 17 18 18 19 19 20 20
REMARK H PARENT
REMARK Flexibility Score: inf
ROOT
ATOM      1  C   UNL     1      -5.075   8.357  -1.589  1.00  0.00     0.000 C 
ENDROOT
BRANCH   1   2
ATOM      2  C   UNL     1      -4.620   9.453  -0.609  1.00  0.00     0.000 C 
BRANCH   2   3
ATOM      3  C   UNL     1      -3.593  10.417  -1.242  1.00  0.00     0.000 C 
BRANCH   3   4
ATOM      4  C   UNL     1      -2.153  10.211  -0.734  1.00  0.00     0.000 C 
BRANCH   4   5
ATOM      5  C   UNL     1      -2.007   9.197   0.416  1.00  0.00     0.000 C 
BRANCH   5   6
ATOM      6  C   UNL     1      -1.353   9.755   1.693  1.00  0.00     0.006 C 
BRANCH   6   7
ATOM      7  C   UNL     1      -1.941  11.104   2.125  1.00  0.00     0.053 C 
BRANCH   7   8
ATOM      8  C   UNL     1      -3.225  10.903   2.864  1.00  0.00     0.041 C 
ATOM      9  O   UNL     1      -4.249  10.489   2.258  1.00  0.00    -0.550 OA
ATOM     10  O   UNL     1      -3.281  11.125   4.234  1.00  0.00    -0.550 OA
ENDBRANCH   7   8
ENDBRANCH   6   7
ENDBRANCH   5   6
ENDBRANCH   4   5
ENDBRANCH   3   4
ENDBRANCH   2   3
ENDBRANCH   1   2
BRANCH   1  11
ATOM     11  C   UNL     1      -3.906   7.753  -2.382  1.00  0.00     0.000 C 
BRANCH  11  12
ATOM     12  C   UNL     1      -4.117   7.843  -3.904  1.00  0.00     0.000 C 
BRANCH  12  13
ATOM     13  C   UNL     1      -3.584   6.609  -4.648  1.00  0.00     0.000 C 
BRANCH  13  14
ATOM     14  C   UNL     1      -2.049   6.582  -4.723  1.00  0.00     0.000 C 
BRANCH  14  15
ATOM     15  C   UNL     1      -1.570   6.568  -6.179  1.00  0.00     0.000 C 
BRANCH  15  16
ATOM     16  C   UNL     1      -1.170   7.978  -6.640  1.00  0.00     0.006 C 
BRANCH  16  17
ATOM     17  C   UNL     1      -0.875   8.914  -5.460  1.00  0.00     0.053 C 
BRANCH  17  18
ATOM     18  C   UNL     1      -1.809  10.084  -5.432  1.00  0.00     0.041 C 
ATOM     19  O   UNL     1      -2.247  10.573  -6.507  1.00  0.00    -0.550 OA
ATOM     20  O   UNL     1      -2.223  10.615  -4.217  1.00  0.00    -0.550 OA
ENDBRANCH  17  18
ENDBRANCH  16  17
ENDBRANCH  15  16
ENDBRANCH  14  15
ENDBRANCH  13  14
ENDBRANCH  12  13
ENDBRANCH  11  12
ENDBRANCH   1  11
TORSDOF 15
ENDMDL
MODEL 7
REMARK VINA RESULT:    -2.331      4.524      5.343
REMARK INTER + INTRA:          -5.423
REMARK INTER:                  -4.615
REMARK INTRA:                  -0.807
REMARK UNBOUND:                -1.048
REMARK SMILES O=C([O-])CCCCCCCCCCCCCCC(=O)[O-]
REMARK SMILES IDX 10 1 9 2 8 3 7 4 6 5 5 6 4 7 2 8 1 9 3 10 11 11 12 12 13 13
REMARK SMILES IDX 14 14 15 15 16 16 17 17 18 18 19 19 20 20
REMARK H PARENT
REMARK Flexibility Score: inf
ROOT
ATOM      1  C   UNL     1      -2.912   8.649  -5.112  1.00  0.00     0.000 C 
ENDROOT
BRANCH   1   2
ATOM      2  C   UNL     1      -2.759  10.170  -4.934  1.00  0.00     0.000 C 
BRANCH   2   3
ATOM      3  C   UNL     1      -1.707  10.772  -5.890  1.00  0.00     0.000 C 
BRANCH   3   4
ATOM      4  C   UNL     1      -1.503   9.955  -7.180  1.00  0.00     0.000 C 
BRANCH   4   5
ATOM      5  C   UNL     1      -0.875  10.734  -8.351  1.00  0.00     0.000 C 
BRANCH   5   6
ATOM      6  C   UNL     1      -1.857  11.125  -9.471  1.00  0.00     0.006 C 
BRANCH   6   7
ATOM      7  C   UNL     1      -1.387  10.678 -10.861  1.00  0.00     0.053 C 
BRANCH   7   8
ATOM      8  C   UNL     1      -2.506  10.024 -11.606  1.00  0.00     0.041 C 
ATOM      9  O   UNL     1      -3.485  10.707 -12.009  1.00  0.00    -0.550 OA
ATOM     10  O   UNL     1      -2.447   8.668 -11.899  1.00  0.00    -0.550 OA
ENDBRANCH   7   8
ENDBRANCH   6   7
ENDBRANCH   5   6
ENDBRANCH   4   5
ENDBRANCH   3   4
ENDBRANCH   2   3
ENDBRANCH   1   2
BRANCH   1  11
ATOM     11  C   UNL     1      -2.847   7.890  -3.777  1.00  0.00     0.000 C 
BRANCH  11  12
ATOM     12  C   UNL     1      -1.599   8.252  -2.953  1.00  0.00     0.000 C 
BRANCH  12  13
ATOM     13  C   UNL     1      -1.283   7.208  -1.870  1.00  0.00     0.000 C 
BRANCH  13  14
ATOM     14  C   UNL     1      -1.143   7.829  -0.472  1.00  0.00     0.000 C 
BRANCH  14  15
ATOM     15  C   UNL     1      -1.719   9.250  -0.443  1.00  0.00     0.000 C 
BRANCH  15  16
ATOM     16  C   UNL     1      -2.337   9.567   0.927  1.00  0.00     0.006 C 
BRANCH  16  17
ATOM     17  C   UNL     1      -3.831   9.899   0.827  1.00  0.00     0.053 C 
BRANCH  17  18
ATOM     18  C   UNL     1      -4.353   9.703  -0.563  1.00  0.00     0.041 C 
ATOM     19  O   UNL     1      -4.922   8.625  -0.880  1.00  0.00    -0.550 OA
ATOM     20  O   UNL     1      -4.241  10.722  -1.499  1.00  0.00    -0.550 OA
ENDBRANCH  17  18
ENDBRANCH  16  17
ENDBRANCH  15  16
ENDBRANCH  14  15
ENDBRANCH  13  14
ENDBRANCH  12  13
ENDBRANCH  11  12
ENDBRANCH   1  11
TORSDOF 15
ENDMDL
MODEL 8
REMARK VINA RESULT:    -2.260      1.231      8.735
REMARK INTER + INTRA:          -5.290
REMARK INTER:                  -4.469
REMARK INTRA:                  -0.821
REMARK UNBOUND:                -1.048
REMARK SMILES O=C([O-])CCCCCCCCCCCCCCC(=O)[O-]
REMARK SMILES IDX 10 1 9 2 8 3 7 4 6 5 5 6 4 7 2 8 1 9 3 10 11 11 12 12 13 13
REMARK SMILES IDX 14 14 15 15 16 16 17 17 18 18 19 19 20 20
REMARK H PARENT
REMARK Flexibility Score: inf
ROOT
ATOM      1  C   UNL     1      -4.874   8.194  -1.465  1.00  0.00     0.000 C 
ENDROOT
BRANCH   1   2
ATOM      2  C   UNL     1      -4.750   9.705  -1.727  1.00  0.00     0.000 C 
BRANCH   2   3
ATOM      3  C   UNL     1      -3.303  10.127  -2.062  1.00  0.00     0.000 C 
BRANCH   3   4
ATOM      4  C   UNL     1      -2.283   9.764  -0.966  1.00  0.00     0.000 C 
BRANCH   4   5
ATOM      5  C   UNL     1      -1.987  10.885   0.047  1.00  0.00     0.000 C 
BRANCH   5   6
ATOM      6  C   UNL     1      -2.312  10.539   1.511  1.00  0.00     0.006 C 
BRANCH   6   7
ATOM      7  C   UNL     1      -3.813  10.602   1.821  1.00  0.00     0.053 C 
BRANCH   7   8
ATOM      8  C   UNL     1      -4.037  10.950   3.258  1.00  0.00     0.041 C 
ATOM      9  O   UNL     1      -5.208  11.042   3.714  1.00  0.00    -0.550 OA
ATOM     10  O   UNL     1      -2.953  11.125   4.108  1.00  0.00    -0.550 OA
ENDBRANCH   7   8
ENDBRANCH   6   7
ENDBRANCH   5   6
ENDBRANCH   4   5
ENDBRANCH   3   4
ENDBRANCH   2   3
ENDBRANCH   1   2
BRANCH   1  11
ATOM     11  C   UNL     1      -4.796   7.364  -2.756  1.00  0.00     0.000 C 
BRANCH  11  12
ATOM     12  C   UNL     1      -3.376   7.324  -3.347  1.00  0.00     0.000 C 
BRANCH  12  13
ATOM     13  C   UNL     1      -3.314   7.889  -4.775  1.00  0.00     0.000 C 
BRANCH  13  14
ATOM     14  C   UNL     1      -1.894   7.863  -5.360  1.00  0.00     0.000 C 
BRANCH  14  15
ATOM     15  C   UNL     1      -1.035   6.796  -4.670  1.00  0.00     0.000 C 
BRANCH  15  16
ATOM     16  C   UNL     1      -0.951   5.521  -5.522  1.00  0.00     0.006 C 
BRANCH  16  17
ATOM     17  C   UNL     1      -1.477   4.288  -4.776  1.00  0.00     0.053 C 
BRANCH  17  18
ATOM     18  C   UNL     1      -1.199   3.023  -5.528  1.00  0.00     0.041 C 
ATOM     19  O   UNL     1      -0.900   3.064  -6.751  1.00  0.00    -0.550 OA
ATOM     20  O   UNL     1      -1.236   1.800  -4.871  1.00  0.00    -0.550 OA
ENDBRANCH  17  18
ENDBRANCH  16  17
ENDBRANCH  15  16
ENDBRANCH  14  15
ENDBRANCH  13  14
ENDBRANCH  12  13
ENDBRANCH  11  12
ENDBRANCH   1  11
TORSDOF 15
ENDMDL
MODEL 9
REMARK VINA RESULT:    -2.074      4.249      9.781
REMARK INTER + INTRA:          -4.941
REMARK INTER:                  -4.285
REMARK INTRA:                  -0.656
REMARK UNBOUND:                -1.048
REMARK SMILES O=C([O-])CCCCCCCCCCCCCCC(=O)[O-]
REMARK SMILES IDX 10 1 9 2 8 3 7 4 6 5 5 6 4 7 2 8 1 9 3 10 11 11 12 12 13 13
REMARK SMILES IDX 14 14 15 15 16 16 17 17 18 18 19 19 20 20
REMARK H PARENT
REMARK Flexibility Score: inf
ROOT
ATOM      1  C   UNL     1      -3.372   7.393  -4.466  1.00  0.00     0.000 C 
ENDROOT
BRANCH   1   2
ATOM      2  C   UNL     1      -3.474   8.071  -3.088  1.00  0.00     0.000 C 
BRANCH   2   3
ATOM      3  C   UNL     1      -2.242   7.788  -2.202  1.00  0.00     0.000 C 
BRANCH   3   4
ATOM      4  C   UNL     1      -2.548   7.801  -0.692  1.00  0.00     0.000 C 
BRANCH   4   5
ATOM      5  C   UNL     1      -2.519   9.192  -0.033  1.00  0.00     0.000 C 
BRANCH   5   6
ATOM      6  C   UNL     1      -3.893   9.729   0.409  1.00  0.00     0.006 C 
BRANCH   6   7
ATOM      7  C   UNL     1      -3.813  11.125   1.040  1.00  0.00     0.053 C 
BRANCH   7   8
ATOM      8  C   UNL     1      -3.590  11.019   2.515  1.00  0.00     0.041 C 
ATOM      9  O   UNL     1      -4.571  10.942   3.302  1.00  0.00    -0.550 OA
ATOM     10  O   UNL     1      -2.297  10.958   3.020  1.00  0.00    -0.550 OA
ENDBRANCH   7   8
ENDBRANCH   6   7
ENDBRANCH   5   6
ENDBRANCH   4   5
ENDBRANCH   3   4
ENDBRANCH   2   3
ENDBRANCH   1   2
BRANCH   1  11
ATOM     11  C   UNL     1      -2.866   8.350  -5.557  1.00  0.00     0.000 C 
BRANCH  11  12
ATOM     12  C   UNL     1      -1.341   8.274  -5.746  1.00  0.00     0.000 C 
BRANCH  12  13
ATOM     13  C   UNL     1      -0.886   8.824  -7.107  1.00  0.00     0.000 C 
BRANCH  13  14
ATOM     14  C   UNL     1      -1.371  10.261  -7.356  1.00  0.00     0.000 C 
BRANCH  14  15
ATOM     15  C   UNL     1      -0.950  10.749  -8.747  1.00  0.00     0.000 C 
BRANCH  15  16
ATOM     16  C   UNL     1      -1.145   9.648  -9.799  1.00  0.00     0.006 C 
BRANCH  16  17
ATOM     17  C   UNL     1      -1.392  10.221 -11.201  1.00  0.00     0.053 C 
BRANCH  17  18
ATOM     18  C   UNL     1      -2.483   9.485 -11.918  1.00  0.00     0.041 C 
ATOM     19  O   UNL     1      -3.250  10.099 -12.707  1.00  0.00    -0.550 OA
ATOM     20  O   UNL     1      -2.633   8.116 -11.740  1.00  0.00    -0.550 OA
ENDBRANCH  17  18
ENDBRANCH  16  17
ENDBRANCH  15  16
ENDBRANCH  14  15
ENDBRANCH  13  14
ENDBRANCH  12  13
ENDBRANCH  11  12
ENDBRANCH   1  11
TORSDOF 15
ENDMDL
