MODEL 1
REMARK VINA RESULT:    -3.070      0.000      0.000
REMARK INTER + INTRA:          -4.918
REMARK INTER:                  -4.326
REMARK INTRA:                  -0.591
REMARK UNBOUND:                -0.591
REMARK SMILES CCCCCCCCC(=O)[O-]
REMARK SMILES IDX 6 1 7 2 8 3 9 4 10 5 11 6 5 7 4 8 3 9 2 10 1 11
REMARK H PARENT
REMARK Flexibility Score: inf
ROOT
ATOM      1  C   UNL     1       4.500  24.894   9.148  1.00  0.00     0.000 C 
ENDROOT
BRANCH   1   2
ATOM      2  C   UNL     1       3.436  24.306  10.090  1.00  0.00     0.006 C 
BRANCH   2   3
ATOM      3  C   UNL     1       2.720  25.380  10.918  1.00  0.00     0.053 C 
BRANCH   3   4
ATOM      4  C   UNL     1       3.339  25.491  12.275  1.00  0.00     0.041 C 
ATOM      5  O   UNL     1       3.060  26.465  13.021  1.00  0.00    -0.550 OA
ATOM      6  O   UNL     1       4.262  24.543  12.698  1.00  0.00    -0.550 OA
ENDBRANCH   3   4
ENDBRANCH   2   3
ENDBRANCH   1   2
BRANCH   1   7
ATOM      7  C   UNL     1       4.637  24.100   7.840  1.00  0.00     0.000 C 
BRANCH   7   8
ATOM      8  C   UNL     1       4.304  24.982   6.627  1.00  0.00    -0.000 C 
BRANCH   8   9
ATOM      9  C   UNL     1       2.965  24.611   5.973  1.00  0.00    -0.000 C 
BRANCH   9  10
ATOM     10  C   UNL     1       1.934  25.747   6.050  1.00  0.00    -0.003 C 
ATOM     11  C   UNL     1       1.269  25.794   7.423  1.00  0.00     0.004 C 
ENDBRANCH   9  10
ENDBRANCH   8   9
ENDBRANCH   7   8
ENDBRANCH   1   7
TORSDOF 7
ENDMDL
MODEL 2
REMARK VINA RESULT:    -2.994      0.916      1.566
REMARK INTER + INTRA:          -4.811
REMARK INTER:                  -4.495
REMARK INTRA:                  -0.316
REMARK UNBOUND:                -0.591
REMARK SMILES CCCCCCCCC(=O)[O-]
REMARK SMILES IDX 6 1 7 2 8 3 9 4 10 5 11 6 5 7 4 8 3 9 2 10 1 11
REMARK H PARENT
REMARK Flexibility Score: inf
ROOT
ATOM      1  C   UNL     1       3.513  24.852   9.762  1.00  0.00     0.000 C 
ENDROOT
BRANCH   1   2
ATOM      2  C   UNL     1       3.724  24.632  11.269  1.00  0.00     0.006 C 
BRANCH   2   3
ATOM      3  C   UNL     1       2.913  25.610  12.128  1.00  0.00     0.053 C 
BRANCH   3   4
ATOM      4  C   UNL     1       3.475  25.677  13.513  1.00  0.00     0.041 C 
ATOM      5  O   UNL     1       4.690  25.418  13.716  1.00  0.00    -0.550 OA
ATOM      6  O   UNL     1       2.647  25.977  14.586  1.00  0.00    -0.550 OA
ENDBRANCH   3   4
ENDBRANCH   2   3
ENDBRANCH   1   2
BRANCH   1   7
ATOM      7  C   UNL     1       4.817  24.735   8.959  1.00  0.00     0.000 C 
BRANCH   7   8
ATOM      8  C   UNL     1       4.564  24.069   7.597  1.00  0.00    -0.000 C 
BRANCH   8   9
ATOM      9  C   UNL     1       4.243  25.086   6.491  1.00  0.00    -0.000 C 
BRANCH   9  10
ATOM     10  C   UNL     1       2.860  24.858   5.863  1.00  0.00    -0.003 C 
ATOM     11  C   UNL     1       1.801  25.730   6.533  1.00  0.00     0.004 C 
ENDBRANCH   9  10
ENDBRANCH   8   9
ENDBRANCH   7   8
ENDBRANCH   1   7
TORSDOF 7
ENDMDL
MODEL 3
REMARK VINA RESULT:    -2.951      1.678      2.829
REMARK INTER + INTRA:          -4.750
REMARK INTER:                  -4.426
REMARK INTRA:                  -0.323
REMARK UNBOUND:                -0.591
REMARK SMILES CCCCCCCCC(=O)[O-]
REMARK SMILES IDX 6 1 7 2 8 3 9 4 10 5 11 6 5 7 4 8 3 9 2 10 1 11
REMARK H PARENT
REMARK Flexibility Score: inf
ROOT
ATOM      1  C   UNL     1       3.622  24.204  11.721  1.00  0.00     0.000 C 
ENDROOT
BRANCH   1   2
ATOM      2  C   UNL     1       4.085  25.065  12.908  1.00  0.00     0.006 C 
BRANCH   2   3
ATOM      3  C   UNL     1       3.112  26.209  13.224  1.00  0.00     0.053 C 
BRANCH   3   4
ATOM      4  C   UNL     1       1.972  25.709  14.053  1.00  0.00     0.041 C 
ATOM      5  O   UNL     1       2.128  25.502  15.285  1.00  0.00    -0.550 OA
ATOM      6  O   UNL     1       0.751  25.425  13.456  1.00  0.00    -0.550 OA
ENDBRANCH   3   4
ENDBRANCH   2   3
ENDBRANCH   1   2
BRANCH   1   7
ATOM      7  C   UNL     1       3.401  25.027  10.443  1.00  0.00     0.000 C 
BRANCH   7   8
ATOM      8  C   UNL     1       3.886  24.257   9.205  1.00  0.00    -0.000 C 
BRANCH   8   9
ATOM      9  C   UNL     1       4.933  25.036   8.395  1.00  0.00    -0.000 C 
BRANCH   9  10
ATOM     10  C   UNL     1       4.627  25.047   6.890  1.00  0.00    -0.003 C 
ATOM     11  C   UNL     1       3.125  25.130   6.634  1.00  0.00     0.004 C 
ENDBRANCH   9  10
ENDBRANCH   8   9
ENDBRANCH   7   8
ENDBRANCH   1   7
TORSDOF 7
ENDMDL
MODEL 4
REMARK VINA RESULT:    -2.930      0.989      2.293
REMARK INTER + INTRA:          -4.720
REMARK INTER:                  -4.148
REMARK INTRA:                  -0.572
REMARK UNBOUND:                -0.591
REMARK SMILES CCCCCCCCC(=O)[O-]
REMARK SMILES IDX 6 1 7 2 8 3 9 4 10 5 11 6 5 7 4 8 3 9 2 10 1 11
REMARK H PARENT
REMARK Flexibility Score: inf
ROOT
ATOM      1  C   UNL     1       1.750  24.647   9.271  1.00  0.00     0.000 C 
ENDROOT
BRANCH   1   2
ATOM      2  C   UNL     1       1.914  25.149  10.715  1.00  0.00     0.006 C 
BRANCH   2   3
ATOM      3  C   UNL     1       3.328  24.921  11.264  1.00  0.00     0.053 C 
BRANCH   3   4
ATOM      4  C   UNL     1       3.438  25.452  12.658  1.00  0.00     0.041 C 
ATOM      5  O   UNL     1       2.485  26.098  13.167  1.00  0.00    -0.550 OA
ATOM      6  O   UNL     1       4.612  25.276  13.378  1.00  0.00    -0.550 OA
ENDBRANCH   3   4
ENDBRANCH   2   3
ENDBRANCH   1   2
BRANCH   1   7
ATOM      7  C   UNL     1       1.226  25.734   8.322  1.00  0.00     0.000 C 
BRANCH   7   8
ATOM      8  C   UNL     1       1.921  25.648   6.954  1.00  0.00    -0.000 C 
BRANCH   8   9
ATOM      9  C   UNL     1       2.988  24.544   6.899  1.00  0.00    -0.000 C 
BRANCH   9  10
ATOM     10  C   UNL     1       4.402  25.100   6.677  1.00  0.00    -0.003 C 
ATOM     11  C   UNL     1       5.159  25.220   7.997  1.00  0.00     0.004 C 
ENDBRANCH   9  10
ENDBRANCH   8   9
ENDBRANCH   7   8
ENDBRANCH   1   7
TORSDOF 7
ENDMDL
MODEL 5
REMARK VINA RESULT:    -2.885      2.843      4.797
REMARK INTER + INTRA:          -4.657
REMARK INTER:                  -4.191
REMARK INTRA:                  -0.465
REMARK UNBOUND:                -0.591
REMARK SMILES CCCCCCCCC(=O)[O-]
REMARK SMILES IDX 6 1 7 2 8 3 9 4 10 5 11 6 5 7 4 8 3 9 2 10 1 11
REMARK H PARENT
REMARK Flexibility Score: inf
ROOT
ATOM      1  C   UNL     1       4.499  25.054   6.689  1.00  0.00     0.000 C 
ENDROOT
BRANCH   1   2
ATOM      2  C   UNL     1       3.029  24.606   6.644  1.00  0.00     0.006 C 
BRANCH   2   3
ATOM      3  C   UNL     1       2.113  25.648   5.989  1.00  0.00     0.053 C 
BRANCH   3   4
ATOM      4  C   UNL     1       1.001  26.021   6.917  1.00  0.00     0.041 C 
ATOM      5  O   UNL     1       1.188  26.022   8.162  1.00  0.00    -0.550 OA
ATOM      6  O   UNL     1      -0.257  26.320   6.410  1.00  0.00    -0.550 OA
ENDBRANCH   3   4
ENDBRANCH   2   3
ENDBRANCH   1   2
BRANCH   1   7
ATOM      7  C   UNL     1       5.063  25.094   8.117  1.00  0.00     0.000 C 
BRANCH   7   8
ATOM      8  C   UNL     1       4.191  24.266   9.073  1.00  0.00    -0.000 C 
BRANCH   8   9
ATOM      9  C   UNL     1       4.848  24.060  10.447  1.00  0.00    -0.000 C 
BRANCH   9  10
ATOM     10  C   UNL     1       3.917  24.435  11.609  1.00  0.00    -0.003 C 
ATOM     11  C   UNL     1       2.940  25.533  11.199  1.00  0.00     0.004 C 
ENDBRANCH   9  10
ENDBRANCH   8   9
ENDBRANCH   7   8
ENDBRANCH   1   7
TORSDOF 7
ENDMDL
MODEL 6
REMARK VINA RESULT:    -2.809      3.158      4.714
REMARK INTER + INTRA:          -4.549
REMARK INTER:                  -3.816
REMARK INTRA:                  -0.733
REMARK UNBOUND:                -0.591
REMARK SMILES CCCCCCCCC(=O)[O-]
REMARK SMILES IDX 6 1 7 2 8 3 9 4 10 5 11 6 5 7 4 8 3 9 2 10 1 11
REMARK H PARENT
REMARK Flexibility Score: inf
ROOT
ATOM      1  C   UNL     1       4.557  25.078   6.639  1.00  0.00     0.000 C 
ENDROOT
BRANCH   1   2
ATOM      2  C   UNL     1       3.123  24.550   6.467  1.00  0.00     0.006 C 
BRANCH   2   3
ATOM      3  C   UNL     1       2.160  25.619   5.934  1.00  0.00     0.053 C 
BRANCH   3   4
ATOM      4  C   UNL     1       0.787  25.406   6.487  1.00  0.00     0.041 C 
ATOM      5  O   UNL     1       0.260  24.263   6.450  1.00  0.00    -0.550 OA
ATOM      6  O   UNL     1       0.070  26.478   7.000  1.00  0.00    -0.550 OA
ENDBRANCH   3   4
ENDBRANCH   2   3
ENDBRANCH   1   2
BRANCH   1   7
ATOM      7  C   UNL     1       5.014  25.082   8.106  1.00  0.00     0.000 C 
BRANCH   7   8
ATOM      8  C   UNL     1       4.131  24.157   8.958  1.00  0.00    -0.000 C 
BRANCH   8   9
ATOM      9  C   UNL     1       3.582  24.852  10.213  1.00  0.00    -0.000 C 
BRANCH   9  10
ATOM     10  C   UNL     1       2.208  25.495   9.979  1.00  0.00    -0.003 C 
ATOM     11  C   UNL     1       1.095  24.452  10.035  1.00  0.00     0.004 C 
ENDBRANCH   9  10
ENDBRANCH   8   9
ENDBRANCH   7   8
ENDBRANCH   1   7
TORSDOF 7
ENDMDL
MODEL 7
REMARK VINA RESULT:    -2.588      3.267      5.428
REMARK INTER + INTRA:          -4.238
REMARK INTER:                  -3.905
REMARK INTRA:                  -0.333
REMARK UNBOUND:                -0.591
REMARK SMILES CCCCCCCCC(=O)[O-]
REMARK SMILES IDX 6 1 7 2 8 3 9 4 10 5 11 6 5 7 4 8 3 9 2 10 1 11
REMARK H PARENT
REMARK Flexibility Score: inf
ROOT
ATOM      1  C   UNL     1       4.899  25.023   8.090  1.00  0.00     0.000 C 
ENDROOT
BRANCH   1   2
ATOM      2  C   UNL     1       4.499  25.007   6.605  1.00  0.00     0.006 C 
BRANCH   2   3
ATOM      3  C   UNL     1       3.240  24.173   6.342  1.00  0.00     0.053 C 
BRANCH   3   4
ATOM      4  C   UNL     1       2.103  25.057   5.938  1.00  0.00     0.041 C 
ATOM      5  O   UNL     1       1.608  24.967   4.784  1.00  0.00    -0.550 OA
ATOM      6  O   UNL     1       1.621  26.015   6.820  1.00  0.00    -0.550 OA
ENDBRANCH   3   4
ENDBRANCH   2   3
ENDBRANCH   1   2
BRANCH   1   7
ATOM      7  C   UNL     1       3.980  24.154   8.960  1.00  0.00     0.000 C 
BRANCH   7   8
ATOM      8  C   UNL     1       3.126  25.026   9.894  1.00  0.00    -0.000 C 
BRANCH   8   9
ATOM      9  C   UNL     1       3.319  24.672  11.377  1.00  0.00    -0.000 C 
BRANCH   9  10
ATOM     10  C   UNL     1       3.083  25.871  12.306  1.00  0.00    -0.003 C 
ATOM     11  C   UNL     1       3.723  25.643  13.673  1.00  0.00     0.004 C 
ENDBRANCH   9  10
ENDBRANCH   8   9
ENDBRANCH   7   8
ENDBRANCH   1   7
TORSDOF 7
ENDMDL
MODEL 8
REMARK VINA RESULT:    -2.543      2.121      2.942
REMARK INTER + INTRA:          -4.175
REMARK INTER:                  -3.550
REMARK INTRA:                  -0.625
REMARK UNBOUND:                -0.591
REMARK SMILES CCCCCCCCC(=O)[O-]
REMARK SMILES IDX 6 1 7 2 8 3 9 4 10 5 11 6 5 7 4 8 3 9 2 10 1 11
REMARK H PARENT
REMARK Flexibility Score: inf
ROOT
ATOM      1  C   UNL     1       2.605  25.578  10.320  1.00  0.00     0.000 C 
ENDROOT
BRANCH   1   2
ATOM      2  C   UNL     1       1.315  24.886   9.850  1.00  0.00     0.006 C 
BRANCH   2   3
ATOM      3  C   UNL     1       0.772  23.885  10.878  1.00  0.00     0.053 C 
BRANCH   3   4
ATOM      4  C   UNL     1       0.110  24.607  12.009  1.00  0.00     0.041 C 
ATOM      5  O   UNL     1      -1.000  25.174  11.834  1.00  0.00    -0.550 OA
ATOM      6  O   UNL     1       0.742  24.694  13.242  1.00  0.00    -0.550 OA
ENDBRANCH   3   4
ENDBRANCH   2   3
ENDBRANCH   1   2
BRANCH   1   7
ATOM      7  C   UNL     1       3.784  24.604  10.456  1.00  0.00     0.000 C 
BRANCH   7   8
ATOM      8  C   UNL     1       4.169  24.016   9.089  1.00  0.00    -0.000 C 
BRANCH   8   9
ATOM      9  C   UNL     1       4.876  25.036   8.183  1.00  0.00    -0.000 C 
BRANCH   9  10
ATOM     10  C   UNL     1       4.472  24.895   6.708  1.00  0.00    -0.003 C 
ATOM     11  C   UNL     1       2.995  25.224   6.509  1.00  0.00     0.004 C 
ENDBRANCH   9  10
ENDBRANCH   8   9
ENDBRANCH   7   8
ENDBRANCH   1   7
TORSDOF 7
ENDMDL
