MODEL 1
REMARK VINA RESULT:    12.963      0.000      0.000
REMARK INTER + INTRA:          22.786
REMARK INTER:                  23.572
REMARK INTRA:                  -0.787
REMARK UNBOUND:                -0.787
REMARK SMILES CCCCCCCCCCCCCCCC(=O)[O-]
REMARK SMILES IDX 9 1 10 2 11 3 12 4 13 5 14 6 15 7 16 8 17 9 18 10 8 11 7 12
REMARK SMILES IDX 6 13 5 14 4 15 3 16 2 17 1 18
REMARK H PARENT
REMARK Flexibility Score: inf
ROOT
ATOM      1  C   UNL     1     -12.805   0.898 -17.946  1.00  0.00     0.000 C 
ENDROOT
BRANCH   1   2
ATOM      2  C   UNL     1     -12.151   2.239 -17.583  1.00  0.00     0.000 C 
BRANCH   2   3
ATOM      3  C   UNL     1     -12.963   3.446 -18.081  1.00  0.00     0.000 C 
BRANCH   3   4
ATOM      4  C   UNL     1     -14.474   3.164 -18.125  1.00  0.00     0.000 C 
BRANCH   4   5
ATOM      5  C   UNL     1     -15.274   4.330 -18.729  1.00  0.00     0.000 C 
BRANCH   5   6
ATOM      6  C   UNL     1     -14.371   5.382 -19.396  1.00  0.00     0.006 C 
BRANCH   6   7
ATOM      7  C   UNL     1     -15.164   6.335 -20.301  1.00  0.00     0.053 C 
BRANCH   7   8
ATOM      8  C   UNL     1     -15.097   7.750 -19.811  1.00  0.00     0.041 C 
ATOM      9  O   UNL     1     -16.033   8.222 -19.113  1.00  0.00    -0.550 OA
ATOM     10  O   UNL     1     -14.020   8.556 -20.154  1.00  0.00    -0.550 OA
ENDBRANCH   7   8
ENDBRANCH   6   7
ENDBRANCH   5   6
ENDBRANCH   4   5
ENDBRANCH   3   4
ENDBRANCH   2   3
ENDBRANCH   1   2
BRANCH   1  11
ATOM     11  C   UNL     1     -12.450  -0.181 -16.911  1.00  0.00     0.000 C 
BRANCH  11  12
ATOM     12  C   UNL     1     -11.932  -1.479 -17.555  1.00  0.00    -0.000 C 
BRANCH  12  13
ATOM     13  C   UNL     1     -10.561  -1.364 -18.249  1.00  0.00    -0.000 C 
BRANCH  13  14
ATOM     14  C   UNL     1      -9.447  -0.741 -17.389  1.00  0.00    -0.000 C 
BRANCH  14  15
ATOM     15  C   UNL     1      -8.054  -1.303 -17.722  1.00  0.00    -0.000 C 
BRANCH  15  16
ATOM     16  C   UNL     1      -6.929  -0.569 -16.974  1.00  0.00    -0.000 C 
BRANCH  16  17
ATOM     17  C   UNL     1      -7.147  -0.550 -15.455  1.00  0.00    -0.003 C 
ATOM     18  C   UNL     1      -7.043  -1.955 -14.866  1.00  0.00     0.004 C 
ENDBRANCH  16  17
ENDBRANCH  15  16
ENDBRANCH  14  15
ENDBRANCH  13  14
ENDBRANCH  12  13
ENDBRANCH  11  12
ENDBRANCH   1  11
TORSDOF 14
ENDMDL
MODEL 2
REMARK VINA RESULT:    13.089      2.475      2.815
REMARK INTER + INTRA:          23.015
REMARK INTER:                  23.761
REMARK INTRA:                  -0.746
REMARK UNBOUND:                -0.787
REMARK SMILES CCCCCCCCCCCCCCCC(=O)[O-]
REMARK SMILES IDX 9 1 10 2 11 3 12 4 13 5 14 6 15 7 16 8 17 9 18 10 8 11 7 12
REMARK SMILES IDX 6 13 5 14 4 15 3 16 2 17 1 18
REMARK H PARENT
REMARK Flexibility Score: inf
ROOT
ATOM      1  C   UNL     1     -12.876   1.413 -18.391  1.00  0.00     0.000 C 
ENDROOT
BRANCH   1   2
ATOM      2  C   UNL     1     -12.637   2.908 -18.131  1.00  0.00     0.000 C 
BRANCH   2   3
ATOM      3  C   UNL     1     -11.894   3.166 -16.810  1.00  0.00     0.000 C 
BRANCH   3   4
ATOM      4  C   UNL     1     -11.470   4.636 -16.648  1.00  0.00     0.000 C 
BRANCH   4   5
ATOM      5  C   UNL     1     -12.587   5.509 -16.051  1.00  0.00     0.000 C 
BRANCH   5   6
ATOM      6  C   UNL     1     -12.166   6.981 -15.898  1.00  0.00     0.006 C 
BRANCH   6   7
ATOM      7  C   UNL     1     -13.172   7.941 -16.547  1.00  0.00     0.053 C 
BRANCH   7   8
ATOM      8  C   UNL     1     -14.193   8.426 -15.563  1.00  0.00     0.041 C 
ATOM      9  O   UNL     1     -15.160   9.132 -15.952  1.00  0.00    -0.550 OA
ATOM     10  O   UNL     1     -14.055   8.129 -14.214  1.00  0.00    -0.550 OA
ENDBRANCH   7   8
ENDBRANCH   6   7
ENDBRANCH   5   6
ENDBRANCH   4   5
ENDBRANCH   3   4
ENDBRANCH   2   3
ENDBRANCH   1   2
BRANCH   1  11
ATOM     11  C   UNL     1     -12.490   0.575 -17.163  1.00  0.00     0.000 C 
BRANCH  11  12
ATOM     12  C   UNL     1     -12.392  -0.929 -17.472  1.00  0.00    -0.000 C 
BRANCH  12  13
ATOM     13  C   UNL     1     -11.039  -1.393 -18.046  1.00  0.00    -0.000 C 
BRANCH  13  14
ATOM     14  C   UNL     1      -9.808  -0.656 -17.486  1.00  0.00    -0.000 C 
BRANCH  14  15
ATOM     15  C   UNL     1      -8.569  -1.562 -17.383  1.00  0.00    -0.000 C 
BRANCH  15  16
ATOM     16  C   UNL     1      -7.262  -0.761 -17.271  1.00  0.00    -0.000 C 
BRANCH  16  17
ATOM     17  C   UNL     1      -6.875  -0.466 -15.815  1.00  0.00    -0.003 C 
ATOM     18  C   UNL     1      -7.151  -1.671 -14.918  1.00  0.00     0.004 C 
ENDBRANCH  16  17
ENDBRANCH  15  16
ENDBRANCH  14  15
ENDBRANCH  13  14
ENDBRANCH  12  13
ENDBRANCH  11  12
ENDBRANCH   1  11
TORSDOF 14
ENDMDL
MODEL 3
REMARK VINA RESULT:    13.650      2.245      2.718
REMARK INTER + INTRA:          24.036
REMARK INTER:                  24.919
REMARK INTRA:                  -0.883
REMARK UNBOUND:                -0.787
REMARK SMILES CCCCCCCCCCCCCCCC(=O)[O-]
REMARK SMILES IDX 9 1 10 2 11 3 12 4 13 5 14 6 15 7 16 8 17 9 18 10 8 11 7 12
REMARK SMILES IDX 6 13 5 14 4 15 3 16 2 17 1 18
REMARK H PARENT
REMARK Flexibility Score: inf
ROOT
ATOM      1  C   UNL     1     -12.678   0.641 -17.056  1.00  0.00     0.000 C 
ENDROOT
BRANCH   1   2
ATOM      2  C   UNL     1     -12.937   1.568 -18.253  1.00  0.00     0.000 C 
BRANCH   2   3
ATOM      3  C   UNL     1     -12.631   3.041 -17.937  1.00  0.00     0.000 C 
BRANCH   3   4
ATOM      4  C   UNL     1     -11.663   3.202 -16.752  1.00  0.00     0.000 C 
BRANCH   4   5
ATOM      5  C   UNL     1     -11.320   4.674 -16.467  1.00  0.00     0.000 C 
BRANCH   5   6
ATOM      6  C   UNL     1     -12.574   5.552 -16.310  1.00  0.00     0.006 C 
BRANCH   6   7
ATOM      7  C   UNL     1     -12.243   6.938 -15.740  1.00  0.00     0.053 C 
BRANCH   7   8
ATOM      8  C   UNL     1     -13.231   7.972 -16.184  1.00  0.00     0.041 C 
ATOM      9  O   UNL     1     -13.066   8.577 -17.275  1.00  0.00    -0.550 OA
ATOM     10  O   UNL     1     -14.314   8.293 -15.376  1.00  0.00    -0.550 OA
ENDBRANCH   7   8
ENDBRANCH   6   7
ENDBRANCH   5   6
ENDBRANCH   4   5
ENDBRANCH   3   4
ENDBRANCH   2   3
ENDBRANCH   1   2
BRANCH   1  11
ATOM     11  C   UNL     1     -12.525  -0.816 -17.515  1.00  0.00     0.000 C 
BRANCH  11  12
ATOM     12  C   UNL     1     -11.370  -1.011 -18.514  1.00  0.00    -0.000 C 
BRANCH  12  13
ATOM     13  C   UNL     1     -10.033  -1.454 -17.889  1.00  0.00    -0.000 C 
BRANCH  13  14
ATOM     14  C   UNL     1      -9.291  -0.361 -17.098  1.00  0.00    -0.000 C 
BRANCH  14  15
ATOM     15  C   UNL     1      -7.809  -0.242 -17.496  1.00  0.00    -0.000 C 
BRANCH  15  16
ATOM     16  C   UNL     1      -6.901  -1.166 -16.669  1.00  0.00    -0.000 C 
BRANCH  16  17
ATOM     17  C   UNL     1      -6.875  -0.788 -15.181  1.00  0.00    -0.003 C 
ATOM     18  C   UNL     1      -7.167  -2.001 -14.301  1.00  0.00     0.004 C 
ENDBRANCH  16  17
ENDBRANCH  15  16
ENDBRANCH  14  15
ENDBRANCH  13  14
ENDBRANCH  12  13
ENDBRANCH  11  12
ENDBRANCH   1  11
TORSDOF 14
ENDMDL
MODEL 4
REMARK VINA RESULT:    13.849      5.583      7.791
REMARK INTER + INTRA:          24.398
REMARK INTER:                  25.036
REMARK INTRA:                  -0.639
REMARK UNBOUND:                -0.787
REMARK SMILES CCCCCCCCCCCCCCCC(=O)[O-]
REMARK SMILES IDX 9 1 10 2 11 3 12 4 13 5 14 6 15 7 16 8 17 9 18 10 8 11 7 12
REMARK SMILES IDX 6 13 5 14 4 15 3 16 2 17 1 18
REMARK H PARENT
REMARK Flexibility Score: inf
ROOT
ATOM      1  C   UNL     1     -14.424  -2.456 -15.647  1.00  0.00     0.000 C 
ENDROOT
BRANCH   1   2
ATOM      2  C   UNL     1     -14.317  -3.938 -15.256  1.00  0.00     0.000 C 
BRANCH   2   3
ATOM      3  C   UNL     1     -14.035  -4.135 -13.758  1.00  0.00     0.000 C 
BRANCH   3   4
ATOM      4  C   UNL     1     -14.853  -3.180 -12.872  1.00  0.00     0.000 C 
BRANCH   4   5
ATOM      5  C   UNL     1     -14.898  -3.631 -11.403  1.00  0.00     0.000 C 
BRANCH   5   6
ATOM      6  C   UNL     1     -14.390  -2.547 -10.437  1.00  0.00     0.006 C 
BRANCH   6   7
ATOM      7  C   UNL     1     -15.253  -1.279 -10.483  1.00  0.00     0.053 C 
BRANCH   7   8
ATOM      8  C   UNL     1     -14.416  -0.040 -10.566  1.00  0.00     0.041 C 
ATOM      9  O   UNL     1     -14.669   0.837 -11.433  1.00  0.00    -0.550 OA
ATOM     10  O   UNL     1     -13.336   0.130  -9.709  1.00  0.00    -0.550 OA
ENDBRANCH   7   8
ENDBRANCH   6   7
ENDBRANCH   5   6
ENDBRANCH   4   5
ENDBRANCH   3   4
ENDBRANCH   2   3
ENDBRANCH   1   2
BRANCH   1  11
ATOM     11  C   UNL     1     -13.286  -2.058 -16.599  1.00  0.00     0.000 C 
BRANCH  11  12
ATOM     12  C   UNL     1     -13.171  -0.535 -16.788  1.00  0.00    -0.000 C 
BRANCH  12  13
ATOM     13  C   UNL     1     -12.033  -0.075 -17.722  1.00  0.00    -0.000 C 
BRANCH  13  14
ATOM     14  C   UNL     1     -10.852  -1.055 -17.838  1.00  0.00    -0.000 C 
BRANCH  14  15
ATOM     15  C   UNL     1      -9.606  -0.577 -17.073  1.00  0.00    -0.000 C 
BRANCH  15  16
ATOM     16  C   UNL     1      -8.327  -1.310 -17.512  1.00  0.00    -0.000 C 
BRANCH  16  17
ATOM     17  C   UNL     1      -7.087  -0.848 -16.735  1.00  0.00    -0.003 C 
ATOM     18  C   UNL     1      -7.249  -1.104 -15.239  1.00  0.00     0.004 C 
ENDBRANCH  16  17
ENDBRANCH  15  16
ENDBRANCH  14  15
ENDBRANCH  13  14
ENDBRANCH  12  13
ENDBRANCH  11  12
ENDBRANCH   1  11
TORSDOF 14
ENDMDL
MODEL 5
REMARK VINA RESULT:    13.972      1.906      2.871
REMARK INTER + INTRA:          24.621
REMARK INTER:                  25.230
REMARK INTRA:                  -0.609
REMARK UNBOUND:                -0.787
REMARK SMILES CCCCCCCCCCCCCCCC(=O)[O-]
REMARK SMILES IDX 9 1 10 2 11 3 12 4 13 5 14 6 15 7 16 8 17 9 18 10 8 11 7 12
REMARK SMILES IDX 6 13 5 14 4 15 3 16 2 17 1 18
REMARK H PARENT
REMARK Flexibility Score: inf
ROOT
ATOM      1  C   UNL     1     -13.468   2.786 -18.261  1.00  0.00     0.000 C 
ENDROOT
BRANCH   1   2
ATOM      2  C   UNL     1     -13.437   4.279 -18.621  1.00  0.00     0.000 C 
BRANCH   2   3
ATOM      3  C   UNL     1     -14.834   4.840 -18.932  1.00  0.00     0.000 C 
BRANCH   3   4
ATOM      4  C   UNL     1     -14.805   5.927 -20.020  1.00  0.00     0.000 C 
BRANCH   4   5
ATOM      5  C   UNL     1     -15.266   7.297 -19.497  1.00  0.00     0.000 C 
BRANCH   5   6
ATOM      6  C   UNL     1     -14.136   8.074 -18.799  1.00  0.00     0.006 C 
BRANCH   6   7
ATOM      7  C   UNL     1     -14.610   8.749 -17.506  1.00  0.00     0.053 C 
BRANCH   7   8
ATOM      8  C   UNL     1     -13.827   8.284 -16.316  1.00  0.00     0.041 C 
ATOM      9  O   UNL     1     -12.701   7.742 -16.473  1.00  0.00    -0.550 OA
ATOM     10  O   UNL     1     -14.355   8.416 -15.039  1.00  0.00    -0.550 OA
ENDBRANCH   7   8
ENDBRANCH   6   7
ENDBRANCH   5   6
ENDBRANCH   4   5
ENDBRANCH   3   4
ENDBRANCH   2   3
ENDBRANCH   1   2
BRANCH   1  11
ATOM     11  C   UNL     1     -12.138   2.347 -17.630  1.00  0.00     0.000 C 
BRANCH  11  12
ATOM     12  C   UNL     1     -12.195   0.927 -17.041  1.00  0.00    -0.000 C 
BRANCH  12  13
ATOM     13  C   UNL     1     -12.232  -0.212 -18.079  1.00  0.00    -0.000 C 
BRANCH  13  14
ATOM     14  C   UNL     1     -10.958  -1.074 -18.145  1.00  0.00    -0.000 C 
BRANCH  14  15
ATOM     15  C   UNL     1      -9.841  -0.554 -17.224  1.00  0.00    -0.000 C 
BRANCH  15  16
ATOM     16  C   UNL     1      -8.549  -1.380 -17.342  1.00  0.00    -0.000 C 
BRANCH  16  17
ATOM     17  C   UNL     1      -7.337  -0.668 -16.726  1.00  0.00    -0.003 C 
ATOM     18  C   UNL     1      -7.079  -1.154 -15.302  1.00  0.00     0.004 C 
ENDBRANCH  16  17
ENDBRANCH  15  16
ENDBRANCH  14  15
ENDBRANCH  13  14
ENDBRANCH  12  13
ENDBRANCH  11  12
ENDBRANCH   1  11
TORSDOF 14
ENDMDL
MODEL 6
REMARK VINA RESULT:    14.051      4.711      9.261
REMARK INTER + INTRA:          24.764
REMARK INTER:                  24.791
REMARK INTRA:                  -0.027
REMARK UNBOUND:                -0.787
REMARK SMILES CCCCCCCCCCCCCCCC(=O)[O-]
REMARK SMILES IDX 9 1 10 2 11 3 12 4 13 5 14 6 15 7 16 8 17 9 18 10 8 11 7 12
REMARK SMILES IDX 6 13 5 14 4 15 3 16 2 17 1 18
REMARK H PARENT
REMARK Flexibility Score: inf
ROOT
ATOM      1  C   UNL     1     -12.867   0.498 -17.616  1.00  0.00     0.000 C 
ENDROOT
BRANCH   1   2
ATOM      2  C   UNL     1     -12.202  -0.880 -17.478  1.00  0.00     0.000 C 
BRANCH   2   3
ATOM      3  C   UNL     1     -10.913  -1.000 -18.306  1.00  0.00     0.000 C 
BRANCH   3   4
ATOM      4  C   UNL     1      -9.656  -0.632 -17.500  1.00  0.00     0.000 C 
BRANCH   4   5
ATOM      5  C   UNL     1      -8.357  -0.920 -18.270  1.00  0.00     0.000 C 
BRANCH   5   6
ATOM      6  C   UNL     1      -7.121  -0.294 -17.599  1.00  0.00     0.006 C 
BRANCH   6   7
ATOM      7  C   UNL     1      -7.278  -0.194 -16.076  1.00  0.00     0.053 C 
BRANCH   7   8
ATOM      8  C   UNL     1      -7.171  -1.535 -15.417  1.00  0.00     0.041 C 
ATOM      9  O   UNL     1      -6.947  -1.616 -14.181  1.00  0.00    -0.550 OA
ATOM     10  O   UNL     1      -7.284  -2.694 -16.174  1.00  0.00    -0.550 OA
ENDBRANCH   7   8
ENDBRANCH   6   7
ENDBRANCH   5   6
ENDBRANCH   4   5
ENDBRANCH   3   4
ENDBRANCH   2   3
ENDBRANCH   1   2
BRANCH   1  11
ATOM     11  C   UNL     1     -12.085   1.563 -16.833  1.00  0.00     0.000 C 
BRANCH  11  12
ATOM     12  C   UNL     1     -12.170   2.960 -17.475  1.00  0.00    -0.000 C 
BRANCH  12  13
ATOM     13  C   UNL     1     -13.067   3.052 -18.725  1.00  0.00    -0.000 C 
BRANCH  13  14
ATOM     14  C   UNL     1     -14.410   3.772 -18.510  1.00  0.00    -0.000 C 
BRANCH  14  15
ATOM     15  C   UNL     1     -14.299   5.298 -18.670  1.00  0.00    -0.000 C 
BRANCH  15  16
ATOM     16  C   UNL     1     -15.072   5.821 -19.892  1.00  0.00    -0.000 C 
BRANCH  16  17
ATOM     17  C   UNL     1     -15.435   7.307 -19.768  1.00  0.00    -0.003 C 
ATOM     18  C   UNL     1     -14.243   8.195 -20.116  1.00  0.00     0.004 C 
ENDBRANCH  16  17
ENDBRANCH  15  16
ENDBRANCH  14  15
ENDBRANCH  13  14
ENDBRANCH  12  13
ENDBRANCH  11  12
ENDBRANCH   1  11
TORSDOF 14
ENDMDL
MODEL 7
REMARK VINA RESULT:    14.286      4.297      9.206
REMARK INTER + INTRA:          25.192
REMARK INTER:                  25.669
REMARK INTRA:                  -0.477
REMARK UNBOUND:                -0.787
REMARK SMILES CCCCCCCCCCCCCCCC(=O)[O-]
REMARK SMILES IDX 9 1 10 2 11 3 12 4 13 5 14 6 15 7 16 8 17 9 18 10 8 11 7 12
REMARK SMILES IDX 6 13 5 14 4 15 3 16 2 17 1 18
REMARK H PARENT
REMARK Flexibility Score: inf
ROOT
ATOM      1  C   UNL     1     -12.027   1.660 -16.982  1.00  0.00     0.000 C 
ENDROOT
BRANCH   1   2
ATOM      2  C   UNL     1     -12.823   0.670 -17.844  1.00  0.00     0.000 C 
BRANCH   2   3
ATOM      3  C   UNL     1     -12.357  -0.783 -17.659  1.00  0.00     0.000 C 
BRANCH   3   4
ATOM      4  C   UNL     1     -10.992  -1.054 -18.313  1.00  0.00     0.000 C 
BRANCH   4   5
ATOM      5  C   UNL     1      -9.839  -1.053 -17.296  1.00  0.00     0.000 C 
BRANCH   5   6
ATOM      6  C   UNL     1      -8.456  -1.055 -17.970  1.00  0.00     0.006 C 
BRANCH   6   7
ATOM      7  C   UNL     1      -7.371  -1.651 -17.063  1.00  0.00     0.053 C 
BRANCH   7   8
ATOM      8  C   UNL     1      -7.353  -0.996 -15.715  1.00  0.00     0.041 C 
ATOM      9  O   UNL     1      -7.614   0.231 -15.604  1.00  0.00    -0.550 OA
ATOM     10  O   UNL     1      -7.015  -1.733 -14.588  1.00  0.00    -0.550 OA
ENDBRANCH   7   8
ENDBRANCH   6   7
ENDBRANCH   5   6
ENDBRANCH   4   5
ENDBRANCH   3   4
ENDBRANCH   2   3
ENDBRANCH   1   2
BRANCH   1  11
ATOM     11  C   UNL     1     -12.115   3.082 -17.558  1.00  0.00     0.000 C 
BRANCH  11  12
ATOM     12  C   UNL     1     -13.358   3.293 -18.441  1.00  0.00    -0.000 C 
BRANCH  12  13
ATOM     13  C   UNL     1     -13.953   4.715 -18.404  1.00  0.00    -0.000 C 
BRANCH  13  14
ATOM     14  C   UNL     1     -15.153   4.942 -19.342  1.00  0.00    -0.000 C 
BRANCH  14  15
ATOM     15  C   UNL     1     -14.978   6.177 -20.242  1.00  0.00    -0.000 C 
BRANCH  15  16
ATOM     16  C   UNL     1     -15.306   7.489 -19.511  1.00  0.00    -0.000 C 
BRANCH  16  17
ATOM     17  C   UNL     1     -14.065   8.364 -19.287  1.00  0.00    -0.003 C 
ATOM     18  C   UNL     1     -13.773   8.534 -17.798  1.00  0.00     0.004 C 
ENDBRANCH  16  17
ENDBRANCH  15  16
ENDBRANCH  14  15
ENDBRANCH  13  14
ENDBRANCH  12  13
ENDBRANCH  11  12
ENDBRANCH   1  11
TORSDOF 14
ENDMDL
MODEL 8
REMARK VINA RESULT:    14.710      4.487      9.191
REMARK INTER + INTRA:          25.963
REMARK INTER:                  26.719
REMARK INTRA:                  -0.756
REMARK UNBOUND:                -0.787
REMARK SMILES CCCCCCCCCCCCCCCC(=O)[O-]
REMARK SMILES IDX 9 1 10 2 11 3 12 4 13 5 14 6 15 7 16 8 17 9 18 10 8 11 7 12
REMARK SMILES IDX 6 13 5 14 4 15 3 16 2 17 1 18
REMARK H PARENT
REMARK Flexibility Score: inf
ROOT
ATOM      1  C   UNL     1     -12.579   3.397 -17.949  1.00  0.00     0.000 C 
ENDROOT
BRANCH   1   2
ATOM      2  C   UNL     1     -12.841   1.919 -18.273  1.00  0.00     0.000 C 
BRANCH   2   3
ATOM      3  C   UNL     1     -12.427   0.981 -17.128  1.00  0.00     0.000 C 
BRANCH   3   4
ATOM      4  C   UNL     1     -11.797  -0.328 -17.635  1.00  0.00     0.000 C 
BRANCH   4   5
ATOM      5  C   UNL     1     -10.266  -0.339 -17.495  1.00  0.00     0.000 C 
BRANCH   5   6
ATOM      6  C   UNL     1      -9.698  -1.761 -17.346  1.00  0.00     0.006 C 
BRANCH   6   7
ATOM      7  C   UNL     1      -8.183  -1.808 -17.592  1.00  0.00     0.053 C 
BRANCH   7   8
ATOM      8  C   UNL     1      -7.433  -0.977 -16.596  1.00  0.00     0.041 C 
ATOM      9  O   UNL     1      -6.876   0.093 -16.957  1.00  0.00    -0.550 OA
ATOM     10  O   UNL     1      -7.320  -1.401 -15.279  1.00  0.00    -0.550 OA
ENDBRANCH   7   8
ENDBRANCH   6   7
ENDBRANCH   5   6
ENDBRANCH   4   5
ENDBRANCH   3   4
ENDBRANCH   2   3
ENDBRANCH   1   2
BRANCH   1  11
ATOM     11  C   UNL     1     -11.722   3.536 -16.682  1.00  0.00     0.000 C 
BRANCH  11  12
ATOM     12  C   UNL     1     -11.405   5.001 -16.332  1.00  0.00    -0.000 C 
BRANCH  12  13
ATOM     13  C   UNL     1     -12.634   5.889 -16.057  1.00  0.00    -0.000 C 
BRANCH  13  14
ATOM     14  C   UNL     1     -12.423   7.391 -16.321  1.00  0.00    -0.000 C 
BRANCH  14  15
ATOM     15  C   UNL     1     -13.726   8.117 -16.701  1.00  0.00    -0.000 C 
BRANCH  15  16
ATOM     16  C   UNL     1     -13.821   8.408 -18.208  1.00  0.00    -0.000 C 
BRANCH  16  17
ATOM     17  C   UNL     1     -15.191   8.040 -18.793  1.00  0.00    -0.003 C 
ATOM     18  C   UNL     1     -15.041   7.155 -20.028  1.00  0.00     0.004 C 
ENDBRANCH  16  17
ENDBRANCH  15  16
ENDBRANCH  14  15
ENDBRANCH  13  14
ENDBRANCH  12  13
ENDBRANCH  11  12
ENDBRANCH   1  11
TORSDOF 14
ENDMDL
