MODEL 1
REMARK VINA RESULT:    -5.849      0.000      0.000
REMARK INTER + INTRA:         -10.080
REMARK INTER:                  -8.926
REMARK INTRA:                  -1.154
REMARK UNBOUND:                -1.154
REMARK SMILES OC[C@H]1O[C@@H](O[C@]2(CO)O[C@H](CO)[C@@H](O)[C@H]2O)[C@@H](O)[C@@H](O)[C@@H]1O
REMARK SMILES IDX 6 1 5 2 3 3 22 4 4 5 20 6 18 7 2 8 1 9 23 11 21 13 19 15
REMARK SMILES IDX 7 17 16 18 10 19 14 20 11 21 8 22 9 23 17 25 15 27 12 29
REMARK SMILES IDX 13 30
REMARK H PARENT 1 10 23 12 21 14 19 16 9 24 17 26 15 28 13 31
REMARK Flexibility Score: inf
ROOT
ATOM      1  O   UNL     1     190.169 194.626  80.654  1.00  0.00    -0.313 OA
ENDROOT
BRANCH   1   2
ATOM      2  C   UNL     1     190.193 194.895  82.052  1.00  0.00     0.285 C 
ATOM      3  C   UNL     1     190.457 193.854  84.143  1.00  0.00     0.178 C 
ATOM      4  C   UNL     1     188.960 193.502  84.368  1.00  0.00     0.177 C 
ATOM      5  O   UNL     1     190.749 193.791  82.762  1.00  0.00    -0.341 OA
ATOM      6  C   UNL     1     188.069 194.047  83.216  1.00  0.00     0.179 C 
ATOM      7  C   UNL     1     188.743 195.243  82.516  1.00  0.00     0.202 C 
BRANCH   3   8
ATOM      8  C   UNL     1     191.383 192.878  84.881  1.00  0.00     0.191 C 
BRANCH   8   9
ATOM      9  O   UNL     1     192.720 193.294  84.802  1.00  0.00    -0.394 OA
ATOM     10  H   UNL     1     192.822 194.048  85.441  1.00  0.00     0.210 HD
ENDBRANCH   8   9
ENDBRANCH   3   8
BRANCH   4  11
ATOM     11  O   UNL     1     188.523 193.993  85.613  1.00  0.00    -0.387 OA
ATOM     12  H   UNL     1     189.328 194.239  86.139  1.00  0.00     0.211 HD
ENDBRANCH   4  11
BRANCH   6  13
ATOM     13  O   UNL     1     187.751 193.035  82.289  1.00  0.00    -0.387 OA
ATOM     14  H   UNL     1     188.386 192.283  82.422  1.00  0.00     0.211 HD
ENDBRANCH   6  13
BRANCH   7  15
ATOM     15  O   UNL     1     187.944 195.675  81.444  1.00  0.00    -0.385 OA
ATOM     16  H   UNL     1     187.810 194.887  80.854  1.00  0.00     0.211 HD
ENDBRANCH   7  15
ENDBRANCH   1   2
BRANCH   1  17
ATOM     17  C   UNL     1     191.379 194.866  79.923  1.00  0.00     0.224 C 
ATOM     18  C   UNL     1     191.506 193.826  78.787  1.00  0.00     0.208 C 
ATOM     19  O   UNL     1     191.216 196.124  79.295  1.00  0.00    -0.337 OA
ATOM     20  C   UNL     1     190.605 194.414  77.723  1.00  0.00     0.180 C 
ATOM     21  C   UNL     1     190.718 195.916  77.988  1.00  0.00     0.179 C 
BRANCH  17  22
ATOM     22  C   UNL     1     192.645 194.967  80.825  1.00  0.00     0.225 C 
BRANCH  22  23
ATOM     23  O   UNL     1     193.125 193.693  81.159  1.00  0.00    -0.391 OA
ATOM     24  H   UNL     1     192.332 193.161  81.431  1.00  0.00     0.210 HD
ENDBRANCH  22  23
ENDBRANCH  17  22
BRANCH  18  25
ATOM     25  O   UNL     1     192.832 193.668  78.333  1.00  0.00    -0.385 OA
ATOM     26  H   UNL     1     192.864 192.894  77.711  1.00  0.00     0.211 HD
ENDBRANCH  18  25
BRANCH  20  27
ATOM     27  O   UNL     1     191.029 194.094  76.423  1.00  0.00    -0.387 OA
ATOM     28  H   UNL     1     190.402 194.550  75.803  1.00  0.00     0.211 HD
ENDBRANCH  20  27
BRANCH  21  29
ATOM     29  C   UNL     1     189.372 196.628  77.823  1.00  0.00     0.191 C 
BRANCH  29  30
ATOM     30  O   UNL     1     188.881 197.004  79.080  1.00  0.00    -0.394 OA
ATOM     31  H   UNL     1     189.413 197.794  79.358  1.00  0.00     0.210 HD
ENDBRANCH  29  30
ENDBRANCH  21  29
ENDBRANCH   1  17
TORSDOF 13
ENDMDL
MODEL 2
REMARK VINA RESULT:    -5.723      1.895      5.863
REMARK INTER + INTRA:          -9.887
REMARK INTER:                  -8.504
REMARK INTRA:                  -1.383
REMARK UNBOUND:                -1.154
REMARK SMILES OC[C@H]1O[C@@H](O[C@]2(CO)O[C@H](CO)[C@@H](O)[C@H]2O)[C@@H](O)[C@@H](O)[C@@H]1O
REMARK SMILES IDX 6 1 5 2 3 3 22 4 4 5 20 6 18 7 2 8 1 9 23 11 21 13 19 15
REMARK SMILES IDX 7 17 16 18 10 19 14 20 11 21 8 22 9 23 17 25 15 27 12 29
REMARK SMILES IDX 13 30
REMARK H PARENT 1 10 23 12 21 14 19 16 9 24 17 26 15 28 13 31
REMARK Flexibility Score: inf
ROOT
ATOM      1  O   UNL     1     189.297 194.095  81.730  1.00  0.00    -0.313 OA
ENDROOT
BRANCH   1   2
ATOM      2  C   UNL     1     189.234 195.123  80.747  1.00  0.00     0.285 C 
ATOM      3  C   UNL     1     187.737 196.256  79.333  1.00  0.00     0.178 C 
ATOM      4  C   UNL     1     187.852 195.286  78.123  1.00  0.00     0.177 C 
ATOM      5  O   UNL     1     187.883 195.524  80.533  1.00  0.00    -0.341 OA
ATOM      6  C   UNL     1     188.893 194.163  78.392  1.00  0.00     0.179 C 
ATOM      7  C   UNL     1     189.926 194.609  79.445  1.00  0.00     0.202 C 
BRANCH   3   8
ATOM      8  C   UNL     1     186.378 196.967  79.358  1.00  0.00     0.191 C 
BRANCH   8   9
ATOM      9  O   UNL     1     186.272 197.889  78.305  1.00  0.00    -0.394 OA
ATOM     10  H   UNL     1     187.190 198.024  77.953  1.00  0.00     0.210 HD
ENDBRANCH   8   9
ENDBRANCH   3   8
BRANCH   4  11
ATOM     11  O   UNL     1     188.177 195.998  76.953  1.00  0.00    -0.387 OA
ATOM     12  H   UNL     1     187.769 196.900  77.027  1.00  0.00     0.211 HD
ENDBRANCH   4  11
BRANCH   6  13
ATOM     13  O   UNL     1     188.265 192.963  78.780  1.00  0.00    -0.387 OA
ATOM     14  H   UNL     1     188.803 192.205  78.430  1.00  0.00     0.211 HD
ENDBRANCH   6  13
BRANCH   7  15
ATOM     15  O   UNL     1     190.816 193.554  79.711  1.00  0.00    -0.385 OA
ATOM     16  H   UNL     1     191.628 193.723  79.165  1.00  0.00     0.211 HD
ENDBRANCH   7  15
ENDBRANCH   1   2
BRANCH   1  17
ATOM     17  C   UNL     1     189.474 194.505  83.093  1.00  0.00     0.224 C 
ATOM     18  C   UNL     1     190.260 193.415  83.858  1.00  0.00     0.208 C 
ATOM     19  O   UNL     1     190.311 195.646  83.054  1.00  0.00    -0.337 OA
ATOM     20  C   UNL     1     191.686 193.718  83.455  1.00  0.00     0.180 C 
ATOM     21  C   UNL     1     191.652 195.229  83.227  1.00  0.00     0.179 C 
BRANCH  17  22
ATOM     22  C   UNL     1     188.151 194.934  83.795  1.00  0.00     0.225 C 
BRANCH  22  23
ATOM     23  O   UNL     1     188.013 196.329  83.793  1.00  0.00    -0.391 OA
ATOM     24  H   UNL     1     188.322 196.638  84.685  1.00  0.00     0.210 HD
ENDBRANCH  22  23
ENDBRANCH  17  22
BRANCH  18  25
ATOM     25  O   UNL     1     190.075 193.484  85.254  1.00  0.00    -0.385 OA
ATOM     26  H   UNL     1     189.461 192.753  85.529  1.00  0.00     0.211 HD
ENDBRANCH  18  25
BRANCH  20  27
ATOM     27  O   UNL     1     192.610 193.375  84.456  1.00  0.00    -0.387 OA
ATOM     28  H   UNL     1     192.080 193.180  85.272  1.00  0.00     0.211 HD
ENDBRANCH  20  27
BRANCH  21  29
ATOM     29  C   UNL     1     192.488 195.643  82.012  1.00  0.00     0.191 C 
BRANCH  29  30
ATOM     30  O   UNL     1     193.125 194.518  81.472  1.00  0.00    -0.394 OA
ATOM     31  H   UNL     1     193.542 194.818  80.624  1.00  0.00     0.210 HD
ENDBRANCH  29  30
ENDBRANCH  21  29
ENDBRANCH   1  17
TORSDOF 13
ENDMDL
MODEL 3
REMARK VINA RESULT:    -5.588      1.447      2.185
REMARK INTER + INTRA:          -9.683
REMARK INTER:                  -8.358
REMARK INTRA:                  -1.325
REMARK UNBOUND:                -1.154
REMARK SMILES OC[C@H]1O[C@@H](O[C@]2(CO)O[C@H](CO)[C@@H](O)[C@H]2O)[C@@H](O)[C@@H](O)[C@@H]1O
REMARK SMILES IDX 6 1 5 2 3 3 22 4 4 5 20 6 18 7 2 8 1 9 23 11 21 13 19 15
REMARK SMILES IDX 7 17 16 18 10 19 14 20 11 21 8 22 9 23 17 25 15 27 12 29
REMARK SMILES IDX 13 30
REMARK H PARENT 1 10 23 12 21 14 19 16 9 24 17 26 15 28 13 31
REMARK Flexibility Score: inf
ROOT
ATOM      1  O   UNL     1     189.850 194.495  80.969  1.00  0.00    -0.313 OA
ENDROOT
BRANCH   1   2
ATOM      2  C   UNL     1     189.773 194.011  82.306  1.00  0.00     0.285 C 
ATOM      3  C   UNL     1     188.272 193.108  83.874  1.00  0.00     0.178 C 
ATOM      4  C   UNL     1     187.792 194.459  84.474  1.00  0.00     0.177 C 
ATOM      5  O   UNL     1     188.563 193.283  82.502  1.00  0.00    -0.341 OA
ATOM      6  C   UNL     1     188.548 195.662  83.842  1.00  0.00     0.179 C 
ATOM      7  C   UNL     1     189.915 195.222  83.283  1.00  0.00     0.202 C 
BRANCH   3   8
ATOM      8  C   UNL     1     187.201 192.018  84.010  1.00  0.00     0.191 C 
BRANCH   8   9
ATOM      9  O   UNL     1     186.310 192.315  85.052  1.00  0.00    -0.394 OA
ATOM     10  H   UNL     1     186.389 191.578  85.712  1.00  0.00     0.210 HD
ENDBRANCH   8   9
ENDBRANCH   3   8
BRANCH   4  11
ATOM     11  O   UNL     1     187.940 194.455  85.874  1.00  0.00    -0.387 OA
ATOM     12  H   UNL     1     188.529 193.692  86.111  1.00  0.00     0.211 HD
ENDBRANCH   4  11
BRANCH   6  13
ATOM     13  O   UNL     1     187.775 196.290  82.846  1.00  0.00    -0.387 OA
ATOM     14  H   UNL     1     187.697 195.668  82.076  1.00  0.00     0.211 HD
ENDBRANCH   6  13
BRANCH   7  15
ATOM     15  O   UNL     1     190.548 196.314  82.666  1.00  0.00    -0.385 OA
ATOM     16  H   UNL     1     191.500 196.059  82.545  1.00  0.00     0.211 HD
ENDBRANCH   7  15
ENDBRANCH   1   2
BRANCH   1  17
ATOM     17  C   UNL     1     191.091 194.303  80.278  1.00  0.00     0.224 C 
ATOM     18  C   UNL     1     190.825 193.568  78.944  1.00  0.00     0.208 C 
ATOM     19  O   UNL     1     191.555 195.595  79.934  1.00  0.00    -0.337 OA
ATOM     20  C   UNL     1     190.365 194.699  78.051  1.00  0.00     0.180 C 
ATOM     21  C   UNL     1     191.115 195.900  78.625  1.00  0.00     0.179 C 
BRANCH  17  22
ATOM     22  C   UNL     1     192.198 193.638  81.149  1.00  0.00     0.225 C 
BRANCH  22  23
ATOM     23  O   UNL     1     193.125 194.591  81.594  1.00  0.00    -0.391 OA
ATOM     24  H   UNL     1     193.525 194.222  82.424  1.00  0.00     0.210 HD
ENDBRANCH  22  23
ENDBRANCH  17  22
BRANCH  18  25
ATOM     25  O   UNL     1     191.971 192.921  78.435  1.00  0.00    -0.385 OA
ATOM     26  H   UNL     1     192.777 193.384  78.785  1.00  0.00     0.211 HD
ENDBRANCH  18  25
BRANCH  20  27
ATOM     27  O   UNL     1     190.697 194.488  76.703  1.00  0.00    -0.387 OA
ATOM     28  H   UNL     1     191.537 193.958  76.701  1.00  0.00     0.211 HD
ENDBRANCH  20  27
BRANCH  21  29
ATOM     29  C   UNL     1     190.246 197.161  78.647  1.00  0.00     0.191 C 
BRANCH  29  30
ATOM     30  O   UNL     1     189.032 196.885  79.291  1.00  0.00    -0.394 OA
ATOM     31  H   UNL     1     188.319 197.097  78.634  1.00  0.00     0.210 HD
ENDBRANCH  29  30
ENDBRANCH  21  29
ENDBRANCH   1  17
TORSDOF 13
ENDMDL
MODEL 4
REMARK VINA RESULT:    -5.587     13.901     16.186
REMARK INTER + INTRA:          -9.681
REMARK INTER:                  -7.985
REMARK INTRA:                  -1.696
REMARK UNBOUND:                -1.154
REMARK SMILES OC[C@H]1O[C@@H](O[C@]2(CO)O[C@H](CO)[C@@H](O)[C@H]2O)[C@@H](O)[C@@H](O)[C@@H]1O
REMARK SMILES IDX 6 1 5 2 3 3 22 4 4 5 20 6 18 7 2 8 1 9 23 11 21 13 19 15
REMARK SMILES IDX 7 17 16 18 10 19 14 20 11 21 8 22 9 23 17 25 15 27 12 29
REMARK SMILES IDX 13 30
REMARK H PARENT 1 10 23 12 21 14 19 16 9 24 17 26 15 28 13 31
REMARK Flexibility Score: inf
ROOT
ATOM      1  O   UNL     1     178.402 202.961  87.142  1.00  0.00    -0.313 OA
ENDROOT
BRANCH   1   2
ATOM      2  C   UNL     1     178.703 201.671  87.664  1.00  0.00     0.285 C 
ATOM      3  C   UNL     1     177.739 199.577  88.121  1.00  0.00     0.178 C 
ATOM      4  C   UNL     1     177.255 199.903  89.562  1.00  0.00     0.177 C 
ATOM      5  O   UNL     1     177.672 200.745  87.330  1.00  0.00    -0.341 OA
ATOM      6  C   UNL     1     177.689 201.332  89.996  1.00  0.00     0.179 C 
ATOM      7  C   UNL     1     178.926 201.797  89.205  1.00  0.00     0.202 C 
BRANCH   3   8
ATOM      8  C   UNL     1     176.870 198.495  87.467  1.00  0.00     0.191 C 
BRANCH   8   9
ATOM      9  O   UNL     1     175.856 198.068  88.337  1.00  0.00    -0.394 OA
ATOM     10  H   UNL     1     175.636 198.843  88.918  1.00  0.00     0.210 HD
ENDBRANCH   8   9
ENDBRANCH   3   8
BRANCH   4  11
ATOM     11  O   UNL     1     177.731 198.939  90.470  1.00  0.00    -0.387 OA
ATOM     12  H   UNL     1     177.079 198.191  90.484  1.00  0.00     0.211 HD
ENDBRANCH   4  11
BRANCH   6  13
ATOM     13  O   UNL     1     176.630 202.252  89.865  1.00  0.00    -0.387 OA
ATOM     14  H   UNL     1     176.881 202.915  89.169  1.00  0.00     0.211 HD
ENDBRANCH   6  13
BRANCH   7  15
ATOM     15  O   UNL     1     179.258 203.112  89.575  1.00  0.00    -0.385 OA
ATOM     16  H   UNL     1     180.124 203.061  90.059  1.00  0.00     0.211 HD
ENDBRANCH   7  15
ENDBRANCH   1   2
BRANCH   1  17
ATOM     17  C   UNL     1     179.472 203.675  86.510  1.00  0.00     0.224 C 
ATOM     18  C   UNL     1     178.920 204.454  85.294  1.00  0.00     0.208 C 
ATOM     19  O   UNL     1     179.903 204.647  87.443  1.00  0.00    -0.337 OA
ATOM     20  C   UNL     1     178.330 205.682  85.952  1.00  0.00     0.180 C 
ATOM     21  C   UNL     1     179.222 205.859  87.181  1.00  0.00     0.179 C 
BRANCH  17  22
ATOM     22  C   UNL     1     180.706 202.785  86.175  1.00  0.00     0.225 C 
BRANCH  22  23
ATOM     23  O   UNL     1     181.816 203.574  85.841  1.00  0.00    -0.391 OA
ATOM     24  H   UNL     1     182.229 203.148  85.045  1.00  0.00     0.210 HD
ENDBRANCH  22  23
ENDBRANCH  17  22
BRANCH  18  25
ATOM     25  O   UNL     1     179.918 204.782  84.353  1.00  0.00    -0.385 OA
ATOM     26  H   UNL     1     180.250 205.697  84.550  1.00  0.00     0.211 HD
ENDBRANCH  18  25
BRANCH  20  27
ATOM     27  O   UNL     1     178.380 206.813  85.121  1.00  0.00    -0.387 OA
ATOM     28  H   UNL     1     178.616 207.580  85.705  1.00  0.00     0.211 HD
ENDBRANCH  20  27
BRANCH  21  29
ATOM     29  C   UNL     1     178.419 206.283  88.415  1.00  0.00     0.191 C 
BRANCH  29  30
ATOM     30  O   UNL     1     177.575 205.238  88.810  1.00  0.00    -0.394 OA
ATOM     31  H   UNL     1     177.920 204.422  88.363  1.00  0.00     0.210 HD
ENDBRANCH  29  30
ENDBRANCH  21  29
ENDBRANCH   1  17
TORSDOF 13
ENDMDL
MODEL 5
REMARK VINA RESULT:    -5.542      1.551      6.208
REMARK INTER + INTRA:          -9.612
REMARK INTER:                  -8.293
REMARK INTRA:                  -1.319
REMARK UNBOUND:                -1.154
REMARK SMILES OC[C@H]1O[C@@H](O[C@]2(CO)O[C@H](CO)[C@@H](O)[C@H]2O)[C@@H](O)[C@@H](O)[C@@H]1O
REMARK SMILES IDX 6 1 5 2 3 3 22 4 4 5 20 6 18 7 2 8 1 9 23 11 21 13 19 15
REMARK SMILES IDX 7 17 16 18 10 19 14 20 11 21 8 22 9 23 17 25 15 27 12 29
REMARK SMILES IDX 13 30
REMARK H PARENT 1 10 23 12 21 14 19 16 9 24 17 26 15 28 13 31
REMARK Flexibility Score: inf
ROOT
ATOM      1  O   UNL     1     190.620 194.496  81.467  1.00  0.00    -0.313 OA
ENDROOT
BRANCH   1   2
ATOM      2  C   UNL     1     191.031 195.336  80.393  1.00  0.00     0.285 C 
ATOM      3  C   UNL     1     190.595 195.815  78.133  1.00  0.00     0.178 C 
ATOM      4  C   UNL     1     191.581 194.778  77.527  1.00  0.00     0.177 C 
ATOM      5  O   UNL     1     190.068 195.308  79.343  1.00  0.00    -0.341 OA
ATOM      6  C   UNL     1     192.380 194.038  78.638  1.00  0.00     0.179 C 
ATOM      7  C   UNL     1     192.451 194.884  79.923  1.00  0.00     0.202 C 
BRANCH   3   8
ATOM      8  C   UNL     1     189.429 196.109  77.179  1.00  0.00     0.191 C 
BRANCH   8   9
ATOM      9  O   UNL     1     189.874 196.786  76.034  1.00  0.00    -0.394 OA
ATOM     10  H   UNL     1     190.747 196.383  75.787  1.00  0.00     0.210 HD
ENDBRANCH   8   9
ENDBRANCH   3   8
BRANCH   4  11
ATOM     11  O   UNL     1     192.453 195.404  76.617  1.00  0.00    -0.387 OA
ATOM     12  H   UNL     1     192.794 196.231  77.047  1.00  0.00     0.211 HD
ENDBRANCH   4  11
BRANCH   6  13
ATOM     13  O   UNL     1     191.835 192.766  78.901  1.00  0.00    -0.387 OA
ATOM     14  H   UNL     1     191.961 192.569  79.867  1.00  0.00     0.211 HD
ENDBRANCH   6  13
BRANCH   7  15
ATOM     15  O   UNL     1     193.125 194.167  80.926  1.00  0.00    -0.385 OA
ATOM     16  H   UNL     1     192.685 194.399  81.786  1.00  0.00     0.211 HD
ENDBRANCH   7  15
ENDBRANCH   1   2
BRANCH   1  17
ATOM     17  C   UNL     1     190.371 195.128  82.729  1.00  0.00     0.224 C 
ATOM     18  C   UNL     1     188.857 195.409  82.871  1.00  0.00     0.208 C 
ATOM     19  O   UNL     1     190.692 194.169  83.720  1.00  0.00    -0.337 OA
ATOM     20  C   UNL     1     188.328 194.060  83.306  1.00  0.00     0.180 C 
ATOM     21  C   UNL     1     189.512 193.473  84.074  1.00  0.00     0.179 C 
BRANCH  17  22
ATOM     22  C   UNL     1     191.266 196.375  82.994  1.00  0.00     0.225 C 
BRANCH  22  23
ATOM     23  O   UNL     1     192.583 195.992  83.284  1.00  0.00    -0.391 OA
ATOM     24  H   UNL     1     192.801 196.395  84.165  1.00  0.00     0.210 HD
ENDBRANCH  22  23
ENDBRANCH  17  22
BRANCH  18  25
ATOM     25  O   UNL     1     188.572 196.421  83.812  1.00  0.00    -0.385 OA
ATOM     26  H   UNL     1     188.587 196.021  84.721  1.00  0.00     0.211 HD
ENDBRANCH  18  25
BRANCH  20  27
ATOM     27  O   UNL     1     187.193 194.167  84.126  1.00  0.00    -0.387 OA
ATOM     28  H   UNL     1     186.561 194.769  83.652  1.00  0.00     0.211 HD
ENDBRANCH  20  27
BRANCH  21  29
ATOM     29  C   UNL     1     189.687 191.976  83.799  1.00  0.00     0.191 C 
BRANCH  29  30
ATOM     30  O   UNL     1     189.486 191.721  82.436  1.00  0.00    -0.394 OA
ATOM     31  H   UNL     1     188.507 191.785  82.286  1.00  0.00     0.210 HD
ENDBRANCH  29  30
ENDBRANCH  21  29
ENDBRANCH   1  17
TORSDOF 13
ENDMDL
MODEL 6
REMARK VINA RESULT:    -5.486      1.679      2.727
REMARK INTER + INTRA:          -9.527
REMARK INTER:                  -8.455
REMARK INTRA:                  -1.072
REMARK UNBOUND:                -1.154
REMARK SMILES OC[C@H]1O[C@@H](O[C@]2(CO)O[C@H](CO)[C@@H](O)[C@H]2O)[C@@H](O)[C@@H](O)[C@@H]1O
REMARK SMILES IDX 6 1 5 2 3 3 22 4 4 5 20 6 18 7 2 8 1 9 23 11 21 13 19 15
REMARK SMILES IDX 7 17 16 18 10 19 14 20 11 21 8 22 9 23 17 25 15 27 12 29
REMARK SMILES IDX 13 30
REMARK H PARENT 1 10 23 12 21 14 19 16 9 24 17 26 15 28 13 31
REMARK Flexibility Score: inf
ROOT
ATOM      1  O   UNL     1     189.733 195.115  81.899  1.00  0.00    -0.313 OA
ENDROOT
BRANCH   1   2
ATOM      2  C   UNL     1     189.261 194.341  82.997  1.00  0.00     0.285 C 
ATOM      3  C   UNL     1     187.822 192.562  83.537  1.00  0.00     0.178 C 
ATOM      4  C   UNL     1     186.542 193.417  83.758  1.00  0.00     0.177 C 
ATOM      5  O   UNL     1     188.614 193.159  82.530  1.00  0.00    -0.341 OA
ATOM      6  C   UNL     1     186.840 194.935  83.605  1.00  0.00     0.179 C 
ATOM      7  C   UNL     1     188.327 195.236  83.873  1.00  0.00     0.202 C 
BRANCH   3   8
ATOM      8  C   UNL     1     187.476 191.133  83.100  1.00  0.00     0.191 C 
BRANCH   8   9
ATOM      9  O   UNL     1     186.307 190.682  83.732  1.00  0.00    -0.394 OA
ATOM     10  H   UNL     1     185.561 190.839  83.095  1.00  0.00     0.210 HD
ENDBRANCH   8   9
ENDBRANCH   3   8
BRANCH   4  11
ATOM     11  O   UNL     1     185.981 193.143  85.020  1.00  0.00    -0.387 OA
ATOM     12  H   UNL     1     185.007 193.005  84.892  1.00  0.00     0.211 HD
ENDBRANCH   4  11
BRANCH   6  13
ATOM     13  O   UNL     1     186.450 195.410  82.337  1.00  0.00    -0.387 OA
ATOM     14  H   UNL     1     185.458 195.445  82.310  1.00  0.00     0.211 HD
ENDBRANCH   6  13
BRANCH   7  15
ATOM     15  O   UNL     1     188.579 196.603  83.669  1.00  0.00    -0.385 OA
ATOM     16  H   UNL     1     189.327 196.848  84.274  1.00  0.00     0.211 HD
ENDBRANCH   7  15
ENDBRANCH   1   2
BRANCH   1  17
ATOM     17  C   UNL     1     191.154 195.207  81.730  1.00  0.00     0.224 C 
ATOM     18  C   UNL     1     191.678 193.902  81.087  1.00  0.00     0.208 C 
ATOM     19  O   UNL     1     191.371 196.234  80.780  1.00  0.00    -0.337 OA
ATOM     20  C   UNL     1     191.368 194.129  79.624  1.00  0.00     0.180 C 
ATOM     21  C   UNL     1     191.468 195.649  79.496  1.00  0.00     0.179 C 
BRANCH  17  22
ATOM     22  C   UNL     1     191.914 195.616  83.026  1.00  0.00     0.225 C 
BRANCH  22  23
ATOM     23  O   UNL     1     192.277 194.485  83.771  1.00  0.00    -0.391 OA
ATOM     24  H   UNL     1     193.260 194.391  83.670  1.00  0.00     0.210 HD
ENDBRANCH  22  23
ENDBRANCH  17  22
BRANCH  18  25
ATOM     25  O   UNL     1     193.054 193.693  81.313  1.00  0.00    -0.385 OA
ATOM     26  H   UNL     1     193.254 192.729  81.180  1.00  0.00     0.211 HD
ENDBRANCH  18  25
BRANCH  20  27
ATOM     27  O   UNL     1     192.283 193.485  78.775  1.00  0.00    -0.387 OA
ATOM     28  H   UNL     1     191.974 192.545  78.690  1.00  0.00     0.211 HD
ENDBRANCH  20  27
BRANCH  21  29
ATOM     29  C   UNL     1     190.381 196.219  78.580  1.00  0.00     0.191 C 
BRANCH  29  30
ATOM     30  O   UNL     1     189.300 196.665  79.352  1.00  0.00    -0.394 OA
ATOM     31  H   UNL     1     189.660 197.377  79.943  1.00  0.00     0.210 HD
ENDBRANCH  29  30
ENDBRANCH  21  29
ENDBRANCH   1  17
TORSDOF 13
ENDMDL
MODEL 7
REMARK VINA RESULT:    -5.459      1.618      3.151
REMARK INTER + INTRA:          -9.486
REMARK INTER:                  -8.208
REMARK INTRA:                  -1.278
REMARK UNBOUND:                -1.154
REMARK SMILES OC[C@H]1O[C@@H](O[C@]2(CO)O[C@H](CO)[C@@H](O)[C@H]2O)[C@@H](O)[C@@H](O)[C@@H]1O
REMARK SMILES IDX 6 1 5 2 3 3 22 4 4 5 20 6 18 7 2 8 1 9 23 11 21 13 19 15
REMARK SMILES IDX 7 17 16 18 10 19 14 20 11 21 8 22 9 23 17 25 15 27 12 29
REMARK SMILES IDX 13 30
REMARK H PARENT 1 10 23 12 21 14 19 16 9 24 17 26 15 28 13 31
REMARK Flexibility Score: inf
ROOT
ATOM      1  O   UNL     1     191.631 195.262  79.655  1.00  0.00    -0.313 OA
ENDROOT
BRANCH   1   2
ATOM      2  C   UNL     1     190.852 194.470  80.546  1.00  0.00     0.285 C 
ATOM      3  C   UNL     1     189.321 194.628  82.323  1.00  0.00     0.178 C 
ATOM      4  C   UNL     1     190.369 194.657  83.471  1.00  0.00     0.177 C 
ATOM      5  O   UNL     1     189.859 195.270  81.184  1.00  0.00    -0.341 OA
ATOM      6  C   UNL     1     191.815 194.495  82.924  1.00  0.00     0.179 C 
ATOM      7  C   UNL     1     191.813 193.774  81.562  1.00  0.00     0.202 C 
BRANCH   3   8
ATOM      8  C   UNL     1     188.028 195.350  82.722  1.00  0.00     0.191 C 
BRANCH   8   9
ATOM      9  O   UNL     1     188.264 196.277  83.748  1.00  0.00    -0.394 OA
ATOM     10  H   UNL     1     189.145 196.045  84.143  1.00  0.00     0.210 HD
ENDBRANCH   8   9
ENDBRANCH   3   8
BRANCH   4  11
ATOM     11  O   UNL     1     190.080 193.661  84.423  1.00  0.00    -0.387 OA
ATOM     12  H   UNL     1     190.742 192.931  84.304  1.00  0.00     0.211 HD
ENDBRANCH   4  11
BRANCH   6  13
ATOM     13  O   UNL     1     192.474 195.738  82.835  1.00  0.00    -0.387 OA
ATOM     14  H   UNL     1     192.184 196.297  83.603  1.00  0.00     0.211 HD
ENDBRANCH   6  13
BRANCH   7  15
ATOM     15  O   UNL     1     193.125 193.696  81.065  1.00  0.00    -0.385 OA
ATOM     16  H   UNL     1     193.718 193.556  81.850  1.00  0.00     0.211 HD
ENDBRANCH   7  15
ENDBRANCH   1   2
BRANCH   1  17
ATOM     17  C   UNL     1     191.542 194.950  78.258  1.00  0.00     0.224 C 
ATOM     18  C   UNL     1     190.111 194.464  77.932  1.00  0.00     0.208 C 
ATOM     19  O   UNL     1     191.713 196.174  77.569  1.00  0.00    -0.337 OA
ATOM     20  C   UNL     1     189.358 195.770  77.810  1.00  0.00     0.180 C 
ATOM     21  C   UNL     1     190.438 196.729  77.310  1.00  0.00     0.179 C 
BRANCH  17  22
ATOM     22  C   UNL     1     192.660 193.986  77.760  1.00  0.00     0.225 C 
BRANCH  22  23
ATOM     23  O   UNL     1     192.374 192.661  78.118  1.00  0.00    -0.391 OA
ATOM     24  H   UNL     1     192.516 192.602  79.099  1.00  0.00     0.210 HD
ENDBRANCH  22  23
ENDBRANCH  17  22
BRANCH  18  25
ATOM     25  O   UNL     1     190.047 193.700  76.748  1.00  0.00    -0.385 OA
ATOM     26  H   UNL     1     190.431 192.802  76.929  1.00  0.00     0.211 HD
ENDBRANCH  18  25
BRANCH  20  27
ATOM     27  O   UNL     1     188.288 195.691  76.904  1.00  0.00    -0.387 OA
ATOM     28  H   UNL     1     188.183 194.729  76.678  1.00  0.00     0.211 HD
ENDBRANCH  20  27
BRANCH  21  29
ATOM     29  C   UNL     1     190.326 198.109  77.966  1.00  0.00     0.191 C 
BRANCH  29  30
ATOM     30  O   UNL     1     190.868 198.063  79.257  1.00  0.00    -0.394 OA
ATOM     31  H   UNL     1     191.836 197.878  79.143  1.00  0.00     0.210 HD
ENDBRANCH  29  30
ENDBRANCH  21  29
ENDBRANCH   1  17
TORSDOF 13
ENDMDL
MODEL 8
REMARK VINA RESULT:    -5.378      2.113      3.842
REMARK INTER + INTRA:          -9.362
REMARK INTER:                  -7.528
REMARK INTRA:                  -1.834
REMARK UNBOUND:                -1.154
REMARK SMILES OC[C@H]1O[C@@H](O[C@]2(CO)O[C@H](CO)[C@@H](O)[C@H]2O)[C@@H](O)[C@@H](O)[C@@H]1O
REMARK SMILES IDX 6 1 5 2 3 3 22 4 4 5 20 6 18 7 2 8 1 9 23 11 21 13 19 15
REMARK SMILES IDX 7 17 16 18 10 19 14 20 11 21 8 22 9 23 17 25 15 27 12 29
REMARK SMILES IDX 13 30
REMARK H PARENT 1 10 23 12 21 14 19 16 9 24 17 26 15 28 13 31
REMARK Flexibility Score: inf
ROOT
ATOM      1  O   UNL     1     189.144 194.304  82.138  1.00  0.00    -0.313 OA
ENDROOT
BRANCH   1   2
ATOM      2  C   UNL     1     188.528 193.292  82.929  1.00  0.00     0.285 C 
ATOM      3  C   UNL     1     186.462 192.645  83.843  1.00  0.00     0.178 C 
ATOM      4  C   UNL     1     186.594 193.427  85.180  1.00  0.00     0.177 C 
ATOM      5  O   UNL     1     187.109 193.366  82.814  1.00  0.00    -0.341 OA
ATOM      6  C   UNL     1     187.972 194.140  85.286  1.00  0.00     0.179 C 
ATOM      7  C   UNL     1     189.024 193.443  84.403  1.00  0.00     0.202 C 
BRANCH   3   8
ATOM      8  C   UNL     1     184.992 192.448  83.449  1.00  0.00     0.191 C 
BRANCH   8   9
ATOM      9  O   UNL     1     184.135 193.034  84.393  1.00  0.00    -0.394 OA
ATOM     10  H   UNL     1     183.227 193.031  83.992  1.00  0.00     0.210 HD
ENDBRANCH   8   9
ENDBRANCH   3   8
BRANCH   4  11
ATOM     11  O   UNL     1     186.393 192.565  86.275  1.00  0.00    -0.387 OA
ATOM     12  H   UNL     1     187.279 192.383  86.682  1.00  0.00     0.211 HD
ENDBRANCH   4  11
BRANCH   6  13
ATOM     13  O   UNL     1     187.869 195.508  84.963  1.00  0.00    -0.387 OA
ATOM     14  H   UNL     1     187.530 195.582  84.033  1.00  0.00     0.211 HD
ENDBRANCH   6  13
BRANCH   7  15
ATOM     15  O   UNL     1     190.240 194.143  84.472  1.00  0.00    -0.385 OA
ATOM     16  H   UNL     1     190.611 194.161  83.551  1.00  0.00     0.211 HD
ENDBRANCH   7  15
ENDBRANCH   1   2
BRANCH   1  17
ATOM     17  C   UNL     1     190.095 193.874  81.156  1.00  0.00     0.224 C 
ATOM     18  C   UNL     1     189.938 194.733  79.880  1.00  0.00     0.208 C 
ATOM     19  O   UNL     1     191.372 194.178  81.685  1.00  0.00    -0.337 OA
ATOM     20  C   UNL     1     190.704 195.984  80.249  1.00  0.00     0.180 C 
ATOM     21  C   UNL     1     191.769 195.449  81.206  1.00  0.00     0.179 C 
BRANCH  17  22
ATOM     22  C   UNL     1     190.067 192.340  80.886  1.00  0.00     0.225 C 
BRANCH  22  23
ATOM     23  O   UNL     1     191.205 191.937  80.172  1.00  0.00    -0.391 OA
ATOM     24  H   UNL     1     191.985 192.162  80.744  1.00  0.00     0.210 HD
ENDBRANCH  22  23
ENDBRANCH  17  22
BRANCH  18  25
ATOM     25  O   UNL     1     190.462 194.108  78.729  1.00  0.00    -0.385 OA
ATOM     26  H   UNL     1     191.453 194.130  78.781  1.00  0.00     0.211 HD
ENDBRANCH  18  25
BRANCH  20  27
ATOM     27  O   UNL     1     191.288 196.604  79.133  1.00  0.00    -0.387 OA
ATOM     28  H   UNL     1     192.239 196.766  79.368  1.00  0.00     0.211 HD
ENDBRANCH  20  27
BRANCH  21  29
ATOM     29  C   UNL     1     192.009 196.399  82.384  1.00  0.00     0.191 C 
BRANCH  29  30
ATOM     30  O   UNL     1     190.818 196.571  83.101  1.00  0.00    -0.394 OA
ATOM     31  H   UNL     1     190.500 197.487  82.889  1.00  0.00     0.210 HD
ENDBRANCH  29  30
ENDBRANCH  21  29
ENDBRANCH   1  17
TORSDOF 13
ENDMDL
MODEL 9
REMARK VINA RESULT:    -5.355      1.903      3.363
REMARK INTER + INTRA:          -9.327
REMARK INTER:                  -7.955
REMARK INTRA:                  -1.372
REMARK UNBOUND:                -1.154
REMARK SMILES OC[C@H]1O[C@@H](O[C@]2(CO)O[C@H](CO)[C@@H](O)[C@H]2O)[C@@H](O)[C@@H](O)[C@@H]1O
REMARK SMILES IDX 6 1 5 2 3 3 22 4 4 5 20 6 18 7 2 8 1 9 23 11 21 13 19 15
REMARK SMILES IDX 7 17 16 18 10 19 14 20 11 21 8 22 9 23 17 25 15 27 12 29
REMARK SMILES IDX 13 30
REMARK H PARENT 1 10 23 12 21 14 19 16 9 24 17 26 15 28 13 31
REMARK Flexibility Score: inf
ROOT
ATOM      1  O   UNL     1     190.153 195.181  81.634  1.00  0.00    -0.313 OA
ENDROOT
BRANCH   1   2
ATOM      2  C   UNL     1     188.957 194.438  81.845  1.00  0.00     0.285 C 
ATOM      3  C   UNL     1     186.619 194.580  81.646  1.00  0.00     0.178 C 
ATOM      4  C   UNL     1     186.346 195.172  83.057  1.00  0.00     0.177 C 
ATOM      5  O   UNL     1     187.862 195.056  81.173  1.00  0.00    -0.341 OA
ATOM      6  C   UNL     1     187.657 195.295  83.885  1.00  0.00     0.179 C 
ATOM      7  C   UNL     1     188.721 194.301  83.384  1.00  0.00     0.202 C 
BRANCH   3   8
ATOM      8  C   UNL     1     185.529 194.984  80.645  1.00  0.00     0.191 C 
BRANCH   8   9
ATOM      9  O   UNL     1     184.253 194.870  81.216  1.00  0.00    -0.394 OA
ATOM     10  H   UNL     1     183.615 194.752  80.465  1.00  0.00     0.210 HD
ENDBRANCH   8   9
ENDBRANCH   3   8
BRANCH   4  11
ATOM     11  O   UNL     1     185.395 194.391  83.741  1.00  0.00    -0.387 OA
ATOM     12  H   UNL     1     184.611 194.969  83.930  1.00  0.00     0.211 HD
ENDBRANCH   4  11
BRANCH   6  13
ATOM     13  O   UNL     1     188.152 196.614  83.869  1.00  0.00    -0.387 OA
ATOM     14  H   UNL     1     188.942 196.656  84.469  1.00  0.00     0.211 HD
ENDBRANCH   6  13
BRANCH   7  15
ATOM     15  O   UNL     1     189.912 194.476  84.108  1.00  0.00    -0.385 OA
ATOM     16  H   UNL     1     190.417 195.201  83.653  1.00  0.00     0.211 HD
ENDBRANCH   7  15
ENDBRANCH   1   2
BRANCH   1  17
ATOM     17  C   UNL     1     191.203 194.531  80.906  1.00  0.00     0.224 C 
ATOM     18  C   UNL     1     190.589 193.490  79.941  1.00  0.00     0.208 C 
ATOM     19  O   UNL     1     191.793 195.528  80.092  1.00  0.00    -0.337 OA
ATOM     20  C   UNL     1     190.157 194.358  78.779  1.00  0.00     0.180 C 
ATOM     21  C   UNL     1     191.177 195.496  78.819  1.00  0.00     0.179 C 
BRANCH  17  22
ATOM     22  C   UNL     1     192.331 193.956  81.812  1.00  0.00     0.225 C 
BRANCH  22  23
ATOM     23  O   UNL     1     192.429 194.679  83.009  1.00  0.00    -0.391 OA
ATOM     24  H   UNL     1     193.186 195.311  82.890  1.00  0.00     0.210 HD
ENDBRANCH  22  23
ENDBRANCH  17  22
BRANCH  18  25
ATOM     25  O   UNL     1     191.509 192.496  79.549  1.00  0.00    -0.385 OA
ATOM     26  H   UNL     1     191.032 191.826  78.991  1.00  0.00     0.211 HD
ENDBRANCH  18  25
BRANCH  20  27
ATOM     27  O   UNL     1     190.203 193.675  77.553  1.00  0.00    -0.387 OA
ATOM     28  H   UNL     1     189.526 194.105  76.968  1.00  0.00     0.211 HD
ENDBRANCH  20  27
BRANCH  21  29
ATOM     29  C   UNL     1     190.533 196.852  78.516  1.00  0.00     0.191 C 
BRANCH  29  30
ATOM     30  O   UNL     1     189.370 197.004  79.283  1.00  0.00    -0.394 OA
ATOM     31  H   UNL     1     188.643 197.210  78.641  1.00  0.00     0.210 HD
ENDBRANCH  29  30
ENDBRANCH  21  29
ENDBRANCH   1  17
TORSDOF 13
ENDMDL
