MODEL 1
REMARK VINA RESULT:    -5.754      0.000      0.000
REMARK INTER + INTRA:          -8.148
REMARK INTER:                  -7.772
REMARK INTRA:                  -0.377
REMARK UNBOUND:                -0.377
REMARK SMILES CCCCCCC=CC(=O)[O-]
REMARK SMILES IDX 5 1 6 2 7 3 8 4 9 5 10 6 11 7 4 8 3 9 2 10 1 11
REMARK H PARENT
REMARK Flexibility Score: inf
ROOT
ATOM      1  C   UNL     1     152.084 156.517 157.475  1.00  0.00     0.004 C 
ENDROOT
BRANCH   1   2
ATOM      2  C   UNL     1     152.770 155.208 157.907  1.00  0.00     0.027 C 
BRANCH   2   3
ATOM      3  C   UNL     1     153.170 155.216 159.355  1.00  0.00    -0.025 C 
ATOM      4  C   UNL     1     153.740 154.152 159.929  1.00  0.00     0.020 C 
BRANCH   4   5
ATOM      5  C   UNL     1     154.142 154.149 161.344  1.00  0.00     0.064 C 
ATOM      6  O   UNL     1     153.260 154.082 162.240  1.00  0.00    -0.545 OA
ATOM      7  O   UNL     1     155.481 154.220 161.709  1.00  0.00    -0.545 OA
ENDBRANCH   4   5
ENDBRANCH   2   3
ENDBRANCH   1   2
BRANCH   1   8
ATOM      8  C   UNL     1     151.506 157.342 158.639  1.00  0.00     0.000 C 
BRANCH   8   9
ATOM      9  C   UNL     1     150.352 158.257 158.204  1.00  0.00    -0.000 C 
BRANCH   9  10
ATOM     10  C   UNL     1     149.186 158.178 159.196  1.00  0.00    -0.003 C 
ATOM     11  C   UNL     1     149.442 157.119 160.265  1.00  0.00     0.004 C 
ENDBRANCH   9  10
ENDBRANCH   8   9
ENDBRANCH   1   8
TORSDOF 6
ENDMDL
MODEL 2
REMARK VINA RESULT:    -5.453      3.235      5.718
REMARK INTER + INTRA:          -7.743
REMARK INTER:                  -7.425
REMARK INTRA:                  -0.318
REMARK UNBOUND:                -0.377
REMARK SMILES CCCCCCC=CC(=O)[O-]
REMARK SMILES IDX 5 1 6 2 7 3 8 4 9 5 10 6 11 7 4 8 3 9 2 10 1 11
REMARK H PARENT
REMARK Flexibility Score: inf
ROOT
ATOM      1  C   UNL     1     153.295 155.362 158.970  1.00  0.00     0.004 C 
ENDROOT
BRANCH   1   2
ATOM      2  C   UNL     1     152.537 156.271 157.985  1.00  0.00     0.027 C 
BRANCH   2   3
ATOM      3  C   UNL     1     151.456 157.074 158.653  1.00  0.00    -0.025 C 
ATOM      4  C   UNL     1     150.462 157.627 157.952  1.00  0.00     0.020 C 
BRANCH   4   5
ATOM      5  C   UNL     1     149.396 158.411 158.594  1.00  0.00     0.064 C 
ATOM      6  O   UNL     1     149.111 158.201 159.802  1.00  0.00    -0.545 OA
ATOM      7  O   UNL     1     148.696 159.382 157.887  1.00  0.00    -0.545 OA
ENDBRANCH   4   5
ENDBRANCH   2   3
ENDBRANCH   1   2
BRANCH   1   8
ATOM      8  C   UNL     1     152.421 154.788 160.100  1.00  0.00     0.000 C 
BRANCH   8   9
ATOM      9  C   UNL     1     153.244 154.080 161.187  1.00  0.00    -0.000 C 
BRANCH   9  10
ATOM     10  C   UNL     1     154.742 154.142 160.867  1.00  0.00    -0.003 C 
ATOM     11  C   UNL     1     155.579 154.143 162.143  1.00  0.00     0.004 C 
ENDBRANCH   9  10
ENDBRANCH   8   9
ENDBRANCH   1   8
TORSDOF 6
ENDMDL
MODEL 3
REMARK VINA RESULT:    -5.210     13.533     14.619
REMARK INTER + INTRA:          -7.414
REMARK INTER:                  -7.072
REMARK INTRA:                  -0.342
REMARK UNBOUND:                -0.377
REMARK SMILES CCCCCCC=CC(=O)[O-]
REMARK SMILES IDX 5 1 6 2 7 3 8 4 9 5 10 6 11 7 4 8 3 9 2 10 1 11
REMARK H PARENT
REMARK Flexibility Score: inf
ROOT
ATOM      1  C   UNL     1     156.654 167.657 164.130  1.00  0.00     0.004 C 
ENDROOT
BRANCH   1   2
ATOM      2  C   UNL     1     157.509 168.710 163.402  1.00  0.00     0.027 C 
BRANCH   2   3
ATOM      3  C   UNL     1     156.735 169.466 162.360  1.00  0.00    -0.025 C 
ATOM      4  C   UNL     1     155.505 169.929 162.603  1.00  0.00     0.020 C 
BRANCH   4   5
ATOM      5  C   UNL     1     154.738 170.674 161.593  1.00  0.00     0.064 C 
ATOM      6  O   UNL     1     153.577 171.077 161.865  1.00  0.00    -0.545 OA
ATOM      7  O   UNL     1     155.276 170.942 160.339  1.00  0.00    -0.545 OA
ENDBRANCH   4   5
ENDBRANCH   2   3
ENDBRANCH   1   2
BRANCH   1   8
ATOM      8  C   UNL     1     157.446 166.437 164.634  1.00  0.00     0.000 C 
BRANCH   8   9
ATOM      9  C   UNL     1     157.081 165.143 163.891  1.00  0.00    -0.000 C 
BRANCH   9  10
ATOM     10  C   UNL     1     158.342 164.390 163.449  1.00  0.00    -0.003 C 
ATOM     11  C   UNL     1     159.545 165.326 163.374  1.00  0.00     0.004 C 
ENDBRANCH   9  10
ENDBRANCH   8   9
ENDBRANCH   1   8
TORSDOF 6
ENDMDL
MODEL 4
REMARK VINA RESULT:    -4.885      1.704      2.707
REMARK INTER + INTRA:          -6.975
REMARK INTER:                  -6.579
REMARK INTRA:                  -0.396
REMARK UNBOUND:                -0.377
REMARK SMILES CCCCCCC=CC(=O)[O-]
REMARK SMILES IDX 5 1 6 2 7 3 8 4 9 5 10 6 11 7 4 8 3 9 2 10 1 11
REMARK H PARENT
REMARK Flexibility Score: inf
ROOT
ATOM      1  C   UNL     1     151.702 155.739 160.548  1.00  0.00     0.004 C 
ENDROOT
BRANCH   1   2
ATOM      2  C   UNL     1     152.372 154.414 160.141  1.00  0.00     0.027 C 
BRANCH   2   3
ATOM      3  C   UNL     1     153.836 154.377 160.479  1.00  0.00    -0.025 C 
ATOM      4  C   UNL     1     154.261 154.118 161.719  1.00  0.00     0.020 C 
BRANCH   4   5
ATOM      5  C   UNL     1     155.690 154.074 162.061  1.00  0.00     0.064 C 
ATOM      6  O   UNL     1     156.048 153.635 163.185  1.00  0.00    -0.545 OA
ATOM      7  O   UNL     1     156.656 154.511 161.162  1.00  0.00    -0.545 OA
ENDBRANCH   4   5
ENDBRANCH   2   3
ENDBRANCH   1   2
BRANCH   1   8
ATOM      8  C   UNL     1     152.173 156.960 159.738  1.00  0.00     0.000 C 
BRANCH   8   9
ATOM      9  C   UNL     1     151.494 157.058 158.363  1.00  0.00    -0.000 C 
BRANCH   9  10
ATOM     10  C   UNL     1     152.481 156.718 157.240  1.00  0.00    -0.003 C 
ATOM     11  C   UNL     1     152.352 155.257 156.817  1.00  0.00     0.004 C 
ENDBRANCH   9  10
ENDBRANCH   8   9
ENDBRANCH   1   8
TORSDOF 6
ENDMDL
MODEL 5
REMARK VINA RESULT:    -4.792     16.169     17.146
REMARK INTER + INTRA:          -6.849
REMARK INTER:                  -6.243
REMARK INTRA:                  -0.607
REMARK UNBOUND:                -0.377
REMARK SMILES CCCCCCC=CC(=O)[O-]
REMARK SMILES IDX 5 1 6 2 7 3 8 4 9 5 10 6 11 7 4 8 3 9 2 10 1 11
REMARK H PARENT
REMARK Flexibility Score: inf
ROOT
ATOM      1  C   UNL     1     147.943 170.438 151.633  1.00  0.00     0.004 C 
ENDROOT
BRANCH   1   2
ATOM      2  C   UNL     1     148.781 171.703 151.375  1.00  0.00     0.027 C 
BRANCH   2   3
ATOM      3  C   UNL     1     149.944 171.829 152.318  1.00  0.00    -0.025 C 
ATOM      4  C   UNL     1     150.860 170.864 152.432  1.00  0.00     0.020 C 
BRANCH   4   5
ATOM      5  C   UNL     1     152.005 170.978 153.347  1.00  0.00     0.064 C 
ATOM      6  O   UNL     1     152.377 172.115 153.739  1.00  0.00    -0.545 OA
ATOM      7  O   UNL     1     152.686 169.849 153.787  1.00  0.00    -0.545 OA
ENDBRANCH   4   5
ENDBRANCH   2   3
ENDBRANCH   1   2
BRANCH   1   8
ATOM      8  C   UNL     1     147.937 169.435 150.464  1.00  0.00     0.000 C 
BRANCH   8   9
ATOM      9  C   UNL     1     148.759 169.920 149.261  1.00  0.00    -0.000 C 
BRANCH   9  10
ATOM     10  C   UNL     1     149.535 168.760 148.625  1.00  0.00    -0.003 C 
ATOM     11  C   UNL     1     150.760 168.394 149.458  1.00  0.00     0.004 C 
ENDBRANCH   9  10
ENDBRANCH   8   9
ENDBRANCH   1   8
TORSDOF 6
ENDMDL
MODEL 6
REMARK VINA RESULT:    -4.783     15.840     17.181
REMARK INTER + INTRA:          -6.838
REMARK INTER:                  -6.199
REMARK INTRA:                  -0.639
REMARK UNBOUND:                -0.377
REMARK SMILES CCCCCCC=CC(=O)[O-]
REMARK SMILES IDX 5 1 6 2 7 3 8 4 9 5 10 6 11 7 4 8 3 9 2 10 1 11
REMARK H PARENT
REMARK Flexibility Score: inf
ROOT
ATOM      1  C   UNL     1     149.799 170.968 152.914  1.00  0.00     0.004 C 
ENDROOT
BRANCH   1   2
ATOM      2  C   UNL     1     148.800 171.280 151.786  1.00  0.00     0.027 C 
BRANCH   2   3
ATOM      3  C   UNL     1     149.109 170.537 150.517  1.00  0.00    -0.025 C 
ATOM      4  C   UNL     1     149.910 169.467 150.511  1.00  0.00     0.020 C 
BRANCH   4   5
ATOM      5  C   UNL     1     150.217 168.729 149.276  1.00  0.00     0.064 C 
ATOM      6  O   UNL     1     151.232 167.987 149.232  1.00  0.00    -0.545 OA
ATOM      7  O   UNL     1     149.403 168.838 148.156  1.00  0.00    -0.545 OA
ENDBRANCH   4   5
ENDBRANCH   2   3
ENDBRANCH   1   2
BRANCH   1   8
ATOM      8  C   UNL     1     150.845 172.072 153.154  1.00  0.00     0.000 C 
BRANCH   8   9
ATOM      9  C   UNL     1     152.259 171.514 153.377  1.00  0.00    -0.000 C 
BRANCH   9  10
ATOM     10  C   UNL     1     152.241 169.981 153.424  1.00  0.00    -0.003 C 
ATOM     11  C   UNL     1     153.176 169.386 152.375  1.00  0.00     0.004 C 
ENDBRANCH   9  10
ENDBRANCH   8   9
ENDBRANCH   1   8
TORSDOF 6
ENDMDL
MODEL 7
REMARK VINA RESULT:    -4.776     15.519     16.650
REMARK INTER + INTRA:          -6.828
REMARK INTER:                  -6.376
REMARK INTRA:                  -0.452
REMARK UNBOUND:                -0.377
REMARK SMILES CCCCCCC=CC(=O)[O-]
REMARK SMILES IDX 5 1 6 2 7 3 8 4 9 5 10 6 11 7 4 8 3 9 2 10 1 11
REMARK H PARENT
REMARK Flexibility Score: inf
ROOT
ATOM      1  C   UNL     1     149.926 171.106 152.628  1.00  0.00     0.004 C 
ENDROOT
BRANCH   1   2
ATOM      2  C   UNL     1     150.990 172.112 153.102  1.00  0.00     0.027 C 
BRANCH   2   3
ATOM      3  C   UNL     1     152.303 171.456 153.426  1.00  0.00    -0.025 C 
ATOM      4  C   UNL     1     152.745 170.399 152.739  1.00  0.00     0.020 C 
BRANCH   4   5
ATOM      5  C   UNL     1     154.030 169.752 153.044  1.00  0.00     0.064 C 
ATOM      6  O   UNL     1     154.103 168.933 153.997  1.00  0.00    -0.545 OA
ATOM      7  O   UNL     1     155.167 170.030 152.295  1.00  0.00    -0.545 OA
ENDBRANCH   4   5
ENDBRANCH   2   3
ENDBRANCH   1   2
BRANCH   1   8
ATOM      8  C   UNL     1     149.045 171.615 151.473  1.00  0.00     0.000 C 
BRANCH   8   9
ATOM      9  C   UNL     1     148.797 170.545 150.399  1.00  0.00    -0.000 C 
BRANCH   9  10
ATOM     10  C   UNL     1     149.898 169.479 150.422  1.00  0.00    -0.003 C 
ATOM     11  C   UNL     1     149.950 168.710 149.105  1.00  0.00     0.004 C 
ENDBRANCH   9  10
ENDBRANCH   8   9
ENDBRANCH   1   8
TORSDOF 6
ENDMDL
MODEL 8
REMARK VINA RESULT:    -4.726     10.117     10.501
REMARK INTER + INTRA:          -6.760
REMARK INTER:                  -6.499
REMARK INTRA:                  -0.261
REMARK UNBOUND:                -0.377
REMARK SMILES CCCCCCC=CC(=O)[O-]
REMARK SMILES IDX 5 1 6 2 7 3 8 4 9 5 10 6 11 7 4 8 3 9 2 10 1 11
REMARK H PARENT
REMARK Flexibility Score: inf
ROOT
ATOM      1  C   UNL     1     148.473 158.898 149.854  1.00  0.00     0.004 C 
ENDROOT
BRANCH   1   2
ATOM      2  C   UNL     1     149.170 157.531 149.978  1.00  0.00     0.027 C 
BRANCH   2   3
ATOM      3  C   UNL     1     148.201 156.383 149.958  1.00  0.00    -0.025 C 
ATOM      4  C   UNL     1     148.383 155.301 150.722  1.00  0.00     0.020 C 
BRANCH   4   5
ATOM      5  C   UNL     1     147.439 154.174 150.716  1.00  0.00     0.064 C 
ATOM      6  O   UNL     1     146.397 154.231 151.420  1.00  0.00    -0.545 OA
ATOM      7  O   UNL     1     147.678 153.043 149.944  1.00  0.00    -0.545 OA
ENDBRANCH   4   5
ENDBRANCH   2   3
ENDBRANCH   1   2
BRANCH   1   8
ATOM      8  C   UNL     1     149.155 160.028 150.646  1.00  0.00     0.000 C 
BRANCH   8   9
ATOM      9  C   UNL     1     150.653 159.776 150.874  1.00  0.00    -0.000 C 
BRANCH   9  10
ATOM     10  C   UNL     1     151.336 161.020 151.453  1.00  0.00    -0.003 C 
ATOM     11  C   UNL     1     150.317 162.108 151.779  1.00  0.00     0.004 C 
ENDBRANCH   9  10
ENDBRANCH   8   9
ENDBRANCH   1   8
TORSDOF 6
ENDMDL
MODEL 9
REMARK VINA RESULT:    -4.686     15.136     16.237
REMARK INTER + INTRA:          -6.706
REMARK INTER:                  -6.130
REMARK INTRA:                  -0.576
REMARK UNBOUND:                -0.377
REMARK SMILES CCCCCCC=CC(=O)[O-]
REMARK SMILES IDX 5 1 6 2 7 3 8 4 9 5 10 6 11 7 4 8 3 9 2 10 1 11
REMARK H PARENT
REMARK Flexibility Score: inf
ROOT
ATOM      1  C   UNL     1     149.519 168.558 149.287  1.00  0.00     0.004 C 
ENDROOT
BRANCH   1   2
ATOM      2  C   UNL     1     150.977 168.486 149.777  1.00  0.00     0.027 C 
BRANCH   2   3
ATOM      3  C   UNL     1     151.112 168.804 151.240  1.00  0.00    -0.025 C 
ATOM      4  C   UNL     1     152.293 169.114 151.781  1.00  0.00     0.020 C 
BRANCH   4   5
ATOM      5  C   UNL     1     152.438 169.432 153.210  1.00  0.00     0.064 C 
ATOM      6  O   UNL     1     153.388 168.931 153.866  1.00  0.00    -0.545 OA
ATOM      7  O   UNL     1     151.540 170.278 153.850  1.00  0.00    -0.545 OA
ENDBRANCH   4   5
ENDBRANCH   2   3
ENDBRANCH   1   2
BRANCH   1   8
ATOM      8  C   UNL     1     148.830 169.909 149.549  1.00  0.00     0.000 C 
BRANCH   8   9
ATOM      9  C   UNL     1     147.723 169.816 150.610  1.00  0.00    -0.000 C 
BRANCH   9  10
ATOM     10  C   UNL     1     147.967 170.816 151.746  1.00  0.00    -0.003 C 
ATOM     11  C   UNL     1     148.991 171.873 151.340  1.00  0.00     0.004 C 
ENDBRANCH   9  10
ENDBRANCH   8   9
ENDBRANCH   1   8
TORSDOF 6
ENDMDL
