MODEL 1
REMARK VINA RESULT:    19.367      0.000      0.000
REMARK INTER + INTRA:          28.800
REMARK INTER:                  26.726
REMARK INTRA:                   2.075
REMARK UNBOUND:                 2.075
REMARK SMILES C=C(CC[C@H](C(=O)[O-])[C@@H]1CC[C@]2(C)C3=C(CC[C@@]12C)[C@]1(C)CC[C@@H](O)C(C)(C)[C@@H]1CC3)C(C)C
REMARK SMILES IDX 4 1 5 2 6 3 7 4 8 5 9 6 10 7 18 8 11 9 12 10 17 11 19 12
REMARK SMILES IDX 13 13 14 14 16 15 15 16 31 17 20 18 30 19 29 20 22 21 21 22
REMARK SMILES IDX 26 23 23 24 24 25 27 26 28 27 25 28 3 30 2 31 1 32 32 33
REMARK SMILES IDX 33 34 34 35
REMARK H PARENT 25 29
REMARK Flexibility Score: inf
ROOT
ATOM      1  C   UNL     1      73.169  34.873  55.757  1.00  0.00     0.014 C 
ENDROOT
BRANCH   1   2
ATOM      2  C   UNL     1      72.312  34.997  54.472  1.00  0.00     0.039 C 
BRANCH   2   3
ATOM      3  C   UNL     1      71.295  33.885  54.449  1.00  0.00     0.045 C 
ATOM      4  O   UNL     1      71.661  32.685  54.337  1.00  0.00    -0.550 OA
ATOM      5  O   UNL     1      69.943  34.176  54.586  1.00  0.00    -0.550 OA
ENDBRANCH   2   3
BRANCH   2   6
ATOM      6  C   UNL     1      73.204  34.977  53.187  1.00  0.00     0.004 C 
ATOM      7  C   UNL     1      72.852  33.798  52.237  1.00  0.00     0.006 C 
ATOM      8  C   UNL     1      74.746  34.833  53.377  1.00  0.00    -0.020 C 
ATOM      9  C   UNL     1      74.172  33.269  51.649  1.00  0.00     0.012 C 
ATOM     10  C   UNL     1      75.211  34.355  51.972  1.00  0.00    -0.006 C 
ATOM     11  C   UNL     1      75.515  36.125  53.710  1.00  0.00     0.012 C 
ATOM     12  C   UNL     1      75.048  33.773  54.495  1.00  0.00     0.012 C 
ATOM     13  C   UNL     1      75.114  35.431  50.840  1.00  0.00     0.017 C 
ATOM     14  C   UNL     1      76.680  33.959  52.030  1.00  0.00    -0.064 C 
ATOM     15  C   UNL     1      77.050  35.917  53.603  1.00  0.00     0.032 C 
ATOM     16  C   UNL     1      77.565  34.792  52.666  1.00  0.00    -0.064 C 
ATOM     17  C   UNL     1      77.175  32.765  51.255  1.00  0.00     0.032 C 
ATOM     18  C   UNL     1      79.105  34.662  52.437  1.00  0.00    -0.008 C 
ATOM     19  C   UNL     1      78.394  32.201  51.954  1.00  0.00     0.009 C 
ATOM     20  C   UNL     1      79.569  33.211  51.937  1.00  0.00     0.007 C 
ATOM     21  C   UNL     1      79.506  35.780  51.431  1.00  0.00     0.014 C 
ATOM     22  C   UNL     1      79.845  34.957  53.769  1.00  0.00     0.016 C 
ATOM     23  C   UNL     1      80.477  33.196  50.623  1.00  0.00    -0.006 C 
ATOM     24  C   UNL     1      79.184  35.408  49.991  1.00  0.00     0.033 C 
ATOM     25  C   UNL     1      79.934  34.155  49.496  1.00  0.00     0.120 C 
ATOM     26  C   UNL     1      80.586  31.770  50.015  1.00  0.00     0.014 C 
ATOM     27  C   UNL     1      81.942  33.564  51.025  1.00  0.00     0.014 C 
BRANCH  25  28
ATOM     28  O   UNL     1      80.969  34.563  48.634  1.00  0.00    -0.393 OA
ATOM     29  H   UNL     1      81.292  35.445  48.955  1.00  0.00     0.210 HD
ENDBRANCH  25  28
ENDBRANCH   2   6
ENDBRANCH   1   2
BRANCH   1  30
ATOM     30  C   UNL     1      72.329  34.456  56.976  1.00  0.00     0.031 C 
BRANCH  30  31
ATOM     31  C   UNL     1      72.630  33.028  57.385  1.00  0.00    -0.075 C 
ATOM     32  C   UNL     1      73.514  32.314  56.666  1.00  0.00     0.008 C 
BRANCH  31  33
ATOM     33  C   UNL     1      71.912  32.381  58.562  1.00  0.00     0.008 C 
ATOM     34  C   UNL     1      72.246  33.095  59.878  1.00  0.00     0.012 C 
ATOM     35  C   UNL     1      70.397  32.338  58.328  1.00  0.00     0.012 C 
ENDBRANCH  31  33
ENDBRANCH  30  31
ENDBRANCH   1  30
TORSDOF 7
ENDMDL
MODEL 2
REMARK VINA RESULT:    19.623      1.335      8.446
REMARK INTER + INTRA:          29.154
REMARK INTER:                  27.037
REMARK INTRA:                   2.117
REMARK UNBOUND:                 2.075
REMARK SMILES C=C(CC[C@H](C(=O)[O-])[C@@H]1CC[C@]2(C)C3=C(CC[C@@]12C)[C@]1(C)CC[C@@H](O)C(C)(C)[C@@H]1CC3)C(C)C
REMARK SMILES IDX 4 1 5 2 6 3 7 4 8 5 9 6 10 7 18 8 11 9 12 10 17 11 19 12
REMARK SMILES IDX 13 13 14 14 16 15 15 16 31 17 20 18 30 19 29 20 22 21 21 22
REMARK SMILES IDX 26 23 23 24 24 25 27 26 28 27 25 28 3 30 2 31 1 32 32 33
REMARK SMILES IDX 33 34 34 35
REMARK H PARENT 25 29
REMARK Flexibility Score: inf
ROOT
ATOM      1  C   UNL     1      79.195  34.856  52.129  1.00  0.00     0.014 C 
ENDROOT
BRANCH   1   2
ATOM      2  C   UNL     1      78.451  34.331  50.876  1.00  0.00     0.039 C 
BRANCH   2   3
ATOM      3  C   UNL     1      78.938  35.083  49.663  1.00  0.00     0.045 C 
ATOM      4  O   UNL     1      78.231  35.988  49.146  1.00  0.00    -0.550 OA
ATOM      5  O   UNL     1      80.189  34.803  49.127  1.00  0.00    -0.550 OA
ENDBRANCH   2   3
BRANCH   2   6
ATOM      6  C   UNL     1      76.900  34.459  51.038  1.00  0.00     0.004 C 
ATOM      7  C   UNL     1      76.408  35.928  50.916  1.00  0.00     0.006 C 
ATOM      8  C   UNL     1      76.270  33.983  52.384  1.00  0.00    -0.020 C 
ATOM      9  C   UNL     1      75.278  36.123  51.942  1.00  0.00     0.012 C 
ATOM     10  C   UNL     1      74.891  34.701  52.378  1.00  0.00    -0.006 C 
ATOM     11  C   UNL     1      76.010  32.471  52.517  1.00  0.00     0.012 C 
ATOM     12  C   UNL     1      77.173  34.439  53.584  1.00  0.00     0.012 C 
ATOM     13  C   UNL     1      73.868  34.163  51.323  1.00  0.00     0.017 C 
ATOM     14  C   UNL     1      74.215  34.515  53.729  1.00  0.00    -0.064 C 
ATOM     15  C   UNL     1      75.140  32.151  53.763  1.00  0.00     0.032 C 
ATOM     16  C   UNL     1      74.200  33.265  54.295  1.00  0.00    -0.064 C 
ATOM     17  C   UNL     1      73.429  35.643  54.347  1.00  0.00     0.032 C 
ATOM     18  C   UNL     1      73.216  32.915  55.457  1.00  0.00    -0.008 C 
ATOM     19  C   UNL     1      73.445  35.482  55.853  1.00  0.00     0.009 C 
ATOM     20  C   UNL     1      72.707  34.190  56.286  1.00  0.00     0.007 C 
ATOM     21  C   UNL     1      72.034  32.124  54.822  1.00  0.00     0.014 C 
ATOM     22  C   UNL     1      73.923  31.960  56.454  1.00  0.00     0.016 C 
ATOM     23  C   UNL     1      71.123  34.317  56.446  1.00  0.00    -0.006 C 
ATOM     24  C   UNL     1      71.025  33.037  54.140  1.00  0.00     0.033 C 
ATOM     25  C   UNL     1      70.350  34.036  55.101  1.00  0.00     0.120 C 
ATOM     26  C   UNL     1      70.706  35.730  56.942  1.00  0.00     0.014 C 
ATOM     27  C   UNL     1      70.657  33.349  57.581  1.00  0.00     0.014 C 
BRANCH  25  28
ATOM     28  O   UNL     1      69.036  33.599  55.352  1.00  0.00    -0.393 OA
ATOM     29  H   UNL     1      68.966  33.413  56.325  1.00  0.00     0.210 HD
ENDBRANCH  25  28
ENDBRANCH   2   6
ENDBRANCH   1   2
BRANCH   1  30
ATOM     30  C   UNL     1      80.329  33.913  52.567  1.00  0.00     0.031 C 
BRANCH  30  31
ATOM     31  C   UNL     1      80.126  32.518  52.011  1.00  0.00    -0.075 C 
ATOM     32  C   UNL     1      79.220  31.709  52.588  1.00  0.00     0.008 C 
BRANCH  31  33
ATOM     33  C   UNL     1      80.965  32.007  50.847  1.00  0.00     0.008 C 
ATOM     34  C   UNL     1      80.086  31.346  49.777  1.00  0.00     0.012 C 
ATOM     35  C   UNL     1      81.814  33.132  50.243  1.00  0.00     0.012 C 
ENDBRANCH  31  33
ENDBRANCH  30  31
ENDBRANCH   1  30
TORSDOF 7
ENDMDL
MODEL 3
REMARK VINA RESULT:    21.359      1.657      8.616
REMARK INTER + INTRA:          31.550
REMARK INTER:                  29.672
REMARK INTRA:                   1.878
REMARK UNBOUND:                 2.075
REMARK SMILES C=C(CC[C@H](C(=O)[O-])[C@@H]1CC[C@]2(C)C3=C(CC[C@@]12C)[C@]1(C)CC[C@@H](O)C(C)(C)[C@@H]1CC3)C(C)C
REMARK SMILES IDX 4 1 5 2 6 3 7 4 8 5 9 6 10 7 18 8 11 9 12 10 17 11 19 12
REMARK SMILES IDX 13 13 14 14 16 15 15 16 31 17 20 18 30 19 29 20 22 21 21 22
REMARK SMILES IDX 26 23 23 24 24 25 27 26 28 27 25 28 3 30 2 31 1 32 32 33
REMARK SMILES IDX 33 34 34 35
REMARK H PARENT 25 29
REMARK Flexibility Score: inf
ROOT
ATOM      1  C   UNL     1      78.802  34.853  51.672  1.00  0.00     0.014 C 
ENDROOT
BRANCH   1   2
ATOM      2  C   UNL     1      77.420  34.797  50.973  1.00  0.00     0.039 C 
BRANCH   2   3
ATOM      3  C   UNL     1      77.477  35.608  49.704  1.00  0.00     0.045 C 
ATOM      4  O   UNL     1      76.422  36.066  49.190  1.00  0.00    -0.550 OA
ATOM      5  O   UNL     1      78.702  35.883  49.108  1.00  0.00    -0.550 OA
ENDBRANCH   2   3
BRANCH   2   6
ATOM      6  C   UNL     1      76.281  35.302  51.919  1.00  0.00     0.004 C 
ATOM      7  C   UNL     1      76.827  36.123  53.121  1.00  0.00     0.006 C 
ATOM      8  C   UNL     1      75.377  34.230  52.602  1.00  0.00    -0.020 C 
ATOM      9  C   UNL     1      75.982  35.756  54.353  1.00  0.00     0.012 C 
ATOM     10  C   UNL     1      74.755  35.024  53.785  1.00  0.00    -0.006 C 
ATOM     11  C   UNL     1      74.220  33.674  51.751  1.00  0.00     0.012 C 
ATOM     12  C   UNL     1      76.257  33.025  53.092  1.00  0.00     0.012 C 
ATOM     13  C   UNL     1      73.717  36.122  53.375  1.00  0.00     0.017 C 
ATOM     14  C   UNL     1      73.994  34.069  54.695  1.00  0.00    -0.064 C 
ATOM     15  C   UNL     1      73.234  32.835  52.610  1.00  0.00     0.032 C 
ATOM     16  C   UNL     1      73.153  33.145  54.129  1.00  0.00    -0.064 C 
ATOM     17  C   UNL     1      74.034  34.252  56.190  1.00  0.00     0.032 C 
ATOM     18  C   UNL     1      72.068  32.411  54.980  1.00  0.00    -0.008 C 
ATOM     19  C   UNL     1      73.813  32.908  56.853  1.00  0.00     0.009 C 
ATOM     20  C   UNL     1      72.395  32.360  56.549  1.00  0.00     0.007 C 
ATOM     21  C   UNL     1      70.713  33.122  54.691  1.00  0.00     0.014 C 
ATOM     22  C   UNL     1      71.932  30.948  54.482  1.00  0.00     0.016 C 
ATOM     23  C   UNL     1      71.230  32.879  57.510  1.00  0.00    -0.006 C 
ATOM     24  C   UNL     1      70.560  34.418  55.474  1.00  0.00     0.033 C 
ATOM     25  C   UNL     1      70.574  34.220  57.003  1.00  0.00     0.120 C 
ATOM     26  C   UNL     1      71.745  33.126  58.956  1.00  0.00     0.014 C 
ATOM     27  C   UNL     1      70.165  31.747  57.660  1.00  0.00     0.014 C 
BRANCH  25  28
ATOM     28  O   UNL     1      69.259  34.356  57.486  1.00  0.00    -0.393 OA
ATOM     29  H   UNL     1      68.803  35.031  56.917  1.00  0.00     0.210 HD
ENDBRANCH  25  28
ENDBRANCH   2   6
ENDBRANCH   1   2
BRANCH   1  30
ATOM     30  C   UNL     1      79.944  35.128  50.678  1.00  0.00     0.031 C 
BRANCH  30  31
ATOM     31  C   UNL     1      80.691  33.854  50.337  1.00  0.00    -0.075 C 
ATOM     32  C   UNL     1      81.228  33.718  49.113  1.00  0.00     0.008 C 
BRANCH  31  33
ATOM     33  C   UNL     1      80.795  32.714  51.342  1.00  0.00     0.008 C 
ATOM     34  C   UNL     1      81.221  33.228  52.723  1.00  0.00     0.012 C 
ATOM     35  C   UNL     1      79.480  31.930  51.427  1.00  0.00     0.012 C 
ENDBRANCH  31  33
ENDBRANCH  30  31
ENDBRANCH   1  30
TORSDOF 7
ENDMDL
