MODEL 1
REMARK VINA RESULT:    -1.853      0.000      0.000
REMARK INTER + INTRA:          -1.853
REMARK INTER:                  -1.853
REMARK INTRA:                   0.000
REMARK UNBOUND:                 0.000
REMARK SMILES CC(=O)[O-]
REMARK SMILES IDX 1 1 2 2 3 3 4 4
REMARK H PARENT
REMARK Flexibility Score: inf
ROOT
ATOM      1  C   UNL     1     -99.137  68.137  23.985  1.00  0.00     0.063 C 
ATOM      2  C   UNL     1     -99.361  69.089  25.110  1.00  0.00     0.038 C 
ATOM      3  O   UNL     1    -100.115  68.770  26.065  1.00  0.00    -0.550 OA
ATOM      4  O   UNL     1     -98.784  70.352  25.079  1.00  0.00    -0.550 OA
ENDROOT
TORSDOF 0
ENDMDL
MODEL 2
REMARK VINA RESULT:    -1.848     12.856     13.362
REMARK INTER + INTRA:          -1.848
REMARK INTER:                  -1.848
REMARK INTRA:                   0.000
REMARK UNBOUND:                 0.000
REMARK SMILES CC(=O)[O-]
REMARK SMILES IDX 1 1 2 2 3 3 4 4
REMARK H PARENT
REMARK Flexibility Score: inf
ROOT
ATOM      1  C   UNL     1     -97.001  55.557  22.866  1.00  0.00     0.063 C 
ATOM      2  C   UNL     1     -96.298  56.548  22.002  1.00  0.00     0.038 C 
ATOM      3  O   UNL     1     -95.092  56.370  21.689  1.00  0.00    -0.550 OA
ATOM      4  O   UNL     1     -96.956  57.698  21.586  1.00  0.00    -0.550 OA
ENDROOT
TORSDOF 0
ENDMDL
MODEL 3
REMARK VINA RESULT:    -1.843      0.153      1.619
REMARK INTER + INTRA:          -1.843
REMARK INTER:                  -1.843
REMARK INTRA:                   0.000
REMARK UNBOUND:                 0.000
REMARK SMILES CC(=O)[O-]
REMARK SMILES IDX 1 1 2 2 3 3 4 4
REMARK H PARENT
REMARK Flexibility Score: inf
ROOT
ATOM      1  C   UNL     1     -99.095  68.028  23.974  1.00  0.00     0.063 C 
ATOM      2  C   UNL     1     -99.337  69.077  25.006  1.00  0.00     0.038 C 
ATOM      3  O   UNL     1     -98.827  70.220  24.874  1.00  0.00    -0.550 OA
ATOM      4  O   UNL     1    -100.078  68.779  26.142  1.00  0.00    -0.550 OA
ENDROOT
TORSDOF 0
ENDMDL
MODEL 4
REMARK VINA RESULT:    -1.835      1.718      2.011
REMARK INTER + INTRA:          -1.835
REMARK INTER:                  -1.835
REMARK INTRA:                   0.000
REMARK UNBOUND:                 0.000
REMARK SMILES CC(=O)[O-]
REMARK SMILES IDX 1 1 2 2 3 3 4 4
REMARK H PARENT
REMARK Flexibility Score: inf
ROOT
ATOM      1  C   UNL     1     -98.919  69.970  23.631  1.00  0.00     0.063 C 
ATOM      2  C   UNL     1     -99.177  68.698  24.364  1.00  0.00     0.038 C 
ATOM      3  O   UNL     1     -98.853  67.596  23.849  1.00  0.00    -0.550 OA
ATOM      4  O   UNL     1     -99.827  68.721  25.591  1.00  0.00    -0.550 OA
ENDROOT
TORSDOF 0
ENDMDL
MODEL 5
REMARK VINA RESULT:    -1.833     13.267     13.539
REMARK INTER + INTRA:          -1.833
REMARK INTER:                  -1.833
REMARK INTRA:                   0.000
REMARK UNBOUND:                 0.000
REMARK SMILES CC(=O)[O-]
REMARK SMILES IDX 1 1 2 2 3 3 4 4
REMARK H PARENT
REMARK Flexibility Score: inf
ROOT
ATOM      1  C   UNL     1     -95.454  56.331  21.626  1.00  0.00     0.063 C 
ATOM      2  C   UNL     1     -96.787  56.164  22.271  1.00  0.00     0.038 C 
ATOM      3  O   UNL     1     -96.891  55.522  23.348  1.00  0.00    -0.550 OA
ATOM      4  O   UNL     1     -97.927  56.667  21.656  1.00  0.00    -0.550 OA
ENDROOT
TORSDOF 0
ENDMDL
MODEL 6
REMARK VINA RESULT:    -1.825     13.260     13.591
REMARK INTER + INTRA:          -1.825
REMARK INTER:                  -1.825
REMARK INTRA:                   0.000
REMARK UNBOUND:                 0.000
REMARK SMILES CC(=O)[O-]
REMARK SMILES IDX 1 1 2 2 3 3 4 4
REMARK H PARENT
REMARK Flexibility Score: inf
ROOT
ATOM      1  C   UNL     1     -95.521  56.372  21.640  1.00  0.00     0.063 C 
ATOM      2  C   UNL     1     -96.874  56.148  22.224  1.00  0.00     0.038 C 
ATOM      3  O   UNL     1     -97.885  56.681  21.698  1.00  0.00    -0.550 OA
ATOM      4  O   UNL     1     -97.016  55.397  23.384  1.00  0.00    -0.550 OA
ENDROOT
TORSDOF 0
ENDMDL
MODEL 7
REMARK VINA RESULT:    -1.804      8.029      8.561
REMARK INTER + INTRA:          -1.804
REMARK INTER:                  -1.804
REMARK INTRA:                   0.000
REMARK UNBOUND:                 0.000
REMARK SMILES CC(=O)[O-]
REMARK SMILES IDX 1 1 2 2 3 3 4 4
REMARK H PARENT
REMARK Flexibility Score: inf
ROOT
ATOM      1  C   UNL     1    -101.590  59.770  23.135  1.00  0.00     0.063 C 
ATOM      2  C   UNL     1    -101.370  61.231  22.938  1.00  0.00     0.038 C 
ATOM      3  O   UNL     1    -100.388  61.801  23.481  1.00  0.00    -0.550 OA
ATOM      4  O   UNL     1    -102.280  61.979  22.201  1.00  0.00    -0.550 OA
ENDROOT
TORSDOF 0
ENDMDL
MODEL 8
REMARK VINA RESULT:    -1.756     13.531     13.813
REMARK INTER + INTRA:          -1.756
REMARK INTER:                  -1.756
REMARK INTRA:                   0.000
REMARK UNBOUND:                 0.000
REMARK SMILES CC(=O)[O-]
REMARK SMILES IDX 1 1 2 2 3 3 4 4
REMARK H PARENT
REMARK Flexibility Score: inf
ROOT
ATOM      1  C   UNL     1     -95.451  56.294  21.608  1.00  0.00     0.063 C 
ATOM      2  C   UNL     1     -96.324  56.561  20.429  1.00  0.00     0.038 C 
ATOM      3  O   UNL     1     -97.563  56.713  20.582  1.00  0.00    -0.550 OA
ATOM      4  O   UNL     1     -95.779  56.587  19.151  1.00  0.00    -0.550 OA
ENDROOT
TORSDOF 0
ENDMDL
MODEL 9
REMARK VINA RESULT:    -1.735      2.408      2.810
REMARK INTER + INTRA:          -1.735
REMARK INTER:                  -1.735
REMARK INTRA:                   0.000
REMARK UNBOUND:                 0.000
REMARK SMILES CC(=O)[O-]
REMARK SMILES IDX 1 1 2 2 3 3 4 4
REMARK H PARENT
REMARK Flexibility Score: inf
ROOT
ATOM      1  C   UNL     1     -99.732  69.026  25.917  1.00  0.00     0.063 C 
ATOM      2  C   UNL     1    -100.842  68.932  26.908  1.00  0.00     0.038 C 
ATOM      3  O   UNL     1    -101.944  69.495  26.677  1.00  0.00    -0.550 OA
ATOM      4  O   UNL     1    -100.644  68.272  28.114  1.00  0.00    -0.550 OA
ENDROOT
TORSDOF 0
ENDMDL
