MODEL 1
REMARK VINA RESULT:    -4.889      0.000      0.000
REMARK INTER + INTRA:         -10.622
REMARK INTER:                  -8.890
REMARK INTRA:                  -1.732
REMARK UNBOUND:                -1.732
REMARK SMILES CCCCCCCCCCCCCCCC(=O)[O-]
REMARK SMILES IDX 9 1 10 2 11 3 12 4 13 5 14 6 15 7 16 8 17 9 18 10 8 11 7 12
REMARK SMILES IDX 6 13 5 14 4 15 3 16 2 17 1 18
REMARK H PARENT
REMARK Flexibility Score: inf
ROOT
ATOM      1  C   UNL     1      18.829 -42.132 -24.753  1.00  0.00     0.000 C 
ENDROOT
BRANCH   1   2
ATOM      2  C   UNL     1      17.920 -41.522 -23.670  1.00  0.00     0.000 C 
BRANCH   2   3
ATOM      3  C   UNL     1      16.457 -42.011 -23.693  1.00  0.00     0.000 C 
BRANCH   3   4
ATOM      4  C   UNL     1      16.102 -43.052 -22.617  1.00  0.00     0.000 C 
BRANCH   4   5
ATOM      5  C   UNL     1      16.125 -44.494 -23.152  1.00  0.00     0.000 C 
BRANCH   5   6
ATOM      6  C   UNL     1      17.007 -45.425 -22.305  1.00  0.00     0.006 C 
BRANCH   6   7
ATOM      7  C   UNL     1      17.468 -46.666 -23.079  1.00  0.00     0.053 C 
BRANCH   7   8
ATOM      8  C   UNL     1      18.596 -47.339 -22.362  1.00  0.00     0.041 C 
ATOM      9  O   UNL     1      19.723 -46.783 -22.293  1.00  0.00    -0.550 OA
ATOM     10  O   UNL     1      18.388 -48.556 -21.727  1.00  0.00    -0.550 OA
ENDBRANCH   7   8
ENDBRANCH   6   7
ENDBRANCH   5   6
ENDBRANCH   4   5
ENDBRANCH   3   4
ENDBRANCH   2   3
ENDBRANCH   1   2
BRANCH   1  11
ATOM     11  C   UNL     1      19.633 -43.338 -24.247  1.00  0.00     0.000 C 
BRANCH  11  12
ATOM     12  C   UNL     1      19.535 -44.513 -25.229  1.00  0.00    -0.000 C 
BRANCH  12  13
ATOM     13  C   UNL     1      18.221 -44.458 -26.023  1.00  0.00    -0.000 C 
BRANCH  13  14
ATOM     14  C   UNL     1      18.002 -45.706 -26.892  1.00  0.00    -0.000 C 
BRANCH  14  15
ATOM     15  C   UNL     1      17.365 -45.377 -28.251  1.00  0.00    -0.000 C 
BRANCH  15  16
ATOM     16  C   UNL     1      18.263 -45.848 -29.406  1.00  0.00    -0.000 C 
BRANCH  16  17
ATOM     17  C   UNL     1      17.531 -46.783 -30.380  1.00  0.00    -0.003 C 
ATOM     18  C   UNL     1      17.240 -48.156 -29.777  1.00  0.00     0.004 C 
ENDBRANCH  16  17
ENDBRANCH  15  16
ENDBRANCH  14  15
ENDBRANCH  13  14
ENDBRANCH  12  13
ENDBRANCH  11  12
ENDBRANCH   1  11
TORSDOF 14
ENDMDL
MODEL 2
REMARK VINA RESULT:    -4.857      2.467      3.964
REMARK INTER + INTRA:         -10.564
REMARK INTER:                  -8.769
REMARK INTRA:                  -1.795
REMARK UNBOUND:                -1.732
REMARK SMILES CCCCCCCCCCCCCCCC(=O)[O-]
REMARK SMILES IDX 9 1 10 2 11 3 12 4 13 5 14 6 15 7 16 8 17 9 18 10 8 11 7 12
REMARK SMILES IDX 6 13 5 14 4 15 3 16 2 17 1 18
REMARK H PARENT
REMARK Flexibility Score: inf
ROOT
ATOM      1  C   UNL     1      17.178 -45.212 -22.085  1.00  0.00     0.000 C 
ENDROOT
BRANCH   1   2
ATOM      2  C   UNL     1      18.597 -44.795 -21.659  1.00  0.00     0.000 C 
BRANCH   2   3
ATOM      3  C   UNL     1      18.880 -43.279 -21.721  1.00  0.00     0.000 C 
BRANCH   3   4
ATOM      4  C   UNL     1      19.723 -42.824 -22.924  1.00  0.00     0.000 C 
BRANCH   4   5
ATOM      5  C   UNL     1      18.988 -41.808 -23.815  1.00  0.00     0.000 C 
BRANCH   5   6
ATOM      6  C   UNL     1      17.539 -42.223 -24.114  1.00  0.00     0.006 C 
BRANCH   6   7
ATOM      7  C   UNL     1      16.514 -41.224 -23.565  1.00  0.00     0.053 C 
BRANCH   7   8
ATOM      8  C   UNL     1      15.532 -41.920 -22.676  1.00  0.00     0.041 C 
ATOM      9  O   UNL     1      14.719 -42.751 -23.158  1.00  0.00    -0.550 OA
ATOM     10  O   UNL     1      15.549 -41.688 -21.307  1.00  0.00    -0.550 OA
ENDBRANCH   7   8
ENDBRANCH   6   7
ENDBRANCH   5   6
ENDBRANCH   4   5
ENDBRANCH   3   4
ENDBRANCH   2   3
ENDBRANCH   1   2
BRANCH   1  11
ATOM     11  C   UNL     1      17.137 -45.850 -23.481  1.00  0.00     0.000 C 
BRANCH  11  12
ATOM     12  C   UNL     1      18.531 -46.331 -23.904  1.00  0.00    -0.000 C 
BRANCH  12  13
ATOM     13  C   UNL     1      19.024 -45.568 -25.143  1.00  0.00    -0.000 C 
BRANCH  13  14
ATOM     14  C   UNL     1      17.891 -45.247 -26.131  1.00  0.00    -0.000 C 
BRANCH  14  15
ATOM     15  C   UNL     1      18.001 -46.047 -27.439  1.00  0.00    -0.000 C 
BRANCH  15  16
ATOM     16  C   UNL     1      17.403 -45.260 -28.614  1.00  0.00    -0.000 C 
BRANCH  16  17
ATOM     17  C   UNL     1      17.399 -46.065 -29.923  1.00  0.00    -0.003 C 
ATOM     18  C   UNL     1      17.263 -47.569 -29.693  1.00  0.00     0.004 C 
ENDBRANCH  16  17
ENDBRANCH  15  16
ENDBRANCH  14  15
ENDBRANCH  13  14
ENDBRANCH  12  13
ENDBRANCH  11  12
ENDBRANCH   1  11
TORSDOF 14
ENDMDL
MODEL 3
REMARK VINA RESULT:    -4.839      1.565      3.384
REMARK INTER + INTRA:         -10.531
REMARK INTER:                  -8.329
REMARK INTRA:                  -2.202
REMARK UNBOUND:                -1.732
REMARK SMILES CCCCCCCCCCCCCCCC(=O)[O-]
REMARK SMILES IDX 9 1 10 2 11 3 12 4 13 5 14 6 15 7 16 8 17 9 18 10 8 11 7 12
REMARK SMILES IDX 6 13 5 14 4 15 3 16 2 17 1 18
REMARK H PARENT
REMARK Flexibility Score: inf
ROOT
ATOM      1  C   UNL     1      15.782 -42.648 -22.606  1.00  0.00     0.000 C 
ENDROOT
BRANCH   1   2
ATOM      2  C   UNL     1      16.859 -43.111 -21.608  1.00  0.00     0.000 C 
BRANCH   2   3
ATOM      3  C   UNL     1      17.421 -44.525 -21.863  1.00  0.00     0.000 C 
BRANCH   3   4
ATOM      4  C   UNL     1      16.563 -45.410 -22.784  1.00  0.00     0.000 C 
BRANCH   4   5
ATOM      5  C   UNL     1      16.904 -46.904 -22.661  1.00  0.00     0.000 C 
BRANCH   5   6
ATOM      6  C   UNL     1      18.399 -47.189 -22.878  1.00  0.00     0.006 C 
BRANCH   6   7
ATOM      7  C   UNL     1      19.060 -47.835 -21.654  1.00  0.00     0.053 C 
BRANCH   7   8
ATOM      8  C   UNL     1      20.435 -47.280 -21.450  1.00  0.00     0.041 C 
ATOM      9  O   UNL     1      20.869 -46.371 -22.205  1.00  0.00    -0.550 OA
ATOM     10  O   UNL     1      21.217 -47.730 -20.395  1.00  0.00    -0.550 OA
ENDBRANCH   7   8
ENDBRANCH   6   7
ENDBRANCH   5   6
ENDBRANCH   4   5
ENDBRANCH   3   4
ENDBRANCH   2   3
ENDBRANCH   1   2
BRANCH   1  11
ATOM     11  C   UNL     1      16.332 -41.697 -23.679  1.00  0.00     0.000 C 
BRANCH  11  12
ATOM     12  C   UNL     1      17.755 -41.243 -23.331  1.00  0.00    -0.000 C 
BRANCH  12  13
ATOM     13  C   UNL     1      18.745 -41.637 -24.438  1.00  0.00    -0.000 C 
BRANCH  13  14
ATOM     14  C   UNL     1      19.811 -42.632 -23.954  1.00  0.00    -0.000 C 
BRANCH  14  15
ATOM     15  C   UNL     1      19.697 -44.002 -24.640  1.00  0.00    -0.000 C 
BRANCH  15  16
ATOM     16  C   UNL     1      18.617 -43.981 -25.733  1.00  0.00    -0.000 C 
BRANCH  16  17
ATOM     17  C   UNL     1      18.155 -45.389 -26.135  1.00  0.00    -0.003 C 
ATOM     18  C   UNL     1      17.653 -45.459 -27.576  1.00  0.00     0.004 C 
ENDBRANCH  16  17
ENDBRANCH  15  16
ENDBRANCH  14  15
ENDBRANCH  13  14
ENDBRANCH  12  13
ENDBRANCH  11  12
ENDBRANCH   1  11
TORSDOF 14
ENDMDL
MODEL 4
REMARK VINA RESULT:    -4.829      2.688      5.060
REMARK INTER + INTRA:         -10.512
REMARK INTER:                  -8.065
REMARK INTRA:                  -2.448
REMARK UNBOUND:                -1.732
REMARK SMILES CCCCCCCCCCCCCCCC(=O)[O-]
REMARK SMILES IDX 9 1 10 2 11 3 12 4 13 5 14 6 15 7 16 8 17 9 18 10 8 11 7 12
REMARK SMILES IDX 6 13 5 14 4 15 3 16 2 17 1 18
REMARK H PARENT
REMARK Flexibility Score: inf
ROOT
ATOM      1  C   UNL     1      19.766 -43.782 -24.712  1.00  0.00     0.000 C 
ENDROOT
BRANCH   1   2
ATOM      2  C   UNL     1      18.371 -43.995 -25.327  1.00  0.00     0.000 C 
BRANCH   2   3
ATOM      3  C   UNL     1      17.665 -45.303 -24.912  1.00  0.00     0.000 C 
BRANCH   3   4
ATOM      4  C   UNL     1      17.105 -45.313 -23.479  1.00  0.00     0.000 C 
BRANCH   4   5
ATOM      5  C   UNL     1      17.162 -46.705 -22.828  1.00  0.00     0.000 C 
BRANCH   5   6
ATOM      6  C   UNL     1      18.600 -47.154 -22.518  1.00  0.00     0.006 C 
BRANCH   6   7
ATOM      7  C   UNL     1      19.362 -46.138 -21.658  1.00  0.00     0.053 C 
BRANCH   7   8
ATOM      8  C   UNL     1      20.832 -46.411 -21.709  1.00  0.00     0.041 C 
ATOM      9  O   UNL     1      21.438 -46.815 -20.682  1.00  0.00    -0.550 OA
ATOM     10  O   UNL     1      21.524 -46.269 -22.905  1.00  0.00    -0.550 OA
ENDBRANCH   7   8
ENDBRANCH   6   7
ENDBRANCH   5   6
ENDBRANCH   4   5
ENDBRANCH   3   4
ENDBRANCH   2   3
ENDBRANCH   1   2
BRANCH   1  11
ATOM     11  C   UNL     1      19.887 -42.452 -23.955  1.00  0.00     0.000 C 
BRANCH  11  12
ATOM     12  C   UNL     1      20.299 -42.686 -22.496  1.00  0.00    -0.000 C 
BRANCH  12  13
ATOM     13  C   UNL     1      19.405 -41.886 -21.537  1.00  0.00    -0.000 C 
BRANCH  13  14
ATOM     14  C   UNL     1      18.152 -42.664 -21.107  1.00  0.00    -0.000 C 
BRANCH  14  15
ATOM     15  C   UNL     1      16.877 -41.808 -21.157  1.00  0.00    -0.000 C 
BRANCH  15  16
ATOM     16  C   UNL     1      16.868 -40.910 -22.403  1.00  0.00    -0.000 C 
BRANCH  16  17
ATOM     17  C   UNL     1      16.122 -41.546 -23.585  1.00  0.00    -0.003 C 
ATOM     18  C   UNL     1      14.843 -42.265 -23.161  1.00  0.00     0.004 C 
ENDBRANCH  16  17
ENDBRANCH  15  16
ENDBRANCH  14  15
ENDBRANCH  13  14
ENDBRANCH  12  13
ENDBRANCH  11  12
ENDBRANCH   1  11
TORSDOF 14
ENDMDL
MODEL 5
REMARK VINA RESULT:    -4.795      3.090      6.396
REMARK INTER + INTRA:         -10.451
REMARK INTER:                  -8.585
REMARK INTRA:                  -1.866
REMARK UNBOUND:                -1.732
REMARK SMILES CCCCCCCCCCCCCCCC(=O)[O-]
REMARK SMILES IDX 9 1 10 2 11 3 12 4 13 5 14 6 15 7 16 8 17 9 18 10 8 11 7 12
REMARK SMILES IDX 6 13 5 14 4 15 3 16 2 17 1 18
REMARK H PARENT
REMARK Flexibility Score: inf
ROOT
ATOM      1  C   UNL     1      17.914 -44.995 -22.606  1.00  0.00     0.000 C 
ENDROOT
BRANCH   1   2
ATOM      2  C   UNL     1      17.497 -45.378 -24.038  1.00  0.00     0.000 C 
BRANCH   2   3
ATOM      3  C   UNL     1      18.644 -45.392 -25.071  1.00  0.00     0.000 C 
BRANCH   3   4
ATOM      4  C   UNL     1      18.254 -44.917 -26.481  1.00  0.00     0.000 C 
BRANCH   4   5
ATOM      5  C   UNL     1      17.818 -46.072 -27.399  1.00  0.00     0.000 C 
BRANCH   5   6
ATOM      6  C   UNL     1      17.256 -45.579 -28.742  1.00  0.00     0.006 C 
BRANCH   6   7
ATOM      7  C   UNL     1      17.244 -46.676 -29.814  1.00  0.00     0.053 C 
BRANCH   7   8
ATOM      8  C   UNL     1      18.621 -46.883 -30.362  1.00  0.00     0.041 C 
ATOM      9  O   UNL     1      19.460 -45.945 -30.339  1.00  0.00    -0.550 OA
ATOM     10  O   UNL     1      18.994 -48.128 -30.851  1.00  0.00    -0.550 OA
ENDBRANCH   7   8
ENDBRANCH   6   7
ENDBRANCH   5   6
ENDBRANCH   4   5
ENDBRANCH   3   4
ENDBRANCH   2   3
ENDBRANCH   1   2
BRANCH   1  11
ATOM     11  C   UNL     1      19.366 -44.503 -22.518  1.00  0.00     0.000 C 
BRANCH  11  12
ATOM     12  C   UNL     1      19.418 -42.986 -22.298  1.00  0.00    -0.000 C 
BRANCH  12  13
ATOM     13  C   UNL     1      19.856 -42.259 -23.578  1.00  0.00    -0.000 C 
BRANCH  13  14
ATOM     14  C   UNL     1      18.668 -41.695 -24.375  1.00  0.00    -0.000 C 
BRANCH  14  15
ATOM     15  C   UNL     1      17.508 -41.249 -23.472  1.00  0.00    -0.000 C 
BRANCH  15  16
ATOM     16  C   UNL     1      16.198 -41.937 -23.883  1.00  0.00    -0.000 C 
BRANCH  16  17
ATOM     17  C   UNL     1      15.211 -42.076 -22.714  1.00  0.00    -0.003 C 
ATOM     18  C   UNL     1      15.823 -41.677 -21.372  1.00  0.00     0.004 C 
ENDBRANCH  16  17
ENDBRANCH  15  16
ENDBRANCH  14  15
ENDBRANCH  13  14
ENDBRANCH  12  13
ENDBRANCH  11  12
ENDBRANCH   1  11
TORSDOF 14
ENDMDL
MODEL 6
REMARK VINA RESULT:    -4.795      2.870      6.040
REMARK INTER + INTRA:         -10.451
REMARK INTER:                  -8.722
REMARK INTRA:                  -1.729
REMARK UNBOUND:                -1.732
REMARK SMILES CCCCCCCCCCCCCCCC(=O)[O-]
REMARK SMILES IDX 9 1 10 2 11 3 12 4 13 5 14 6 15 7 16 8 17 9 18 10 8 11 7 12
REMARK SMILES IDX 6 13 5 14 4 15 3 16 2 17 1 18
REMARK H PARENT
REMARK Flexibility Score: inf
ROOT
ATOM      1  C   UNL     1      19.775 -42.608 -24.295  1.00  0.00     0.000 C 
ENDROOT
BRANCH   1   2
ATOM      2  C   UNL     1      19.678 -43.860 -25.185  1.00  0.00     0.000 C 
BRANCH   2   3
ATOM      3  C   UNL     1      18.290 -44.111 -25.813  1.00  0.00     0.000 C 
BRANCH   3   4
ATOM      4  C   UNL     1      17.959 -45.587 -26.089  1.00  0.00     0.000 C 
BRANCH   4   5
ATOM      5  C   UNL     1      18.282 -46.009 -27.533  1.00  0.00     0.000 C 
BRANCH   5   6
ATOM      6  C   UNL     1      17.200 -45.569 -28.533  1.00  0.00     0.006 C 
BRANCH   6   7
ATOM      7  C   UNL     1      17.577 -45.884 -29.986  1.00  0.00     0.053 C 
BRANCH   7   8
ATOM      8  C   UNL     1      17.891 -47.338 -30.139  1.00  0.00     0.041 C 
ATOM      9  O   UNL     1      17.087 -48.208 -29.712  1.00  0.00    -0.550 OA
ATOM     10  O   UNL     1      19.047 -47.734 -30.799  1.00  0.00    -0.550 OA
ENDBRANCH   7   8
ENDBRANCH   6   7
ENDBRANCH   5   6
ENDBRANCH   4   5
ENDBRANCH   3   4
ENDBRANCH   2   3
ENDBRANCH   1   2
BRANCH   1  11
ATOM     11  C   UNL     1      18.660 -41.589 -24.574  1.00  0.00     0.000 C 
BRANCH  11  12
ATOM     12  C   UNL     1      17.776 -41.392 -23.336  1.00  0.00    -0.000 C 
BRANCH  12  13
ATOM     13  C   UNL     1      16.354 -41.915 -23.587  1.00  0.00    -0.000 C 
BRANCH  13  14
ATOM     14  C   UNL     1      16.062 -43.222 -22.833  1.00  0.00    -0.000 C 
BRANCH  14  15
ATOM     15  C   UNL     1      17.121 -43.540 -21.767  1.00  0.00    -0.000 C 
BRANCH  15  16
ATOM     16  C   UNL     1      17.672 -44.963 -21.947  1.00  0.00    -0.000 C 
BRANCH  16  17
ATOM     17  C   UNL     1      16.707 -45.877 -22.716  1.00  0.00    -0.003 C 
ATOM     18  C   UNL     1      16.333 -47.135 -21.936  1.00  0.00     0.004 C 
ENDBRANCH  16  17
ENDBRANCH  15  16
ENDBRANCH  14  15
ENDBRANCH  13  14
ENDBRANCH  12  13
ENDBRANCH  11  12
ENDBRANCH   1  11
TORSDOF 14
ENDMDL
MODEL 7
REMARK VINA RESULT:    -4.765      3.355      5.612
REMARK INTER + INTRA:         -10.397
REMARK INTER:                  -8.476
REMARK INTRA:                  -1.922
REMARK UNBOUND:                -1.732
REMARK SMILES CCCCCCCCCCCCCCCC(=O)[O-]
REMARK SMILES IDX 9 1 10 2 11 3 12 4 13 5 14 6 15 7 16 8 17 9 18 10 8 11 7 12
REMARK SMILES IDX 6 13 5 14 4 15 3 16 2 17 1 18
REMARK H PARENT
REMARK Flexibility Score: inf
ROOT
ATOM      1  C   UNL     1      20.031 -45.200 -24.630  1.00  0.00     0.000 C 
ENDROOT
BRANCH   1   2
ATOM      2  C   UNL     1      20.769 -43.850 -24.575  1.00  0.00     0.000 C 
BRANCH   2   3
ATOM      3  C   UNL     1      19.986 -42.653 -25.156  1.00  0.00     0.000 C 
BRANCH   3   4
ATOM      4  C   UNL     1      19.033 -41.959 -24.169  1.00  0.00     0.000 C 
BRANCH   4   5
ATOM      5  C   UNL     1      19.460 -42.139 -22.702  1.00  0.00     0.000 C 
BRANCH   5   6
ATOM      6  C   UNL     1      18.291 -41.961 -21.720  1.00  0.00     0.006 C 
BRANCH   6   7
ATOM      7  C   UNL     1      17.155 -41.112 -22.304  1.00  0.00     0.053 C 
BRANCH   7   8
ATOM      8  C   UNL     1      15.831 -41.598 -21.804  1.00  0.00     0.041 C 
ATOM      9  O   UNL     1      14.974 -42.045 -22.611  1.00  0.00    -0.550 OA
ATOM     10  O   UNL     1      15.562 -41.604 -20.442  1.00  0.00    -0.550 OA
ENDBRANCH   7   8
ENDBRANCH   6   7
ENDBRANCH   5   6
ENDBRANCH   4   5
ENDBRANCH   3   4
ENDBRANCH   2   3
ENDBRANCH   1   2
BRANCH   1  11
ATOM     11  C   UNL     1      18.744 -45.143 -25.465  1.00  0.00     0.000 C 
BRANCH  11  12
ATOM     12  C   UNL     1      17.577 -45.801 -24.718  1.00  0.00    -0.000 C 
BRANCH  12  13
ATOM     13  C   UNL     1      16.950 -44.826 -23.710  1.00  0.00    -0.000 C 
BRANCH  13  14
ATOM     14  C   UNL     1      16.808 -45.435 -22.306  1.00  0.00    -0.000 C 
BRANCH  14  15
ATOM     15  C   UNL     1      17.870 -46.506 -22.015  1.00  0.00    -0.000 C 
BRANCH  15  16
ATOM     16  C   UNL     1      17.216 -47.872 -21.759  1.00  0.00    -0.000 C 
BRANCH  16  17
ATOM     17  C   UNL     1      15.683 -47.793 -21.711  1.00  0.00    -0.003 C 
ATOM     18  C   UNL     1      15.054 -48.951 -20.939  1.00  0.00     0.004 C 
ENDBRANCH  16  17
ENDBRANCH  15  16
ENDBRANCH  14  15
ENDBRANCH  13  14
ENDBRANCH  12  13
ENDBRANCH  11  12
ENDBRANCH   1  11
TORSDOF 14
ENDMDL
MODEL 8
REMARK VINA RESULT:    -4.705      3.127      4.828
REMARK INTER + INTRA:         -10.288
REMARK INTER:                  -7.888
REMARK INTRA:                  -2.400
REMARK UNBOUND:                -1.732
REMARK SMILES CCCCCCCCCCCCCCCC(=O)[O-]
REMARK SMILES IDX 9 1 10 2 11 3 12 4 13 5 14 6 15 7 16 8 17 9 18 10 8 11 7 12
REMARK SMILES IDX 6 13 5 14 4 15 3 16 2 17 1 18
REMARK H PARENT
REMARK Flexibility Score: inf
ROOT
ATOM      1  C   UNL     1      16.486 -41.081 -22.341  1.00  0.00     0.000 C 
ENDROOT
BRANCH   1   2
ATOM      2  C   UNL     1      16.092 -41.963 -23.540  1.00  0.00     0.000 C 
BRANCH   2   3
ATOM      3  C   UNL     1      17.276 -42.546 -24.339  1.00  0.00     0.000 C 
BRANCH   3   4
ATOM      4  C   UNL     1      17.478 -44.063 -24.188  1.00  0.00     0.000 C 
BRANCH   4   5
ATOM      5  C   UNL     1      16.528 -44.690 -23.152  1.00  0.00     0.000 C 
BRANCH   5   6
ATOM      6  C   UNL     1      17.251 -45.645 -22.189  1.00  0.00     0.006 C 
BRANCH   6   7
ATOM      7  C   UNL     1      18.454 -46.340 -22.840  1.00  0.00     0.053 C 
BRANCH   7   8
ATOM      8  C   UNL     1      19.017 -47.378 -21.921  1.00  0.00     0.041 C 
ATOM      9  O   UNL     1      18.416 -48.472 -21.758  1.00  0.00    -0.550 OA
ATOM     10  O   UNL     1      20.231 -47.157 -21.285  1.00  0.00    -0.550 OA
ENDBRANCH   7   8
ENDBRANCH   6   7
ENDBRANCH   5   6
ENDBRANCH   4   5
ENDBRANCH   3   4
ENDBRANCH   2   3
ENDBRANCH   1   2
BRANCH   1  11
ATOM     11  C   UNL     1      15.974 -41.631 -21.002  1.00  0.00     0.000 C 
BRANCH  11  12
ATOM     12  C   UNL     1      17.075 -42.411 -20.273  1.00  0.00    -0.000 C 
BRANCH  12  13
ATOM     13  C   UNL     1      18.459 -41.811 -20.564  1.00  0.00    -0.000 C 
BRANCH  13  14
ATOM     14  C   UNL     1      19.387 -42.791 -21.299  1.00  0.00    -0.000 C 
BRANCH  14  15
ATOM     15  C   UNL     1      20.212 -42.110 -22.403  1.00  0.00    -0.000 C 
BRANCH  15  16
ATOM     16  C   UNL     1      21.004 -43.147 -23.214  1.00  0.00    -0.000 C 
BRANCH  16  17
ATOM     17  C   UNL     1      21.725 -42.528 -24.420  1.00  0.00    -0.003 C 
ATOM     18  C   UNL     1      20.768 -42.122 -25.539  1.00  0.00     0.004 C 
ENDBRANCH  16  17
ENDBRANCH  15  16
ENDBRANCH  14  15
ENDBRANCH  13  14
ENDBRANCH  12  13
ENDBRANCH  11  12
ENDBRANCH   1  11
TORSDOF 14
ENDMDL
MODEL 9
REMARK VINA RESULT:    -4.645      3.666      5.566
REMARK INTER + INTRA:         -10.179
REMARK INTER:                  -7.920
REMARK INTRA:                  -2.259
REMARK UNBOUND:                -1.732
REMARK SMILES CCCCCCCCCCCCCCCC(=O)[O-]
REMARK SMILES IDX 9 1 10 2 11 3 12 4 13 5 14 6 15 7 16 8 17 9 18 10 8 11 7 12
REMARK SMILES IDX 6 13 5 14 4 15 3 16 2 17 1 18
REMARK H PARENT
REMARK Flexibility Score: inf
ROOT
ATOM      1  C   UNL     1      18.059 -42.837 -24.548  1.00  0.00     0.000 C 
ENDROOT
BRANCH   1   2
ATOM      2  C   UNL     1      19.386 -42.059 -24.481  1.00  0.00     0.000 C 
BRANCH   2   3
ATOM      3  C   UNL     1      20.282 -42.397 -23.270  1.00  0.00     0.000 C 
BRANCH   3   4
ATOM      4  C   UNL     1      19.523 -42.751 -21.979  1.00  0.00     0.000 C 
BRANCH   4   5
ATOM      5  C   UNL     1      19.120 -41.508 -21.167  1.00  0.00     0.000 C 
BRANCH   5   6
ATOM      6  C   UNL     1      17.597 -41.300 -21.123  1.00  0.00     0.006 C 
BRANCH   6   7
ATOM      7  C   UNL     1      16.884 -42.345 -20.256  1.00  0.00     0.053 C 
BRANCH   7   8
ATOM      8  C   UNL     1      16.348 -41.711 -19.011  1.00  0.00     0.041 C 
ATOM      9  O   UNL     1      17.136 -41.205 -18.169  1.00  0.00    -0.550 OA
ATOM     10  O   UNL     1      14.977 -41.634 -18.806  1.00  0.00    -0.550 OA
ENDBRANCH   7   8
ENDBRANCH   6   7
ENDBRANCH   5   6
ENDBRANCH   4   5
ENDBRANCH   3   4
ENDBRANCH   2   3
ENDBRANCH   1   2
BRANCH   1  11
ATOM     11  C   UNL     1      18.136 -44.071 -25.459  1.00  0.00     0.000 C 
BRANCH  11  12
ATOM     12  C   UNL     1      17.803 -45.349 -24.679  1.00  0.00    -0.000 C 
BRANCH  12  13
ATOM     13  C   UNL     1      16.939 -45.033 -23.449  1.00  0.00    -0.000 C 
BRANCH  13  14
ATOM     14  C   UNL     1      17.373 -45.821 -22.202  1.00  0.00    -0.000 C 
BRANCH  14  15
ATOM     15  C   UNL     1      17.997 -47.182 -22.549  1.00  0.00    -0.000 C 
BRANCH  15  16
ATOM     16  C   UNL     1      19.212 -47.471 -21.656  1.00  0.00    -0.000 C 
BRANCH  16  17
ATOM     17  C   UNL     1      20.211 -46.305 -21.620  1.00  0.00    -0.003 C 
ATOM     18  C   UNL     1      20.950 -46.118 -22.944  1.00  0.00     0.004 C 
ENDBRANCH  16  17
ENDBRANCH  15  16
ENDBRANCH  14  15
ENDBRANCH  13  14
ENDBRANCH  12  13
ENDBRANCH  11  12
ENDBRANCH   1  11
TORSDOF 14
ENDMDL
