MODEL 1
REMARK VINA RESULT:    -4.833      0.000      0.000
REMARK INTER + INTRA:         -10.946
REMARK INTER:                  -9.353
REMARK INTRA:                  -1.593
REMARK UNBOUND:                -1.593
REMARK SMILES CCCCCCCCCCCCCCCCCC(=O)[O-]
REMARK SMILES IDX 10 1 11 2 12 3 13 4 14 5 15 6 16 7 17 8 18 9 19 10 20 11
REMARK SMILES IDX 9 12 8 13 7 14 6 15 5 16 4 17 3 18 2 19 1 20
REMARK H PARENT
REMARK Flexibility Score: inf
ROOT
ATOM      1  C   UNL     1      -7.241  -1.304 -10.968  1.00  0.00     0.000 C 
ENDROOT
BRANCH   1   2
ATOM      2  C   UNL     1      -7.317  -2.600 -11.793  1.00  0.00     0.000 C 
BRANCH   2   3
ATOM      3  C   UNL     1      -7.738  -2.344 -13.257  1.00  0.00     0.000 C 
BRANCH   3   4
ATOM      4  C   UNL     1      -8.511  -3.514 -13.893  1.00  0.00     0.000 C 
BRANCH   4   5
ATOM      5  C   UNL     1      -8.010  -3.947 -15.283  1.00  0.00     0.000 C 
BRANCH   5   6
ATOM      6  C   UNL     1      -9.030  -4.737 -16.126  1.00  0.00     0.000 C 
BRANCH   6   7
ATOM      7  C   UNL     1     -10.368  -3.998 -16.291  1.00  0.00     0.006 C 
BRANCH   7   8
ATOM      8  C   UNL     1     -11.572  -4.926 -16.079  1.00  0.00     0.053 C 
BRANCH   8   9
ATOM      9  C   UNL     1     -11.845  -5.163 -14.625  1.00  0.00     0.041 C 
ATOM     10  O   UNL     1     -12.619  -4.397 -13.992  1.00  0.00    -0.550 OA
ATOM     11  O   UNL     1     -11.224  -6.214 -13.961  1.00  0.00    -0.550 OA
ENDBRANCH   8   9
ENDBRANCH   7   8
ENDBRANCH   6   7
ENDBRANCH   5   6
ENDBRANCH   4   5
ENDBRANCH   3   4
ENDBRANCH   2   3
ENDBRANCH   1   2
BRANCH   1  12
ATOM     12  C   UNL     1      -6.059  -1.304  -9.974  1.00  0.00     0.000 C 
BRANCH  12  13
ATOM     13  C   UNL     1      -6.238  -0.325  -8.799  1.00  0.00    -0.000 C 
BRANCH  13  14
ATOM     14  C   UNL     1      -7.215   0.835  -9.066  1.00  0.00    -0.000 C 
BRANCH  14  15
ATOM     15  C   UNL     1      -6.547   2.202  -9.322  1.00  0.00    -0.000 C 
BRANCH  15  16
ATOM     16  C   UNL     1      -6.249   2.522 -10.800  1.00  0.00    -0.000 C 
BRANCH  16  17
ATOM     17  C   UNL     1      -4.926   1.949 -11.341  1.00  0.00    -0.000 C 
BRANCH  17  18
ATOM     18  C   UNL     1      -3.754   2.129 -10.363  1.00  0.00    -0.000 C 
BRANCH  18  19
ATOM     19  C   UNL     1      -2.971   0.827 -10.137  1.00  0.00    -0.003 C 
ATOM     20  C   UNL     1      -2.872  -0.031 -11.397  1.00  0.00     0.004 C 
ENDBRANCH  18  19
ENDBRANCH  17  18
ENDBRANCH  16  17
ENDBRANCH  15  16
ENDBRANCH  14  15
ENDBRANCH  13  14
ENDBRANCH  12  13
ENDBRANCH   1  12
TORSDOF 16
ENDMDL
MODEL 2
REMARK VINA RESULT:    -4.708      4.304      7.475
REMARK INTER + INTRA:         -10.704
REMARK INTER:                  -9.065
REMARK INTRA:                  -1.638
REMARK UNBOUND:                -1.593
REMARK SMILES CCCCCCCCCCCCCCCCCC(=O)[O-]
REMARK SMILES IDX 10 1 11 2 12 3 13 4 14 5 15 6 16 7 17 8 18 9 19 10 20 11
REMARK SMILES IDX 9 12 8 13 7 14 6 15 5 16 4 17 3 18 2 19 1 20
REMARK H PARENT
REMARK Flexibility Score: inf
ROOT
ATOM      1  C   UNL     1      -6.892  -6.302 -12.463  1.00  0.00     0.000 C 
ENDROOT
BRANCH   1   2
ATOM      2  C   UNL     1      -6.812  -5.487 -11.161  1.00  0.00     0.000 C 
BRANCH   2   3
ATOM      3  C   UNL     1      -5.849  -4.284 -11.277  1.00  0.00     0.000 C 
BRANCH   3   4
ATOM      4  C   UNL     1      -6.218  -3.105 -10.358  1.00  0.00     0.000 C 
BRANCH   4   5
ATOM      5  C   UNL     1      -7.182  -2.074 -10.975  1.00  0.00     0.000 C 
BRANCH   5   6
ATOM      6  C   UNL     1      -6.778  -0.602 -10.770  1.00  0.00     0.000 C 
BRANCH   6   7
ATOM      7  C   UNL     1      -6.615  -0.227  -9.288  1.00  0.00     0.006 C 
BRANCH   7   8
ATOM      8  C   UNL     1      -7.358   1.068  -8.933  1.00  0.00     0.053 C 
BRANCH   8   9
ATOM      9  C   UNL     1      -6.639   2.280  -9.440  1.00  0.00     0.041 C 
ATOM     10  O   UNL     1      -5.381   2.336  -9.397  1.00  0.00    -0.550 OA
ATOM     11  O   UNL     1      -7.358   3.361  -9.936  1.00  0.00    -0.550 OA
ENDBRANCH   8   9
ENDBRANCH   7   8
ENDBRANCH   6   7
ENDBRANCH   5   6
ENDBRANCH   4   5
ENDBRANCH   3   4
ENDBRANCH   2   3
ENDBRANCH   1   2
BRANCH   1  12
ATOM     12  C   UNL     1      -8.235  -6.107 -13.201  1.00  0.00     0.000 C 
BRANCH  12  13
ATOM     13  C   UNL     1      -8.145  -5.160 -14.412  1.00  0.00    -0.000 C 
BRANCH  13  14
ATOM     14  C   UNL     1      -8.442  -3.682 -14.101  1.00  0.00    -0.000 C 
BRANCH  14  15
ATOM     15  C   UNL     1      -7.279  -2.710 -14.389  1.00  0.00    -0.000 C 
BRANCH  15  16
ATOM     16  C   UNL     1      -5.955  -3.377 -14.812  1.00  0.00    -0.000 C 
BRANCH  16  17
ATOM     17  C   UNL     1      -4.780  -2.410 -15.048  1.00  0.00    -0.000 C 
BRANCH  17  18
ATOM     18  C   UNL     1      -3.999  -2.724 -16.335  1.00  0.00    -0.000 C 
BRANCH  18  19
ATOM     19  C   UNL     1      -3.710  -1.467 -17.169  1.00  0.00    -0.003 C 
ATOM     20  C   UNL     1      -2.927  -1.770 -18.446  1.00  0.00     0.004 C 
ENDBRANCH  18  19
ENDBRANCH  17  18
ENDBRANCH  16  17
ENDBRANCH  15  16
ENDBRANCH  14  15
ENDBRANCH  13  14
ENDBRANCH  12  13
ENDBRANCH   1  12
TORSDOF 16
ENDMDL
MODEL 3
REMARK VINA RESULT:    -4.656      5.430      8.594
REMARK INTER + INTRA:         -10.604
REMARK INTER:                  -8.881
REMARK INTRA:                  -1.722
REMARK UNBOUND:                -1.593
REMARK SMILES CCCCCCCCCCCCCCCCCC(=O)[O-]
REMARK SMILES IDX 10 1 11 2 12 3 13 4 14 5 15 6 16 7 17 8 18 9 19 10 20 11
REMARK SMILES IDX 9 12 8 13 7 14 6 15 5 16 4 17 3 18 2 19 1 20
REMARK H PARENT
REMARK Flexibility Score: inf
ROOT
ATOM      1  C   UNL     1     -10.162  -3.768 -16.253  1.00  0.00     0.000 C 
ENDROOT
BRANCH   1   2
ATOM      2  C   UNL     1      -8.768  -4.026 -15.657  1.00  0.00     0.000 C 
BRANCH   2   3
ATOM      3  C   UNL     1      -8.579  -3.348 -14.282  1.00  0.00     0.000 C 
BRANCH   3   4
ATOM      4  C   UNL     1      -7.255  -2.573 -14.149  1.00  0.00     0.000 C 
BRANCH   4   5
ATOM      5  C   UNL     1      -6.007  -3.323 -14.652  1.00  0.00     0.000 C 
BRANCH   5   6
ATOM      6  C   UNL     1      -4.797  -2.428 -14.977  1.00  0.00     0.000 C 
BRANCH   6   7
ATOM      7  C   UNL     1      -4.094  -2.825 -16.286  1.00  0.00     0.006 C 
BRANCH   7   8
ATOM      8  C   UNL     1      -3.715  -1.603 -17.133  1.00  0.00     0.053 C 
BRANCH   8   9
ATOM      9  C   UNL     1      -2.232  -1.395 -17.181  1.00  0.00     0.041 C 
ATOM     10  O   UNL     1      -1.556  -1.407 -16.118  1.00  0.00    -0.550 OA
ATOM     11  O   UNL     1      -1.600  -1.161 -18.396  1.00  0.00    -0.550 OA
ENDBRANCH   8   9
ENDBRANCH   7   8
ENDBRANCH   6   7
ENDBRANCH   5   6
ENDBRANCH   4   5
ENDBRANCH   3   4
ENDBRANCH   2   3
ENDBRANCH   1   2
BRANCH   1  12
ATOM     12  C   UNL     1     -11.096  -4.991 -16.123  1.00  0.00     0.000 C 
BRANCH  12  13
ATOM     13  C   UNL     1     -11.672  -5.183 -14.708  1.00  0.00    -0.000 C 
BRANCH  13  14
ATOM     14  C   UNL     1     -11.089  -6.377 -13.929  1.00  0.00    -0.000 C 
BRANCH  14  15
ATOM     15  C   UNL     1     -10.467  -7.484 -14.806  1.00  0.00    -0.000 C 
BRANCH  15  16
ATOM     16  C   UNL     1      -8.931  -7.588 -14.741  1.00  0.00    -0.000 C 
BRANCH  16  17
ATOM     17  C   UNL     1      -8.377  -8.385 -13.546  1.00  0.00    -0.000 C 
BRANCH  17  18
ATOM     18  C   UNL     1      -7.276  -7.629 -12.784  1.00  0.00    -0.000 C 
BRANCH  18  19
ATOM     19  C   UNL     1      -7.591  -6.134 -12.625  1.00  0.00    -0.003 C 
ATOM     20  C   UNL     1      -6.947  -5.522 -11.381  1.00  0.00     0.004 C 
ENDBRANCH  18  19
ENDBRANCH  17  18
ENDBRANCH  16  17
ENDBRANCH  15  16
ENDBRANCH  14  15
ENDBRANCH  13  14
ENDBRANCH  12  13
ENDBRANCH   1  12
TORSDOF 16
ENDMDL
MODEL 4
REMARK VINA RESULT:    -4.650      3.469      8.445
REMARK INTER + INTRA:         -10.592
REMARK INTER:                  -8.560
REMARK INTRA:                  -2.033
REMARK UNBOUND:                -1.593
REMARK SMILES CCCCCCCCCCCCCCCCCC(=O)[O-]
REMARK SMILES IDX 10 1 11 2 12 3 13 4 14 5 15 6 16 7 17 8 18 9 19 10 20 11
REMARK SMILES IDX 9 12 8 13 7 14 6 15 5 16 4 17 3 18 2 19 1 20
REMARK H PARENT
REMARK Flexibility Score: inf
ROOT
ATOM      1  C   UNL     1      -8.244  -2.737 -13.566  1.00  0.00     0.000 C 
ENDROOT
BRANCH   1   2
ATOM      2  C   UNL     1      -7.964  -1.833 -12.354  1.00  0.00     0.000 C 
BRANCH   2   3
ATOM      3  C   UNL     1      -7.311  -2.601 -11.184  1.00  0.00     0.000 C 
BRANCH   3   4
ATOM      4  C   UNL     1      -6.085  -1.888 -10.582  1.00  0.00     0.000 C 
BRANCH   4   5
ATOM      5  C   UNL     1      -4.964  -1.561 -11.586  1.00  0.00     0.000 C 
BRANCH   5   6
ATOM      6  C   UNL     1      -4.413  -0.126 -11.500  1.00  0.00     0.000 C 
BRANCH   6   7
ATOM      7  C   UNL     1      -5.049   0.692 -10.364  1.00  0.00     0.006 C 
BRANCH   7   8
ATOM      8  C   UNL     1      -5.568   2.052 -10.850  1.00  0.00     0.053 C 
BRANCH   8   9
ATOM      9  C   UNL     1      -6.795   2.481 -10.104  1.00  0.00     0.041 C 
ATOM     10  O   UNL     1      -7.323   1.712  -9.258  1.00  0.00    -0.550 OA
ATOM     11  O   UNL     1      -7.370   3.719 -10.363  1.00  0.00    -0.550 OA
ENDBRANCH   8   9
ENDBRANCH   7   8
ENDBRANCH   6   7
ENDBRANCH   5   6
ENDBRANCH   4   5
ENDBRANCH   3   4
ENDBRANCH   2   3
ENDBRANCH   1   2
BRANCH   1  12
ATOM     12  C   UNL     1      -6.959  -3.103 -14.340  1.00  0.00     0.000 C 
BRANCH  12  13
ATOM     13  C   UNL     1      -6.873  -4.592 -14.728  1.00  0.00    -0.000 C 
BRANCH  13  14
ATOM     14  C   UNL     1      -6.686  -5.559 -13.544  1.00  0.00    -0.000 C 
BRANCH  14  15
ATOM     15  C   UNL     1      -7.953  -6.339 -13.136  1.00  0.00    -0.000 C 
BRANCH  15  16
ATOM     16  C   UNL     1      -8.957  -6.605 -14.275  1.00  0.00    -0.000 C 
BRANCH  16  17
ATOM     17  C   UNL     1     -10.371  -6.040 -14.049  1.00  0.00    -0.000 C 
BRANCH  17  18
ATOM     18  C   UNL     1     -11.080  -5.666 -15.361  1.00  0.00    -0.000 C 
BRANCH  18  19
ATOM     19  C   UNL     1     -11.143  -4.147 -15.584  1.00  0.00    -0.003 C 
ATOM     20  C   UNL     1     -10.047  -3.639 -16.519  1.00  0.00     0.004 C 
ENDBRANCH  18  19
ENDBRANCH  17  18
ENDBRANCH  16  17
ENDBRANCH  15  16
ENDBRANCH  14  15
ENDBRANCH  13  14
ENDBRANCH  12  13
ENDBRANCH   1  12
TORSDOF 16
ENDMDL
MODEL 5
REMARK VINA RESULT:    -4.640      4.145      6.015
REMARK INTER + INTRA:         -10.573
REMARK INTER:                  -8.600
REMARK INTRA:                  -1.973
REMARK UNBOUND:                -1.593
REMARK SMILES CCCCCCCCCCCCCCCCCC(=O)[O-]
REMARK SMILES IDX 10 1 11 2 12 3 13 4 14 5 15 6 16 7 17 8 18 9 19 10 20 11
REMARK SMILES IDX 9 12 8 13 7 14 6 15 5 16 4 17 3 18 2 19 1 20
REMARK H PARENT
REMARK Flexibility Score: inf
ROOT
ATOM      1  C   UNL     1      -3.860  -1.878 -12.544  1.00  0.00     0.000 C 
ENDROOT
BRANCH   1   2
ATOM      2  C   UNL     1      -5.093  -1.330 -11.806  1.00  0.00     0.000 C 
BRANCH   2   3
ATOM      3  C   UNL     1      -5.686  -2.350 -10.810  1.00  0.00     0.000 C 
BRANCH   3   4
ATOM      4  C   UNL     1      -7.011  -2.978 -11.281  1.00  0.00     0.000 C 
BRANCH   4   5
ATOM      5  C   UNL     1      -7.951  -2.024 -12.041  1.00  0.00     0.000 C 
BRANCH   5   6
ATOM      6  C   UNL     1      -8.195  -2.390 -13.517  1.00  0.00     0.000 C 
BRANCH   6   7
ATOM      7  C   UNL     1      -7.853  -3.855 -13.835  1.00  0.00     0.006 C 
BRANCH   7   8
ATOM      8  C   UNL     1      -8.277  -4.254 -15.255  1.00  0.00     0.053 C 
BRANCH   8   9
ATOM      9  C   UNL     1      -9.724  -3.963 -15.508  1.00  0.00     0.041 C 
ATOM     10  O   UNL     1     -10.606  -4.403 -14.724  1.00  0.00    -0.550 OA
ATOM     11  O   UNL     1     -10.102  -3.229 -16.626  1.00  0.00    -0.550 OA
ENDBRANCH   8   9
ENDBRANCH   7   8
ENDBRANCH   6   7
ENDBRANCH   5   6
ENDBRANCH   4   5
ENDBRANCH   3   4
ENDBRANCH   2   3
ENDBRANCH   1   2
BRANCH   1  12
ATOM     12  C   UNL     1      -4.236  -2.836 -13.694  1.00  0.00     0.000 C 
BRANCH  12  13
ATOM     13  C   UNL     1      -4.771  -2.120 -14.949  1.00  0.00    -0.000 C 
BRANCH  13  14
ATOM     14  C   UNL     1      -4.011  -2.440 -16.249  1.00  0.00    -0.000 C 
BRANCH  14  15
ATOM     15  C   UNL     1      -2.572  -2.959 -16.051  1.00  0.00    -0.000 C 
BRANCH  15  16
ATOM     16  C   UNL     1      -1.466  -1.890 -16.164  1.00  0.00    -0.000 C 
BRANCH  16  17
ATOM     17  C   UNL     1      -1.675  -0.846 -17.276  1.00  0.00    -0.000 C 
BRANCH  17  18
ATOM     18  C   UNL     1      -0.758  -1.075 -18.488  1.00  0.00    -0.000 C 
BRANCH  18  19
ATOM     19  C   UNL     1      -1.354  -2.067 -19.499  1.00  0.00    -0.003 C 
ATOM     20  C   UNL     1      -2.871  -1.935 -19.634  1.00  0.00     0.004 C 
ENDBRANCH  18  19
ENDBRANCH  17  18
ENDBRANCH  16  17
ENDBRANCH  15  16
ENDBRANCH  14  15
ENDBRANCH  13  14
ENDBRANCH  12  13
ENDBRANCH   1  12
TORSDOF 16
ENDMDL
MODEL 6
REMARK VINA RESULT:    -4.607      2.975      4.471
REMARK INTER + INTRA:         -10.508
REMARK INTER:                  -8.088
REMARK INTRA:                  -2.420
REMARK UNBOUND:                -1.593
REMARK SMILES CCCCCCCCCCCCCCCCCC(=O)[O-]
REMARK SMILES IDX 10 1 11 2 12 3 13 4 14 5 15 6 16 7 17 8 18 9 19 10 20 11
REMARK SMILES IDX 9 12 8 13 7 14 6 15 5 16 4 17 3 18 2 19 1 20
REMARK H PARENT
REMARK Flexibility Score: inf
ROOT
ATOM      1  C   UNL     1      -7.214  -4.873 -11.095  1.00  0.00     0.000 C 
ENDROOT
BRANCH   1   2
ATOM      2  C   UNL     1      -6.143  -5.890 -11.524  1.00  0.00     0.000 C 
BRANCH   2   3
ATOM      3  C   UNL     1      -6.316  -6.347 -12.989  1.00  0.00     0.000 C 
BRANCH   3   4
ATOM      4  C   UNL     1      -7.653  -5.914 -13.619  1.00  0.00     0.000 C 
BRANCH   4   5
ATOM      5  C   UNL     1      -7.570  -5.493 -15.098  1.00  0.00     0.000 C 
BRANCH   5   6
ATOM      6  C   UNL     1      -8.176  -4.114 -15.417  1.00  0.00     0.000 C 
BRANCH   6   7
ATOM      7  C   UNL     1      -9.415  -3.794 -14.565  1.00  0.00     0.006 C 
BRANCH   7   8
ATOM      8  C   UNL     1     -10.723  -4.122 -15.298  1.00  0.00     0.053 C 
BRANCH   8   9
ATOM      9  C   UNL     1     -11.624  -4.987 -14.473  1.00  0.00     0.041 C 
ATOM     10  O   UNL     1     -12.744  -4.555 -14.092  1.00  0.00    -0.550 OA
ATOM     11  O   UNL     1     -11.217  -6.263 -14.101  1.00  0.00    -0.550 OA
ENDBRANCH   8   9
ENDBRANCH   7   8
ENDBRANCH   6   7
ENDBRANCH   5   6
ENDBRANCH   4   5
ENDBRANCH   3   4
ENDBRANCH   2   3
ENDBRANCH   1   2
BRANCH   1  12
ATOM     12  C   UNL     1      -6.602  -3.572 -10.532  1.00  0.00     0.000 C 
BRANCH  12  13
ATOM     13  C   UNL     1      -6.958  -2.315 -11.348  1.00  0.00    -0.000 C 
BRANCH  13  14
ATOM     14  C   UNL     1      -6.381  -2.286 -12.775  1.00  0.00    -0.000 C 
BRANCH  14  15
ATOM     15  C   UNL     1      -4.862  -2.543 -12.868  1.00  0.00    -0.000 C 
BRANCH  15  16
ATOM     16  C   UNL     1      -4.398  -3.287 -14.136  1.00  0.00    -0.000 C 
BRANCH  16  17
ATOM     17  C   UNL     1      -4.822  -2.640 -15.468  1.00  0.00    -0.000 C 
BRANCH  17  18
ATOM     18  C   UNL     1      -3.749  -2.770 -16.561  1.00  0.00    -0.000 C 
BRANCH  18  19
ATOM     19  C   UNL     1      -3.580  -1.479 -17.376  1.00  0.00    -0.003 C 
ATOM     20  C   UNL     1      -2.638  -1.648 -18.568  1.00  0.00     0.004 C 
ENDBRANCH  18  19
ENDBRANCH  17  18
ENDBRANCH  16  17
ENDBRANCH  15  16
ENDBRANCH  14  15
ENDBRANCH  13  14
ENDBRANCH  12  13
ENDBRANCH   1  12
TORSDOF 16
ENDMDL
MODEL 7
REMARK VINA RESULT:    -4.569      3.766      8.650
REMARK INTER + INTRA:         -10.436
REMARK INTER:                  -8.292
REMARK INTRA:                  -2.144
REMARK UNBOUND:                -1.593
REMARK SMILES CCCCCCCCCCCCCCCCCC(=O)[O-]
REMARK SMILES IDX 10 1 11 2 12 3 13 4 14 5 15 6 16 7 17 8 18 9 19 10 20 11
REMARK SMILES IDX 9 12 8 13 7 14 6 15 5 16 4 17 3 18 2 19 1 20
REMARK H PARENT
REMARK Flexibility Score: inf
ROOT
ATOM      1  C   UNL     1      -6.800  -4.669 -13.756  1.00  0.00     0.000 C 
ENDROOT
BRANCH   1   2
ATOM      2  C   UNL     1      -7.684  -4.952 -12.529  1.00  0.00     0.000 C 
BRANCH   2   3
ATOM      3  C   UNL     1      -7.120  -4.319 -11.237  1.00  0.00     0.000 C 
BRANCH   3   4
ATOM      4  C   UNL     1      -5.718  -3.707 -11.408  1.00  0.00     0.000 C 
BRANCH   4   5
ATOM      5  C   UNL     1      -5.634  -2.189 -11.159  1.00  0.00     0.000 C 
BRANCH   5   6
ATOM      6  C   UNL     1      -6.985  -1.497 -10.902  1.00  0.00     0.000 C 
BRANCH   6   7
ATOM      7  C   UNL     1      -6.843   0.010 -10.627  1.00  0.00     0.006 C 
BRANCH   7   8
ATOM      8  C   UNL     1      -7.058   0.350  -9.146  1.00  0.00     0.053 C 
BRANCH   8   9
ATOM      9  C   UNL     1      -6.667   1.763  -8.835  1.00  0.00     0.041 C 
ATOM     10  O   UNL     1      -5.786   2.001  -7.967  1.00  0.00    -0.550 OA
ATOM     11  O   UNL     1      -7.295   2.818  -9.486  1.00  0.00    -0.550 OA
ENDBRANCH   8   9
ENDBRANCH   7   8
ENDBRANCH   6   7
ENDBRANCH   5   6
ENDBRANCH   4   5
ENDBRANCH   3   4
ENDBRANCH   2   3
ENDBRANCH   1   2
BRANCH   1  12
ATOM     12  C   UNL     1      -7.477  -3.718 -14.766  1.00  0.00     0.000 C 
BRANCH  12  13
ATOM     13  C   UNL     1      -9.008  -3.638 -14.612  1.00  0.00    -0.000 C 
BRANCH  13  14
ATOM     14  C   UNL     1      -9.799  -3.802 -15.923  1.00  0.00    -0.000 C 
BRANCH  14  15
ATOM     15  C   UNL     1     -11.059  -4.686 -15.816  1.00  0.00    -0.000 C 
BRANCH  15  16
ATOM     16  C   UNL     1     -11.477  -5.062 -14.380  1.00  0.00    -0.000 C 
BRANCH  16  17
ATOM     17  C   UNL     1     -11.205  -6.524 -13.980  1.00  0.00    -0.000 C 
BRANCH  17  18
ATOM     18  C   UNL     1     -10.503  -7.325 -15.089  1.00  0.00    -0.000 C 
BRANCH  18  19
ATOM     19  C   UNL     1      -9.012  -7.550 -14.797  1.00  0.00    -0.003 C 
ATOM     20  C   UNL     1      -8.143  -7.470 -16.052  1.00  0.00     0.004 C 
ENDBRANCH  18  19
ENDBRANCH  17  18
ENDBRANCH  16  17
ENDBRANCH  15  16
ENDBRANCH  14  15
ENDBRANCH  13  14
ENDBRANCH  12  13
ENDBRANCH   1  12
TORSDOF 16
ENDMDL
MODEL 8
REMARK VINA RESULT:    -4.567      4.741      7.600
REMARK INTER + INTRA:         -10.431
REMARK INTER:                  -7.582
REMARK INTRA:                  -2.849
REMARK UNBOUND:                -1.593
REMARK SMILES CCCCCCCCCCCCCCCCCC(=O)[O-]
REMARK SMILES IDX 10 1 11 2 12 3 13 4 14 5 15 6 16 7 17 8 18 9 19 10 20 11
REMARK SMILES IDX 9 12 8 13 7 14 6 15 5 16 4 17 3 18 2 19 1 20
REMARK H PARENT
REMARK Flexibility Score: inf
ROOT
ATOM      1  C   UNL     1      -9.396  -7.978 -13.962  1.00  0.00     0.000 C 
ENDROOT
BRANCH   1   2
ATOM      2  C   UNL     1      -8.196  -7.187 -14.511  1.00  0.00     0.000 C 
BRANCH   2   3
ATOM      3  C   UNL     1      -7.398  -6.476 -13.395  1.00  0.00     0.000 C 
BRANCH   3   4
ATOM      4  C   UNL     1      -5.967  -6.086 -13.809  1.00  0.00     0.000 C 
BRANCH   4   5
ATOM      5  C   UNL     1      -5.685  -6.154 -15.322  1.00  0.00     0.000 C 
BRANCH   5   6
ATOM      6  C   UNL     1      -4.994  -4.910 -15.911  1.00  0.00     0.000 C 
BRANCH   6   7
ATOM      7  C   UNL     1      -4.692  -3.836 -14.852  1.00  0.00     0.006 C 
BRANCH   7   8
ATOM      8  C   UNL     1      -4.736  -2.418 -15.438  1.00  0.00     0.053 C 
BRANCH   8   9
ATOM      9  C   UNL     1      -3.540  -2.129 -16.292  1.00  0.00     0.041 C 
ATOM     10  O   UNL     1      -2.407  -2.574 -15.968  1.00  0.00    -0.550 OA
ATOM     11  O   UNL     1      -3.671  -1.346 -17.432  1.00  0.00    -0.550 OA
ENDBRANCH   8   9
ENDBRANCH   7   8
ENDBRANCH   6   7
ENDBRANCH   5   6
ENDBRANCH   4   5
ENDBRANCH   3   4
ENDBRANCH   2   3
ENDBRANCH   1   2
BRANCH   1  12
ATOM     12  C   UNL     1     -10.742  -7.484 -14.534  1.00  0.00     0.000 C 
BRANCH  12  13
ATOM     13  C   UNL     1     -11.105  -6.048 -14.112  1.00  0.00    -0.000 C 
BRANCH  13  14
ATOM     14  C   UNL     1     -11.751  -5.193 -15.218  1.00  0.00    -0.000 C 
BRANCH  14  15
ATOM     15  C   UNL     1     -10.957  -3.930 -15.610  1.00  0.00    -0.000 C 
BRANCH  15  16
ATOM     16  C   UNL     1      -9.547  -4.188 -16.177  1.00  0.00    -0.000 C 
BRANCH  16  17
ATOM     17  C   UNL     1      -8.392  -3.577 -15.363  1.00  0.00    -0.000 C 
BRANCH  17  18
ATOM     18  C   UNL     1      -8.812  -3.174 -13.941  1.00  0.00    -0.000 C 
BRANCH  18  19
ATOM     19  C   UNL     1      -7.728  -2.363 -13.214  1.00  0.00    -0.003 C 
ATOM     20  C   UNL     1      -7.271  -3.018 -11.911  1.00  0.00     0.004 C 
ENDBRANCH  18  19
ENDBRANCH  17  18
ENDBRANCH  16  17
ENDBRANCH  15  16
ENDBRANCH  14  15
ENDBRANCH  13  14
ENDBRANCH  12  13
ENDBRANCH   1  12
TORSDOF 16
ENDMDL
MODEL 9
REMARK VINA RESULT:    -4.561      3.821      8.530
REMARK INTER + INTRA:         -10.420
REMARK INTER:                  -8.361
REMARK INTRA:                  -2.059
REMARK UNBOUND:                -1.593
REMARK SMILES CCCCCCCCCCCCCCCCCC(=O)[O-]
REMARK SMILES IDX 10 1 11 2 12 3 13 4 14 5 15 6 16 7 17 8 18 9 19 10 20 11
REMARK SMILES IDX 9 12 8 13 7 14 6 15 5 16 4 17 3 18 2 19 1 20
REMARK H PARENT
REMARK Flexibility Score: inf
ROOT
ATOM      1  C   UNL     1      -9.465  -3.784 -14.385  1.00  0.00     0.000 C 
ENDROOT
BRANCH   1   2
ATOM      2  C   UNL     1      -8.001  -3.543 -14.790  1.00  0.00     0.000 C 
BRANCH   2   3
ATOM      3  C   UNL     1      -7.258  -2.623 -13.796  1.00  0.00     0.000 C 
BRANCH   3   4
ATOM      4  C   UNL     1      -8.166  -2.029 -12.704  1.00  0.00     0.000 C 
BRANCH   4   5
ATOM      5  C   UNL     1      -7.561  -2.017 -11.288  1.00  0.00     0.000 C 
BRANCH   5   6
ATOM      6  C   UNL     1      -6.145  -1.420 -11.190  1.00  0.00     0.000 C 
BRANCH   6   7
ATOM      7  C   UNL     1      -5.872  -0.748  -9.834  1.00  0.00     0.006 C 
BRANCH   7   8
ATOM      8  C   UNL     1      -7.023   0.169  -9.400  1.00  0.00     0.053 C 
BRANCH   8   9
ATOM      9  C   UNL     1      -6.591   1.600  -9.299  1.00  0.00     0.041 C 
ATOM     10  O   UNL     1      -7.446   2.524  -9.324  1.00  0.00    -0.550 OA
ATOM     11  O   UNL     1      -5.241   1.914  -9.205  1.00  0.00    -0.550 OA
ENDBRANCH   8   9
ENDBRANCH   7   8
ENDBRANCH   6   7
ENDBRANCH   5   6
ENDBRANCH   4   5
ENDBRANCH   3   4
ENDBRANCH   2   3
ENDBRANCH   1   2
BRANCH   1  12
ATOM     12  C   UNL     1     -10.344  -4.225 -15.576  1.00  0.00     0.000 C 
BRANCH  12  13
ATOM     13  C   UNL     1     -11.304  -5.382 -15.244  1.00  0.00    -0.000 C 
BRANCH  13  14
ATOM     14  C   UNL     1     -10.972  -6.146 -13.949  1.00  0.00    -0.000 C 
BRANCH  14  15
ATOM     15  C   UNL     1     -10.704  -7.654 -14.133  1.00  0.00    -0.000 C 
BRANCH  15  16
ATOM     16  C   UNL     1      -9.515  -8.003 -15.050  1.00  0.00    -0.000 C 
BRANCH  16  17
ATOM     17  C   UNL     1      -8.209  -7.244 -14.748  1.00  0.00    -0.000 C 
BRANCH  17  18
ATOM     18  C   UNL     1      -7.607  -7.616 -13.383  1.00  0.00    -0.000 C 
BRANCH  18  19
ATOM     19  C   UNL     1      -6.683  -6.520 -12.830  1.00  0.00    -0.003 C 
ATOM     20  C   UNL     1      -7.346  -5.678 -11.741  1.00  0.00     0.004 C 
ENDBRANCH  18  19
ENDBRANCH  17  18
ENDBRANCH  16  17
ENDBRANCH  15  16
ENDBRANCH  14  15
ENDBRANCH  13  14
ENDBRANCH  12  13
ENDBRANCH   1  12
TORSDOF 16
ENDMDL
