MODEL 1
REMARK VINA RESULT:    -0.477      0.000      0.000
REMARK INTER + INTRA:          -0.683
REMARK INTER:                  -0.547
REMARK INTRA:                  -0.135
REMARK UNBOUND:                -0.135
REMARK SMILES O=C([O-])C=Cc1ccc(O)cc1
REMARK SMILES IDX 6 1 7 2 12 3 8 4 11 5 9 6 5 7 4 8 2 9 1 10 3 11 10 12
REMARK H PARENT 10 13
REMARK Flexibility Score: inf
ROOT
ATOM      1  C   UNL     1      21.517  14.139   1.748  1.00  0.00    -0.025 A 
ATOM      2  C   UNL     1      20.499  14.598   2.602  1.00  0.00     0.012 A 
ATOM      3  C   UNL     1      21.213  13.911   0.389  1.00  0.00     0.012 A 
ATOM      4  C   UNL     1      19.217  14.851   2.108  1.00  0.00     0.047 A 
ATOM      5  C   UNL     1      19.928  14.163  -0.099  1.00  0.00     0.047 A 
ATOM      6  C   UNL     1      18.928  14.636   0.755  1.00  0.00     0.115 A 
ENDROOT
BRANCH   1   7
ATOM      7  C   UNL     1      22.860  13.875   2.321  1.00  0.00     0.010 C 
ATOM      8  C   UNL     1      23.982  14.481   1.902  1.00  0.00     0.025 C 
BRANCH   8   9
ATOM      9  C   UNL     1      25.296  14.202   2.504  1.00  0.00     0.064 C 
ATOM     10  O   UNL     1      26.352  14.256   1.818  1.00  0.00    -0.545 OA
ATOM     11  O   UNL     1      25.374  13.875   3.851  1.00  0.00    -0.545 OA
ENDBRANCH   8   9
ENDBRANCH   1   7
BRANCH   6  12
ATOM     12  O   UNL     1      17.652  14.883   0.253  1.00  0.00    -0.508 OA
ATOM     13  H   UNL     1      17.513  15.258  -0.678  1.00  0.00     0.293 HD
ENDBRANCH   6  12
TORSDOF 3
ENDMDL
MODEL 2
REMARK VINA RESULT:    -0.347     18.255     19.519
REMARK INTER + INTRA:          -0.533
REMARK INTER:                  -0.383
REMARK INTRA:                  -0.150
REMARK UNBOUND:                -0.135
REMARK SMILES O=C([O-])C=Cc1ccc(O)cc1
REMARK SMILES IDX 6 1 7 2 12 3 8 4 11 5 9 6 5 7 4 8 2 9 1 10 3 11 10 12
REMARK H PARENT 10 13
REMARK Flexibility Score: inf
ROOT
ATOM      1  C   UNL     1      19.281  33.177   1.016  1.00  0.00    -0.025 A 
ATOM      2  C   UNL     1      20.100  32.882   2.120  1.00  0.00     0.012 A 
ATOM      3  C   UNL     1      19.854  33.815  -0.104  1.00  0.00     0.012 A 
ATOM      4  C   UNL     1      21.463  33.190   2.097  1.00  0.00     0.047 A 
ATOM      5  C   UNL     1      21.218  34.123  -0.121  1.00  0.00     0.047 A 
ATOM      6  C   UNL     1      22.026  33.810   0.975  1.00  0.00     0.115 A 
ENDROOT
BRANCH   1   7
ATOM      7  C   UNL     1      17.839  32.839   1.092  1.00  0.00     0.010 C 
ATOM      8  C   UNL     1      17.343  31.847   1.847  1.00  0.00     0.025 C 
BRANCH   8   9
ATOM      9  C   UNL     1      15.902  31.549   1.906  1.00  0.00     0.064 C 
ATOM     10  O   UNL     1      15.100  32.039   1.067  1.00  0.00    -0.545 OA
ATOM     11  O   UNL     1      15.419  30.713   2.904  1.00  0.00    -0.545 OA
ENDBRANCH   8   9
ENDBRANCH   1   7
BRANCH   6  12
ATOM     12  O   UNL     1      23.383  34.123   0.942  1.00  0.00    -0.508 OA
ATOM     13  H   UNL     1      24.091  33.403   0.869  1.00  0.00     0.293 HD
ENDBRANCH   6  12
TORSDOF 3
ENDMDL
MODEL 3
REMARK VINA RESULT:    -0.304     15.270     16.223
REMARK INTER + INTRA:          -0.484
REMARK INTER:                  -0.345
REMARK INTRA:                  -0.138
REMARK UNBOUND:                -0.135
REMARK SMILES O=C([O-])C=Cc1ccc(O)cc1
REMARK SMILES IDX 6 1 7 2 12 3 8 4 11 5 9 6 5 7 4 8 2 9 1 10 3 11 10 12
REMARK H PARENT 10 13
REMARK Flexibility Score: inf
ROOT
ATOM      1  C   UNL     1      26.914  28.924   1.530  1.00  0.00    -0.025 A 
ATOM      2  C   UNL     1      26.352  28.485   2.742  1.00  0.00     0.012 A 
ATOM      3  C   UNL     1      27.347  27.961   0.595  1.00  0.00     0.012 A 
ATOM      4  C   UNL     1      26.200  27.121   3.004  1.00  0.00     0.047 A 
ATOM      5  C   UNL     1      27.194  26.597   0.862  1.00  0.00     0.047 A 
ATOM      6  C   UNL     1      26.619  26.173   2.063  1.00  0.00     0.115 A 
ENDROOT
BRANCH   1   7
ATOM      7  C   UNL     1      27.064  30.382   1.303  1.00  0.00     0.010 C 
ATOM      8  C   UNL     1      27.510  30.916   0.156  1.00  0.00     0.025 C 
BRANCH   8   9
ATOM      9  C   UNL     1      27.634  32.370  -0.037  1.00  0.00     0.064 C 
ATOM     10  O   UNL     1      28.763  32.923  -0.125  1.00  0.00    -0.545 OA
ATOM     11  O   UNL     1      26.486  33.147  -0.125  1.00  0.00    -0.545 OA
ENDBRANCH   8   9
ENDBRANCH   1   7
BRANCH   6  12
ATOM     12  O   UNL     1      26.474  24.810   2.314  1.00  0.00    -0.508 OA
ATOM     13  H   UNL     1      26.016  24.196   1.652  1.00  0.00     0.293 HD
ENDBRANCH   6  12
TORSDOF 3
ENDMDL
MODEL 4
REMARK VINA RESULT:    -0.183     15.442     16.455
REMARK INTER + INTRA:          -0.346
REMARK INTER:                  -0.201
REMARK INTRA:                  -0.145
REMARK UNBOUND:                -0.135
REMARK SMILES O=C([O-])C=Cc1ccc(O)cc1
REMARK SMILES IDX 6 1 7 2 12 3 8 4 11 5 9 6 5 7 4 8 2 9 1 10 3 11 10 12
REMARK H PARENT 10 13
REMARK Flexibility Score: inf
ROOT
ATOM      1  C   UNL     1      27.219  29.071   1.611  1.00  0.00    -0.025 A 
ATOM      2  C   UNL     1      27.687  28.116   0.692  1.00  0.00     0.012 A 
ATOM      3  C   UNL     1      26.439  28.637   2.704  1.00  0.00     0.012 A 
ATOM      4  C   UNL     1      27.407  26.759   0.871  1.00  0.00     0.047 A 
ATOM      5  C   UNL     1      26.161  27.279   2.878  1.00  0.00     0.047 A 
ATOM      6  C   UNL     1      26.644  26.336   1.967  1.00  0.00     0.115 A 
ENDROOT
BRANCH   1   7
ATOM      7  C   UNL     1      27.534  30.501   1.372  1.00  0.00     0.010 C 
ATOM      8  C   UNL     1      27.507  31.079   0.162  1.00  0.00     0.025 C 
BRANCH   8   9
ATOM      9  C   UNL     1      27.813  32.505  -0.035  1.00  0.00     0.064 C 
ATOM     10  O   UNL     1      29.002  32.911  -0.125  1.00  0.00    -0.545 OA
ATOM     11  O   UNL     1      26.772  33.420  -0.125  1.00  0.00    -0.545 OA
ENDBRANCH   8   9
ENDBRANCH   1   7
BRANCH   6  12
ATOM     12  O   UNL     1      26.358  24.986   2.155  1.00  0.00    -0.508 OA
ATOM     13  H   UNL     1      26.882  24.262   1.677  1.00  0.00     0.293 HD
ENDBRANCH   6  12
TORSDOF 3
ENDMDL
MODEL 5
REMARK VINA RESULT:    -0.107     14.517     15.581
REMARK INTER + INTRA:          -0.257
REMARK INTER:                  -0.112
REMARK INTRA:                  -0.146
REMARK UNBOUND:                -0.135
REMARK SMILES O=C([O-])C=Cc1ccc(O)cc1
REMARK SMILES IDX 6 1 7 2 12 3 8 4 11 5 9 6 5 7 4 8 2 9 1 10 3 11 10 12
REMARK H PARENT 10 13
REMARK Flexibility Score: inf
ROOT
ATOM      1  C   UNL     1      27.134  28.764   1.474  1.00  0.00    -0.025 A 
ATOM      2  C   UNL     1      26.363  29.253   0.405  1.00  0.00     0.012 A 
ATOM      3  C   UNL     1      28.177  29.566   1.983  1.00  0.00     0.012 A 
ATOM      4  C   UNL     1      26.607  30.523  -0.125  1.00  0.00     0.047 A 
ATOM      5  C   UNL     1      28.418  30.835   1.448  1.00  0.00     0.047 A 
ATOM      6  C   UNL     1      27.634  31.318   0.397  1.00  0.00     0.115 A 
ENDROOT
BRANCH   1   7
ATOM      7  C   UNL     1      26.844  27.405   1.995  1.00  0.00     0.010 C 
ATOM      8  C   UNL     1      26.639  26.334   1.214  1.00  0.00     0.025 C 
BRANCH   8   9
ATOM      9  C   UNL     1      26.365  24.998   1.769  1.00  0.00     0.064 C 
ATOM     10  O   UNL     1      26.736  24.685   2.931  1.00  0.00    -0.545 OA
ATOM     11  O   UNL     1      25.684  24.066   0.997  1.00  0.00    -0.545 OA
ENDBRANCH   8   9
ENDBRANCH   1   7
BRANCH   6  12
ATOM     12  O   UNL     1      27.887  32.585  -0.125  1.00  0.00    -0.508 OA
ATOM     13  H   UNL     1      28.669  33.143   0.195  1.00  0.00     0.293 HD
ENDBRANCH   6  12
TORSDOF 3
ENDMDL
