MODEL 1
REMARK VINA RESULT:    -4.449      0.000      0.000
REMARK INTER + INTRA:          -6.051
REMARK INTER:                  -6.270
REMARK INTRA:                   0.219
REMARK UNBOUND:                 0.219
REMARK SMILES CC1=CCC(=C(C)C)C(=O)CC(C)=CCC1
REMARK SMILES IDX 12 1 14 2 13 3 15 4 16 5 2 6 1 7 3 8 11 10 9 11 10 12 5 13
REMARK SMILES IDX 6 14 7 15 8 16 4 17
REMARK H PARENT
REMARK Flexibility Score: 60.00
ROOT
ATOM      1  C   UNL     1     -12.140  14.550 -31.073  1.00  0.00    -0.070 C 
ATOM      2  C   UNL     1     -13.166  14.731 -31.934  1.00  0.00    -0.027 C 
ATOM      3  C   UNL     1     -10.739  14.758 -31.591  1.00  0.00     0.039 C 
ENDROOT
BRANCH   2   4
ATOM      4  C   UNL     1     -14.627  14.477 -31.633  1.00  0.00     0.032 C 
BRANCH   4   5
ATOM      5  C   UNL     1     -15.111  13.042 -31.932  1.00  0.00     0.034 C 
BRANCH   5   6
ATOM      6  C   UNL     1     -16.059  12.500 -30.878  1.00  0.00    -0.077 C 
ATOM      7  C   UNL     1     -17.475  13.020 -30.875  1.00  0.00     0.039 C 
ATOM      8  C   UNL     1     -15.701  11.633 -29.899  1.00  0.00    -0.023 CG0
ATOM      9  G   UNL     1     -14.350  10.969 -29.717  1.00  0.00     0.000 G0
ENDBRANCH   5   6
ENDBRANCH   4   5
ENDBRANCH   2   4
BRANCH   1  10
ATOM     10  C   UNL     1     -12.325  14.064 -29.650  1.00  0.00     0.111 C 
BRANCH  10  11
ATOM     11  C   UNL     1     -12.326  12.560 -29.572  1.00  0.00     0.163 C 
ATOM     12  O   UNL     1     -11.416  11.933 -30.181  1.00  0.00    -0.294 OA
BRANCH  11  13
ATOM     13  C   UNL     1     -13.392  11.795 -28.861  1.00  0.00    -0.002 C 
ATOM     14  C   UNL     1     -13.453  11.787 -27.494  1.00  0.00    -0.069 C 
ATOM     15  C   UNL     1     -12.548  12.672 -26.663  1.00  0.00     0.039 C 
ATOM     16  C   UNL     1     -14.420  10.900 -26.741  1.00  0.00     0.039 C 
BRANCH  13  17
ATOM     17  C   UNL     1     -14.335  10.959 -29.711  1.00  0.00     0.066 CG0
ATOM     18  G   UNL     1     -15.687  11.622 -29.894  1.00  0.00     0.000 G0
ENDBRANCH  13  17
ENDBRANCH  11  13
ENDBRANCH  10  11
ENDBRANCH   1  10
TORSDOF 0
ENDMDL
MODEL 2
REMARK VINA RESULT:    -4.203      2.303      4.337
REMARK INTER + INTRA:          -5.704
REMARK INTER:                  -5.918
REMARK INTRA:                   0.214
REMARK UNBOUND:                 0.219
REMARK SMILES CC1=CCC(=C(C)C)C(=O)CC(C)=CCC1
REMARK SMILES IDX 12 1 14 2 13 3 15 4 16 5 2 6 1 7 3 8 11 10 9 11 10 12 5 13
REMARK SMILES IDX 6 14 7 15 8 16 4 17
REMARK H PARENT
REMARK Flexibility Score: 60.00
ROOT
ATOM      1  C   UNL     1     -14.041  13.989 -30.165  1.00  0.00    -0.070 C 
ATOM      2  C   UNL     1     -12.912  13.869 -29.432  1.00  0.00    -0.027 C 
ATOM      3  C   UNL     1     -14.302  15.309 -30.848  1.00  0.00     0.039 C 
ENDROOT
BRANCH   2   4
ATOM      4  C   UNL     1     -12.524  12.667 -28.598  1.00  0.00     0.032 C 
BRANCH   4   5
ATOM      5  C   UNL     1     -13.332  12.495 -27.294  1.00  0.00     0.034 C 
BRANCH   5   6
ATOM      6  C   UNL     1     -13.904  11.098 -27.127  1.00  0.00    -0.077 C 
ATOM      7  C   UNL     1     -12.933   9.946 -27.070  1.00  0.00     0.039 C 
ATOM      8  C   UNL     1     -15.229  10.813 -27.095  1.00  0.00    -0.023 CG0
ATOM      9  G   UNL     1     -16.378  11.803 -27.119  1.00  0.00     0.000 G0
ENDBRANCH   5   6
ENDBRANCH   4   5
ENDBRANCH   2   4
BRANCH   1  10
ATOM     10  C   UNL     1     -15.092  12.901 -30.257  1.00  0.00     0.111 C 
BRANCH  10  11
ATOM     11  C   UNL     1     -16.234  13.150 -29.306  1.00  0.00     0.163 C 
ATOM     12  O   UNL     1     -16.602  14.341 -29.119  1.00  0.00    -0.294 OA
BRANCH  11  13
ATOM     13  C   UNL     1     -16.891  12.051 -28.539  1.00  0.00    -0.002 C 
ATOM     14  C   UNL     1     -17.952  11.367 -29.066  1.00  0.00    -0.069 C 
ATOM     15  C   UNL     1     -18.396  11.590 -30.496  1.00  0.00     0.039 C 
ATOM     16  C   UNL     1     -18.737  10.360 -28.256  1.00  0.00     0.039 C 
BRANCH  13  17
ATOM     17  C   UNL     1     -16.393  11.794 -27.125  1.00  0.00     0.066 CG0
ATOM     18  G   UNL     1     -15.236  10.814 -27.091  1.00  0.00     0.000 G0
ENDBRANCH  13  17
ENDBRANCH  11  13
ENDBRANCH  10  11
ENDBRANCH   1  10
TORSDOF 0
ENDMDL
MODEL 3
REMARK VINA RESULT:    -4.134      2.047      4.006
REMARK INTER + INTRA:          -5.607
REMARK INTER:                  -6.044
REMARK INTRA:                   0.437
REMARK UNBOUND:                 0.219
REMARK SMILES CC1=CCC(=C(C)C)C(=O)CC(C)=CCC1
REMARK SMILES IDX 12 1 14 2 13 3 15 4 16 5 2 6 1 7 3 8 11 10 9 11 10 12 5 13
REMARK SMILES IDX 6 14 7 15 8 16 4 17
REMARK H PARENT
REMARK Flexibility Score: 60.00
ROOT
ATOM      1  C   UNL     1     -14.228  14.287 -30.798  1.00  0.00    -0.070 C 
ATOM      2  C   UNL     1     -13.025  13.739 -30.514  1.00  0.00    -0.027 C 
ATOM      3  C   UNL     1     -14.348  15.790 -30.746  1.00  0.00     0.039 C 
ENDROOT
BRANCH   2   4
ATOM      4  C   UNL     1     -12.730  12.258 -30.418  1.00  0.00     0.032 C 
BRANCH   4   5
ATOM      5  C   UNL     1     -12.355  11.762 -29.006  1.00  0.00     0.034 C 
BRANCH   5   6
ATOM      6  C   UNL     1     -13.254  12.324 -27.918  1.00  0.00    -0.077 C 
ATOM      7  C   UNL     1     -12.629  13.245 -26.900  1.00  0.00     0.039 C 
ATOM      8  C   UNL     1     -14.561  12.001 -27.762  1.00  0.00    -0.023 CG0
ATOM      9  G   UNL     1     -15.398  11.117 -28.667  1.00  0.00     0.000 G0
ENDBRANCH   5   6
ENDBRANCH   4   5
ENDBRANCH   2   4
BRANCH   1  10
ATOM     10  C   UNL     1     -15.471  13.466 -31.073  1.00  0.00     0.111 C 
BRANCH  10  11
ATOM     11  C   UNL     1     -16.288  13.259 -29.824  1.00  0.00     0.163 C 
ATOM     12  O   UNL     1     -16.688  14.279 -29.201  1.00  0.00    -0.294 OA
BRANCH  11  13
ATOM     13  C   UNL     1     -16.578  11.903 -29.273  1.00  0.00    -0.002 C 
ATOM     14  C   UNL     1     -17.858  11.418 -29.245  1.00  0.00    -0.069 C 
ATOM     15  C   UNL     1     -18.994  12.166 -29.909  1.00  0.00     0.039 C 
ATOM     16  C   UNL     1     -18.207  10.120 -28.553  1.00  0.00     0.039 C 
BRANCH  13  17
ATOM     17  C   UNL     1     -15.416  11.134 -28.665  1.00  0.00     0.066 CG0
ATOM     18  G   UNL     1     -14.562  12.002 -27.760  1.00  0.00     0.000 G0
ENDBRANCH  13  17
ENDBRANCH  11  13
ENDBRANCH  10  11
ENDBRANCH   1  10
TORSDOF 0
ENDMDL
MODEL 4
REMARK VINA RESULT:    -4.113      1.856      3.729
REMARK INTER + INTRA:          -5.577
REMARK INTER:                  -5.789
REMARK INTRA:                   0.212
REMARK UNBOUND:                 0.219
REMARK SMILES CC1=CCC(=C(C)C)C(=O)CC(C)=CCC1
REMARK SMILES IDX 12 1 14 2 13 3 15 4 16 5 2 6 1 7 3 8 11 10 9 11 10 12 5 13
REMARK SMILES IDX 6 14 7 15 8 16 4 17
REMARK H PARENT
REMARK Flexibility Score: 60.00
ROOT
ATOM      1  C   UNL     1     -16.238  14.287 -30.321  1.00  0.00    -0.070 C 
ATOM      2  C   UNL     1     -16.954  14.003 -29.211  1.00  0.00    -0.027 C 
ATOM      3  C   UNL     1     -15.373  15.523 -30.306  1.00  0.00     0.039 C 
ENDROOT
BRANCH   2   4
ATOM      4  C   UNL     1     -17.947  12.871 -29.067  1.00  0.00     0.032 C 
BRANCH   4   5
ATOM      5  C   UNL     1     -17.325  11.458 -29.069  1.00  0.00     0.034 C 
BRANCH   5   6
ATOM      6  C   UNL     1     -16.016  11.382 -28.302  1.00  0.00    -0.077 C 
ATOM      7  C   UNL     1     -16.072  11.548 -26.804  1.00  0.00     0.039 C 
ATOM      8  C   UNL     1     -14.798  11.243 -28.879  1.00  0.00    -0.023 CG0
ATOM      9  G   UNL     1     -14.503  11.043 -30.353  1.00  0.00     0.000 G0
ENDBRANCH   5   6
ENDBRANCH   4   5
ENDBRANCH   2   4
BRANCH   1  10
ATOM     10  C   UNL     1     -16.333  13.481 -31.601  1.00  0.00     0.111 C 
BRANCH  10  11
ATOM     11  C   UNL     1     -14.990  12.937 -32.015  1.00  0.00     0.163 C 
ATOM     12  O   UNL     1     -14.694  12.959 -33.241  1.00  0.00    -0.294 OA
BRANCH  11  13
ATOM     13  C   UNL     1     -14.041  12.322 -31.042  1.00  0.00    -0.002 C 
ATOM     14  C   UNL     1     -12.797  12.856 -30.846  1.00  0.00    -0.069 C 
ATOM     15  C   UNL     1     -12.398  14.170 -31.483  1.00  0.00     0.039 C 
ATOM     16  C   UNL     1     -11.756  12.170 -29.989  1.00  0.00     0.039 C 
BRANCH  13  17
ATOM     17  C   UNL     1     -14.478  11.035 -30.360  1.00  0.00     0.066 CG0
ATOM     18  G   UNL     1     -14.806  11.243 -28.894  1.00  0.00     0.000 G0
ENDBRANCH  13  17
ENDBRANCH  11  13
ENDBRANCH  10  11
ENDBRANCH   1  10
TORSDOF 0
ENDMDL
MODEL 5
REMARK VINA RESULT:    -4.087      1.779      4.160
REMARK INTER + INTRA:          -5.540
REMARK INTER:                  -5.690
REMARK INTRA:                   0.150
REMARK UNBOUND:                 0.219
REMARK SMILES CC1=CCC(=C(C)C)C(=O)CC(C)=CCC1
REMARK SMILES IDX 12 1 14 2 13 3 15 4 16 5 2 6 1 7 3 8 11 10 9 11 10 12 5 13
REMARK SMILES IDX 6 14 7 15 8 16 4 17
REMARK H PARENT
REMARK Flexibility Score: 60.00
ROOT
ATOM      1  C   UNL     1     -14.239  11.639 -27.524  1.00  0.00    -0.070 C 
ATOM      2  C   UNL     1     -15.589  11.672 -27.477  1.00  0.00    -0.027 C 
ATOM      3  C   UNL     1     -13.492  11.450 -26.228  1.00  0.00     0.039 C 
ENDROOT
BRANCH   2   4
ATOM      4  C   UNL     1     -16.507  11.948 -28.648  1.00  0.00     0.032 C 
BRANCH   4   5
ATOM      5  C   UNL     1     -16.682  13.441 -28.997  1.00  0.00     0.034 C 
BRANCH   5   6
ATOM      6  C   UNL     1     -16.596  13.720 -30.487  1.00  0.00    -0.077 C 
ATOM      7  C   UNL     1     -17.698  13.184 -31.365  1.00  0.00     0.039 C 
ATOM      8  C   UNL     1     -15.562  14.359 -31.087  1.00  0.00    -0.023 CG0
ATOM      9  G   UNL     1     -14.363  14.994 -30.409  1.00  0.00     0.000 G0
ENDBRANCH   5   6
ENDBRANCH   4   5
ENDBRANCH   2   4
BRANCH   1  10
ATOM     10  C   UNL     1     -13.445  11.873 -28.794  1.00  0.00     0.111 C 
BRANCH  10  11
ATOM     11  C   UNL     1     -13.062  13.322 -28.950  1.00  0.00     0.163 C 
ATOM     12  O   UNL     1     -12.676  13.947 -27.926  1.00  0.00    -0.294 OA
BRANCH  11  13
ATOM     13  C   UNL     1     -13.184  14.047 -30.249  1.00  0.00    -0.002 C 
ATOM     14  C   UNL     1     -12.231  13.909 -31.220  1.00  0.00    -0.069 C 
ATOM     15  C   UNL     1     -11.108  12.904 -31.079  1.00  0.00     0.039 C 
ATOM     16  C   UNL     1     -12.242  14.747 -32.479  1.00  0.00     0.039 C 
BRANCH  13  17
ATOM     17  C   UNL     1     -14.353  15.007 -30.403  1.00  0.00     0.066 CG0
ATOM     18  G   UNL     1     -15.550  14.357 -31.069  1.00  0.00     0.000 G0
ENDBRANCH  13  17
ENDBRANCH  11  13
ENDBRANCH  10  11
ENDBRANCH   1  10
TORSDOF 0
ENDMDL
MODEL 6
REMARK VINA RESULT:    -3.998      1.988      4.624
REMARK INTER + INTRA:          -5.416
REMARK INTER:                  -5.662
REMARK INTRA:                   0.246
REMARK UNBOUND:                 0.219
REMARK SMILES CC1=CCC(=C(C)C)C(=O)CC(C)=CCC1
REMARK SMILES IDX 12 1 14 2 13 3 15 4 16 5 2 6 1 7 3 8 11 10 9 11 10 12 5 13
REMARK SMILES IDX 6 14 7 15 8 16 4 17
REMARK H PARENT
REMARK Flexibility Score: 60.00
ROOT
ATOM      1  C   UNL     1     -17.047  12.842 -29.205  1.00  0.00    -0.070 C 
ATOM      2  C   UNL     1     -16.962  11.914 -28.226  1.00  0.00    -0.027 C 
ATOM      3  C   UNL     1     -17.362  14.262 -28.806  1.00  0.00     0.039 C 
ENDROOT
BRANCH   2   4
ATOM      4  C   UNL     1     -16.753  10.430 -28.433  1.00  0.00     0.032 C 
BRANCH   4   5
ATOM      5  C   UNL     1     -15.549  10.063 -29.326  1.00  0.00     0.034 C 
BRANCH   5   6
ATOM      6  C   UNL     1     -14.233  10.622 -28.813  1.00  0.00    -0.077 C 
ATOM      7  C   UNL     1     -13.783  10.204 -27.436  1.00  0.00     0.039 C 
ATOM      8  C   UNL     1     -13.473  11.523 -29.482  1.00  0.00    -0.023 CG0
ATOM      9  G   UNL     1     -13.716  12.069 -30.876  1.00  0.00     0.000 G0
ENDBRANCH   5   6
ENDBRANCH   4   5
ENDBRANCH   2   4
BRANCH   1  10
ATOM     10  C   UNL     1     -16.935  12.508 -30.679  1.00  0.00     0.111 C 
BRANCH  10  11
ATOM     11  C   UNL     1     -15.883  13.345 -31.359  1.00  0.00     0.163 C 
ATOM     12  O   UNL     1     -16.214  13.991 -32.390  1.00  0.00    -0.294 OA
BRANCH  11  13
ATOM     13  C   UNL     1     -14.465  13.382 -30.895  1.00  0.00    -0.002 C 
ATOM     14  C   UNL     1     -13.863  14.569 -30.579  1.00  0.00    -0.069 C 
ATOM     15  C   UNL     1     -14.651  15.861 -30.536  1.00  0.00     0.039 C 
ATOM     16  C   UNL     1     -12.387  14.658 -30.258  1.00  0.00     0.039 C 
BRANCH  13  17
ATOM     17  C   UNL     1     -13.702  12.067 -30.882  1.00  0.00     0.066 CG0
ATOM     18  G   UNL     1     -13.486  11.540 -29.477  1.00  0.00     0.000 G0
ENDBRANCH  13  17
ENDBRANCH  11  13
ENDBRANCH  10  11
ENDBRANCH   1  10
TORSDOF 0
ENDMDL
MODEL 7
REMARK VINA RESULT:    -3.905      1.749      3.470
REMARK INTER + INTRA:          -5.284
REMARK INTER:                  -5.941
REMARK INTRA:                   0.657
REMARK UNBOUND:                 0.219
REMARK SMILES CC1=CCC(=C(C)C)C(=O)CC(C)=CCC1
REMARK SMILES IDX 12 1 14 2 13 3 15 4 16 5 2 6 1 7 3 8 11 10 9 11 10 12 5 13
REMARK SMILES IDX 6 14 7 15 8 16 4 17
REMARK H PARENT
REMARK Flexibility Score: 60.00
ROOT
ATOM      1  C   UNL     1     -15.362  13.796 -30.894  1.00  0.00    -0.070 C 
ATOM      2  C   UNL     1     -14.401  14.714 -31.139  1.00  0.00    -0.027 C 
ATOM      3  C   UNL     1     -16.557  13.763 -31.813  1.00  0.00     0.039 C 
ENDROOT
BRANCH   2   4
ATOM      4  C   UNL     1     -13.182  14.968 -30.279  1.00  0.00     0.032 C 
BRANCH   4   5
ATOM      5  C   UNL     1     -11.830  14.705 -30.977  1.00  0.00     0.034 C 
BRANCH   5   6
ATOM      6  C   UNL     1     -11.762  13.347 -31.653  1.00  0.00    -0.077 C 
ATOM      7  C   UNL     1     -11.704  13.316 -33.160  1.00  0.00     0.039 C 
ATOM      8  C   UNL     1     -11.818  12.162 -30.997  1.00  0.00    -0.023 CG0
ATOM      9  G   UNL     1     -11.860  11.950 -29.496  1.00  0.00     0.000 G0
ENDBRANCH   5   6
ENDBRANCH   4   5
ENDBRANCH   2   4
BRANCH   1  10
ATOM     10  C   UNL     1     -15.339  12.869 -29.696  1.00  0.00     0.111 C 
BRANCH  10  11
ATOM     11  C   UNL     1     -14.404  11.707 -29.910  1.00  0.00     0.163 C 
ATOM     12  O   UNL     1     -14.663  10.900 -30.844  1.00  0.00    -0.294 OA
BRANCH  11  13
ATOM     13  C   UNL     1     -13.231  11.449 -29.023  1.00  0.00    -0.002 C 
ATOM     14  C   UNL     1     -13.397  10.861 -27.799  1.00  0.00    -0.069 C 
ATOM     15  C   UNL     1     -14.739  10.311 -27.368  1.00  0.00     0.039 C 
ATOM     16  C   UNL     1     -12.256  10.729 -26.814  1.00  0.00     0.039 C 
BRANCH  13  17
ATOM     17  C   UNL     1     -11.877  11.951 -29.496  1.00  0.00     0.066 CG0
ATOM     18  G   UNL     1     -11.828  12.147 -30.999  1.00  0.00     0.000 G0
ENDBRANCH  13  17
ENDBRANCH  11  13
ENDBRANCH  10  11
ENDBRANCH   1  10
TORSDOF 0
ENDMDL
MODEL 8
REMARK VINA RESULT:    -3.882      1.817      2.726
REMARK INTER + INTRA:          -5.252
REMARK INTER:                  -5.898
REMARK INTRA:                   0.645
REMARK UNBOUND:                 0.219
REMARK SMILES CC1=CCC(=C(C)C)C(=O)CC(C)=CCC1
REMARK SMILES IDX 12 1 14 2 13 3 15 4 16 5 2 6 1 7 3 8 11 10 9 11 10 12 5 13
REMARK SMILES IDX 6 14 7 15 8 16 4 17
REMARK H PARENT
REMARK Flexibility Score: 60.00
ROOT
ATOM      1  C   UNL     1     -14.923  13.903 -30.822  1.00  0.00    -0.070 C 
ATOM      2  C   UNL     1     -16.256  14.030 -30.641  1.00  0.00    -0.027 C 
ATOM      3  C   UNL     1     -14.067  15.134 -30.654  1.00  0.00     0.039 C 
ENDROOT
BRANCH   2   4
ATOM      4  C   UNL     1     -17.285  12.942 -30.859  1.00  0.00     0.032 C 
BRANCH   4   5
ATOM      5  C   UNL     1     -18.106  12.567 -29.607  1.00  0.00     0.034 C 
BRANCH   5   6
ATOM      6  C   UNL     1     -17.657  11.266 -28.966  1.00  0.00    -0.077 C 
ATOM      7  C   UNL     1     -18.569  10.071 -29.092  1.00  0.00     0.039 C 
ATOM      8  C   UNL     1     -16.526  11.125 -28.233  1.00  0.00    -0.023 CG0
ATOM      9  G   UNL     1     -15.459  12.175 -27.988  1.00  0.00     0.000 G0
ENDBRANCH   5   6
ENDBRANCH   4   5
ENDBRANCH   2   4
BRANCH   1  10
ATOM     10  C   UNL     1     -14.264  12.615 -31.273  1.00  0.00     0.111 C 
BRANCH  10  11
ATOM     11  C   UNL     1     -14.285  11.571 -30.188  1.00  0.00     0.163 C 
ATOM     12  O   UNL     1     -14.461  10.368 -30.524  1.00  0.00    -0.294 OA
BRANCH  11  13
ATOM     13  C   UNL     1     -14.169  11.918 -28.741  1.00  0.00    -0.002 C 
ATOM     14  C   UNL     1     -12.953  11.910 -28.114  1.00  0.00    -0.069 C 
ATOM     15  C   UNL     1     -11.671  11.704 -28.893  1.00  0.00     0.039 C 
ATOM     16  C   UNL     1     -12.821  12.102 -26.620  1.00  0.00     0.039 C 
BRANCH  13  17
ATOM     17  C   UNL     1     -15.460  12.185 -27.983  1.00  0.00     0.066 CG0
ATOM     18  G   UNL     1     -16.513  11.126 -28.249  1.00  0.00     0.000 G0
ENDBRANCH  13  17
ENDBRANCH  11  13
ENDBRANCH  10  11
ENDBRANCH   1  10
TORSDOF 0
ENDMDL
MODEL 9
REMARK VINA RESULT:    -3.831      1.768      3.722
REMARK INTER + INTRA:          -5.180
REMARK INTER:                  -5.904
REMARK INTRA:                   0.723
REMARK UNBOUND:                 0.219
REMARK SMILES CC1=CCC(=C(C)C)C(=O)CC(C)=CCC1
REMARK SMILES IDX 12 1 14 2 13 3 15 4 16 5 2 6 1 7 3 8 11 10 9 11 10 12 5 13
REMARK SMILES IDX 6 14 7 15 8 16 4 17
REMARK H PARENT
REMARK Flexibility Score: 60.00
ROOT
ATOM      1  C   UNL     1     -12.832  12.391 -29.006  1.00  0.00    -0.070 C 
ATOM      2  C   UNL     1     -12.467  13.611 -29.460  1.00  0.00    -0.027 C 
ATOM      3  C   UNL     1     -11.804  11.288 -29.043  1.00  0.00     0.039 C 
ENDROOT
BRANCH   2   4
ATOM      4  C   UNL     1     -13.378  14.812 -29.594  1.00  0.00     0.032 C 
BRANCH   4   5
ATOM      5  C   UNL     1     -13.808  15.142 -31.039  1.00  0.00     0.034 C 
BRANCH   5   6
ATOM      6  C   UNL     1     -13.889  13.916 -31.931  1.00  0.00    -0.077 C 
ATOM      7  C   UNL     1     -12.716  13.627 -32.834  1.00  0.00     0.039 C 
ATOM      8  C   UNL     1     -14.971  13.104 -32.019  1.00  0.00    -0.023 CG0
ATOM      9  G   UNL     1     -16.246  13.188 -31.201  1.00  0.00     0.000 G0
ENDBRANCH   5   6
ENDBRANCH   4   5
ENDBRANCH   2   4
BRANCH   1  10
ATOM     10  C   UNL     1     -14.240  12.060 -28.553  1.00  0.00     0.111 C 
BRANCH  10  11
ATOM     11  C   UNL     1     -15.062  11.480 -29.674  1.00  0.00     0.163 C 
ATOM     12  O   UNL     1     -14.617  10.463 -30.272  1.00  0.00    -0.294 OA
BRANCH  11  13
ATOM     13  C   UNL     1     -16.339  12.101 -30.135  1.00  0.00    -0.002 C 
ATOM     14  C   UNL     1     -17.544  11.640 -29.681  1.00  0.00    -0.069 C 
ATOM     15  C   UNL     1     -17.624  10.600 -28.585  1.00  0.00     0.039 C 
ATOM     16  C   UNL     1     -18.856  12.140 -30.246  1.00  0.00     0.039 C 
BRANCH  13  17
ATOM     17  C   UNL     1     -16.241  13.190 -31.191  1.00  0.00     0.066 CG0
ATOM     18  G   UNL     1     -14.964  13.094 -32.003  1.00  0.00     0.000 G0
ENDBRANCH  13  17
ENDBRANCH  11  13
ENDBRANCH  10  11
ENDBRANCH   1  10
TORSDOF 0
ENDMDL
