MODEL 1
REMARK VINA RESULT:    -3.831      0.000      0.000
REMARK INTER + INTRA:          -6.510
REMARK INTER:                  -6.071
REMARK INTRA:                  -0.440
REMARK UNBOUND:                -0.440
REMARK SMILES CCCCCCCCCCCC(=O)[O-]
REMARK SMILES IDX 7 1 8 2 9 3 10 4 11 5 12 6 13 7 14 8 6 9 5 10 4 11 3 12 2 13
REMARK SMILES IDX 1 14
REMARK H PARENT
REMARK Flexibility Score: inf
ROOT
ATOM      1  C   UNL     1      23.138  10.749   5.846  1.00  0.00     0.000 C 
ENDROOT
BRANCH   1   2
ATOM      2  C   UNL     1      24.576  10.353   5.480  1.00  0.00     0.000 C 
BRANCH   2   3
ATOM      3  C   UNL     1      25.331   9.687   6.642  1.00  0.00     0.000 C 
BRANCH   3   4
ATOM      4  C   UNL     1      26.866   9.809   6.585  1.00  0.00     0.006 C 
BRANCH   4   5
ATOM      5  C   UNL     1      27.388  10.630   5.390  1.00  0.00     0.053 C 
BRANCH   5   6
ATOM      6  C   UNL     1      27.909  11.973   5.803  1.00  0.00     0.041 C 
ATOM      7  O   UNL     1      27.833  12.342   7.006  1.00  0.00    -0.550 OA
ATOM      8  O   UNL     1      28.441  12.838   4.855  1.00  0.00    -0.550 OA
ENDBRANCH   5   6
ENDBRANCH   4   5
ENDBRANCH   3   4
ENDBRANCH   2   3
ENDBRANCH   1   2
BRANCH   1   9
ATOM      9  C   UNL     1      22.858  10.482   7.330  1.00  0.00     0.000 C 
BRANCH   9  10
ATOM     10  C   UNL     1      21.471  11.004   7.730  1.00  0.00    -0.000 C 
BRANCH  10  11
ATOM     11  C   UNL     1      20.794  10.140   8.809  1.00  0.00    -0.000 C 
BRANCH  11  12
ATOM     12  C   UNL     1      19.383   9.631   8.449  1.00  0.00    -0.000 C 
BRANCH  12  13
ATOM     13  C   UNL     1      18.877   8.458   9.306  1.00  0.00    -0.003 C 
ATOM     14  C   UNL     1      17.867   8.889  10.369  1.00  0.00     0.004 C 
ENDBRANCH  12  13
ENDBRANCH  11  12
ENDBRANCH  10  11
ENDBRANCH   9  10
ENDBRANCH   1   9
TORSDOF 10
ENDMDL
MODEL 2
REMARK VINA RESULT:    -3.655     16.446     18.029
REMARK INTER + INTRA:          -6.231
REMARK INTER:                  -5.371
REMARK INTRA:                  -0.860
REMARK UNBOUND:                -0.440
REMARK SMILES CCCCCCCCCCCC(=O)[O-]
REMARK SMILES IDX 7 1 8 2 9 3 10 4 11 5 12 6 13 7 14 8 6 9 5 10 4 11 3 12 2 13
REMARK SMILES IDX 1 14
REMARK H PARENT
REMARK Flexibility Score: inf
ROOT
ATOM      1  C   UNL     1      15.571  -2.234  14.009  1.00  0.00     0.000 C 
ENDROOT
BRANCH   1   2
ATOM      2  C   UNL     1      16.030  -3.355  14.953  1.00  0.00     0.000 C 
BRANCH   2   3
ATOM      3  C   UNL     1      16.114  -4.726  14.262  1.00  0.00     0.000 C 
BRANCH   3   4
ATOM      4  C   UNL     1      15.928  -4.703  12.731  1.00  0.00     0.006 C 
BRANCH   4   5
ATOM      5  C   UNL     1      15.730  -6.095  12.101  1.00  0.00     0.053 C 
BRANCH   5   6
ATOM      6  C   UNL     1      15.341  -6.018  10.655  1.00  0.00     0.041 C 
ATOM      7  O   UNL     1      14.175  -6.332  10.294  1.00  0.00    -0.550 OA
ATOM      8  O   UNL     1      16.274  -5.640   9.699  1.00  0.00    -0.550 OA
ENDBRANCH   5   6
ENDBRANCH   4   5
ENDBRANCH   3   4
ENDBRANCH   2   3
ENDBRANCH   1   2
BRANCH   1   9
ATOM      9  C   UNL     1      16.150  -0.882  14.442  1.00  0.00     0.000 C 
BRANCH   9  10
ATOM     10  C   UNL     1      17.207  -1.063  15.540  1.00  0.00    -0.000 C 
BRANCH  10  11
ATOM     11  C   UNL     1      16.888  -0.265  16.816  1.00  0.00    -0.000 C 
BRANCH  11  12
ATOM     12  C   UNL     1      15.696  -0.797  17.639  1.00  0.00    -0.000 C 
BRANCH  12  13
ATOM     13  C   UNL     1      14.358  -0.080  17.384  1.00  0.00    -0.003 C 
ATOM     14  C   UNL     1      13.272  -1.016  16.857  1.00  0.00     0.004 C 
ENDBRANCH  12  13
ENDBRANCH  11  12
ENDBRANCH  10  11
ENDBRANCH   9  10
ENDBRANCH   1   9
TORSDOF 10
ENDMDL
MODEL 3
REMARK VINA RESULT:    -3.581     15.744     18.062
REMARK INTER + INTRA:          -6.115
REMARK INTER:                  -5.424
REMARK INTRA:                  -0.691
REMARK UNBOUND:                -0.440
REMARK SMILES CCCCCCCCCCCC(=O)[O-]
REMARK SMILES IDX 7 1 8 2 9 3 10 4 11 5 12 6 13 7 14 8 6 9 5 10 4 11 3 12 2 13
REMARK SMILES IDX 1 14
REMARK H PARENT
REMARK Flexibility Score: inf
ROOT
ATOM      1  C   UNL     1      15.979  -4.012  14.924  1.00  0.00     0.000 C 
ENDROOT
BRANCH   1   2
ATOM      2  C   UNL     1      15.605  -2.950  13.880  1.00  0.00     0.000 C 
BRANCH   2   3
ATOM      3  C   UNL     1      15.315  -1.573  14.502  1.00  0.00     0.000 C 
BRANCH   3   4
ATOM      4  C   UNL     1      16.516  -0.608  14.551  1.00  0.00     0.006 C 
BRANCH   4   5
ATOM      5  C   UNL     1      16.898  -0.151  15.971  1.00  0.00     0.053 C 
BRANCH   5   6
ATOM      6  C   UNL     1      17.752  -1.155  16.685  1.00  0.00     0.041 C 
ATOM      7  O   UNL     1      18.988  -1.222  16.446  1.00  0.00    -0.550 OA
ATOM      8  O   UNL     1      17.181  -2.046  17.585  1.00  0.00    -0.550 OA
ENDBRANCH   5   6
ENDBRANCH   4   5
ENDBRANCH   3   4
ENDBRANCH   2   3
ENDBRANCH   1   2
BRANCH   1   9
ATOM      9  C   UNL     1      16.662  -5.214  14.261  1.00  0.00     0.000 C 
BRANCH   9  10
ATOM     10  C   UNL     1      15.659  -6.348  14.011  1.00  0.00    -0.000 C 
BRANCH  10  11
ATOM     11  C   UNL     1      15.642  -6.821  12.546  1.00  0.00    -0.000 C 
BRANCH  11  12
ATOM     12  C   UNL     1      16.335  -5.874  11.545  1.00  0.00    -0.000 C 
BRANCH  12  13
ATOM     13  C   UNL     1      15.662  -5.781  10.165  1.00  0.00    -0.003 C 
ATOM     14  C   UNL     1      16.666  -5.736   9.014  1.00  0.00     0.004 C 
ENDBRANCH  12  13
ENDBRANCH  11  12
ENDBRANCH  10  11
ENDBRANCH   9  10
ENDBRANCH   1   9
TORSDOF 10
ENDMDL
MODEL 4
REMARK VINA RESULT:    -3.560     15.588     17.839
REMARK INTER + INTRA:          -6.081
REMARK INTER:                  -5.608
REMARK INTRA:                  -0.473
REMARK UNBOUND:                -0.440
REMARK SMILES CCCCCCCCCCCC(=O)[O-]
REMARK SMILES IDX 7 1 8 2 9 3 10 4 11 5 12 6 13 7 14 8 6 9 5 10 4 11 3 12 2 13
REMARK SMILES IDX 1 14
REMARK H PARENT
REMARK Flexibility Score: inf
ROOT
ATOM      1  C   UNL     1      15.992  -4.033  14.791  1.00  0.00     0.000 C 
ENDROOT
BRANCH   1   2
ATOM      2  C   UNL     1      15.645  -2.876  13.843  1.00  0.00     0.000 C 
BRANCH   2   3
ATOM      3  C   UNL     1      15.333  -1.565  14.584  1.00  0.00     0.000 C 
BRANCH   3   4
ATOM      4  C   UNL     1      16.476  -0.530  14.599  1.00  0.00     0.006 C 
BRANCH   4   5
ATOM      5  C   UNL     1      16.666   0.176  15.954  1.00  0.00     0.053 C 
BRANCH   5   6
ATOM      6  C   UNL     1      15.554   1.132  16.263  1.00  0.00     0.041 C 
ATOM      7  O   UNL     1      14.728   0.871  17.179  1.00  0.00    -0.550 OA
ATOM      8  O   UNL     1      15.400   2.293  15.515  1.00  0.00    -0.550 OA
ENDBRANCH   5   6
ENDBRANCH   4   5
ENDBRANCH   3   4
ENDBRANCH   2   3
ENDBRANCH   1   2
BRANCH   1   9
ATOM      9  C   UNL     1      15.938  -5.377  14.057  1.00  0.00     0.000 C 
BRANCH   9  10
ATOM     10  C   UNL     1      15.939  -5.174  12.536  1.00  0.00    -0.000 C 
BRANCH  10  11
ATOM     11  C   UNL     1      15.612  -6.462  11.758  1.00  0.00    -0.000 C 
BRANCH  11  12
ATOM     12  C   UNL     1      15.224  -6.252  10.280  1.00  0.00    -0.000 C 
BRANCH  12  13
ATOM     13  C   UNL     1      16.376  -5.807   9.363  1.00  0.00    -0.003 C 
ATOM     14  C   UNL     1      17.652  -6.620   9.571  1.00  0.00     0.004 C 
ENDBRANCH  12  13
ENDBRANCH  11  12
ENDBRANCH  10  11
ENDBRANCH   9  10
ENDBRANCH   1   9
TORSDOF 10
ENDMDL
MODEL 5
REMARK VINA RESULT:    -3.529     15.690     17.457
REMARK INTER + INTRA:          -6.031
REMARK INTER:                  -5.500
REMARK INTRA:                  -0.532
REMARK UNBOUND:                -0.440
REMARK SMILES CCCCCCCCCCCC(=O)[O-]
REMARK SMILES IDX 7 1 8 2 9 3 10 4 11 5 12 6 13 7 14 8 6 9 5 10 4 11 3 12 2 13
REMARK SMILES IDX 1 14
REMARK H PARENT
REMARK Flexibility Score: inf
ROOT
ATOM      1  C   UNL     1      15.780  -5.196  11.828  1.00  0.00     0.000 C 
ENDROOT
BRANCH   1   2
ATOM      2  C   UNL     1      15.083  -6.309  11.031  1.00  0.00     0.000 C 
BRANCH   2   3
ATOM      3  C   UNL     1      15.841  -6.696   9.750  1.00  0.00     0.000 C 
BRANCH   3   4
ATOM      4  C   UNL     1      17.158  -5.931   9.509  1.00  0.00     0.006 C 
BRANCH   4   5
ATOM      5  C   UNL     1      17.134  -5.013   8.273  1.00  0.00     0.053 C 
BRANCH   5   6
ATOM      6  C   UNL     1      18.508  -4.720   7.751  1.00  0.00     0.041 C 
ATOM      7  O   UNL     1      18.895  -3.529   7.615  1.00  0.00    -0.550 OA
ATOM      8  O   UNL     1      19.350  -5.759   7.375  1.00  0.00    -0.550 OA
ENDBRANCH   5   6
ENDBRANCH   4   5
ENDBRANCH   3   4
ENDBRANCH   2   3
ENDBRANCH   1   2
BRANCH   1   9
ATOM      9  C   UNL     1      16.023  -5.631  13.278  1.00  0.00     0.000 C 
BRANCH   9  10
ATOM     10  C   UNL     1      16.086  -4.416  14.213  1.00  0.00    -0.000 C 
BRANCH  10  11
ATOM     11  C   UNL     1      15.567  -3.125  13.554  1.00  0.00    -0.000 C 
BRANCH  11  12
ATOM     12  C   UNL     1      15.285  -1.962  14.527  1.00  0.00    -0.000 C 
BRANCH  12  13
ATOM     13  C   UNL     1      16.325  -0.829  14.504  1.00  0.00    -0.003 C 
ATOM     14  C   UNL     1      17.381  -0.967  15.599  1.00  0.00     0.004 C 
ENDBRANCH  12  13
ENDBRANCH  11  12
ENDBRANCH  10  11
ENDBRANCH   9  10
ENDBRANCH   1   9
TORSDOF 10
ENDMDL
MODEL 6
REMARK VINA RESULT:    -3.475     16.269     18.536
REMARK INTER + INTRA:          -5.947
REMARK INTER:                  -5.321
REMARK INTRA:                  -0.626
REMARK UNBOUND:                -0.440
REMARK SMILES CCCCCCCCCCCC(=O)[O-]
REMARK SMILES IDX 7 1 8 2 9 3 10 4 11 5 12 6 13 7 14 8 6 9 5 10 4 11 3 12 2 13
REMARK SMILES IDX 1 14
REMARK H PARENT
REMARK Flexibility Score: inf
ROOT
ATOM      1  C   UNL     1      16.067  -5.262  12.477  1.00  0.00     0.000 C 
ENDROOT
BRANCH   1   2
ATOM      2  C   UNL     1      16.701  -5.491  13.857  1.00  0.00     0.000 C 
BRANCH   2   3
ATOM      3  C   UNL     1      15.755  -5.146  15.018  1.00  0.00     0.000 C 
BRANCH   3   4
ATOM      4  C   UNL     1      16.210  -3.976  15.913  1.00  0.00     0.006 C 
BRANCH   4   5
ATOM      5  C   UNL     1      15.333  -2.716  15.794  1.00  0.00     0.053 C 
BRANCH   5   6
ATOM      6  C   UNL     1      15.759  -1.827  14.664  1.00  0.00     0.041 C 
ATOM      7  O   UNL     1      15.226  -1.945  13.528  1.00  0.00    -0.550 OA
ATOM      8  O   UNL     1      16.771  -0.894  14.851  1.00  0.00    -0.550 OA
ENDBRANCH   5   6
ENDBRANCH   4   5
ENDBRANCH   3   4
ENDBRANCH   2   3
ENDBRANCH   1   2
BRANCH   1   9
ATOM      9  C   UNL     1      15.434  -6.553  11.945  1.00  0.00     0.000 C 
BRANCH   9  10
ATOM     10  C   UNL     1      15.110  -6.431  10.449  1.00  0.00    -0.000 C 
BRANCH  10  11
ATOM     11  C   UNL     1      16.128  -5.565   9.685  1.00  0.00    -0.000 C 
BRANCH  11  12
ATOM     12  C   UNL     1      17.342  -6.330   9.118  1.00  0.00    -0.000 C 
BRANCH  12  13
ATOM     13  C   UNL     1      18.401  -5.452   8.430  1.00  0.00    -0.003 C 
ATOM     14  C   UNL     1      17.791  -4.378   7.531  1.00  0.00     0.004 C 
ENDBRANCH  12  13
ENDBRANCH  11  12
ENDBRANCH  10  11
ENDBRANCH   9  10
ENDBRANCH   1   9
TORSDOF 10
ENDMDL
MODEL 7
REMARK VINA RESULT:    -3.473      1.818      2.299
REMARK INTER + INTRA:          -5.943
REMARK INTER:                  -5.414
REMARK INTRA:                  -0.530
REMARK UNBOUND:                -0.440
REMARK SMILES CCCCCCCCCCCC(=O)[O-]
REMARK SMILES IDX 7 1 8 2 9 3 10 4 11 5 12 6 13 7 14 8 6 9 5 10 4 11 3 12 2 13
REMARK SMILES IDX 1 14
REMARK H PARENT
REMARK Flexibility Score: inf
ROOT
ATOM      1  C   UNL     1      23.150  10.876   5.762  1.00  0.00     0.000 C 
ENDROOT
BRANCH   1   2
ATOM      2  C   UNL     1      24.318  11.868   5.662  1.00  0.00     0.000 C 
BRANCH   2   3
ATOM      3  C   UNL     1      25.419  11.405   4.693  1.00  0.00     0.000 C 
BRANCH   3   4
ATOM      4  C   UNL     1      26.863  11.606   5.195  1.00  0.00     0.006 C 
BRANCH   4   5
ATOM      5  C   UNL     1      27.229  10.745   6.418  1.00  0.00     0.053 C 
BRANCH   5   6
ATOM      6  C   UNL     1      27.006   9.283   6.176  1.00  0.00     0.041 C 
ATOM      7  O   UNL     1      27.564   8.708   5.202  1.00  0.00    -0.550 OA
ATOM      8  O   UNL     1      26.152   8.559   6.999  1.00  0.00    -0.550 OA
ENDBRANCH   5   6
ENDBRANCH   4   5
ENDBRANCH   3   4
ENDBRANCH   2   3
ENDBRANCH   1   2
BRANCH   1   9
ATOM      9  C   UNL     1      22.908  10.460   7.217  1.00  0.00     0.000 C 
BRANCH   9  10
ATOM     10  C   UNL     1      21.653  11.141   7.781  1.00  0.00    -0.000 C 
BRANCH  10  11
ATOM     11  C   UNL     1      20.793  10.195   8.640  1.00  0.00    -0.000 C 
BRANCH  11  12
ATOM     12  C   UNL     1      19.369  10.704   8.946  1.00  0.00    -0.000 C 
BRANCH  12  13
ATOM     13  C   UNL     1      18.451   9.686   9.644  1.00  0.00    -0.003 C 
ATOM     14  C   UNL     1      18.891   8.239   9.425  1.00  0.00     0.004 C 
ENDBRANCH  12  13
ENDBRANCH  11  12
ENDBRANCH  10  11
ENDBRANCH   9  10
ENDBRANCH   1   9
TORSDOF 10
ENDMDL
MODEL 8
REMARK VINA RESULT:    -3.428      9.807     11.343
REMARK INTER + INTRA:          -5.872
REMARK INTER:                  -4.498
REMARK INTRA:                  -1.373
REMARK UNBOUND:                -0.440
REMARK SMILES CCCCCCCCCCCC(=O)[O-]
REMARK SMILES IDX 7 1 8 2 9 3 10 4 11 5 12 6 13 7 14 8 6 9 5 10 4 11 3 12 2 13
REMARK SMILES IDX 1 14
REMARK H PARENT
REMARK Flexibility Score: inf
ROOT
ATOM      1  C   UNL     1      24.510  -1.866   7.324  1.00  0.00     0.000 C 
ENDROOT
BRANCH   1   2
ATOM      2  C   UNL     1      25.466  -1.104   6.396  1.00  0.00     0.000 C 
BRANCH   2   3
ATOM      3  C   UNL     1      24.820   0.138   5.758  1.00  0.00     0.000 C 
BRANCH   3   4
ATOM      4  C   UNL     1      24.635   1.342   6.704  1.00  0.00     0.006 C 
BRANCH   4   5
ATOM      5  C   UNL     1      24.518   2.697   5.981  1.00  0.00     0.053 C 
BRANCH   5   6
ATOM      6  C   UNL     1      23.099   3.045   5.645  1.00  0.00     0.041 C 
ATOM      7  O   UNL     1      22.152   2.600   6.347  1.00  0.00    -0.550 OA
ATOM      8  O   UNL     1      22.816   3.828   4.532  1.00  0.00    -0.550 OA
ENDBRANCH   5   6
ENDBRANCH   4   5
ENDBRANCH   3   4
ENDBRANCH   2   3
ENDBRANCH   1   2
BRANCH   1   9
ATOM      9  C   UNL     1      25.095  -1.984   8.736  1.00  0.00     0.000 C 
BRANCH   9  10
ATOM     10  C   UNL     1      26.425  -1.225   8.845  1.00  0.00    -0.000 C 
BRANCH  10  11
ATOM     11  C   UNL     1      26.327   0.031   9.729  1.00  0.00    -0.000 C 
BRANCH  11  12
ATOM     12  C   UNL     1      27.245   1.198   9.310  1.00  0.00    -0.000 C 
BRANCH  12  13
ATOM     13  C   UNL     1      28.277   0.854   8.222  1.00  0.00    -0.003 C 
ATOM     14  C   UNL     1      28.279   1.853   7.066  1.00  0.00     0.004 C 
ENDBRANCH  12  13
ENDBRANCH  11  12
ENDBRANCH  10  11
ENDBRANCH   9  10
ENDBRANCH   1   9
TORSDOF 10
ENDMDL
MODEL 9
REMARK VINA RESULT:    -3.334     15.364     16.901
REMARK INTER + INTRA:          -5.722
REMARK INTER:                  -4.059
REMARK INTRA:                  -1.663
REMARK UNBOUND:                -0.440
REMARK SMILES CCCCCCCCCCCC(=O)[O-]
REMARK SMILES IDX 7 1 8 2 9 3 10 4 11 5 12 6 13 7 14 8 6 9 5 10 4 11 3 12 2 13
REMARK SMILES IDX 1 14
REMARK H PARENT
REMARK Flexibility Score: inf
ROOT
ATOM      1  C   UNL     1      15.524   0.366  16.679  1.00  0.00     0.000 C 
ENDROOT
BRANCH   1   2
ATOM      2  C   UNL     1      16.578   0.475  17.790  1.00  0.00     0.000 C 
BRANCH   2   3
ATOM      3  C   UNL     1      16.770  -0.838  18.567  1.00  0.00     0.000 C 
BRANCH   3   4
ATOM      4  C   UNL     1      17.862  -1.775  18.015  1.00  0.00     0.006 C 
BRANCH   4   5
ATOM      5  C   UNL     1      18.908  -1.070  17.131  1.00  0.00     0.053 C 
BRANCH   5   6
ATOM      6  C   UNL     1      20.299  -1.203  17.674  1.00  0.00     0.041 C 
ATOM      7  O   UNL     1      20.524  -1.012  18.899  1.00  0.00    -0.550 OA
ATOM      8  O   UNL     1      21.357  -1.497  16.822  1.00  0.00    -0.550 OA
ENDBRANCH   5   6
ENDBRANCH   4   5
ENDBRANCH   3   4
ENDBRANCH   2   3
ENDBRANCH   1   2
BRANCH   1   9
ATOM      9  C   UNL     1      16.123   0.735  15.317  1.00  0.00     0.000 C 
BRANCH   9  10
ATOM     10  C   UNL     1      16.357  -0.517  14.461  1.00  0.00    -0.000 C 
BRANCH  10  11
ATOM     11  C   UNL     1      15.399  -1.670  14.811  1.00  0.00    -0.000 C 
BRANCH  11  12
ATOM     12  C   UNL     1      16.070  -3.049  14.978  1.00  0.00    -0.000 C 
BRANCH  12  13
ATOM     13  C   UNL     1      15.489  -3.923  16.103  1.00  0.00    -0.003 C 
ATOM     14  C   UNL     1      14.450  -3.190  16.950  1.00  0.00     0.004 C 
ENDBRANCH  12  13
ENDBRANCH  11  12
ENDBRANCH  10  11
ENDBRANCH   9  10
ENDBRANCH   1   9
TORSDOF 10
ENDMDL
