MODEL 1
REMARK VINA RESULT:    -2.730      0.000      0.000
REMARK INTER + INTRA:          -3.779
REMARK INTER:                  -3.608
REMARK INTRA:                  -0.171
REMARK UNBOUND:                -0.171
REMARK SMILES CCCCCCCO
REMARK SMILES IDX 5 1 4 2 3 3 2 4 1 5 6 6 7 7 8 8
REMARK H PARENT 8 9
REMARK Flexibility Score: inf
ROOT
ATOM      1  C   UNL     1     138.224 148.499 138.656  1.00  0.00     0.002 C 
ENDROOT
BRANCH   1   2
ATOM      2  C   UNL     1     139.396 148.741 137.692  1.00  0.00     0.000 C 
BRANCH   2   3
ATOM      3  C   UNL     1     139.870 147.453 137.001  1.00  0.00    -0.000 C 
BRANCH   3   4
ATOM      4  C   UNL     1     139.872 146.241 137.943  1.00  0.00    -0.003 C 
ATOM      5  C   UNL     1     139.554 144.955 137.186  1.00  0.00     0.004 C 
ENDBRANCH   3   4
ENDBRANCH   2   3
ENDBRANCH   1   2
BRANCH   1   6
ATOM      6  C   UNL     1     136.936 149.143 138.126  1.00  0.00     0.028 C 
BRANCH   6   7
ATOM      7  C   UNL     1     135.781 148.142 138.075  1.00  0.00     0.156 C 
BRANCH   7   8
ATOM      8  O   UNL     1     134.950 148.421 136.982  1.00  0.00    -0.396 OA
ATOM      9  H   UNL     1     134.624 149.349 137.115  1.00  0.00     0.210 HD
ENDBRANCH   7   8
ENDBRANCH   6   7
ENDBRANCH   1   6
TORSDOF 6
ENDMDL
MODEL 2
REMARK VINA RESULT:    -2.718     13.242     15.818
REMARK INTER + INTRA:          -3.762
REMARK INTER:                  -3.596
REMARK INTRA:                  -0.167
REMARK UNBOUND:                -0.171
REMARK SMILES CCCCCCCO
REMARK SMILES IDX 5 1 4 2 3 3 2 4 1 5 6 6 7 7 8 8
REMARK H PARENT 8 9
REMARK Flexibility Score: inf
ROOT
ATOM      1  C   UNL     1     143.629 133.013 138.553  1.00  0.00     0.002 C 
ENDROOT
BRANCH   1   2
ATOM      2  C   UNL     1     142.528 132.541 137.591  1.00  0.00     0.000 C 
BRANCH   2   3
ATOM      3  C   UNL     1     141.568 133.672 137.187  1.00  0.00    -0.000 C 
BRANCH   3   4
ATOM      4  C   UNL     1     141.745 134.933 138.045  1.00  0.00    -0.003 C 
ATOM      5  C   UNL     1     141.989 136.161 137.173  1.00  0.00     0.004 C 
ENDBRANCH   3   4
ENDBRANCH   2   3
ENDBRANCH   1   2
BRANCH   1   6
ATOM      6  C   UNL     1     144.919 132.206 138.349  1.00  0.00     0.028 C 
BRANCH   6   7
ATOM      7  C   UNL     1     146.142 133.115 138.218  1.00  0.00     0.156 C 
BRANCH   7   8
ATOM      8  O   UNL     1     146.589 133.133 136.891  1.00  0.00    -0.396 OA
ATOM      9  H   UNL     1     146.280 132.281 136.486  1.00  0.00     0.210 HD
ENDBRANCH   7   8
ENDBRANCH   6   7
ENDBRANCH   1   6
TORSDOF 6
ENDMDL
MODEL 3
REMARK VINA RESULT:    -2.696     10.500     11.272
REMARK INTER + INTRA:          -3.733
REMARK INTER:                  -3.573
REMARK INTRA:                  -0.160
REMARK UNBOUND:                -0.171
REMARK SMILES CCCCCCCO
REMARK SMILES IDX 5 1 4 2 3 3 2 4 1 5 6 6 7 7 8 8
REMARK H PARENT 8 9
REMARK Flexibility Score: inf
ROOT
ATOM      1  C   UNL     1     148.554 143.505 138.393  1.00  0.00     0.002 C 
ENDROOT
BRANCH   1   2
ATOM      2  C   UNL     1     149.006 142.263 137.610  1.00  0.00     0.000 C 
BRANCH   2   3
ATOM      3  C   UNL     1     147.830 141.365 137.193  1.00  0.00    -0.000 C 
BRANCH   3   4
ATOM      4  C   UNL     1     146.478 141.889 137.697  1.00  0.00    -0.003 C 
ATOM      5  C   UNL     1     145.842 140.912 138.681  1.00  0.00     0.004 C 
ENDBRANCH   3   4
ENDBRANCH   2   3
ENDBRANCH   1   2
BRANCH   1   6
ATOM      6  C   UNL     1     149.437 144.716 138.058  1.00  0.00     0.028 C 
BRANCH   6   7
ATOM      7  C   UNL     1     148.660 146.029 138.156  1.00  0.00     0.156 C 
BRANCH   7   8
ATOM      8  O   UNL     1     148.340 146.497 136.875  1.00  0.00    -0.396 OA
ATOM      9  H   UNL     1     148.803 145.893 136.239  1.00  0.00     0.210 HD
ENDBRANCH   7   8
ENDBRANCH   6   7
ENDBRANCH   1   6
TORSDOF 6
ENDMDL
MODEL 4
REMARK VINA RESULT:    -2.679     14.671     15.916
REMARK INTER + INTRA:          -3.711
REMARK INTER:                  -3.441
REMARK INTRA:                  -0.271
REMARK UNBOUND:                -0.171
REMARK SMILES CCCCCCCO
REMARK SMILES IDX 5 1 4 2 3 3 2 4 1 5 6 6 7 7 8 8
REMARK H PARENT 8 9
REMARK Flexibility Score: inf
ROOT
ATOM      1  C   UNL     1     145.438 134.424 138.847  1.00  0.00     0.002 C 
ENDROOT
BRANCH   1   2
ATOM      2  C   UNL     1     144.030 135.026 138.974  1.00  0.00     0.000 C 
BRANCH   2   3
ATOM      3  C   UNL     1     142.942 133.957 139.157  1.00  0.00    -0.000 C 
BRANCH   3   4
ATOM      4  C   UNL     1     141.812 134.080 138.124  1.00  0.00    -0.003 C 
ATOM      5  C   UNL     1     141.749 132.846 137.228  1.00  0.00     0.004 C 
ENDBRANCH   3   4
ENDBRANCH   2   3
ENDBRANCH   1   2
BRANCH   1   6
ATOM      6  C   UNL     1     145.394 132.895 138.972  1.00  0.00     0.028 C 
BRANCH   6   7
ATOM      7  C   UNL     1     146.084 132.210 137.792  1.00  0.00     0.156 C 
BRANCH   7   8
ATOM      8  O   UNL     1     146.647 133.168 136.940  1.00  0.00    -0.396 OA
ATOM      9  H   UNL     1     146.160 134.014 137.119  1.00  0.00     0.210 HD
ENDBRANCH   7   8
ENDBRANCH   6   7
ENDBRANCH   1   6
TORSDOF 6
ENDMDL
MODEL 5
REMARK VINA RESULT:    -2.670      9.935     11.359
REMARK INTER + INTRA:          -3.700
REMARK INTER:                  -3.547
REMARK INTRA:                  -0.153
REMARK UNBOUND:                -0.171
REMARK SMILES CCCCCCCO
REMARK SMILES IDX 5 1 4 2 3 3 2 4 1 5 6 6 7 7 8 8
REMARK H PARENT 8 9
REMARK Flexibility Score: inf
ROOT
ATOM      1  C   UNL     1     132.925 137.745 138.246  1.00  0.00     0.002 C 
ENDROOT
BRANCH   1   2
ATOM      2  C   UNL     1     132.457 139.027 137.540  1.00  0.00     0.000 C 
BRANCH   2   3
ATOM      3  C   UNL     1     133.622 139.956 137.164  1.00  0.00    -0.000 C 
BRANCH   3   4
ATOM      4  C   UNL     1     134.820 139.818 138.114  1.00  0.00    -0.003 C 
ATOM      5  C   UNL     1     136.109 139.560 137.340  1.00  0.00     0.004 C 
ENDBRANCH   3   4
ENDBRANCH   2   3
ENDBRANCH   1   2
BRANCH   1   6
ATOM      6  C   UNL     1     131.916 136.607 138.041  1.00  0.00     0.028 C 
BRANCH   6   7
ATOM      7  C   UNL     1     132.591 135.236 138.086  1.00  0.00     0.156 C 
BRANCH   7   8
ATOM      8  O   UNL     1     133.248 134.981 136.875  1.00  0.00    -0.396 OA
ATOM      9  H   UNL     1     134.041 135.578 136.863  1.00  0.00     0.210 HD
ENDBRANCH   7   8
ENDBRANCH   6   7
ENDBRANCH   1   6
TORSDOF 6
ENDMDL
MODEL 6
REMARK VINA RESULT:    -2.605     10.194     11.683
REMARK INTER + INTRA:          -3.613
REMARK INTER:                  -3.353
REMARK INTRA:                  -0.260
REMARK UNBOUND:                -0.171
REMARK SMILES CCCCCCCO
REMARK SMILES IDX 5 1 4 2 3 3 2 4 1 5 6 6 7 7 8 8
REMARK H PARENT 8 9
REMARK Flexibility Score: inf
ROOT
ATOM      1  C   UNL     1     132.739 137.445 139.175  1.00  0.00     0.002 C 
ENDROOT
BRANCH   1   2
ATOM      2  C   UNL     1     134.262 137.538 138.995  1.00  0.00     0.000 C 
BRANCH   2   3
ATOM      3  C   UNL     1     134.665 138.436 137.814  1.00  0.00    -0.000 C 
BRANCH   3   4
ATOM      4  C   UNL     1     134.150 139.875 137.962  1.00  0.00    -0.003 C 
ATOM      5  C   UNL     1     133.132 140.209 136.875  1.00  0.00     0.004 C 
ENDBRANCH   3   4
ENDBRANCH   2   3
ENDBRANCH   1   2
BRANCH   1   6
ATOM      6  C   UNL     1     132.099 136.647 138.030  1.00  0.00     0.028 C 
BRANCH   6   7
ATOM      7  C   UNL     1     132.599 135.202 137.997  1.00  0.00     0.156 C 
BRANCH   7   8
ATOM      8  O   UNL     1     133.415 134.999 136.877  1.00  0.00    -0.396 OA
ATOM      9  H   UNL     1     133.490 134.016 136.766  1.00  0.00     0.210 HD
ENDBRANCH   7   8
ENDBRANCH   6   7
ENDBRANCH   1   6
TORSDOF 6
ENDMDL
MODEL 7
REMARK VINA RESULT:    -2.558      9.880     10.675
REMARK INTER + INTRA:          -3.552
REMARK INTER:                  -3.363
REMARK INTRA:                  -0.189
REMARK UNBOUND:                -0.171
REMARK SMILES CCCCCCCO
REMARK SMILES IDX 5 1 4 2 3 3 2 4 1 5 6 6 7 7 8 8
REMARK H PARENT 8 9
REMARK Flexibility Score: inf
ROOT
ATOM      1  C   UNL     1     147.761 144.603 139.711  1.00  0.00     0.002 C 
ENDROOT
BRANCH   1   2
ATOM      2  C   UNL     1     146.552 143.756 139.286  1.00  0.00     0.000 C 
BRANCH   2   3
ATOM      3  C   UNL     1     146.832 142.909 138.035  1.00  0.00    -0.000 C 
BRANCH   3   4
ATOM      4  C   UNL     1     148.030 141.966 138.214  1.00  0.00    -0.003 C 
ATOM      5  C   UNL     1     148.481 141.390 136.875  1.00  0.00     0.004 C 
ENDBRANCH   3   4
ENDBRANCH   2   3
ENDBRANCH   1   2
BRANCH   1   6
ATOM      6  C   UNL     1     147.655 146.029 139.153  1.00  0.00     0.028 C 
BRANCH   6   7
ATOM      7  C   UNL     1     148.779 146.335 138.162  1.00  0.00     0.156 C 
BRANCH   7   8
ATOM      8  O   UNL     1     148.249 146.538 136.880  1.00  0.00    -0.396 OA
ATOM      9  H   UNL     1     147.518 147.201 136.988  1.00  0.00     0.210 HD
ENDBRANCH   7   8
ENDBRANCH   6   7
ENDBRANCH   1   6
TORSDOF 6
ENDMDL
MODEL 8
REMARK VINA RESULT:    -2.518     10.381     11.550
REMARK INTER + INTRA:          -3.498
REMARK INTER:                  -3.230
REMARK INTRA:                  -0.268
REMARK UNBOUND:                -0.171
REMARK SMILES CCCCCCCO
REMARK SMILES IDX 5 1 4 2 3 3 2 4 1 5 6 6 7 7 8 8
REMARK H PARENT 8 9
REMARK Flexibility Score: inf
ROOT
ATOM      1  C   UNL     1     133.588 138.087 138.051  1.00  0.00     0.002 C 
ENDROOT
BRANCH   1   2
ATOM      2  C   UNL     1     134.657 138.116 139.154  1.00  0.00     0.000 C 
BRANCH   2   3
ATOM      3  C   UNL     1     136.074 138.338 138.601  1.00  0.00    -0.000 C 
BRANCH   3   4
ATOM      4  C   UNL     1     137.049 137.223 139.008  1.00  0.00    -0.003 C 
ATOM      5  C   UNL     1     136.480 136.383 140.147  1.00  0.00     0.004 C 
ENDBRANCH   3   4
ENDBRANCH   2   3
ENDBRANCH   1   2
BRANCH   1   6
ATOM      6  C   UNL     1     132.666 136.871 138.212  1.00  0.00     0.028 C 
BRANCH   6   7
ATOM      7  C   UNL     1     133.440 135.556 138.114  1.00  0.00     0.156 C 
BRANCH   7   8
ATOM      8  O   UNL     1     133.202 134.947 136.875  1.00  0.00    -0.396 OA
ATOM      9  H   UNL     1     132.427 134.342 137.011  1.00  0.00     0.210 HD
ENDBRANCH   7   8
ENDBRANCH   6   7
ENDBRANCH   1   6
TORSDOF 6
ENDMDL
