MODEL 1
REMARK VINA RESULT:    -5.580      0.000      0.000
REMARK INTER + INTRA:          -5.906
REMARK INTER:                  -5.906
REMARK INTRA:                   0.000
REMARK UNBOUND:                 0.000
REMARK SMILES O=c1ccc2cc(O)c(O)cc2o1
REMARK SMILES IDX 4 1 3 2 2 3 1 4 13 5 12 6 11 7 9 8 7 9 6 10 5 11 8 12 10 14
REMARK H PARENT 8 13 10 15
REMARK Flexibility Score: inf
ROOT
ATOM      1  C   UNL     1      -3.490  14.008   7.632  1.00  0.00     0.019 A 
ATOM      2  C   UNL     1      -3.009  14.675   8.757  1.00  0.00     0.094 A 
ATOM      3  C   UNL     1      -3.810  15.650   9.362  1.00  0.00     0.336 A 
ATOM      4  O   UNL     1      -3.394  16.264  10.378  1.00  0.00    -0.246 OA
ATOM      5  O   UNL     1      -5.012  15.934   8.867  1.00  0.00    -0.423 OA
ATOM      6  C   UNL     1      -5.509  15.322   7.795  1.00  0.00     0.142 A 
ATOM      7  C   UNL     1      -6.779  15.662   7.321  1.00  0.00     0.098 A 
ATOM      8  C   UNL     1      -7.308  15.019   6.192  1.00  0.00     0.161 A 
ATOM      9  C   UNL     1      -6.557  14.027   5.532  1.00  0.00     0.158 A 
ATOM     10  C   UNL     1      -5.285  13.685   6.005  1.00  0.00     0.062 A 
ATOM     11  C   UNL     1      -4.756  14.326   7.135  1.00  0.00     0.022 A 
ENDROOT
BRANCH   9  12
ATOM     12  O   UNL     1      -7.059  13.373   4.409  1.00  0.00    -0.504 OA
ATOM     13  H   UNL     1      -8.015  13.495   4.096  1.00  0.00     0.293 HD
ENDBRANCH   9  12
BRANCH   8  14
ATOM     14  O   UNL     1      -8.575  15.361   5.721  1.00  0.00    -0.504 OA
ATOM     15  H   UNL     1      -9.402  15.249   6.296  1.00  0.00     0.293 HD
ENDBRANCH   8  14
TORSDOF 2
ENDMDL
MODEL 2
REMARK VINA RESULT:    -5.566      2.472      3.780
REMARK INTER + INTRA:          -5.892
REMARK INTER:                  -5.892
REMARK INTRA:                   0.000
REMARK UNBOUND:                 0.000
REMARK SMILES O=c1ccc2cc(O)c(O)cc2o1
REMARK SMILES IDX 4 1 3 2 2 3 1 4 13 5 12 6 11 7 9 8 7 9 6 10 5 11 8 12 10 14
REMARK H PARENT 8 13 10 15
REMARK Flexibility Score: inf
ROOT
ATOM      1  C   UNL     1      -7.279  13.909   5.023  1.00  0.00     0.019 A 
ATOM      2  C   UNL     1      -5.945  13.657   5.343  1.00  0.00     0.094 A 
ATOM      3  C   UNL     1      -5.328  14.428   6.334  1.00  0.00     0.336 A 
ATOM      4  O   UNL     1      -4.126  14.217   6.638  1.00  0.00    -0.246 OA
ATOM      5  O   UNL     1      -6.007  15.387   6.960  1.00  0.00    -0.423 OA
ATOM      6  C   UNL     1      -7.280  15.660   6.685  1.00  0.00     0.142 A 
ATOM      7  C   UNL     1      -7.942  16.680   7.376  1.00  0.00     0.098 A 
ATOM      8  C   UNL     1      -9.284  16.972   7.090  1.00  0.00     0.161 A 
ATOM      9  C   UNL     1      -9.968  16.236   6.104  1.00  0.00     0.158 A 
ATOM     10  C   UNL     1      -9.308  15.215   5.411  1.00  0.00     0.062 A 
ATOM     11  C   UNL     1      -7.967  14.922   5.697  1.00  0.00     0.022 A 
ENDROOT
BRANCH   9  12
ATOM     12  O   UNL     1     -11.302  16.505   5.801  1.00  0.00    -0.504 OA
ATOM     13  H   UNL     1     -11.613  16.691   4.855  1.00  0.00     0.293 HD
ENDBRANCH   9  12
BRANCH   8  14
ATOM     14  O   UNL     1      -9.940  17.989   7.781  1.00  0.00    -0.504 OA
ATOM     15  H   UNL     1     -10.151  18.879   7.342  1.00  0.00     0.293 HD
ENDBRANCH   8  14
TORSDOF 2
ENDMDL
MODEL 3
REMARK VINA RESULT:    -5.427      1.361      4.622
REMARK INTER + INTRA:          -5.745
REMARK INTER:                  -5.745
REMARK INTRA:                   0.000
REMARK UNBOUND:                 0.000
REMARK SMILES O=c1ccc2cc(O)c(O)cc2o1
REMARK SMILES IDX 4 1 3 2 2 3 1 4 13 5 12 6 11 7 9 8 7 9 6 10 5 11 8 12 10 14
REMARK H PARENT 8 13 10 15
REMARK Flexibility Score: inf
ROOT
ATOM      1  C   UNL     1      -4.777  13.993   5.766  1.00  0.00     0.019 A 
ATOM      2  C   UNL     1      -6.004  13.616   5.222  1.00  0.00     0.094 A 
ATOM      3  C   UNL     1      -7.137  13.611   6.042  1.00  0.00     0.336 A 
ATOM      4  O   UNL     1      -8.254  13.274   5.571  1.00  0.00    -0.246 OA
ATOM      5  O   UNL     1      -7.042  13.962   7.323  1.00  0.00    -0.423 OA
ATOM      6  C   UNL     1      -5.891  14.328   7.882  1.00  0.00     0.142 A 
ATOM      7  C   UNL     1      -5.852  14.687   9.232  1.00  0.00     0.098 A 
ATOM      8  C   UNL     1      -4.642  15.074   9.826  1.00  0.00     0.161 A 
ATOM      9  C   UNL     1      -3.461  15.102   9.060  1.00  0.00     0.158 A 
ATOM     10  C   UNL     1      -3.497  14.743   7.708  1.00  0.00     0.062 A 
ATOM     11  C   UNL     1      -4.707  14.357   7.113  1.00  0.00     0.022 A 
ENDROOT
BRANCH   9  12
ATOM     12  O   UNL     1      -2.245  15.483   9.626  1.00  0.00    -0.504 OA
ATOM     13  H   UNL     1      -1.535  15.976   9.097  1.00  0.00     0.293 HD
ENDBRANCH   9  12
BRANCH   8  14
ATOM     14  O   UNL     1      -4.607  15.431  11.174  1.00  0.00    -0.504 OA
ATOM     15  H   UNL     1      -5.309  15.104  11.828  1.00  0.00     0.293 HD
ENDBRANCH   8  14
TORSDOF 2
ENDMDL
MODEL 4
REMARK VINA RESULT:    -5.393      2.326      4.542
REMARK INTER + INTRA:          -5.708
REMARK INTER:                  -5.708
REMARK INTRA:                   0.000
REMARK UNBOUND:                 0.000
REMARK SMILES O=c1ccc2cc(O)c(O)cc2o1
REMARK SMILES IDX 4 1 3 2 2 3 1 4 13 5 12 6 11 7 9 8 7 9 6 10 5 11 8 12 10 14
REMARK H PARENT 8 13 10 15
REMARK Flexibility Score: inf
ROOT
ATOM      1  C   UNL     1      -9.476  15.553   5.370  1.00  0.00     0.019 A 
ATOM      2  C   UNL     1     -10.228  16.373   6.209  1.00  0.00     0.094 A 
ATOM      3  C   UNL     1      -9.740  16.666   7.487  1.00  0.00     0.336 A 
ATOM      4  O   UNL     1     -10.403  17.404   8.260  1.00  0.00    -0.246 OA
ATOM      5  O   UNL     1      -8.575  16.166   7.893  1.00  0.00    -0.423 OA
ATOM      6  C   UNL     1      -7.826  15.379   7.125  1.00  0.00     0.142 A 
ATOM      7  C   UNL     1      -6.611  14.883   7.605  1.00  0.00     0.098 A 
ATOM      8  C   UNL     1      -5.817  14.053   6.799  1.00  0.00     0.161 A 
ATOM      9  C   UNL     1      -6.247  13.717   5.501  1.00  0.00     0.158 A 
ATOM     10  C   UNL     1      -7.463  14.212   5.018  1.00  0.00     0.062 A 
ATOM     11  C   UNL     1      -8.256  15.042   5.822  1.00  0.00     0.022 A 
ENDROOT
BRANCH   9  12
ATOM     12  O   UNL     1      -5.477  12.894   4.679  1.00  0.00    -0.504 OA
ATOM     13  H   UNL     1      -4.913  12.138   5.050  1.00  0.00     0.293 HD
ENDBRANCH   9  12
BRANCH   8  14
ATOM     14  O   UNL     1      -4.606  13.561   7.282  1.00  0.00    -0.504 OA
ATOM     15  H   UNL     1      -4.541  13.101   8.183  1.00  0.00     0.293 HD
ENDBRANCH   8  14
TORSDOF 2
ENDMDL
MODEL 5
REMARK VINA RESULT:    -5.319      2.399      5.165
REMARK INTER + INTRA:          -5.630
REMARK INTER:                  -5.630
REMARK INTRA:                   0.000
REMARK UNBOUND:                 0.000
REMARK SMILES O=c1ccc2cc(O)c(O)cc2o1
REMARK SMILES IDX 4 1 3 2 2 3 1 4 13 5 12 6 11 7 9 8 7 9 6 10 5 11 8 12 10 14
REMARK H PARENT 8 13 10 15
REMARK Flexibility Score: inf
ROOT
ATOM      1  C   UNL     1      -8.543  16.923   7.185  1.00  0.00     0.019 A 
ATOM      2  C   UNL     1      -9.906  17.048   6.922  1.00  0.00     0.094 A 
ATOM      3  C   UNL     1     -10.508  16.157   6.027  1.00  0.00     0.336 A 
ATOM      4  O   UNL     1     -11.737  16.252   5.775  1.00  0.00    -0.246 OA
ATOM      5  O   UNL     1      -9.787  15.206   5.437  1.00  0.00    -0.423 OA
ATOM      6  C   UNL     1      -8.484  15.053   5.659  1.00  0.00     0.142 A 
ATOM      7  C   UNL     1      -7.778  14.035   5.011  1.00  0.00     0.098 A 
ATOM      8  C   UNL     1      -6.405  13.869   5.242  1.00  0.00     0.161 A 
ATOM      9  C   UNL     1      -5.733  14.730   6.131  1.00  0.00     0.158 A 
ATOM     10  C   UNL     1      -6.438  15.749   6.782  1.00  0.00     0.062 A 
ATOM     11  C   UNL     1      -7.811  15.915   6.552  1.00  0.00     0.022 A 
ENDROOT
BRANCH   9  12
ATOM     12  O   UNL     1      -4.369  14.586   6.379  1.00  0.00    -0.504 OA
ATOM     13  H   UNL     1      -3.986  14.608   7.317  1.00  0.00     0.293 HD
ENDBRANCH   9  12
BRANCH   8  14
ATOM     14  O   UNL     1      -5.704  12.853   4.593  1.00  0.00    -0.504 OA
ATOM     15  H   UNL     1      -5.400  12.949   3.631  1.00  0.00     0.293 HD
ENDBRANCH   8  14
TORSDOF 2
ENDMDL
MODEL 6
REMARK VINA RESULT:    -5.293      7.704      8.825
REMARK INTER + INTRA:          -5.602
REMARK INTER:                  -5.602
REMARK INTRA:                   0.000
REMARK UNBOUND:                 0.000
REMARK SMILES O=c1ccc2cc(O)c(O)cc2o1
REMARK SMILES IDX 4 1 3 2 2 3 1 4 13 5 12 6 11 7 9 8 7 9 6 10 5 11 8 12 10 14
REMARK H PARENT 8 13 10 15
REMARK Flexibility Score: inf
ROOT
ATOM      1  C   UNL     1     -10.262  12.600  12.852  1.00  0.00     0.019 A 
ATOM      2  C   UNL     1     -11.146  13.555  13.350  1.00  0.00     0.094 A 
ATOM      3  C   UNL     1     -10.780  14.297  14.478  1.00  0.00     0.336 A 
ATOM      4  O   UNL     1     -11.564  15.164  14.943  1.00  0.00    -0.246 OA
ATOM      5  O   UNL     1      -9.604  14.091  15.066  1.00  0.00    -0.423 OA
ATOM      6  C   UNL     1      -8.731  13.189  14.624  1.00  0.00     0.142 A 
ATOM      7  C   UNL     1      -7.509  13.016  15.283  1.00  0.00     0.098 A 
ATOM      8  C   UNL     1      -6.585  12.068  14.821  1.00  0.00     0.161 A 
ATOM      9  C   UNL     1      -6.887  11.285  13.690  1.00  0.00     0.158 A 
ATOM     10  C   UNL     1      -8.109  11.456  13.029  1.00  0.00     0.062 A 
ATOM     11  C   UNL     1      -9.033  12.405  13.490  1.00  0.00     0.022 A 
ENDROOT
BRANCH   9  12
ATOM     12  O   UNL     1      -5.986  10.336  13.211  1.00  0.00    -0.504 OA
ATOM     13  H   UNL     1      -5.876   9.428  13.647  1.00  0.00     0.293 HD
ENDBRANCH   9  12
BRANCH   8  14
ATOM     14  O   UNL     1      -5.368  11.898  15.481  1.00  0.00    -0.504 OA
ATOM     15  H   UNL     1      -4.498  12.231  15.082  1.00  0.00     0.293 HD
ENDBRANCH   8  14
TORSDOF 2
ENDMDL
MODEL 7
REMARK VINA RESULT:    -5.287      2.931      4.064
REMARK INTER + INTRA:          -5.596
REMARK INTER:                  -5.596
REMARK INTRA:                   0.000
REMARK UNBOUND:                 0.000
REMARK SMILES O=c1ccc2cc(O)c(O)cc2o1
REMARK SMILES IDX 4 1 3 2 2 3 1 4 13 5 12 6 11 7 9 8 7 9 6 10 5 11 8 12 10 14
REMARK H PARENT 8 13 10 15
REMARK Flexibility Score: inf
ROOT
ATOM      1  C   UNL     1      -0.701  14.383   9.467  1.00  0.00     0.019 A 
ATOM      2  C   UNL     1       0.532  15.024   9.359  1.00  0.00     0.094 A 
ATOM      3  C   UNL     1       0.687  16.041   8.410  1.00  0.00     0.336 A 
ATOM      4  O   UNL     1       1.791  16.631   8.296  1.00  0.00    -0.246 OA
ATOM      5  O   UNL     1      -0.329  16.388   7.623  1.00  0.00    -0.423 OA
ATOM      6  C   UNL     1      -1.522  15.801   7.693  1.00  0.00     0.142 A 
ATOM      7  C   UNL     1      -2.553  16.209   6.841  1.00  0.00     0.098 A 
ATOM      8  C   UNL     1      -3.812  15.595   6.912  1.00  0.00     0.161 A 
ATOM      9  C   UNL     1      -4.040  14.564   7.843  1.00  0.00     0.158 A 
ATOM     10  C   UNL     1      -3.010  14.155   8.697  1.00  0.00     0.062 A 
ATOM     11  C   UNL     1      -1.751  14.769   8.629  1.00  0.00     0.022 A 
ENDROOT
BRANCH   9  12
ATOM     12  O   UNL     1      -5.282  13.938   7.934  1.00  0.00    -0.504 OA
ATOM     13  H   UNL     1      -6.142  14.460   8.058  1.00  0.00     0.293 HD
ENDBRANCH   9  12
BRANCH   8  14
ATOM     14  O   UNL     1      -4.838  16.003   6.060  1.00  0.00    -0.504 OA
ATOM     15  H   UNL     1      -5.180  16.957   6.061  1.00  0.00     0.293 HD
ENDBRANCH   8  14
TORSDOF 2
ENDMDL
MODEL 8
REMARK VINA RESULT:    -5.281      1.197      2.293
REMARK INTER + INTRA:          -5.590
REMARK INTER:                  -5.590
REMARK INTRA:                   0.000
REMARK UNBOUND:                 0.000
REMARK SMILES O=c1ccc2cc(O)c(O)cc2o1
REMARK SMILES IDX 4 1 3 2 2 3 1 4 13 5 12 6 11 7 9 8 7 9 6 10 5 11 8 12 10 14
REMARK H PARENT 8 13 10 15
REMARK Flexibility Score: inf
ROOT
ATOM      1  C   UNL     1      -4.643  16.215   8.829  1.00  0.00     0.019 A 
ATOM      2  C   UNL     1      -3.366  15.876   9.274  1.00  0.00     0.094 A 
ATOM      3  C   UNL     1      -2.684  14.830   8.643  1.00  0.00     0.336 A 
ATOM      4  O   UNL     1      -1.531  14.508   9.029  1.00  0.00    -0.246 OA
ATOM      5  O   UNL     1      -3.249  14.169   7.635  1.00  0.00    -0.423 OA
ATOM      6  C   UNL     1      -4.465  14.460   7.180  1.00  0.00     0.142 A 
ATOM      7  C   UNL     1      -5.007  13.732   6.117  1.00  0.00     0.098 A 
ATOM      8  C   UNL     1      -6.289  14.035   5.633  1.00  0.00     0.161 A 
ATOM      9  C   UNL     1      -7.033  15.076   6.220  1.00  0.00     0.158 A 
ATOM     10  C   UNL     1      -6.493  15.806   7.284  1.00  0.00     0.062 A 
ATOM     11  C   UNL     1      -5.211  15.505   7.768  1.00  0.00     0.022 A 
ENDROOT
BRANCH   9  12
ATOM     12  O   UNL     1      -8.308  15.398   5.758  1.00  0.00    -0.504 OA
ATOM     13  H   UNL     1      -8.913  14.711   5.321  1.00  0.00     0.293 HD
ENDBRANCH   9  12
BRANCH   8  14
ATOM     14  O   UNL     1      -6.826  13.306   4.572  1.00  0.00    -0.504 OA
ATOM     15  H   UNL     1      -7.826  13.254   4.418  1.00  0.00     0.293 HD
ENDBRANCH   8  14
TORSDOF 2
ENDMDL
MODEL 9
REMARK VINA RESULT:    -5.275      7.565      8.939
REMARK INTER + INTRA:          -5.584
REMARK INTER:                  -5.584
REMARK INTRA:                   0.000
REMARK UNBOUND:                 0.000
REMARK SMILES O=c1ccc2cc(O)c(O)cc2o1
REMARK SMILES IDX 4 1 3 2 2 3 1 4 13 5 12 6 11 7 9 8 7 9 6 10 5 11 8 12 10 14
REMARK H PARENT 8 13 10 15
REMARK Flexibility Score: inf
ROOT
ATOM      1  C   UNL     1      -9.713  13.977  14.675  1.00  0.00     0.019 A 
ATOM      2  C   UNL     1     -10.892  13.999  13.931  1.00  0.00     0.094 A 
ATOM      3  C   UNL     1     -11.059  13.073  12.896  1.00  0.00     0.336 A 
ATOM      4  O   UNL     1     -12.115  13.076  12.214  1.00  0.00    -0.246 OA
ATOM      5  O   UNL     1     -10.104  12.186  12.627  1.00  0.00    -0.423 OA
ATOM      6  C   UNL     1      -8.963  12.131  13.311  1.00  0.00     0.142 A 
ATOM      7  C   UNL     1      -7.996  11.176  12.983  1.00  0.00     0.098 A 
ATOM      8  C   UNL     1      -6.793  11.114  13.701  1.00  0.00     0.161 A 
ATOM      9  C   UNL     1      -6.557  12.015  14.756  1.00  0.00     0.158 A 
ATOM     10  C   UNL     1      -7.524  12.972  15.086  1.00  0.00     0.062 A 
ATOM     11  C   UNL     1      -8.727  13.034  14.370  1.00  0.00     0.022 A 
ENDROOT
BRANCH   9  12
ATOM     12  O   UNL     1      -5.370  11.974  15.486  1.00  0.00    -0.504 OA
ATOM     13  H   UNL     1      -4.631  11.312  15.277  1.00  0.00     0.293 HD
ENDBRANCH   9  12
BRANCH   8  14
ATOM     14  O   UNL     1      -5.830  10.160  13.370  1.00  0.00    -0.504 OA
ATOM     15  H   UNL     1      -5.650   9.360  13.965  1.00  0.00     0.293 HD
ENDBRANCH   8  14
TORSDOF 2
ENDMDL
