MODEL 1
REMARK VINA RESULT:    -3.796      0.000      0.000
REMARK INTER + INTRA:          -6.949
REMARK INTER:                  -5.794
REMARK INTRA:                  -1.155
REMARK UNBOUND:                -1.155
REMARK SMILES CCCCCCCCCCC(=O)[O-]
REMARK SMILES IDX 7 1 8 2 9 3 10 4 11 5 12 6 13 7 6 8 5 9 4 10 3 11 2 12 1 13
REMARK H PARENT
REMARK Flexibility Score: inf
ROOT
ATOM      1  C   UNL     1       1.933  10.493 -18.181  1.00  0.00     0.000 C 
ENDROOT
BRANCH   1   2
ATOM      2  C   UNL     1       3.405  10.108 -17.946  1.00  0.00     0.000 C 
BRANCH   2   3
ATOM      3  C   UNL     1       4.034   9.393 -19.154  1.00  0.00     0.006 C 
BRANCH   3   4
ATOM      4  C   UNL     1       2.975   8.859 -20.127  1.00  0.00     0.053 C 
BRANCH   4   5
ATOM      5  C   UNL     1       3.351   7.515 -20.671  1.00  0.00     0.041 C 
ATOM      6  O   UNL     1       3.199   6.481 -19.970  1.00  0.00    -0.550 OA
ATOM      7  O   UNL     1       3.836   7.402 -21.968  1.00  0.00    -0.550 OA
ENDBRANCH   4   5
ENDBRANCH   3   4
ENDBRANCH   2   3
ENDBRANCH   1   2
BRANCH   1   8
ATOM      8  C   UNL     1       1.130  10.797 -16.901  1.00  0.00     0.000 C 
BRANCH   8   9
ATOM      9  C   UNL     1       1.691  10.168 -15.609  1.00  0.00    -0.000 C 
BRANCH   9  10
ATOM     10  C   UNL     1       0.980   8.882 -15.151  1.00  0.00    -0.000 C 
BRANCH  10  11
ATOM     11  C   UNL     1       1.816   7.617 -15.398  1.00  0.00    -0.000 C 
BRANCH  11  12
ATOM     12  C   UNL     1       1.620   7.101 -16.827  1.00  0.00    -0.003 C 
ATOM     13  C   UNL     1       0.146   7.124 -17.224  1.00  0.00     0.004 C 
ENDBRANCH  11  12
ENDBRANCH  10  11
ENDBRANCH   9  10
ENDBRANCH   8   9
ENDBRANCH   1   8
TORSDOF 9
ENDMDL
MODEL 2
REMARK VINA RESULT:    -3.698     24.750     25.602
REMARK INTER + INTRA:          -6.798
REMARK INTER:                  -6.337
REMARK INTRA:                  -0.461
REMARK UNBOUND:                -1.155
REMARK SMILES CCCCCCCCCCC(=O)[O-]
REMARK SMILES IDX 7 1 8 2 9 3 10 4 11 5 12 6 13 7 6 8 5 9 4 10 3 11 2 12 1 13
REMARK H PARENT
REMARK Flexibility Score: inf
ROOT
ATOM      1  C   UNL     1     -13.726  -4.472 -31.525  1.00  0.00     0.000 C 
ENDROOT
BRANCH   1   2
ATOM      2  C   UNL     1     -14.381  -4.415 -32.917  1.00  0.00     0.000 C 
BRANCH   2   3
ATOM      3  C   UNL     1     -15.641  -3.533 -32.948  1.00  0.00     0.006 C 
BRANCH   3   4
ATOM      4  C   UNL     1     -15.377  -2.170 -33.601  1.00  0.00     0.053 C 
BRANCH   4   5
ATOM      5  C   UNL     1     -15.398  -1.061 -32.594  1.00  0.00     0.041 C 
ATOM      6  O   UNL     1     -14.986   0.088 -32.907  1.00  0.00    -0.550 OA
ATOM      7  O   UNL     1     -15.907  -1.286 -31.321  1.00  0.00    -0.550 OA
ENDBRANCH   4   5
ENDBRANCH   3   4
ENDBRANCH   2   3
ENDBRANCH   1   2
BRANCH   1   8
ATOM      8  C   UNL     1     -14.592  -5.121 -30.427  1.00  0.00     0.000 C 
BRANCH   8   9
ATOM      9  C   UNL     1     -15.411  -6.349 -30.876  1.00  0.00    -0.000 C 
BRANCH   9  10
ATOM     10  C   UNL     1     -14.711  -7.705 -30.671  1.00  0.00    -0.000 C 
BRANCH  10  11
ATOM     11  C   UNL     1     -13.582  -7.643 -29.633  1.00  0.00    -0.000 C 
BRANCH  11  12
ATOM     12  C   UNL     1     -13.163  -9.051 -29.194  1.00  0.00    -0.003 C 
ATOM     13  C   UNL     1     -12.309  -9.002 -27.931  1.00  0.00     0.004 C 
ENDBRANCH  11  12
ENDBRANCH  10  11
ENDBRANCH   9  10
ENDBRANCH   8   9
ENDBRANCH   1   8
TORSDOF 9
ENDMDL
MODEL 3
REMARK VINA RESULT:    -3.674     23.729     25.500
REMARK INTER + INTRA:          -6.761
REMARK INTER:                  -5.735
REMARK INTRA:                  -1.027
REMARK UNBOUND:                -1.155
REMARK SMILES CCCCCCCCCCC(=O)[O-]
REMARK SMILES IDX 7 1 8 2 9 3 10 4 11 5 12 6 13 7 6 8 5 9 4 10 3 11 2 12 1 13
REMARK H PARENT
REMARK Flexibility Score: inf
ROOT
ATOM      1  C   UNL     1     -14.713  -3.736 -33.297  1.00  0.00     0.000 C 
ENDROOT
BRANCH   1   2
ATOM      2  C   UNL     1     -16.027  -3.925 -32.517  1.00  0.00     0.000 C 
BRANCH   2   3
ATOM      3  C   UNL     1     -15.842  -4.745 -31.229  1.00  0.00     0.006 C 
BRANCH   3   4
ATOM      4  C   UNL     1     -15.770  -6.252 -31.507  1.00  0.00     0.053 C 
BRANCH   4   5
ATOM      5  C   UNL     1     -14.667  -6.905 -30.732  1.00  0.00     0.041 C 
ATOM      6  O   UNL     1     -14.668  -8.152 -30.554  1.00  0.00    -0.550 OA
ATOM      7  O   UNL     1     -13.618  -6.141 -30.236  1.00  0.00    -0.550 OA
ENDBRANCH   4   5
ENDBRANCH   3   4
ENDBRANCH   2   3
ENDBRANCH   1   2
BRANCH   1   8
ATOM      8  C   UNL     1     -14.604  -2.408 -34.072  1.00  0.00     0.000 C 
BRANCH   8   9
ATOM      9  C   UNL     1     -15.581  -1.303 -33.621  1.00  0.00    -0.000 C 
BRANCH   9  10
ATOM     10  C   UNL     1     -14.953  -0.193 -32.759  1.00  0.00    -0.000 C 
BRANCH  10  11
ATOM     11  C   UNL     1     -15.394  -0.257 -31.290  1.00  0.00    -0.000 C 
BRANCH  11  12
ATOM     12  C   UNL     1     -14.538  -1.257 -30.503  1.00  0.00    -0.003 C 
ATOM     13  C   UNL     1     -13.056  -1.085 -30.823  1.00  0.00     0.004 C 
ENDBRANCH  11  12
ENDBRANCH  10  11
ENDBRANCH   9  10
ENDBRANCH   8   9
ENDBRANCH   1   8
TORSDOF 9
ENDMDL
MODEL 4
REMARK VINA RESULT:    -3.575     23.506     24.981
REMARK INTER + INTRA:          -6.611
REMARK INTER:                  -5.870
REMARK INTRA:                  -0.741
REMARK UNBOUND:                -1.155
REMARK SMILES CCCCCCCCCCC(=O)[O-]
REMARK SMILES IDX 7 1 8 2 9 3 10 4 11 5 12 6 13 7 6 8 5 9 4 10 3 11 2 12 1 13
REMARK H PARENT
REMARK Flexibility Score: inf
ROOT
ATOM      1  C   UNL     1     -13.852  -4.533 -32.268  1.00  0.00     0.000 C 
ENDROOT
BRANCH   1   2
ATOM      2  C   UNL     1     -14.267  -3.572 -33.397  1.00  0.00     0.000 C 
BRANCH   2   3
ATOM      3  C   UNL     1     -15.637  -2.919 -33.150  1.00  0.00     0.006 C 
BRANCH   3   4
ATOM      4  C   UNL     1     -15.641  -2.040 -31.892  1.00  0.00     0.053 C 
BRANCH   4   5
ATOM      5  C   UNL     1     -14.750  -0.846 -32.048  1.00  0.00     0.041 C 
ATOM      6  O   UNL     1     -13.735  -0.712 -31.314  1.00  0.00    -0.550 OA
ATOM      7  O   UNL     1     -15.020   0.100 -33.029  1.00  0.00    -0.550 OA
ENDBRANCH   4   5
ENDBRANCH   3   4
ENDBRANCH   2   3
ENDBRANCH   1   2
BRANCH   1   8
ATOM      8  C   UNL     1     -12.573  -4.127 -31.508  1.00  0.00     0.000 C 
BRANCH   8   9
ATOM      9  C   UNL     1     -12.182  -5.055 -30.339  1.00  0.00    -0.000 C 
BRANCH   9  10
ATOM     10  C   UNL     1     -13.350  -5.840 -29.716  1.00  0.00    -0.000 C 
BRANCH  10  11
ATOM     11  C   UNL     1     -13.071  -7.347 -29.618  1.00  0.00    -0.000 C 
BRANCH  11  12
ATOM     12  C   UNL     1     -14.244  -8.159 -30.177  1.00  0.00    -0.003 C 
ATOM     13  C   UNL     1     -15.357  -7.244 -30.682  1.00  0.00     0.004 C 
ENDBRANCH  11  12
ENDBRANCH  10  11
ENDBRANCH   9  10
ENDBRANCH   8   9
ENDBRANCH   1   8
TORSDOF 9
ENDMDL
MODEL 5
REMARK VINA RESULT:    -3.556     23.120     25.076
REMARK INTER + INTRA:          -6.582
REMARK INTER:                  -5.715
REMARK INTRA:                  -0.867
REMARK UNBOUND:                -1.155
REMARK SMILES CCCCCCCCCCC(=O)[O-]
REMARK SMILES IDX 7 1 8 2 9 3 10 4 11 5 12 6 13 7 6 8 5 9 4 10 3 11 2 12 1 13
REMARK H PARENT
REMARK Flexibility Score: inf
ROOT
ATOM      1  C   UNL     1     -15.361  -7.418 -30.617  1.00  0.00     0.000 C 
ENDROOT
BRANCH   1   2
ATOM      2  C   UNL     1     -13.972  -7.861 -30.123  1.00  0.00     0.000 C 
BRANCH   2   3
ATOM      3  C   UNL     1     -13.107  -6.683 -29.643  1.00  0.00     0.006 C 
BRANCH   3   4
ATOM      4  C   UNL     1     -12.131  -7.097 -28.534  1.00  0.00     0.053 C 
BRANCH   4   5
ATOM      5  C   UNL     1     -10.733  -7.242 -29.053  1.00  0.00     0.041 C 
ATOM      6  O   UNL     1     -10.134  -6.252 -29.550  1.00  0.00    -0.550 OA
ATOM      7  O   UNL     1     -10.078  -8.463 -28.955  1.00  0.00    -0.550 OA
ENDBRANCH   4   5
ENDBRANCH   3   4
ENDBRANCH   2   3
ENDBRANCH   1   2
BRANCH   1   8
ATOM      8  C   UNL     1     -15.563  -5.892 -30.702  1.00  0.00     0.000 C 
BRANCH   8   9
ATOM      9  C   UNL     1     -16.125  -5.377 -32.043  1.00  0.00    -0.000 C 
BRANCH   9  10
ATOM     10  C   UNL     1     -15.393  -4.156 -32.627  1.00  0.00    -0.000 C 
BRANCH  10  11
ATOM     11  C   UNL     1     -13.865  -4.267 -32.518  1.00  0.00    -0.000 C 
BRANCH  11  12
ATOM     12  C   UNL     1     -13.290  -3.118 -31.682  1.00  0.00    -0.003 C 
ATOM     13  C   UNL     1     -11.962  -3.513 -31.042  1.00  0.00     0.004 C 
ENDBRANCH  11  12
ENDBRANCH  10  11
ENDBRANCH   9  10
ENDBRANCH   8   9
ENDBRANCH   1   8
TORSDOF 9
ENDMDL
MODEL 6
REMARK VINA RESULT:    -3.516     23.812     25.666
REMARK INTER + INTRA:          -6.521
REMARK INTER:                  -5.972
REMARK INTRA:                  -0.548
REMARK UNBOUND:                -1.155
REMARK SMILES CCCCCCCCCCC(=O)[O-]
REMARK SMILES IDX 7 1 8 2 9 3 10 4 11 5 12 6 13 7 6 8 5 9 4 10 3 11 2 12 1 13
REMARK H PARENT
REMARK Flexibility Score: inf
ROOT
ATOM      1  C   UNL     1     -14.972  -4.914 -31.655  1.00  0.00     0.000 C 
ENDROOT
BRANCH   1   2
ATOM      2  C   UNL     1     -15.806  -6.166 -31.327  1.00  0.00     0.000 C 
BRANCH   2   3
ATOM      3  C   UNL     1     -14.980  -7.271 -30.647  1.00  0.00     0.006 C 
BRANCH   3   4
ATOM      4  C   UNL     1     -13.587  -6.779 -30.232  1.00  0.00     0.053 C 
BRANCH   4   5
ATOM      5  C   UNL     1     -12.978  -7.661 -29.185  1.00  0.00     0.041 C 
ATOM      6  O   UNL     1     -13.006  -8.914 -29.315  1.00  0.00    -0.550 OA
ATOM      7  O   UNL     1     -12.348  -7.098 -28.082  1.00  0.00    -0.550 OA
ENDBRANCH   4   5
ENDBRANCH   3   4
ENDBRANCH   2   3
ENDBRANCH   1   2
BRANCH   1   8
ATOM      8  C   UNL     1     -15.476  -4.096 -32.860  1.00  0.00     0.000 C 
BRANCH   8   9
ATOM      9  C   UNL     1     -14.408  -3.230 -33.559  1.00  0.00    -0.000 C 
BRANCH   9  10
ATOM     10  C   UNL     1     -14.945  -1.948 -34.222  1.00  0.00    -0.000 C 
BRANCH  10  11
ATOM     11  C   UNL     1     -15.619  -0.997 -33.223  1.00  0.00    -0.000 C 
BRANCH  11  12
ATOM     12  C   UNL     1     -14.676  -0.661 -32.062  1.00  0.00    -0.003 C 
ATOM     13  C   UNL     1     -15.394  -0.768 -30.720  1.00  0.00     0.004 C 
ENDBRANCH  11  12
ENDBRANCH  10  11
ENDBRANCH   9  10
ENDBRANCH   8   9
ENDBRANCH   1   8
TORSDOF 9
ENDMDL
MODEL 7
REMARK VINA RESULT:    -3.511     24.078     25.597
REMARK INTER + INTRA:          -6.513
REMARK INTER:                  -5.700
REMARK INTRA:                  -0.814
REMARK UNBOUND:                -1.155
REMARK SMILES CCCCCCCCCCC(=O)[O-]
REMARK SMILES IDX 7 1 8 2 9 3 10 4 11 5 12 6 13 7 6 8 5 9 4 10 3 11 2 12 1 13
REMARK H PARENT
REMARK Flexibility Score: inf
ROOT
ATOM      1  C   UNL     1     -15.350  -4.435 -29.637  1.00  0.00     0.000 C 
ENDROOT
BRANCH   1   2
ATOM      2  C   UNL     1     -16.087  -5.330 -30.650  1.00  0.00     0.000 C 
BRANCH   2   3
ATOM      3  C   UNL     1     -15.263  -6.559 -31.070  1.00  0.00     0.006 C 
BRANCH   3   4
ATOM      4  C   UNL     1     -13.962  -6.685 -30.266  1.00  0.00     0.053 C 
BRANCH   4   5
ATOM      5  C   UNL     1     -13.712  -8.098 -29.835  1.00  0.00     0.041 C 
ATOM      6  O   UNL     1     -14.393  -9.039 -30.321  1.00  0.00    -0.550 OA
ATOM      7  O   UNL     1     -12.703  -8.377 -28.922  1.00  0.00    -0.550 OA
ENDBRANCH   4   5
ENDBRANCH   3   4
ENDBRANCH   2   3
ENDBRANCH   1   2
BRANCH   1   8
ATOM      8  C   UNL     1     -15.882  -2.991 -29.541  1.00  0.00     0.000 C 
BRANCH   8   9
ATOM      9  C   UNL     1     -15.326  -2.015 -30.598  1.00  0.00    -0.000 C 
BRANCH   9  10
ATOM     10  C   UNL     1     -14.013  -2.461 -31.265  1.00  0.00    -0.000 C 
BRANCH  10  11
ATOM     11  C   UNL     1     -14.184  -2.803 -32.752  1.00  0.00    -0.000 C 
BRANCH  11  12
ATOM     12  C   UNL     1     -15.396  -2.077 -33.346  1.00  0.00    -0.003 C 
ATOM     13  C   UNL     1     -15.058  -1.456 -34.699  1.00  0.00     0.004 C 
ENDBRANCH  11  12
ENDBRANCH  10  11
ENDBRANCH   9  10
ENDBRANCH   8   9
ENDBRANCH   1   8
TORSDOF 9
ENDMDL
MODEL 8
REMARK VINA RESULT:    -3.473     23.178     25.179
REMARK INTER + INTRA:          -6.455
REMARK INTER:                  -6.012
REMARK INTRA:                  -0.443
REMARK UNBOUND:                -1.155
REMARK SMILES CCCCCCCCCCC(=O)[O-]
REMARK SMILES IDX 7 1 8 2 9 3 10 4 11 5 12 6 13 7 6 8 5 9 4 10 3 11 2 12 1 13
REMARK H PARENT
REMARK Flexibility Score: inf
ROOT
ATOM      1  C   UNL     1     -13.689  -7.631 -29.872  1.00  0.00     0.000 C 
ENDROOT
BRANCH   1   2
ATOM      2  C   UNL     1     -13.290  -9.000 -29.293  1.00  0.00     0.000 C 
BRANCH   2   3
ATOM      3  C   UNL     1     -11.960  -8.957 -28.523  1.00  0.00     0.006 C 
BRANCH   3   4
ATOM      4  C   UNL     1     -11.765  -7.630 -27.779  1.00  0.00     0.053 C 
BRANCH   4   5
ATOM      5  C   UNL     1     -10.470  -6.973 -28.148  1.00  0.00     0.041 C 
ATOM      6  O   UNL     1     -10.010  -7.089 -29.314  1.00  0.00    -0.550 OA
ATOM      7  O   UNL     1      -9.790  -6.204 -27.212  1.00  0.00    -0.550 OA
ENDBRANCH   4   5
ENDBRANCH   3   4
ENDBRANCH   2   3
ENDBRANCH   1   2
BRANCH   1   8
ATOM      8  C   UNL     1     -15.052  -7.603 -30.592  1.00  0.00     0.000 C 
BRANCH   8   9
ATOM      9  C   UNL     1     -15.372  -6.293 -31.341  1.00  0.00    -0.000 C 
BRANCH   9  10
ATOM     10  C   UNL     1     -14.330  -5.174 -31.165  1.00  0.00    -0.000 C 
BRANCH  10  11
ATOM     11  C   UNL     1     -14.031  -4.426 -32.472  1.00  0.00    -0.000 C 
BRANCH  11  12
ATOM     12  C   UNL     1     -15.299  -3.768 -33.030  1.00  0.00    -0.003 C 
ATOM     13  C   UNL     1     -14.986  -2.413 -33.659  1.00  0.00     0.004 C 
ENDBRANCH  11  12
ENDBRANCH  10  11
ENDBRANCH   9  10
ENDBRANCH   8   9
ENDBRANCH   1   8
TORSDOF 9
ENDMDL
MODEL 9
REMARK VINA RESULT:    -3.409     22.673     24.517
REMARK INTER + INTRA:          -6.357
REMARK INTER:                  -5.541
REMARK INTRA:                  -0.816
REMARK UNBOUND:                -1.155
REMARK SMILES CCCCCCCCCCC(=O)[O-]
REMARK SMILES IDX 7 1 8 2 9 3 10 4 11 5 12 6 13 7 6 8 5 9 4 10 3 11 2 12 1 13
REMARK H PARENT
REMARK Flexibility Score: inf
ROOT
ATOM      1  C   UNL     1     -13.870  -6.904 -30.213  1.00  0.00     0.000 C 
ENDROOT
BRANCH   1   2
ATOM      2  C   UNL     1     -13.160  -5.612 -29.771  1.00  0.00     0.000 C 
BRANCH   2   3
ATOM      3  C   UNL     1     -11.680  -5.572 -30.189  1.00  0.00     0.006 C 
BRANCH   3   4
ATOM      4  C   UNL     1     -11.347  -4.325 -31.019  1.00  0.00     0.053 C 
BRANCH   4   5
ATOM      5  C   UNL     1     -10.139  -3.615 -30.490  1.00  0.00     0.041 C 
ATOM      6  O   UNL     1      -9.798  -3.753 -29.285  1.00  0.00    -0.550 OA
ATOM      7  O   UNL     1      -9.368  -2.829 -31.337  1.00  0.00    -0.550 OA
ENDBRANCH   4   5
ENDBRANCH   3   4
ENDBRANCH   2   3
ENDBRANCH   1   2
BRANCH   1   8
ATOM      8  C   UNL     1     -15.182  -6.689 -30.994  1.00  0.00     0.000 C 
BRANCH   8   9
ATOM      9  C   UNL     1     -15.843  -5.309 -30.800  1.00  0.00    -0.000 C 
BRANCH   9  10
ATOM     10  C   UNL     1     -16.125  -4.536 -32.101  1.00  0.00    -0.000 C 
BRANCH  10  11
ATOM     11  C   UNL     1     -14.847  -4.197 -32.883  1.00  0.00    -0.000 C 
BRANCH  11  12
ATOM     12  C   UNL     1     -14.520  -2.703 -32.778  1.00  0.00    -0.003 C 
ATOM     13  C   UNL     1     -15.044  -1.938 -33.990  1.00  0.00     0.004 C 
ENDBRANCH  11  12
ENDBRANCH  10  11
ENDBRANCH   9  10
ENDBRANCH   8   9
ENDBRANCH   1   8
TORSDOF 9
ENDMDL
