MODEL 1
REMARK VINA RESULT:    -5.778      0.000      0.000
REMARK INTER + INTRA:          -5.778
REMARK INTER:                  -5.778
REMARK INTRA:                   0.000
REMARK UNBOUND:                 0.000
REMARK SMILES CC1=CC[C@@]2(C)CCCC(C)(C)[C@@]23C[C@@H]13
REMARK SMILES IDX 1 1 2 2 3 3 4 4 5 5 7 6 8 7 9 8 10 9 13 10 15 11 14 12 11 13
REMARK SMILES IDX 12 14 6 15
REMARK H PARENT
REMARK Flexibility Score: inf
ROOT
ATOM      1  C   UNL     1      30.875   9.694  35.724  1.00  0.00     0.039 C 
ATOM      2  C   UNL     1      31.488  10.011  34.389  1.00  0.00    -0.074 C 
ATOM      3  C   UNL     1      32.365  11.034  34.295  1.00  0.00    -0.027 C 
ATOM      4  C   UNL     1      33.025  11.400  32.988  1.00  0.00     0.034 C 
ATOM      5  C   UNL     1      32.065  11.155  31.787  1.00  0.00    -0.022 C 
ATOM      6  C   UNL     1      32.846  11.373  30.469  1.00  0.00     0.008 C 
ATOM      7  C   UNL     1      32.033  11.013  29.213  1.00  0.00     0.001 C 
ATOM      8  C   UNL     1      31.511   9.568  29.246  1.00  0.00     0.007 C 
ATOM      9  C   UNL     1      30.684   9.200  30.511  1.00  0.00    -0.029 C 
ATOM     10  C   UNL     1      31.498   9.678  31.788  1.00  0.00    -0.012 C 
ATOM     11  C   UNL     1      31.102   9.169  33.183  1.00  0.00     0.022 C 
ATOM     12  C   UNL     1      32.322   8.564  32.491  1.00  0.00     0.017 C 
ATOM     13  C   UNL     1      29.285   9.865  30.465  1.00  0.00     0.012 C 
ATOM     14  C   UNL     1      30.430   7.665  30.439  1.00  0.00     0.012 C 
ATOM     15  C   UNL     1      30.922  12.209  31.918  1.00  0.00     0.012 C 
ENDROOT
TORSDOF 0
ENDMDL
MODEL 2
REMARK VINA RESULT:    -5.461      1.022      3.938
REMARK INTER + INTRA:          -5.461
REMARK INTER:                  -5.461
REMARK INTRA:                   0.000
REMARK UNBOUND:                 0.000
REMARK SMILES CC1=CC[C@@]2(C)CCCC(C)(C)[C@@]23C[C@@H]13
REMARK SMILES IDX 1 1 2 2 3 3 4 4 5 5 7 6 8 7 9 8 10 9 13 10 15 11 14 12 11 13
REMARK SMILES IDX 12 14 6 15
REMARK H PARENT
REMARK Flexibility Score: inf
ROOT
ATOM      1  C   UNL     1      32.419  11.095  28.583  1.00  0.00     0.039 C 
ATOM      2  C   UNL     1      31.870  11.071  29.982  1.00  0.00    -0.074 C 
ATOM      3  C   UNL     1      31.906  12.201  30.721  1.00  0.00    -0.027 C 
ATOM      4  C   UNL     1      31.363  12.251  32.128  1.00  0.00     0.034 C 
ATOM      5  C   UNL     1      31.585  10.896  32.863  1.00  0.00    -0.022 C 
ATOM      6  C   UNL     1      30.855  10.941  34.227  1.00  0.00     0.008 C 
ATOM      7  C   UNL     1      30.884   9.596  34.977  1.00  0.00     0.001 C 
ATOM      8  C   UNL     1      30.302   8.445  34.141  1.00  0.00     0.007 C 
ATOM      9  C   UNL     1      30.952   8.261  32.740  1.00  0.00    -0.029 C 
ATOM     10  C   UNL     1      31.006   9.681  32.031  1.00  0.00    -0.012 C 
ATOM     11  C   UNL     1      31.289   9.774  30.524  1.00  0.00     0.022 C 
ATOM     12  C   UNL     1      29.856   9.950  31.022  1.00  0.00     0.017 C 
ATOM     13  C   UNL     1      32.372   7.652  32.869  1.00  0.00     0.012 C 
ATOM     14  C   UNL     1      30.095   7.195  31.995  1.00  0.00     0.012 C 
ATOM     15  C   UNL     1      33.125  10.762  33.078  1.00  0.00     0.012 C 
ENDROOT
TORSDOF 0
ENDMDL
MODEL 3
REMARK VINA RESULT:    -5.379      1.605      4.803
REMARK INTER + INTRA:          -5.379
REMARK INTER:                  -5.379
REMARK INTRA:                   0.000
REMARK UNBOUND:                 0.000
REMARK SMILES CC1=CC[C@@]2(C)CCCC(C)(C)[C@@]23C[C@@H]13
REMARK SMILES IDX 1 1 2 2 3 3 4 4 5 5 7 6 8 7 9 8 10 9 13 10 15 11 14 12 11 13
REMARK SMILES IDX 12 14 6 15
REMARK H PARENT
REMARK Flexibility Score: inf
ROOT
ATOM      1  C   UNL     1      31.095  12.652  31.631  1.00  0.00     0.039 C 
ATOM      2  C   UNL     1      31.423  11.349  32.305  1.00  0.00    -0.074 C 
ATOM      3  C   UNL     1      31.755  10.282  31.546  1.00  0.00    -0.027 C 
ATOM      4  C   UNL     1      32.106   8.948  32.156  1.00  0.00     0.034 C 
ATOM      5  C   UNL     1      31.279   8.688  33.449  1.00  0.00    -0.022 C 
ATOM      6  C   UNL     1      31.803   7.400  34.128  1.00  0.00     0.008 C 
ATOM      7  C   UNL     1      31.154   7.127  35.498  1.00  0.00     0.001 C 
ATOM      8  C   UNL     1      31.321   8.303  36.472  1.00  0.00     0.007 C 
ATOM      9  C   UNL     1      30.819   9.674  35.935  1.00  0.00    -0.029 C 
ATOM     10  C   UNL     1      31.418   9.882  34.478  1.00  0.00    -0.012 C 
ATOM     11  C   UNL     1      31.372  11.271  33.823  1.00  0.00     0.022 C 
ATOM     12  C   UNL     1      32.688  10.774  34.416  1.00  0.00     0.017 C 
ATOM     13  C   UNL     1      29.270   9.719  35.907  1.00  0.00     0.012 C 
ATOM     14  C   UNL     1      31.261  10.743  36.977  1.00  0.00     0.012 C 
ATOM     15  C   UNL     1      29.800   8.494  32.991  1.00  0.00     0.012 C 
ENDROOT
TORSDOF 0
ENDMDL
MODEL 4
REMARK VINA RESULT:    -5.321      2.958      4.738
REMARK INTER + INTRA:          -5.321
REMARK INTER:                  -5.321
REMARK INTRA:                   0.000
REMARK UNBOUND:                 0.000
REMARK SMILES CC1=CC[C@@]2(C)CCCC(C)(C)[C@@]23C[C@@H]13
REMARK SMILES IDX 1 1 2 2 3 3 4 4 5 5 7 6 8 7 9 8 10 9 13 10 15 11 14 12 11 13
REMARK SMILES IDX 12 14 6 15
REMARK H PARENT
REMARK Flexibility Score: inf
ROOT
ATOM      1  C   UNL     1      30.573   8.967  30.806  1.00  0.00     0.039 C 
ATOM      2  C   UNL     1      31.138   9.660  29.599  1.00  0.00    -0.074 C 
ATOM      3  C   UNL     1      31.984  10.699  29.773  1.00  0.00    -0.027 C 
ATOM      4  C   UNL     1      32.596  11.433  28.605  1.00  0.00     0.034 C 
ATOM      5  C   UNL     1      31.609  11.496  27.403  1.00  0.00    -0.022 C 
ATOM      6  C   UNL     1      32.346  12.095  26.181  1.00  0.00     0.008 C 
ATOM      7  C   UNL     1      31.507  12.067  24.890  1.00  0.00     0.001 C 
ATOM      8  C   UNL     1      31.026  10.652  24.533  1.00  0.00     0.007 C 
ATOM      9  C   UNL     1      30.246   9.922  25.664  1.00  0.00    -0.029 C 
ATOM     10  C   UNL     1      31.082  10.057  27.007  1.00  0.00    -0.012 C 
ATOM     11  C   UNL     1      30.741   9.170  28.214  1.00  0.00     0.022 C 
ATOM     12  C   UNL     1      31.956   8.822  27.358  1.00  0.00     0.017 C 
ATOM     13  C   UNL     1      28.828  10.526  25.832  1.00  0.00     0.012 C 
ATOM     14  C   UNL     1      30.032   8.458  25.176  1.00  0.00     0.012 C 
ATOM     15  C   UNL     1      30.442  12.433  27.843  1.00  0.00     0.012 C 
ENDROOT
TORSDOF 0
ENDMDL
MODEL 5
REMARK VINA RESULT:    -5.278      1.917      4.692
REMARK INTER + INTRA:          -5.278
REMARK INTER:                  -5.278
REMARK INTRA:                   0.000
REMARK UNBOUND:                 0.000
REMARK SMILES CC1=CC[C@@]2(C)CCCC(C)(C)[C@@]23C[C@@H]13
REMARK SMILES IDX 1 1 2 2 3 3 4 4 5 5 7 6 8 7 9 8 10 9 13 10 15 11 14 12 11 13
REMARK SMILES IDX 12 14 6 15
REMARK H PARENT
REMARK Flexibility Score: inf
ROOT
ATOM      1  C   UNL     1      28.145   7.531  27.372  1.00  0.00     0.039 C 
ATOM      2  C   UNL     1      29.209   7.978  28.334  1.00  0.00    -0.074 C 
ATOM      3  C   UNL     1      29.262   7.419  29.562  1.00  0.00    -0.027 C 
ATOM      4  C   UNL     1      30.310   7.814  30.573  1.00  0.00     0.034 C 
ATOM      5  C   UNL     1      30.669   9.323  30.449  1.00  0.00    -0.022 C 
ATOM      6  C   UNL     1      31.868   9.632  31.378  1.00  0.00     0.008 C 
ATOM      7  C   UNL     1      32.404  11.067  31.224  1.00  0.00     0.001 C 
ATOM      8  C   UNL     1      32.803  11.393  29.776  1.00  0.00     0.007 C 
ATOM      9  C   UNL     1      31.687  11.149  28.720  1.00  0.00    -0.029 C 
ATOM     10  C   UNL     1      31.079   9.703  28.968  1.00  0.00    -0.012 C 
ATOM     11  C   UNL     1      30.195   9.050  27.895  1.00  0.00     0.022 C 
ATOM     12  C   UNL     1      31.644   8.591  28.044  1.00  0.00     0.017 C 
ATOM     13  C   UNL     1      30.588  12.237  28.822  1.00  0.00     0.012 C 
ATOM     14  C   UNL     1      32.353  11.343  27.325  1.00  0.00     0.012 C 
ATOM     15  C   UNL     1      29.407  10.113  30.915  1.00  0.00     0.012 C 
ENDROOT
TORSDOF 0
ENDMDL
MODEL 6
REMARK VINA RESULT:    -5.278      1.352      3.518
REMARK INTER + INTRA:          -5.278
REMARK INTER:                  -5.278
REMARK INTRA:                   0.000
REMARK UNBOUND:                 0.000
REMARK SMILES CC1=CC[C@@]2(C)CCCC(C)(C)[C@@]23C[C@@H]13
REMARK SMILES IDX 1 1 2 2 3 3 4 4 5 5 7 6 8 7 9 8 10 9 13 10 15 11 14 12 11 13
REMARK SMILES IDX 12 14 6 15
REMARK H PARENT
REMARK Flexibility Score: inf
ROOT
ATOM      1  C   UNL     1      31.249   8.871  37.161  1.00  0.00     0.039 C 
ATOM      2  C   UNL     1      30.889   8.657  35.718  1.00  0.00    -0.074 C 
ATOM      3  C   UNL     1      30.470   7.437  35.319  1.00  0.00    -0.027 C 
ATOM      4  C   UNL     1      30.082   7.155  33.889  1.00  0.00     0.034 C 
ATOM      5  C   UNL     1      30.955   7.980  32.898  1.00  0.00    -0.022 C 
ATOM      6  C   UNL     1      30.400   7.793  31.465  1.00  0.00     0.008 C 
ATOM      7  C   UNL     1      31.098   8.684  30.422  1.00  0.00     0.001 C 
ATOM      8  C   UNL     1      31.035  10.176  30.786  1.00  0.00     0.007 C 
ATOM      9  C   UNL     1      31.579  10.527  32.200  1.00  0.00    -0.029 C 
ATOM     10  C   UNL     1      30.923   9.524  33.244  1.00  0.00    -0.012 C 
ATOM     11  C   UNL     1      31.008   9.823  34.748  1.00  0.00     0.022 C 
ATOM     12  C   UNL     1      29.697  10.091  34.011  1.00  0.00     0.017 C 
ATOM     13  C   UNL     1      33.125  10.428  32.234  1.00  0.00     0.012 C 
ATOM     14  C   UNL     1      31.240  12.028  32.441  1.00  0.00     0.012 C 
ATOM     15  C   UNL     1      32.399   7.399  32.999  1.00  0.00     0.012 C 
ENDROOT
TORSDOF 0
ENDMDL
MODEL 7
REMARK VINA RESULT:    -5.275      1.403      4.706
REMARK INTER + INTRA:          -5.275
REMARK INTER:                  -5.275
REMARK INTRA:                   0.000
REMARK UNBOUND:                 0.000
REMARK SMILES CC1=CC[C@@]2(C)CCCC(C)(C)[C@@]23C[C@@H]13
REMARK SMILES IDX 1 1 2 2 3 3 4 4 5 5 7 6 8 7 9 8 10 9 13 10 15 11 14 12 11 13
REMARK SMILES IDX 12 14 6 15
REMARK H PARENT
REMARK Flexibility Score: inf
ROOT
ATOM      1  C   UNL     1      29.143  10.774  27.247  1.00  0.00     0.039 C 
ATOM      2  C   UNL     1      29.997  10.236  28.359  1.00  0.00    -0.074 C 
ATOM      3  C   UNL     1      29.853   8.946  28.734  1.00  0.00    -0.027 C 
ATOM      4  C   UNL     1      30.685   8.338  29.836  1.00  0.00     0.034 C 
ATOM      5  C   UNL     1      30.996   9.384  30.946  1.00  0.00    -0.022 C 
ATOM      6  C   UNL     1      31.995   8.764  31.953  1.00  0.00     0.008 C 
ATOM      7  C   UNL     1      32.487   9.764  33.015  1.00  0.00     0.001 C 
ATOM      8  C   UNL     1      33.125  11.016  32.392  1.00  0.00     0.007 C 
ATOM      9  C   UNL     1      32.228  11.764  31.365  1.00  0.00    -0.029 C 
ATOM     10  C   UNL     1      31.648  10.694  30.345  1.00  0.00    -0.012 C 
ATOM     11  C   UNL     1      30.999  11.161  29.032  1.00  0.00     0.022 C 
ATOM     12  C   UNL     1      32.417  10.593  28.999  1.00  0.00     0.017 C 
ATOM     13  C   UNL     1      31.082  12.520  32.085  1.00  0.00     0.012 C 
ATOM     14  C   UNL     1      33.124  12.861  30.717  1.00  0.00     0.012 C 
ATOM     15  C   UNL     1      29.638   9.690  31.651  1.00  0.00     0.012 C 
ENDROOT
TORSDOF 0
ENDMDL
MODEL 8
REMARK VINA RESULT:    -5.166      1.299      2.214
REMARK INTER + INTRA:          -5.166
REMARK INTER:                  -5.166
REMARK INTRA:                   0.000
REMARK UNBOUND:                 0.000
REMARK SMILES CC1=CC[C@@]2(C)CCCC(C)(C)[C@@]23C[C@@H]13
REMARK SMILES IDX 1 1 2 2 3 3 4 4 5 5 7 6 8 7 9 8 10 9 13 10 15 11 14 12 11 13
REMARK SMILES IDX 12 14 6 15
REMARK H PARENT
REMARK Flexibility Score: inf
ROOT
ATOM      1  C   UNL     1      30.209   6.763  35.520  1.00  0.00     0.039 C 
ATOM      2  C   UNL     1      30.814   8.013  34.948  1.00  0.00    -0.074 C 
ATOM      3  C   UNL     1      31.231   8.986  35.787  1.00  0.00    -0.027 C 
ATOM      4  C   UNL     1      31.857  10.262  35.281  1.00  0.00     0.034 C 
ATOM      5  C   UNL     1      31.226  10.696  33.925  1.00  0.00    -0.022 C 
ATOM      6  C   UNL     1      32.021  11.900  33.365  1.00  0.00     0.008 C 
ATOM      7  C   UNL     1      31.576  12.320  31.953  1.00  0.00     0.001 C 
ATOM      8  C   UNL     1      31.654  11.163  30.944  1.00  0.00     0.007 C 
ATOM      9  C   UNL     1      30.882   9.879  31.361  1.00  0.00    -0.029 C 
ATOM     10  C   UNL     1      31.279   9.529  32.859  1.00  0.00    -0.012 C 
ATOM     11  C   UNL     1      30.939   8.147  33.438  1.00  0.00     0.022 C 
ATOM     12  C   UNL     1      32.374   8.437  33.004  1.00  0.00     0.017 C 
ATOM     13  C   UNL     1      29.352  10.091  31.230  1.00  0.00     0.012 C 
ATOM     14  C   UNL     1      31.253   8.784  30.317  1.00  0.00     0.012 C 
ATOM     15  C   UNL     1      29.757  11.119  34.241  1.00  0.00     0.012 C 
ENDROOT
TORSDOF 0
ENDMDL
MODEL 9
REMARK VINA RESULT:    -5.107      1.651      2.852
REMARK INTER + INTRA:          -5.107
REMARK INTER:                  -5.107
REMARK INTRA:                   0.000
REMARK UNBOUND:                 0.000
REMARK SMILES CC1=CC[C@@]2(C)CCCC(C)(C)[C@@]23C[C@@H]13
REMARK SMILES IDX 1 1 2 2 3 3 4 4 5 5 7 6 8 7 9 8 10 9 13 10 15 11 14 12 11 13
REMARK SMILES IDX 12 14 6 15
REMARK H PARENT
REMARK Flexibility Score: inf
ROOT
ATOM      1  C   UNL     1      28.658   5.971  33.254  1.00  0.00     0.039 C 
ATOM      2  C   UNL     1      29.831   6.873  32.993  1.00  0.00    -0.074 C 
ATOM      3  C   UNL     1      30.799   6.979  33.928  1.00  0.00    -0.027 C 
ATOM      4  C   UNL     1      32.009   7.858  33.727  1.00  0.00     0.034 C 
ATOM      5  C   UNL     1      31.647   9.134  32.912  1.00  0.00    -0.022 C 
ATOM      6  C   UNL     1      32.948   9.904  32.582  1.00  0.00     0.008 C 
ATOM      7  C   UNL     1      32.722  11.108  31.650  1.00  0.00     0.001 C 
ATOM      8  C   UNL     1      32.034  10.712  30.334  1.00  0.00     0.007 C 
ATOM      9  C   UNL     1      30.693   9.940  30.504  1.00  0.00    -0.029 C 
ATOM     10  C   UNL     1      30.927   8.769  31.551  1.00  0.00    -0.012 C 
ATOM     11  C   UNL     1      29.893   7.641  31.681  1.00  0.00     0.022 C 
ATOM     12  C   UNL     1      31.190   7.374  30.921  1.00  0.00     0.017 C 
ATOM     13  C   UNL     1      29.568  10.893  30.982  1.00  0.00     0.012 C 
ATOM     14  C   UNL     1      30.276   9.466  29.080  1.00  0.00     0.012 C 
ATOM     15  C   UNL     1      30.728   9.995  33.834  1.00  0.00     0.012 C 
ENDROOT
TORSDOF 0
ENDMDL
