MODEL 1
REMARK VINA RESULT:    -3.686      0.000      0.000
REMARK INTER + INTRA:          -4.994
REMARK INTER:                  -4.548
REMARK INTRA:                  -0.446
REMARK UNBOUND:                -0.446
REMARK SMILES C=CC[C@@H](C)C(=O)CC
REMARK SMILES IDX 4 1 5 2 6 3 7 4 8 5 9 6 3 7 2 8 1 9
REMARK H PARENT
REMARK Flexibility Score: inf
ROOT
ATOM      1  C   UNL     1      -9.671 -29.730 -19.368  1.00  0.00     0.057 C 
ATOM      2  C   UNL     1     -10.500 -29.613 -20.655  1.00  0.00     0.016 C 
ENDROOT
BRANCH   1   3
ATOM      3  C   UNL     1      -8.232 -29.350 -19.648  1.00  0.00     0.135 C 
ATOM      4  O   UNL     1      -7.853 -29.223 -20.805  1.00  0.00    -0.299 OA
BRANCH   3   5
ATOM      5  C   UNL     1      -7.255 -29.114 -18.526  1.00  0.00     0.072 C 
ATOM      6  C   UNL     1      -6.509 -27.799 -18.726  1.00  0.00     0.012 C 
ENDBRANCH   3   5
ENDBRANCH   1   3
BRANCH   1   7
ATOM      7  C   UNL     1     -10.239 -28.846 -18.238  1.00  0.00     0.038 C 
BRANCH   7   8
ATOM      8  C   UNL     1     -10.426 -27.415 -18.669  1.00  0.00    -0.034 C 
ATOM      9  C   UNL     1      -9.862 -26.401 -18.008  1.00  0.00     0.004 C 
ENDBRANCH   7   8
ENDBRANCH   1   7
TORSDOF 4
ENDMDL
MODEL 2
REMARK VINA RESULT:    -3.680      1.686      3.896
REMARK INTER + INTRA:          -4.986
REMARK INTER:                  -4.658
REMARK INTRA:                  -0.327
REMARK UNBOUND:                -0.446
REMARK SMILES C=CC[C@@H](C)C(=O)CC
REMARK SMILES IDX 4 1 5 2 6 3 7 4 8 5 9 6 3 7 2 8 1 9
REMARK H PARENT
REMARK Flexibility Score: inf
ROOT
ATOM      1  C   UNL     1      -7.870 -28.561 -18.500  1.00  0.00     0.057 C 
ATOM      2  C   UNL     1      -8.512 -27.182 -18.292  1.00  0.00     0.016 C 
ENDROOT
BRANCH   1   3
ATOM      3  C   UNL     1      -8.938 -29.577 -18.846  1.00  0.00     0.135 C 
ATOM      4  O   UNL     1      -9.562 -30.129 -17.949  1.00  0.00    -0.299 OA
BRANCH   3   5
ATOM      5  C   UNL     1      -9.255 -29.920 -20.278  1.00  0.00     0.072 C 
ATOM      6  C   UNL     1     -10.694 -29.546 -20.617  1.00  0.00     0.012 C 
ENDBRANCH   3   5
ENDBRANCH   1   3
BRANCH   1   7
ATOM      7  C   UNL     1      -6.794 -28.530 -19.606  1.00  0.00     0.038 C 
BRANCH   7   8
ATOM      8  C   UNL     1      -5.438 -28.945 -19.097  1.00  0.00    -0.034 C 
ATOM      9  C   UNL     1      -5.233 -29.260 -17.815  1.00  0.00     0.004 C 
ENDBRANCH   7   8
ENDBRANCH   1   7
TORSDOF 4
ENDMDL
MODEL 3
REMARK VINA RESULT:    -3.677      1.699      3.144
REMARK INTER + INTRA:          -4.983
REMARK INTER:                  -4.795
REMARK INTRA:                  -0.188
REMARK UNBOUND:                -0.446
REMARK SMILES C=CC[C@@H](C)C(=O)CC
REMARK SMILES IDX 4 1 5 2 6 3 7 4 8 5 9 6 3 7 2 8 1 9
REMARK H PARENT
REMARK Flexibility Score: inf
ROOT
ATOM      1  C   UNL     1      -7.980 -28.591 -19.039  1.00  0.00     0.057 C 
ATOM      2  C   UNL     1      -6.647 -28.927 -18.355  1.00  0.00     0.016 C 
ENDROOT
BRANCH   1   3
ATOM      3  C   UNL     1      -8.881 -29.808 -19.033  1.00  0.00     0.135 C 
ATOM      4  O   UNL     1      -9.112 -30.386 -17.979  1.00  0.00    -0.299 OA
BRANCH   3   5
ATOM      5  C   UNL     1      -9.511 -30.320 -20.302  1.00  0.00     0.072 C 
ATOM      6  C   UNL     1     -10.737 -29.492 -20.670  1.00  0.00     0.012 C 
ENDBRANCH   3   5
ENDBRANCH   1   3
BRANCH   1   7
ATOM      7  C   UNL     1      -8.692 -27.405 -18.355  1.00  0.00     0.038 C 
BRANCH   7   8
ATOM      8  C   UNL     1      -7.759 -26.252 -18.092  1.00  0.00    -0.034 C 
ATOM      9  C   UNL     1      -8.187 -25.111 -17.544  1.00  0.00     0.004 C 
ENDBRANCH   7   8
ENDBRANCH   1   7
TORSDOF 4
ENDMDL
MODEL 4
REMARK VINA RESULT:    -3.670      1.609      3.237
REMARK INTER + INTRA:          -4.974
REMARK INTER:                  -4.674
REMARK INTRA:                  -0.300
REMARK UNBOUND:                -0.446
REMARK SMILES C=CC[C@@H](C)C(=O)CC
REMARK SMILES IDX 4 1 5 2 6 3 7 4 8 5 9 6 3 7 2 8 1 9
REMARK H PARENT
REMARK Flexibility Score: inf
ROOT
ATOM      1  C   UNL     1      -7.808 -28.798 -18.735  1.00  0.00     0.057 C 
ATOM      2  C   UNL     1      -7.053 -28.824 -20.071  1.00  0.00     0.016 C 
ENDROOT
BRANCH   1   3
ATOM      3  C   UNL     1      -8.142 -27.369 -18.361  1.00  0.00     0.135 C 
ATOM      4  O   UNL     1      -7.238 -26.563 -18.182  1.00  0.00    -0.299 OA
BRANCH   3   5
ATOM      5  C   UNL     1      -9.570 -26.914 -18.211  1.00  0.00     0.072 C 
ATOM      6  C   UNL     1      -9.648 -25.651 -17.360  1.00  0.00     0.012 C 
ENDBRANCH   3   5
ENDBRANCH   1   3
BRANCH   1   7
ATOM      7  C   UNL     1      -9.099 -29.642 -18.791  1.00  0.00     0.038 C 
BRANCH   7   8
ATOM      8  C   UNL     1      -9.504 -29.977 -20.203  1.00  0.00    -0.034 C 
ATOM      9  C   UNL     1     -10.685 -29.603 -20.703  1.00  0.00     0.004 C 
ENDBRANCH   7   8
ENDBRANCH   1   7
TORSDOF 4
ENDMDL
MODEL 5
REMARK VINA RESULT:    -3.645      1.784      2.788
REMARK INTER + INTRA:          -4.943
REMARK INTER:                  -4.710
REMARK INTRA:                  -0.233
REMARK UNBOUND:                -0.446
REMARK SMILES C=CC[C@@H](C)C(=O)CC
REMARK SMILES IDX 4 1 5 2 6 3 7 4 8 5 9 6 3 7 2 8 1 9
REMARK H PARENT
REMARK Flexibility Score: inf
ROOT
ATOM      1  C   UNL     1      -8.581 -29.360 -18.745  1.00  0.00     0.057 C 
ATOM      2  C   UNL     1      -8.813 -30.653 -17.950  1.00  0.00     0.016 C 
ENDROOT
BRANCH   1   3
ATOM      3  C   UNL     1      -7.183 -28.841 -18.485  1.00  0.00     0.135 C 
ATOM      4  O   UNL     1      -6.353 -29.572 -17.962  1.00  0.00    -0.299 OA
BRANCH   3   5
ATOM      5  C   UNL     1      -6.788 -27.438 -18.866  1.00  0.00     0.072 C 
ATOM      6  C   UNL     1      -7.708 -26.418 -18.205  1.00  0.00     0.012 C 
ENDBRANCH   3   5
ENDBRANCH   1   3
BRANCH   1   7
ATOM      7  C   UNL     1      -8.792 -29.572 -20.258  1.00  0.00     0.038 C 
BRANCH   7   8
ATOM      8  C   UNL     1     -10.149 -30.145 -20.573  1.00  0.00    -0.034 C 
ATOM      9  C   UNL     1     -11.168 -29.371 -20.957  1.00  0.00     0.004 C 
ENDBRANCH   7   8
ENDBRANCH   1   7
TORSDOF 4
ENDMDL
MODEL 6
REMARK VINA RESULT:    -3.572      1.825      3.029
REMARK INTER + INTRA:          -4.853
REMARK INTER:                  -4.447
REMARK INTRA:                  -0.406
REMARK UNBOUND:                -0.446
REMARK SMILES C=CC[C@@H](C)C(=O)CC
REMARK SMILES IDX 4 1 5 2 6 3 7 4 8 5 9 6 3 7 2 8 1 9
REMARK H PARENT
REMARK Flexibility Score: inf
ROOT
ATOM      1  C   UNL     1      -7.926 -28.412 -19.101  1.00  0.00     0.057 C 
ATOM      2  C   UNL     1      -8.174 -27.154 -18.258  1.00  0.00     0.016 C 
ENDROOT
BRANCH   1   3
ATOM      3  C   UNL     1      -6.471 -28.819 -19.002  1.00  0.00     0.135 C 
ATOM      4  O   UNL     1      -6.044 -29.290 -17.957  1.00  0.00    -0.299 OA
BRANCH   3   5
ATOM      5  C   UNL     1      -5.535 -28.662 -20.172  1.00  0.00     0.072 C 
ATOM      6  C   UNL     1      -6.262 -28.932 -21.486  1.00  0.00     0.012 C 
ENDBRANCH   3   5
ENDBRANCH   1   3
BRANCH   1   7
ATOM      7  C   UNL     1      -8.831 -29.583 -18.663  1.00  0.00     0.038 C 
BRANCH   7   8
ATOM      8  C   UNL     1      -9.491 -30.265 -19.833  1.00  0.00    -0.034 C 
ATOM      9  C   UNL     1     -10.411 -29.649 -20.581  1.00  0.00     0.004 C 
ENDBRANCH   7   8
ENDBRANCH   1   7
TORSDOF 4
ENDMDL
MODEL 7
REMARK VINA RESULT:    -3.535      1.593      3.190
REMARK INTER + INTRA:          -4.807
REMARK INTER:                  -4.381
REMARK INTRA:                  -0.426
REMARK UNBOUND:                -0.446
REMARK SMILES C=CC[C@@H](C)C(=O)CC
REMARK SMILES IDX 4 1 5 2 6 3 7 4 8 5 9 6 3 7 2 8 1 9
REMARK H PARENT
REMARK Flexibility Score: inf
ROOT
ATOM      1  C   UNL     1      -8.900 -29.023 -19.314  1.00  0.00     0.057 C 
ATOM      2  C   UNL     1      -9.443 -30.014 -20.352  1.00  0.00     0.016 C 
ENDROOT
BRANCH   1   3
ATOM      3  C   UNL     1     -10.040 -28.477 -18.480  1.00  0.00     0.135 C 
ATOM      4  O   UNL     1     -10.743 -29.247 -17.837  1.00  0.00    -0.299 OA
BRANCH   3   5
ATOM      5  C   UNL     1     -10.325 -27.000 -18.417  1.00  0.00     0.072 C 
ATOM      6  C   UNL     1      -9.071 -26.223 -18.029  1.00  0.00     0.012 C 
ENDBRANCH   3   5
ENDBRANCH   1   3
BRANCH   1   7
ATOM      7  C   UNL     1      -7.842 -29.673 -18.398  1.00  0.00     0.038 C 
BRANCH   7   8
ATOM      8  C   UNL     1      -6.541 -28.914 -18.396  1.00  0.00    -0.034 C 
ATOM      9  C   UNL     1      -6.134 -28.212 -19.458  1.00  0.00     0.004 C 
ENDBRANCH   7   8
ENDBRANCH   1   7
TORSDOF 4
ENDMDL
MODEL 8
REMARK VINA RESULT:    -3.534      1.646      2.821
REMARK INTER + INTRA:          -4.806
REMARK INTER:                  -4.464
REMARK INTRA:                  -0.341
REMARK UNBOUND:                -0.446
REMARK SMILES C=CC[C@@H](C)C(=O)CC
REMARK SMILES IDX 4 1 5 2 6 3 7 4 8 5 9 6 3 7 2 8 1 9
REMARK H PARENT
REMARK Flexibility Score: inf
ROOT
ATOM      1  C   UNL     1      -9.213 -27.812 -18.846  1.00  0.00     0.057 C 
ATOM      2  C   UNL     1     -10.259 -27.010 -18.059  1.00  0.00     0.016 C 
ENDROOT
BRANCH   1   3
ATOM      3  C   UNL     1      -7.821 -27.410 -18.408  1.00  0.00     0.135 C 
ATOM      4  O   UNL     1      -7.624 -26.281 -17.977  1.00  0.00    -0.299 OA
BRANCH   3   5
ATOM      5  C   UNL     1      -6.668 -28.376 -18.485  1.00  0.00     0.072 C 
ATOM      6  C   UNL     1      -6.049 -28.371 -19.879  1.00  0.00     0.012 C 
ENDBRANCH   3   5
ENDBRANCH   1   3
BRANCH   1   7
ATOM      7  C   UNL     1      -9.403 -29.333 -18.665  1.00  0.00     0.038 C 
BRANCH   7   8
ATOM      8  C   UNL     1      -9.702 -30.031 -19.966  1.00  0.00    -0.034 C 
ATOM      9  C   UNL     1     -10.702 -29.642 -20.761  1.00  0.00     0.004 C 
ENDBRANCH   7   8
ENDBRANCH   1   7
TORSDOF 4
ENDMDL
MODEL 9
REMARK VINA RESULT:    -3.510      4.808      6.788
REMARK INTER + INTRA:          -4.777
REMARK INTER:                  -4.247
REMARK INTRA:                  -0.529
REMARK UNBOUND:                -0.446
REMARK SMILES C=CC[C@@H](C)C(=O)CC
REMARK SMILES IDX 4 1 5 2 6 3 7 4 8 5 9 6 3 7 2 8 1 9
REMARK H PARENT
REMARK Flexibility Score: inf
ROOT
ATOM      1  C   UNL     1      -8.113 -22.184 -16.657  1.00  0.00     0.057 C 
ATOM      2  C   UNL     1      -7.639 -21.838 -18.076  1.00  0.00     0.016 C 
ENDROOT
BRANCH   1   3
ATOM      3  C   UNL     1      -8.905 -23.474 -16.680  1.00  0.00     0.135 C 
ATOM      4  O   UNL     1      -9.484 -23.847 -15.668  1.00  0.00    -0.299 OA
BRANCH   3   5
ATOM      5  C   UNL     1      -9.004 -24.307 -17.931  1.00  0.00     0.072 C 
ATOM      6  C   UNL     1      -8.310 -25.651 -17.742  1.00  0.00     0.012 C 
ENDBRANCH   3   5
ENDBRANCH   1   3
BRANCH   1   7
ATOM      7  C   UNL     1      -6.931 -22.309 -15.673  1.00  0.00     0.038 C 
BRANCH   7   8
ATOM      8  C   UNL     1      -5.815 -23.158 -16.224  1.00  0.00    -0.034 C 
ATOM      9  C   UNL     1      -5.419 -24.281 -15.617  1.00  0.00     0.004 C 
ENDBRANCH   7   8
ENDBRANCH   1   7
TORSDOF 4
ENDMDL
