MODEL 1
REMARK VINA RESULT:    -6.686      0.000      0.000
REMARK INTER + INTRA:          -7.167
REMARK INTER:                  -7.077
REMARK INTRA:                  -0.090
REMARK UNBOUND:                -0.090
REMARK SMILES C=C(C)[C@@H]1CC=C(C)C(=O)C1
REMARK SMILES IDX 8 1 7 2 6 3 5 4 4 5 11 6 9 7 10 8 2 9 1 10 3 11
REMARK H PARENT
REMARK Flexibility Score: inf
ROOT
ATOM      1  C   UNL     1     -10.646 -17.318  25.856  1.00  0.00     0.048 C 
ATOM      2  C   UNL     1     -11.539 -16.560  26.798  1.00  0.00    -0.012 C 
ATOM      3  C   UNL     1     -12.695 -16.039  26.350  1.00  0.00    -0.019 C 
ATOM      4  C   UNL     1     -13.635 -15.287  27.254  1.00  0.00     0.036 C 
ATOM      5  C   UNL     1     -12.863 -14.525  28.348  1.00  0.00     0.025 C 
ATOM      6  C   UNL     1     -11.950 -15.492  29.128  1.00  0.00     0.089 C 
ATOM      7  C   UNL     1     -11.087 -16.282  28.184  1.00  0.00     0.158 C 
ATOM      8  O   UNL     1      -9.987 -16.739  28.595  1.00  0.00    -0.295 OA
ENDROOT
BRANCH   5   9
ATOM      9  C   UNL     1     -13.802 -13.767  29.276  1.00  0.00    -0.077 C 
ATOM     10  C   UNL     1     -14.369 -12.606  28.902  1.00  0.00     0.008 C 
ATOM     11  C   UNL     1     -14.113 -14.312  30.646  1.00  0.00     0.039 C 
ENDBRANCH   5   9
TORSDOF 1
ENDMDL
MODEL 2
REMARK VINA RESULT:    -5.969      2.868      4.654
REMARK INTER + INTRA:          -6.408
REMARK INTER:                  -6.313
REMARK INTRA:                  -0.095
REMARK UNBOUND:                -0.090
REMARK SMILES C=C(C)[C@@H]1CC=C(C)C(=O)C1
REMARK SMILES IDX 8 1 7 2 6 3 5 4 4 5 11 6 9 7 10 8 2 9 1 10 3 11
REMARK H PARENT
REMARK Flexibility Score: inf
ROOT
ATOM      1  C   UNL     1     -13.609 -13.639  28.648  1.00  0.00     0.048 C 
ATOM      2  C   UNL     1     -12.921 -14.859  29.196  1.00  0.00    -0.012 C 
ATOM      3  C   UNL     1     -12.123 -15.591  28.400  1.00  0.00    -0.019 C 
ATOM      4  C   UNL     1     -11.397 -16.811  28.902  1.00  0.00     0.036 C 
ATOM      5  C   UNL     1     -12.214 -17.535  29.988  1.00  0.00     0.025 C 
ATOM      6  C   UNL     1     -12.573 -16.560  31.126  1.00  0.00     0.089 C 
ATOM      7  C   UNL     1     -13.221 -15.320  30.574  1.00  0.00     0.158 C 
ATOM      8  O   UNL     1     -13.998 -14.654  31.310  1.00  0.00    -0.295 OA
ENDROOT
BRANCH   5   9
ATOM      9  C   UNL     1     -11.486 -18.766  30.513  1.00  0.00    -0.077 C 
ATOM     10  C   UNL     1     -10.151 -18.888  30.405  1.00  0.00     0.008 C 
ATOM     11  C   UNL     1     -12.261 -19.880  31.167  1.00  0.00     0.039 C 
ENDBRANCH   5   9
TORSDOF 1
ENDMDL
MODEL 3
REMARK VINA RESULT:    -5.838      1.850      2.853
REMARK INTER + INTRA:          -6.269
REMARK INTER:                  -6.174
REMARK INTRA:                  -0.095
REMARK UNBOUND:                -0.090
REMARK SMILES C=C(C)[C@@H]1CC=C(C)C(=O)C1
REMARK SMILES IDX 8 1 7 2 6 3 5 4 4 5 11 6 9 7 10 8 2 9 1 10 3 11
REMARK H PARENT
REMARK Flexibility Score: inf
ROOT
ATOM      1  C   UNL     1     -11.055 -17.350  30.505  1.00  0.00     0.048 C 
ATOM      2  C   UNL     1     -11.948 -16.170  30.234  1.00  0.00    -0.012 C 
ATOM      3  C   UNL     1     -12.926 -15.859  31.102  1.00  0.00    -0.019 C 
ATOM      4  C   UNL     1     -13.837 -14.678  30.888  1.00  0.00     0.036 C 
ATOM      5  C   UNL     1     -14.078 -14.427  29.387  1.00  0.00     0.025 C 
ATOM      6  C   UNL     1     -12.735 -14.270  28.649  1.00  0.00     0.089 C 
ATOM      7  C   UNL     1     -11.825 -15.429  28.954  1.00  0.00     0.158 C 
ATOM      8  O   UNL     1     -10.931 -15.742  28.124  1.00  0.00    -0.295 OA
ENDROOT
BRANCH   5   9
ATOM      9  C   UNL     1     -14.990 -13.229  29.156  1.00  0.00    -0.077 C 
ATOM     10  C   UNL     1     -14.489 -12.017  28.858  1.00  0.00     0.008 C 
ATOM     11  C   UNL     1     -16.484 -13.386  29.260  1.00  0.00     0.039 C 
ENDBRANCH   5   9
TORSDOF 1
ENDMDL
MODEL 4
REMARK VINA RESULT:    -5.803      1.980      2.642
REMARK INTER + INTRA:          -6.232
REMARK INTER:                  -6.143
REMARK INTRA:                  -0.089
REMARK UNBOUND:                -0.090
REMARK SMILES C=C(C)[C@@H]1CC=C(C)C(=O)C1
REMARK SMILES IDX 8 1 7 2 6 3 5 4 4 5 11 6 9 7 10 8 2 9 1 10 3 11
REMARK H PARENT
REMARK Flexibility Score: inf
ROOT
ATOM      1  C   UNL     1     -10.682 -17.039  29.855  1.00  0.00     0.048 C 
ATOM      2  C   UNL     1     -11.856 -16.120  29.657  1.00  0.00    -0.012 C 
ATOM      3  C   UNL     1     -12.069 -15.558  28.455  1.00  0.00    -0.019 C 
ATOM      4  C   UNL     1     -13.239 -14.645  28.197  1.00  0.00     0.036 C 
ATOM      5  C   UNL     1     -13.604 -13.840  29.459  1.00  0.00     0.025 C 
ATOM      6  C   UNL     1     -13.856 -14.792  30.645  1.00  0.00     0.089 C 
ATOM      7  C   UNL     1     -12.701 -15.740  30.816  1.00  0.00     0.158 C 
ATOM      8  O   UNL     1     -12.480 -16.239  31.952  1.00  0.00    -0.295 OA
ENDROOT
BRANCH   5   9
ATOM      9  C   UNL     1     -14.792 -12.919  29.216  1.00  0.00    -0.077 C 
ATOM     10  C   UNL     1     -14.619 -11.630  28.874  1.00  0.00     0.008 C 
ATOM     11  C   UNL     1     -16.197 -13.445  29.356  1.00  0.00     0.039 C 
ENDBRANCH   5   9
TORSDOF 1
ENDMDL
MODEL 5
REMARK VINA RESULT:    -5.595      2.886      4.425
REMARK INTER + INTRA:          -6.012
REMARK INTER:                  -5.919
REMARK INTRA:                  -0.093
REMARK UNBOUND:                -0.090
REMARK SMILES C=C(C)[C@@H]1CC=C(C)C(=O)C1
REMARK SMILES IDX 8 1 7 2 6 3 5 4 4 5 11 6 9 7 10 8 2 9 1 10 3 11
REMARK H PARENT
REMARK Flexibility Score: inf
ROOT
ATOM      1  C   UNL     1     -11.843 -20.326  31.567  1.00  0.00     0.048 C 
ATOM      2  C   UNL     1     -11.987 -19.367  30.417  1.00  0.00    -0.012 C 
ATOM      3  C   UNL     1     -12.609 -19.760  29.293  1.00  0.00    -0.019 C 
ATOM      4  C   UNL     1     -12.796 -18.835  28.119  1.00  0.00     0.036 C 
ATOM      5  C   UNL     1     -11.623 -17.844  28.001  1.00  0.00     0.025 C 
ATOM      6  C   UNL     1     -11.437 -17.077  29.325  1.00  0.00     0.089 C 
ATOM      7  C   UNL     1     -11.336 -18.035  30.480  1.00  0.00     0.158 C 
ATOM      8  O   UNL     1     -10.722 -17.678  31.521  1.00  0.00    -0.295 OA
ENDROOT
BRANCH   5   9
ATOM      9  C   UNL     1     -11.804 -16.895  26.823  1.00  0.00    -0.077 C 
ATOM     10  C   UNL     1     -12.827 -16.023  26.779  1.00  0.00     0.008 C 
ATOM     11  C   UNL     1     -10.828 -16.920  25.676  1.00  0.00     0.039 C 
ENDBRANCH   5   9
TORSDOF 1
ENDMDL
MODEL 6
REMARK VINA RESULT:    -5.552      2.068      3.091
REMARK INTER + INTRA:          -5.967
REMARK INTER:                  -5.870
REMARK INTRA:                  -0.097
REMARK UNBOUND:                -0.090
REMARK SMILES C=C(C)[C@@H]1CC=C(C)C(=O)C1
REMARK SMILES IDX 8 1 7 2 6 3 5 4 4 5 11 6 9 7 10 8 2 9 1 10 3 11
REMARK H PARENT
REMARK Flexibility Score: inf
ROOT
ATOM      1  C   UNL     1     -11.006 -16.894  25.756  1.00  0.00     0.048 C 
ATOM      2  C   UNL     1     -11.208 -16.558  27.208  1.00  0.00    -0.012 C 
ATOM      3  C   UNL     1     -10.349 -17.028  28.129  1.00  0.00    -0.019 C 
ATOM      4  C   UNL     1     -10.495 -16.707  29.594  1.00  0.00     0.036 C 
ATOM      5  C   UNL     1     -11.977 -16.553  29.983  1.00  0.00     0.025 C 
ATOM      6  C   UNL     1     -12.659 -15.502  29.084  1.00  0.00     0.089 C 
ATOM      7  C   UNL     1     -12.420 -15.814  27.632  1.00  0.00     0.158 C 
ATOM      8  O   UNL     1     -13.245 -15.403  26.773  1.00  0.00    -0.295 OA
ENDROOT
BRANCH   5   9
ATOM      9  C   UNL     1     -12.139 -16.218  31.460  1.00  0.00    -0.077 C 
ATOM     10  C   UNL     1     -13.323 -15.823  31.962  1.00  0.00     0.008 C 
ATOM     11  C   UNL     1     -10.962 -16.326  32.393  1.00  0.00     0.039 C 
ENDBRANCH   5   9
TORSDOF 1
ENDMDL
MODEL 7
REMARK VINA RESULT:    -5.531      1.954      4.535
REMARK INTER + INTRA:          -5.944
REMARK INTER:                  -5.852
REMARK INTRA:                  -0.092
REMARK UNBOUND:                -0.090
REMARK SMILES C=C(C)[C@@H]1CC=C(C)C(=O)C1
REMARK SMILES IDX 8 1 7 2 6 3 5 4 4 5 11 6 9 7 10 8 2 9 1 10 3 11
REMARK H PARENT
REMARK Flexibility Score: inf
ROOT
ATOM      1  C   UNL     1     -14.347 -14.985  32.515  1.00  0.00     0.048 C 
ATOM      2  C   UNL     1     -13.494 -15.323  31.323  1.00  0.00    -0.012 C 
ATOM      3  C   UNL     1     -13.579 -14.578  30.208  1.00  0.00    -0.019 C 
ATOM      4  C   UNL     1     -12.735 -14.861  28.993  1.00  0.00     0.036 C 
ATOM      5  C   UNL     1     -12.458 -16.370  28.849  1.00  0.00     0.025 C 
ATOM      6  C   UNL     1     -11.825 -16.922  30.141  1.00  0.00     0.089 C 
ATOM      7  C   UNL     1     -12.655 -16.547  31.338  1.00  0.00     0.158 C 
ATOM      8  O   UNL     1     -12.602 -17.267  32.371  1.00  0.00    -0.295 OA
ENDROOT
BRANCH   5   9
ATOM      9  C   UNL     1     -11.597 -16.670  27.629  1.00  0.00    -0.077 C 
ATOM     10  C   UNL     1     -12.047 -16.444  26.382  1.00  0.00     0.008 C 
ATOM     11  C   UNL     1     -10.211 -17.234  27.803  1.00  0.00     0.039 C 
ENDBRANCH   5   9
TORSDOF 1
ENDMDL
MODEL 8
REMARK VINA RESULT:    -5.516      2.546      4.336
REMARK INTER + INTRA:          -5.928
REMARK INTER:                  -5.837
REMARK INTRA:                  -0.091
REMARK UNBOUND:                -0.090
REMARK SMILES C=C(C)[C@@H]1CC=C(C)C(=O)C1
REMARK SMILES IDX 8 1 7 2 6 3 5 4 4 5 11 6 9 7 10 8 2 9 1 10 3 11
REMARK H PARENT
REMARK Flexibility Score: inf
ROOT
ATOM      1  C   UNL     1     -10.414 -16.384  32.509  1.00  0.00     0.048 C 
ATOM      2  C   UNL     1     -10.707 -16.544  31.043  1.00  0.00    -0.012 C 
ATOM      3  C   UNL     1     -10.080 -15.762  30.147  1.00  0.00    -0.019 C 
ATOM      4  C   UNL     1     -10.323 -15.892  28.666  1.00  0.00     0.036 C 
ATOM      5  C   UNL     1     -11.773 -16.324  28.377  1.00  0.00     0.025 C 
ATOM      6  C   UNL     1     -12.107 -17.621  29.139  1.00  0.00     0.089 C 
ATOM      7  C   UNL     1     -11.773 -17.476  30.599  1.00  0.00     0.158 C 
ATOM      8  O   UNL     1     -12.387 -18.184  31.441  1.00  0.00    -0.295 OA
ENDROOT
BRANCH   5   9
ATOM      9  C   UNL     1     -12.030 -16.469  26.883  1.00  0.00    -0.077 C 
ATOM     10  C   UNL     1     -13.222 -16.157  26.344  1.00  0.00     0.008 C 
ATOM     11  C   UNL     1     -10.939 -16.971  25.973  1.00  0.00     0.039 C 
ENDBRANCH   5   9
TORSDOF 1
ENDMDL
MODEL 9
REMARK VINA RESULT:    -5.416      2.461      4.715
REMARK INTER + INTRA:          -5.823
REMARK INTER:                  -5.735
REMARK INTRA:                  -0.088
REMARK UNBOUND:                -0.090
REMARK SMILES C=C(C)[C@@H]1CC=C(C)C(=O)C1
REMARK SMILES IDX 8 1 7 2 6 3 5 4 4 5 11 6 9 7 10 8 2 9 1 10 3 11
REMARK H PARENT
REMARK Flexibility Score: inf
ROOT
ATOM      1  C   UNL     1     -14.530 -13.032  29.374  1.00  0.00     0.048 C 
ATOM      2  C   UNL     1     -13.840 -14.259  29.905  1.00  0.00    -0.012 C 
ATOM      3  C   UNL     1     -14.001 -14.612  31.192  1.00  0.00    -0.019 C 
ATOM      4  C   UNL     1     -13.347 -15.840  31.770  1.00  0.00     0.036 C 
ATOM      5  C   UNL     1     -11.990 -16.115  31.097  1.00  0.00     0.025 C 
ATOM      6  C   UNL     1     -12.161 -16.210  29.568  1.00  0.00     0.089 C 
ATOM      7  C   UNL     1     -12.890 -15.003  29.042  1.00  0.00     0.158 C 
ATOM      8  O   UNL     1     -12.711 -14.652  27.846  1.00  0.00    -0.295 OA
ENDROOT
BRANCH   5   9
ATOM      9  C   UNL     1     -11.322 -17.360  31.665  1.00  0.00    -0.077 C 
ATOM     10  C   UNL     1     -10.170 -17.283  32.355  1.00  0.00     0.008 C 
ATOM     11  C   UNL     1     -11.949 -18.715  31.460  1.00  0.00     0.039 C 
ENDBRANCH   5   9
TORSDOF 1
ENDMDL
