MODEL 1
REMARK VINA RESULT:    -3.294      0.000      0.000
REMARK INTER + INTRA:          -7.457
REMARK INTER:                  -5.605
REMARK INTRA:                  -1.852
REMARK UNBOUND:                -1.852
REMARK SMILES CCCCCCCCCCCCCC(=O)[O-]
REMARK SMILES IDX 8 1 9 2 10 3 11 4 12 5 13 6 14 7 15 8 16 9 7 10 6 11 5 12
REMARK SMILES IDX 4 13 3 14 2 15 1 16
REMARK H PARENT
REMARK Flexibility Score: inf
ROOT
ATOM      1  C   UNL     1      45.215  30.261  88.399  1.00  0.00     0.000 C 
ENDROOT
BRANCH   1   2
ATOM      2  C   UNL     1      43.806  30.108  87.806  1.00  0.00     0.000 C 
BRANCH   2   3
ATOM      3  C   UNL     1      42.917  31.300  88.193  1.00  0.00     0.000 C 
BRANCH   3   4
ATOM      4  C   UNL     1      41.540  31.270  87.506  1.00  0.00     0.000 C 
BRANCH   4   5
ATOM      5  C   UNL     1      40.472  30.427  88.227  1.00  0.00     0.006 C 
BRANCH   5   6
ATOM      6  C   UNL     1      40.239  29.063  87.562  1.00  0.00     0.053 C 
BRANCH   6   7
ATOM      7  C   UNL     1      38.881  28.540  87.907  1.00  0.00     0.041 C 
ATOM      8  O   UNL     1      38.750  27.640  88.778  1.00  0.00    -0.550 OA
ATOM      9  O   UNL     1      37.753  29.080  87.302  1.00  0.00    -0.550 OA
ENDBRANCH   6   7
ENDBRANCH   5   6
ENDBRANCH   4   5
ENDBRANCH   3   4
ENDBRANCH   2   3
ENDBRANCH   1   2
BRANCH   1  10
ATOM     10  C   UNL     1      45.332  31.458  89.355  1.00  0.00     0.000 C 
BRANCH  10  11
ATOM     11  C   UNL     1      45.753  31.042  90.775  1.00  0.00    -0.000 C 
BRANCH  11  12
ATOM     12  C   UNL     1      44.618  31.199  91.799  1.00  0.00    -0.000 C 
BRANCH  12  13
ATOM     13  C   UNL     1      43.948  29.863  92.154  1.00  0.00    -0.000 C 
BRANCH  13  14
ATOM     14  C   UNL     1      42.656  29.665  91.347  1.00  0.00    -0.000 C 
BRANCH  14  15
ATOM     15  C   UNL     1      42.511  28.235  90.804  1.00  0.00    -0.003 C 
ATOM     16  C   UNL     1      43.859  27.557  90.555  1.00  0.00     0.004 C 
ENDBRANCH  14  15
ENDBRANCH  13  14
ENDBRANCH  12  13
ENDBRANCH  11  12
ENDBRANCH  10  11
ENDBRANCH   1  10
TORSDOF 12
ENDMDL
MODEL 2
REMARK VINA RESULT:    -3.242      1.686      2.383
REMARK INTER + INTRA:          -7.369
REMARK INTER:                  -5.658
REMARK INTRA:                  -1.712
REMARK UNBOUND:                -1.852
REMARK SMILES CCCCCCCCCCCCCC(=O)[O-]
REMARK SMILES IDX 8 1 9 2 10 3 11 4 12 5 13 6 14 7 15 8 16 9 7 10 6 11 5 12
REMARK SMILES IDX 4 13 3 14 2 15 1 16
REMARK H PARENT
REMARK Flexibility Score: inf
ROOT
ATOM      1  C   UNL     1      44.441  29.057  88.308  1.00  0.00     0.000 C 
ENDROOT
BRANCH   1   2
ATOM      2  C   UNL     1      43.708  30.040  87.383  1.00  0.00     0.000 C 
BRANCH   2   3
ATOM      3  C   UNL     1      42.783  30.964  88.188  1.00  0.00     0.000 C 
BRANCH   3   4
ATOM      4  C   UNL     1      41.394  31.132  87.546  1.00  0.00     0.000 C 
BRANCH   4   5
ATOM      5  C   UNL     1      40.213  30.673  88.422  1.00  0.00     0.006 C 
BRANCH   5   6
ATOM      6  C   UNL     1      40.652  29.820  89.619  1.00  0.00     0.053 C 
BRANCH   6   7
ATOM      7  C   UNL     1      40.386  28.373  89.355  1.00  0.00     0.041 C 
ATOM      8  O   UNL     1      40.996  27.775  88.429  1.00  0.00    -0.550 OA
ATOM      9  O   UNL     1      39.500  27.670  90.162  1.00  0.00    -0.550 OA
ENDBRANCH   6   7
ENDBRANCH   5   6
ENDBRANCH   4   5
ENDBRANCH   3   4
ENDBRANCH   2   3
ENDBRANCH   1   2
BRANCH   1  10
ATOM     10  C   UNL     1      45.937  29.379  88.453  1.00  0.00     0.000 C 
BRANCH  10  11
ATOM     11  C   UNL     1      46.279  30.812  88.010  1.00  0.00    -0.000 C 
BRANCH  11  12
ATOM     12  C   UNL     1      46.698  31.709  89.185  1.00  0.00    -0.000 C 
BRANCH  12  13
ATOM     13  C   UNL     1      46.376  31.088  90.552  1.00  0.00    -0.000 C 
BRANCH  13  14
ATOM     14  C   UNL     1      45.084  31.681  91.134  1.00  0.00    -0.000 C 
BRANCH  14  15
ATOM     15  C   UNL     1      44.133  30.607  91.683  1.00  0.00    -0.003 C 
ATOM     16  C   UNL     1      44.865  29.337  92.119  1.00  0.00     0.004 C 
ENDBRANCH  14  15
ENDBRANCH  13  14
ENDBRANCH  12  13
ENDBRANCH  11  12
ENDBRANCH  10  11
ENDBRANCH   1  10
TORSDOF 12
ENDMDL
MODEL 3
REMARK VINA RESULT:    -3.205      3.189      5.768
REMARK INTER + INTRA:          -7.305
REMARK INTER:                  -5.474
REMARK INTRA:                  -1.831
REMARK UNBOUND:                -1.852
REMARK SMILES CCCCCCCCCCCCCC(=O)[O-]
REMARK SMILES IDX 8 1 9 2 10 3 11 4 12 5 13 6 14 7 15 8 16 9 7 10 6 11 5 12
REMARK SMILES IDX 4 13 3 14 2 15 1 16
REMARK H PARENT
REMARK Flexibility Score: inf
ROOT
ATOM      1  C   UNL     1      41.487  30.926  87.555  1.00  0.00     0.000 C 
ENDROOT
BRANCH   1   2
ATOM      2  C   UNL     1      42.740  31.206  88.399  1.00  0.00     0.000 C 
BRANCH   2   3
ATOM      3  C   UNL     1      43.600  29.941  88.538  1.00  0.00     0.000 C 
BRANCH   3   4
ATOM      4  C   UNL     1      43.104  28.995  89.647  1.00  0.00     0.000 C 
BRANCH   4   5
ATOM      5  C   UNL     1      42.632  29.695  90.935  1.00  0.00     0.006 C 
BRANCH   5   6
ATOM      6  C   UNL     1      43.673  29.640  92.061  1.00  0.00     0.053 C 
BRANCH   6   7
ATOM      7  C   UNL     1      44.412  30.937  92.152  1.00  0.00     0.041 C 
ATOM      8  O   UNL     1      45.320  31.209  91.323  1.00  0.00    -0.550 OA
ATOM      9  O   UNL     1      44.066  31.868  93.124  1.00  0.00    -0.550 OA
ENDBRANCH   6   7
ENDBRANCH   5   6
ENDBRANCH   4   5
ENDBRANCH   3   4
ENDBRANCH   2   3
ENDBRANCH   1   2
BRANCH   1  10
ATOM     10  C   UNL     1      40.202  30.875  88.397  1.00  0.00     0.000 C 
BRANCH  10  11
ATOM     11  C   UNL     1      39.261  29.735  87.972  1.00  0.00    -0.000 C 
BRANCH  11  12
ATOM     12  C   UNL     1      39.597  28.404  88.662  1.00  0.00    -0.000 C 
BRANCH  12  13
ATOM     13  C   UNL     1      39.843  27.262  87.665  1.00  0.00    -0.000 C 
BRANCH  13  14
ATOM     14  C   UNL     1      41.205  27.423  86.971  1.00  0.00    -0.000 C 
BRANCH  14  15
ATOM     15  C   UNL     1      41.074  27.870  85.507  1.00  0.00    -0.003 C 
ATOM     16  C   UNL     1      42.364  28.480  84.959  1.00  0.00     0.004 C 
ENDBRANCH  14  15
ENDBRANCH  13  14
ENDBRANCH  12  13
ENDBRANCH  11  12
ENDBRANCH  10  11
ENDBRANCH   1  10
TORSDOF 12
ENDMDL
MODEL 4
REMARK VINA RESULT:    -3.193      3.514      5.962
REMARK INTER + INTRA:          -7.285
REMARK INTER:                  -5.642
REMARK INTRA:                  -1.642
REMARK UNBOUND:                -1.852
REMARK SMILES CCCCCCCCCCCCCC(=O)[O-]
REMARK SMILES IDX 8 1 9 2 10 3 11 4 12 5 13 6 14 7 15 8 16 9 7 10 6 11 5 12
REMARK SMILES IDX 4 13 3 14 2 15 1 16
REMARK H PARENT
REMARK Flexibility Score: inf
ROOT
ATOM      1  C   UNL     1      42.552  29.374  90.630  1.00  0.00     0.000 C 
ENDROOT
BRANCH   1   2
ATOM      2  C   UNL     1      43.310  29.515  91.958  1.00  0.00     0.000 C 
BRANCH   2   3
ATOM      3  C   UNL     1      44.813  29.712  91.713  1.00  0.00     0.000 C 
BRANCH   3   4
ATOM      4  C   UNL     1      45.224  31.195  91.653  1.00  0.00     0.000 C 
BRANCH   4   5
ATOM      5  C   UNL     1      45.595  31.710  90.250  1.00  0.00     0.006 C 
BRANCH   5   6
ATOM      6  C   UNL     1      46.980  31.239  89.786  1.00  0.00     0.053 C 
BRANCH   6   7
ATOM      7  C   UNL     1      47.181  31.554  88.338  1.00  0.00     0.041 C 
ATOM      8  O   UNL     1      47.849  32.565  87.997  1.00  0.00    -0.550 OA
ATOM      9  O   UNL     1      46.670  30.705  87.364  1.00  0.00    -0.550 OA
ENDBRANCH   6   7
ENDBRANCH   5   6
ENDBRANCH   4   5
ENDBRANCH   3   4
ENDBRANCH   2   3
ENDBRANCH   1   2
BRANCH   1  10
ATOM     10  C   UNL     1      43.414  28.758  89.516  1.00  0.00     0.000 C 
BRANCH  10  11
ATOM     11  C   UNL     1      43.388  29.588  88.221  1.00  0.00    -0.000 C 
BRANCH  11  12
ATOM     12  C   UNL     1      42.623  30.911  88.382  1.00  0.00    -0.000 C 
BRANCH  12  13
ATOM     13  C   UNL     1      41.399  31.006  87.459  1.00  0.00    -0.000 C 
BRANCH  13  14
ATOM     14  C   UNL     1      40.097  30.820  88.253  1.00  0.00    -0.000 C 
BRANCH  14  15
ATOM     15  C   UNL     1      39.547  29.388  88.163  1.00  0.00    -0.003 C 
ATOM     16  C   UNL     1      40.085  28.624  86.952  1.00  0.00     0.004 C 
ENDBRANCH  14  15
ENDBRANCH  13  14
ENDBRANCH  12  13
ENDBRANCH  11  12
ENDBRANCH  10  11
ENDBRANCH   1  10
TORSDOF 12
ENDMDL
MODEL 5
REMARK VINA RESULT:    -3.165      2.149      4.825
REMARK INTER + INTRA:          -7.239
REMARK INTER:                  -5.673
REMARK INTRA:                  -1.566
REMARK UNBOUND:                -1.852
REMARK SMILES CCCCCCCCCCCCCC(=O)[O-]
REMARK SMILES IDX 8 1 9 2 10 3 11 4 12 5 13 6 14 7 15 8 16 9 7 10 6 11 5 12
REMARK SMILES IDX 4 13 3 14 2 15 1 16
REMARK H PARENT
REMARK Flexibility Score: inf
ROOT
ATOM      1  C   UNL     1      43.792  29.937  87.917  1.00  0.00     0.000 C 
ENDROOT
BRANCH   1   2
ATOM      2  C   UNL     1      45.236  30.108  88.412  1.00  0.00     0.000 C 
BRANCH   2   3
ATOM      3  C   UNL     1      45.418  31.464  89.110  1.00  0.00     0.000 C 
BRANCH   3   4
ATOM      4  C   UNL     1      45.902  31.330  90.566  1.00  0.00     0.000 C 
BRANCH   4   5
ATOM      5  C   UNL     1      44.791  31.406  91.629  1.00  0.00     0.006 C 
BRANCH   5   6
ATOM      6  C   UNL     1      44.541  30.064  92.330  1.00  0.00     0.053 C 
BRANCH   6   7
ATOM      7  C   UNL     1      43.481  29.290  91.612  1.00  0.00     0.041 C 
ATOM      8  O   UNL     1      42.369  29.825  91.357  1.00  0.00    -0.550 OA
ATOM      9  O   UNL     1      43.736  27.994  91.182  1.00  0.00    -0.550 OA
ENDBRANCH   6   7
ENDBRANCH   5   6
ENDBRANCH   4   5
ENDBRANCH   3   4
ENDBRANCH   2   3
ENDBRANCH   1   2
BRANCH   1  10
ATOM     10  C   UNL     1      42.915  31.168  88.201  1.00  0.00     0.000 C 
BRANCH  10  11
ATOM     11  C   UNL     1      41.554  31.101  87.487  1.00  0.00    -0.000 C 
BRANCH  11  12
ATOM     12  C   UNL     1      40.397  30.794  88.450  1.00  0.00    -0.000 C 
BRANCH  12  13
ATOM     13  C   UNL     1      39.472  29.681  87.933  1.00  0.00    -0.000 C 
BRANCH  13  14
ATOM     14  C   UNL     1      40.252  28.375  87.718  1.00  0.00    -0.000 C 
BRANCH  14  15
ATOM     15  C   UNL     1      40.829  27.808  89.024  1.00  0.00    -0.003 C 
ATOM     16  C   UNL     1      39.751  27.510  90.065  1.00  0.00     0.004 C 
ENDBRANCH  14  15
ENDBRANCH  13  14
ENDBRANCH  12  13
ENDBRANCH  11  12
ENDBRANCH  10  11
ENDBRANCH   1  10
TORSDOF 12
ENDMDL
MODEL 6
REMARK VINA RESULT:    -3.117      1.475      2.384
REMARK INTER + INTRA:          -7.156
REMARK INTER:                  -5.849
REMARK INTRA:                  -1.307
REMARK UNBOUND:                -1.852
REMARK SMILES CCCCCCCCCCCCCC(=O)[O-]
REMARK SMILES IDX 8 1 9 2 10 3 11 4 12 5 13 6 14 7 15 8 16 9 7 10 6 11 5 12
REMARK SMILES IDX 4 13 3 14 2 15 1 16
REMARK H PARENT
REMARK Flexibility Score: inf
ROOT
ATOM      1  C   UNL     1      42.954  30.598  88.145  1.00  0.00     0.000 C 
ENDROOT
BRANCH   1   2
ATOM      2  C   UNL     1      41.725  31.224  87.470  1.00  0.00     0.000 C 
BRANCH   2   3
ATOM      3  C   UNL     1      40.440  30.868  88.232  1.00  0.00     0.000 C 
BRANCH   3   4
ATOM      4  C   UNL     1      40.602  29.635  89.139  1.00  0.00     0.000 C 
BRANCH   4   5
ATOM      5  C   UNL     1      39.681  28.449  88.795  1.00  0.00     0.006 C 
BRANCH   5   6
ATOM      6  C   UNL     1      39.138  28.511  87.361  1.00  0.00     0.053 C 
BRANCH   6   7
ATOM      7  C   UNL     1      40.010  27.721  86.438  1.00  0.00     0.041 C 
ATOM      8  O   UNL     1      40.807  28.309  85.659  1.00  0.00    -0.550 OA
ATOM      9  O   UNL     1      39.980  26.332  86.471  1.00  0.00    -0.550 OA
ENDBRANCH   6   7
ENDBRANCH   5   6
ENDBRANCH   4   5
ENDBRANCH   3   4
ENDBRANCH   2   3
ENDBRANCH   1   2
BRANCH   1  10
ATOM     10  C   UNL     1      43.750  31.609  88.987  1.00  0.00     0.000 C 
BRANCH  10  11
ATOM     11  C   UNL     1      45.233  31.225  89.127  1.00  0.00    -0.000 C 
BRANCH  11  12
ATOM     12  C   UNL     1      45.607  30.825  90.562  1.00  0.00    -0.000 C 
BRANCH  12  13
ATOM     13  C   UNL     1      44.944  31.719  91.621  1.00  0.00    -0.000 C 
BRANCH  13  14
ATOM     14  C   UNL     1      44.127  30.880  92.615  1.00  0.00    -0.000 C 
BRANCH  14  15
ATOM     15  C   UNL     1      44.215  29.373  92.329  1.00  0.00    -0.003 C 
ATOM     16  C   UNL     1      42.861  28.758  91.975  1.00  0.00     0.004 C 
ENDBRANCH  14  15
ENDBRANCH  13  14
ENDBRANCH  12  13
ENDBRANCH  11  12
ENDBRANCH  10  11
ENDBRANCH   1  10
TORSDOF 12
ENDMDL
MODEL 7
REMARK VINA RESULT:    -3.113      1.727      3.079
REMARK INTER + INTRA:          -7.149
REMARK INTER:                  -5.440
REMARK INTRA:                  -1.709
REMARK UNBOUND:                -1.852
REMARK SMILES CCCCCCCCCCCCCC(=O)[O-]
REMARK SMILES IDX 8 1 9 2 10 3 11 4 12 5 13 6 14 7 15 8 16 9 7 10 6 11 5 12
REMARK SMILES IDX 4 13 3 14 2 15 1 16
REMARK H PARENT
REMARK Flexibility Score: inf
ROOT
ATOM      1  C   UNL     1      43.725  30.066  87.980  1.00  0.00     0.000 C 
ENDROOT
BRANCH   1   2
ATOM      2  C   UNL     1      42.850  31.313  88.175  1.00  0.00     0.000 C 
BRANCH   2   3
ATOM      3  C   UNL     1      41.560  31.211  87.348  1.00  0.00     0.000 C 
BRANCH   3   4
ATOM      4  C   UNL     1      40.307  30.988  88.215  1.00  0.00     0.000 C 
BRANCH   4   5
ATOM      5  C   UNL     1      39.791  29.538  88.251  1.00  0.00     0.006 C 
BRANCH   5   6
ATOM      6  C   UNL     1      40.349  28.676  87.110  1.00  0.00     0.053 C 
BRANCH   6   7
ATOM      7  C   UNL     1      40.896  27.391  87.646  1.00  0.00     0.041 C 
ATOM      8  O   UNL     1      41.196  27.289  88.865  1.00  0.00    -0.550 OA
ATOM      9  O   UNL     1      41.029  26.290  86.810  1.00  0.00    -0.550 OA
ENDBRANCH   6   7
ENDBRANCH   5   6
ENDBRANCH   4   5
ENDBRANCH   3   4
ENDBRANCH   2   3
ENDBRANCH   1   2
BRANCH   1  10
ATOM     10  C   UNL     1      43.999  29.320  89.297  1.00  0.00     0.000 C 
BRANCH  10  11
ATOM     11  C   UNL     1      43.742  30.195  90.536  1.00  0.00    -0.000 C 
BRANCH  11  12
ATOM     12  C   UNL     1      45.011  30.424  91.371  1.00  0.00    -0.000 C 
BRANCH  12  13
ATOM     13  C   UNL     1      46.289  29.969  90.649  1.00  0.00    -0.000 C 
BRANCH  13  14
ATOM     14  C   UNL     1      47.188  31.169  90.317  1.00  0.00    -0.000 C 
BRANCH  14  15
ATOM     15  C   UNL     1      46.785  31.867  89.009  1.00  0.00    -0.003 C 
ATOM     16  C   UNL     1      47.239  31.101  87.766  1.00  0.00     0.004 C 
ENDBRANCH  14  15
ENDBRANCH  13  14
ENDBRANCH  12  13
ENDBRANCH  11  12
ENDBRANCH  10  11
ENDBRANCH   1  10
TORSDOF 12
ENDMDL
MODEL 8
REMARK VINA RESULT:    -3.102      2.037      3.510
REMARK INTER + INTRA:          -7.130
REMARK INTER:                  -5.071
REMARK INTRA:                  -2.059
REMARK UNBOUND:                -1.852
REMARK SMILES CCCCCCCCCCCCCC(=O)[O-]
REMARK SMILES IDX 8 1 9 2 10 3 11 4 12 5 13 6 14 7 15 8 16 9 7 10 6 11 5 12
REMARK SMILES IDX 4 13 3 14 2 15 1 16
REMARK H PARENT
REMARK Flexibility Score: inf
ROOT
ATOM      1  C   UNL     1      45.243  27.708  90.725  1.00  0.00     0.000 C 
ENDROOT
BRANCH   1   2
ATOM      2  C   UNL     1      43.738  27.407  90.792  1.00  0.00     0.000 C 
BRANCH   2   3
ATOM      3  C   UNL     1      43.020  27.920  89.535  1.00  0.00     0.000 C 
BRANCH   3   4
ATOM      4  C   UNL     1      41.564  28.342  89.803  1.00  0.00     0.000 C 
BRANCH   4   5
ATOM      5  C   UNL     1      41.269  29.836  89.576  1.00  0.00     0.006 C 
BRANCH   5   6
ATOM      6  C   UNL     1      40.566  30.110  88.240  1.00  0.00     0.053 C 
BRANCH   6   7
ATOM      7  C   UNL     1      41.548  30.604  87.226  1.00  0.00     0.041 C 
ATOM      8  O   UNL     1      41.689  31.840  87.029  1.00  0.00    -0.550 OA
ATOM      9  O   UNL     1      42.342  29.701  86.530  1.00  0.00    -0.550 OA
ENDBRANCH   6   7
ENDBRANCH   5   6
ENDBRANCH   4   5
ENDBRANCH   3   4
ENDBRANCH   2   3
ENDBRANCH   1   2
BRANCH   1  10
ATOM     10  C   UNL     1      45.691  28.741  91.772  1.00  0.00     0.000 C 
BRANCH  10  11
ATOM     11  C   UNL     1      44.506  29.473  92.425  1.00  0.00    -0.000 C 
BRANCH  11  12
ATOM     12  C   UNL     1      44.435  30.955  92.028  1.00  0.00    -0.000 C 
BRANCH  12  13
ATOM     13  C   UNL     1      45.326  31.291  90.821  1.00  0.00    -0.000 C 
BRANCH  13  14
ATOM     14  C   UNL     1      44.489  31.412  89.539  1.00  0.00    -0.000 C 
BRANCH  14  15
ATOM     15  C   UNL     1      45.176  30.775  88.321  1.00  0.00    -0.003 C 
ATOM     16  C   UNL     1      46.603  30.317  88.621  1.00  0.00     0.004 C 
ENDBRANCH  14  15
ENDBRANCH  13  14
ENDBRANCH  12  13
ENDBRANCH  11  12
ENDBRANCH  10  11
ENDBRANCH   1  10
TORSDOF 12
ENDMDL
MODEL 9
REMARK VINA RESULT:    -3.076      3.729      6.309
REMARK INTER + INTRA:          -7.087
REMARK INTER:                  -5.324
REMARK INTRA:                  -1.762
REMARK UNBOUND:                -1.852
REMARK SMILES CCCCCCCCCCCCCC(=O)[O-]
REMARK SMILES IDX 8 1 9 2 10 3 11 4 12 5 13 6 14 7 15 8 16 9 7 10 6 11 5 12
REMARK SMILES IDX 4 13 3 14 2 15 1 16
REMARK H PARENT
REMARK Flexibility Score: inf
ROOT
ATOM      1  C   UNL     1      42.228  27.993  90.662  1.00  0.00     0.000 C 
ENDROOT
BRANCH   1   2
ATOM      2  C   UNL     1      42.601  29.193  91.545  1.00  0.00     0.000 C 
BRANCH   2   3
ATOM      3  C   UNL     1      44.117  29.443  91.519  1.00  0.00     0.000 C 
BRANCH   3   4
ATOM      4  C   UNL     1      44.497  30.880  91.918  1.00  0.00     0.000 C 
BRANCH   4   5
ATOM      5  C   UNL     1      45.524  31.561  90.995  1.00  0.00     0.006 C 
BRANCH   5   6
ATOM      6  C   UNL     1      46.599  30.595  90.481  1.00  0.00     0.053 C 
BRANCH   6   7
ATOM      7  C   UNL     1      47.543  31.305  89.563  1.00  0.00     0.041 C 
ATOM      8  O   UNL     1      47.101  32.087  88.680  1.00  0.00    -0.550 OA
ATOM      9  O   UNL     1      48.914  31.142  89.713  1.00  0.00    -0.550 OA
ENDBRANCH   6   7
ENDBRANCH   5   6
ENDBRANCH   4   5
ENDBRANCH   3   4
ENDBRANCH   2   3
ENDBRANCH   1   2
BRANCH   1  10
ATOM     10  C   UNL     1      41.080  28.304  89.689  1.00  0.00     0.000 C 
BRANCH  10  11
ATOM     11  C   UNL     1      40.665  29.785  89.718  1.00  0.00    -0.000 C 
BRANCH  11  12
ATOM     12  C   UNL     1      40.257  30.312  88.333  1.00  0.00    -0.000 C 
BRANCH  12  13
ATOM     13  C   UNL     1      41.291  31.280  87.737  1.00  0.00    -0.000 C 
BRANCH  13  14
ATOM     14  C   UNL     1      42.428  30.512  87.047  1.00  0.00    -0.000 C 
BRANCH  14  15
ATOM     15  C   UNL     1      43.713  30.474  87.889  1.00  0.00    -0.003 C 
ATOM     16  C   UNL     1      44.431  29.127  87.811  1.00  0.00     0.004 C 
ENDBRANCH  14  15
ENDBRANCH  13  14
ENDBRANCH  12  13
ENDBRANCH  11  12
ENDBRANCH  10  11
ENDBRANCH   1  10
TORSDOF 12
ENDMDL
