MODEL 1
REMARK VINA RESULT:    -3.550      0.000      0.000
REMARK INTER + INTRA:          -5.093
REMARK INTER:                  -5.210
REMARK INTRA:                   0.117
REMARK UNBOUND:                 0.117
REMARK SMILES C=C1CC=CC(C)(C)CC=C(C)CCC1
REMARK SMILES IDX 2 1 1 2 15 3 14 4 13 5 11 6 12 7 10 8 3 10 4 11 5 12 6 13
REMARK SMILES IDX 7 14 8 15 9 16
REMARK H PARENT
REMARK Flexibility Score: 60.00
ROOT
ATOM      1  C   UNL     1      31.324   7.745  32.616  1.00  0.00    -0.074 C 
ATOM      2  C   UNL     1      30.847   7.449  31.394  1.00  0.00     0.008 C 
ENDROOT
BRANCH   1   3
ATOM      3  C   UNL     1      32.658   8.471  32.739  1.00  0.00     0.031 C 
BRANCH   3   4
ATOM      4  C   UNL     1      32.603   9.937  32.261  1.00  0.00     0.009 C 
BRANCH   4   5
ATOM      5  C   UNL     1      32.186  10.939  33.350  1.00  0.00     0.030 C 
BRANCH   5   6
ATOM      6  C   UNL     1      30.682  11.002  33.554  1.00  0.00    -0.077 C 
ATOM      7  C   UNL     1      29.822  11.366  32.370  1.00  0.00     0.039 C 
ATOM      8  C   UNL     1      30.063  10.758  34.733  1.00  0.00    -0.027 CG0
ATOM      9  G   UNL     1      30.724  10.378  36.039  1.00  0.00     0.000 G0
ENDBRANCH   5   6
ENDBRANCH   4   5
ENDBRANCH   3   4
ENDBRANCH   1   3
BRANCH   1  10
ATOM     10  C   UNL     1      30.517   7.335  33.833  1.00  0.00     0.057 C 
BRANCH  10  11
ATOM     11  C   UNL     1      31.370   7.184  35.064  1.00  0.00    -0.026 C 
ATOM     12  C   UNL     1      31.303   7.877  36.222  1.00  0.00    -0.024 C 
BRANCH  12  13
ATOM     13  C   UNL     1      30.336   8.991  36.647  1.00  0.00    -0.014 C 
ATOM     14  C   UNL     1      30.483   9.137  38.185  1.00  0.00     0.016 C 
ATOM     15  C   UNL     1      28.867   8.574  36.397  1.00  0.00     0.016 C 
BRANCH  13  16
ATOM     16  C   UNL     1      30.729  10.378  36.028  1.00  0.00     0.038 CG0
ATOM     17  G   UNL     1      30.052  10.746  34.727  1.00  0.00     0.000 G0
ENDBRANCH  13  16
ENDBRANCH  12  13
ENDBRANCH  10  11
ENDBRANCH   1  10
TORSDOF 0
ENDMDL
MODEL 2
REMARK VINA RESULT:    -3.462      1.347      3.032
REMARK INTER + INTRA:          -4.963
REMARK INTER:                  -5.496
REMARK INTRA:                   0.533
REMARK UNBOUND:                 0.117
REMARK SMILES C=C1CC=CC(C)(C)CC=C(C)CCC1
REMARK SMILES IDX 2 1 1 2 15 3 14 4 13 5 11 6 12 7 10 8 3 10 4 11 5 12 6 13
REMARK SMILES IDX 7 14 8 15 9 16
REMARK H PARENT
REMARK Flexibility Score: 60.00
ROOT
ATOM      1  C   UNL     1      31.986  10.350  31.975  1.00  0.00    -0.074 C 
ATOM      2  C   UNL     1      31.393  11.315  31.252  1.00  0.00     0.008 C 
ENDROOT
BRANCH   1   3
ATOM      3  C   UNL     1      33.082  10.727  32.965  1.00  0.00     0.031 C 
BRANCH   3   4
ATOM      4  C   UNL     1      32.544  11.413  34.238  1.00  0.00     0.009 C 
BRANCH   4   5
ATOM      5  C   UNL     1      31.057  11.142  34.520  1.00  0.00     0.030 C 
BRANCH   5   6
ATOM      6  C   UNL     1      30.833  10.280  35.750  1.00  0.00    -0.077 C 
ATOM      7  C   UNL     1      31.386  10.767  37.065  1.00  0.00     0.039 C 
ATOM      8  C   UNL     1      30.172   9.098  35.741  1.00  0.00    -0.027 CG0
ATOM      9  G   UNL     1      29.540   8.426  34.543  1.00  0.00     0.000 G0
ENDBRANCH   5   6
ENDBRANCH   4   5
ENDBRANCH   3   4
ENDBRANCH   1   3
BRANCH   1  10
ATOM     10  C   UNL     1      31.549   8.912  31.769  1.00  0.00     0.057 C 
BRANCH  10  11
ATOM     11  C   UNL     1      32.211   7.966  32.735  1.00  0.00    -0.026 C 
ATOM     12  C   UNL     1      31.637   7.210  33.697  1.00  0.00    -0.024 C 
BRANCH  12  13
ATOM     13  C   UNL     1      30.156   7.059  34.076  1.00  0.00    -0.014 C 
ATOM     14  C   UNL     1      30.111   6.104  35.299  1.00  0.00     0.016 C 
ATOM     15  C   UNL     1      29.365   6.350  32.951  1.00  0.00     0.016 C 
BRANCH  13  16
ATOM     16  C   UNL     1      29.530   8.418  34.549  1.00  0.00     0.038 CG0
ATOM     17  G   UNL     1      30.190   9.082  35.736  1.00  0.00     0.000 G0
ENDBRANCH  13  16
ENDBRANCH  12  13
ENDBRANCH  10  11
ENDBRANCH   1  10
TORSDOF 0
ENDMDL
MODEL 3
REMARK VINA RESULT:    -3.170      3.166      5.040
REMARK INTER + INTRA:          -4.535
REMARK INTER:                  -4.869
REMARK INTRA:                   0.334
REMARK UNBOUND:                 0.117
REMARK SMILES C=C1CC=CC(C)(C)CC=C(C)CCC1
REMARK SMILES IDX 2 1 1 2 15 3 14 4 13 5 11 6 12 7 10 8 3 10 4 11 5 12 6 13
REMARK SMILES IDX 7 14 8 15 9 16
REMARK H PARENT
REMARK Flexibility Score: 60.00
ROOT
ATOM      1  C   UNL     1      32.461  11.013  32.726  1.00  0.00    -0.074 C 
ATOM      2  C   UNL     1      32.851  11.118  34.008  1.00  0.00     0.008 C 
ENDROOT
BRANCH   1   3
ATOM      3  C   UNL     1      31.992  12.261  31.986  1.00  0.00     0.031 C 
BRANCH   3   4
ATOM      4  C   UNL     1      31.928  12.075  30.456  1.00  0.00     0.009 C 
BRANCH   4   5
ATOM      5  C   UNL     1      30.510  11.852  29.907  1.00  0.00     0.030 C 
BRANCH   5   6
ATOM      6  C   UNL     1      30.437  10.731  28.885  1.00  0.00    -0.077 C 
ATOM      7  C   UNL     1      30.883  11.028  27.476  1.00  0.00     0.039 C 
ATOM      8  C   UNL     1      29.994   9.480  29.157  1.00  0.00    -0.027 CG0
ATOM      9  G   UNL     1      29.504   8.967  30.492  1.00  0.00     0.000 G0
ENDBRANCH   5   6
ENDBRANCH   4   5
ENDBRANCH   3   4
ENDBRANCH   1   3
BRANCH   1  10
ATOM     10  C   UNL     1      32.490   9.650  32.063  1.00  0.00     0.057 C 
BRANCH  10  11
ATOM     11  C   UNL     1      31.725   8.614  32.842  1.00  0.00    -0.026 C 
ATOM     12  C   UNL     1      30.752   7.783  32.405  1.00  0.00    -0.024 C 
BRANCH  12  13
ATOM     13  C   UNL     1      30.161   7.616  30.999  1.00  0.00    -0.014 C 
ATOM     14  C   UNL     1      29.030   6.560  31.120  1.00  0.00     0.016 C 
ATOM     15  C   UNL     1      31.204   7.014  30.026  1.00  0.00     0.016 C 
BRANCH  13  16
ATOM     16  C   UNL     1      29.485   8.936  30.485  1.00  0.00     0.038 CG0
ATOM     17  G   UNL     1      29.990   9.477  29.167  1.00  0.00     0.000 G0
ENDBRANCH  13  16
ENDBRANCH  12  13
ENDBRANCH  10  11
ENDBRANCH   1  10
TORSDOF 0
ENDMDL
MODEL 4
REMARK VINA RESULT:    -3.153      4.037      5.714
REMARK INTER + INTRA:          -4.510
REMARK INTER:                  -4.631
REMARK INTRA:                   0.121
REMARK UNBOUND:                 0.117
REMARK SMILES C=C1CC=CC(C)(C)CC=C(C)CCC1
REMARK SMILES IDX 2 1 1 2 15 3 14 4 13 5 11 6 12 7 10 8 3 10 4 11 5 12 6 13
REMARK SMILES IDX 7 14 8 15 9 16
REMARK H PARENT
REMARK Flexibility Score: 60.00
ROOT
ATOM      1  C   UNL     1      29.072   9.103  27.336  1.00  0.00    -0.074 C 
ATOM      2  C   UNL     1      28.041   9.655  26.673  1.00  0.00     0.008 C 
ENDROOT
BRANCH   1   3
ATOM      3  C   UNL     1      30.345   8.752  26.575  1.00  0.00     0.031 C 
BRANCH   3   4
ATOM      4  C   UNL     1      31.240   9.975  26.285  1.00  0.00     0.009 C 
BRANCH   4   5
ATOM      5  C   UNL     1      32.135  10.393  27.462  1.00  0.00     0.030 C 
BRANCH   5   6
ATOM      6  C   UNL     1      31.568  11.558  28.255  1.00  0.00    -0.077 C 
ATOM      7  C   UNL     1      30.965  12.708  27.489  1.00  0.00     0.039 C 
ATOM      8  C   UNL     1      31.572  11.633  29.607  1.00  0.00    -0.027 CG0
ATOM      9  G   UNL     1      32.120  10.600  30.567  1.00  0.00     0.000 G0
ENDBRANCH   5   6
ENDBRANCH   4   5
ENDBRANCH   3   4
ENDBRANCH   1   3
BRANCH   1  10
ATOM     10  C   UNL     1      28.925   8.838  28.822  1.00  0.00     0.057 C 
BRANCH  10  11
ATOM     11  C   UNL     1      30.047   7.998  29.371  1.00  0.00    -0.026 C 
ATOM     12  C   UNL     1      30.939   8.313  30.336  1.00  0.00    -0.024 C 
BRANCH  12  13
ATOM     13  C   UNL     1      31.062   9.589  31.181  1.00  0.00    -0.014 C 
ATOM     14  C   UNL     1      31.624   9.150  32.560  1.00  0.00     0.016 C 
ATOM     15  C   UNL     1      29.670  10.204  31.463  1.00  0.00     0.016 C 
BRANCH  13  16
ATOM     16  C   UNL     1      32.103  10.596  30.577  1.00  0.00     0.038 CG0
ATOM     17  G   UNL     1      31.558  11.622  29.610  1.00  0.00     0.000 G0
ENDBRANCH  13  16
ENDBRANCH  12  13
ENDBRANCH  10  11
ENDBRANCH   1  10
TORSDOF 0
ENDMDL
MODEL 5
REMARK VINA RESULT:    -3.141      2.990      5.578
REMARK INTER + INTRA:          -4.493
REMARK INTER:                  -4.915
REMARK INTRA:                   0.423
REMARK UNBOUND:                 0.117
REMARK SMILES C=C1CC=CC(C)(C)CC=C(C)CCC1
REMARK SMILES IDX 2 1 1 2 15 3 14 4 13 5 11 6 12 7 10 8 3 10 4 11 5 12 6 13
REMARK SMILES IDX 7 14 8 15 9 16
REMARK H PARENT
REMARK Flexibility Score: 60.00
ROOT
ATOM      1  C   UNL     1      30.825   7.301  32.060  1.00  0.00    -0.074 C 
ATOM      2  C   UNL     1      29.686   7.073  32.736  1.00  0.00     0.008 C 
ENDROOT
BRANCH   1   3
ATOM      3  C   UNL     1      32.094   7.643  32.833  1.00  0.00     0.031 C 
BRANCH   3   4
ATOM      4  C   UNL     1      32.182   9.131  33.233  1.00  0.00     0.009 C 
BRANCH   4   5
ATOM      5  C   UNL     1      32.416  10.088  32.053  1.00  0.00     0.030 C 
BRANCH   5   6
ATOM      6  C   UNL     1      31.163  10.839  31.640  1.00  0.00    -0.077 C 
ATOM      7  C   UNL     1      30.324  11.467  32.724  1.00  0.00     0.039 C 
ATOM      8  C   UNL     1      30.746  10.978  30.359  1.00  0.00    -0.027 CG0
ATOM      9  G   UNL     1      31.428  10.436  29.123  1.00  0.00     0.000 G0
ENDBRANCH   5   6
ENDBRANCH   4   5
ENDBRANCH   3   4
ENDBRANCH   1   3
BRANCH   1  10
ATOM     10  C   UNL     1      30.804   7.218  30.546  1.00  0.00     0.057 C 
BRANCH  10  11
ATOM     11  C   UNL     1      29.556   7.817  29.955  1.00  0.00    -0.026 C 
ATOM     12  C   UNL     1      29.453   8.765  28.996  1.00  0.00    -0.024 C 
BRANCH  12  13
ATOM     13  C   UNL     1      30.552   9.488  28.205  1.00  0.00    -0.014 C 
ATOM     14  C   UNL     1      29.828  10.411  27.189  1.00  0.00     0.016 C 
ATOM     15  C   UNL     1      31.376   8.486  27.360  1.00  0.00     0.016 C 
BRANCH  13  16
ATOM     16  C   UNL     1      31.416  10.424  29.121  1.00  0.00     0.038 CG0
ATOM     17  G   UNL     1      30.739  10.956  30.364  1.00  0.00     0.000 G0
ENDBRANCH  13  16
ENDBRANCH  12  13
ENDBRANCH  10  11
ENDBRANCH   1  10
TORSDOF 0
ENDMDL
MODEL 6
REMARK VINA RESULT:    -3.043      1.608      3.262
REMARK INTER + INTRA:          -4.348
REMARK INTER:                  -5.376
REMARK INTRA:                   1.028
REMARK UNBOUND:                 0.117
REMARK SMILES C=C1CC=CC(C)(C)CC=C(C)CCC1
REMARK SMILES IDX 2 1 1 2 15 3 14 4 13 5 11 6 12 7 10 8 3 10 4 11 5 12 6 13
REMARK SMILES IDX 7 14 8 15 9 16
REMARK H PARENT
REMARK Flexibility Score: 60.00
ROOT
ATOM      1  C   UNL     1      31.721  10.760  34.056  1.00  0.00    -0.074 C 
ATOM      2  C   UNL     1      32.905  11.396  34.069  1.00  0.00     0.008 C 
ENDROOT
BRANCH   1   3
ATOM      3  C   UNL     1      31.296  10.005  32.802  1.00  0.00     0.031 C 
BRANCH   3   4
ATOM      4  C   UNL     1      32.218   8.816  32.463  1.00  0.00     0.009 C 
BRANCH   4   5
ATOM      5  C   UNL     1      32.056   7.606  33.396  1.00  0.00     0.030 C 
BRANCH   5   6
ATOM      6  C   UNL     1      30.605   7.204  33.601  1.00  0.00    -0.077 C 
ATOM      7  C   UNL     1      29.731   7.066  32.380  1.00  0.00     0.039 C 
ATOM      8  C   UNL     1      30.044   6.966  34.810  1.00  0.00    -0.027 CG0
ATOM      9  G   UNL     1      30.731   7.043  36.155  1.00  0.00     0.000 G0
ENDBRANCH   5   6
ENDBRANCH   4   5
ENDBRANCH   3   4
ENDBRANCH   1   3
BRANCH   1  10
ATOM     10  C   UNL     1      30.844  10.826  35.291  1.00  0.00     0.057 C 
BRANCH  10  11
ATOM     11  C   UNL     1      31.561  10.368  36.532  1.00  0.00    -0.026 C 
ATOM     12  C   UNL     1      31.305   9.285  37.300  1.00  0.00    -0.024 C 
BRANCH  12  13
ATOM     13  C   UNL     1      30.244   8.188  37.129  1.00  0.00    -0.014 C 
ATOM     14  C   UNL     1      29.025   8.860  36.443  1.00  0.00     0.016 C 
ATOM     15  C   UNL     1      29.739   7.688  38.504  1.00  0.00     0.016 C 
BRANCH  13  16
ATOM     16  C   UNL     1      30.727   7.049  36.165  1.00  0.00     0.038 CG0
ATOM     17  G   UNL     1      30.045   6.979  34.817  1.00  0.00     0.000 G0
ENDBRANCH  13  16
ENDBRANCH  12  13
ENDBRANCH  10  11
ENDBRANCH   1  10
TORSDOF 0
ENDMDL
MODEL 7
REMARK VINA RESULT:    -3.035      3.041      6.035
REMARK INTER + INTRA:          -4.338
REMARK INTER:                  -4.954
REMARK INTRA:                   0.616
REMARK UNBOUND:                 0.117
REMARK SMILES C=C1CC=CC(C)(C)CC=C(C)CCC1
REMARK SMILES IDX 2 1 1 2 15 3 14 4 13 5 11 6 12 7 10 8 3 10 4 11 5 12 6 13
REMARK SMILES IDX 7 14 8 15 9 16
REMARK H PARENT
REMARK Flexibility Score: 60.00
ROOT
ATOM      1  C   UNL     1      31.710  10.472  30.751  1.00  0.00    -0.074 C 
ATOM      2  C   UNL     1      32.508  11.547  30.634  1.00  0.00     0.008 C 
ENDROOT
BRANCH   1   3
ATOM      3  C   UNL     1      31.002  10.210  32.075  1.00  0.00     0.031 C 
BRANCH   3   4
ATOM      4  C   UNL     1      31.790   9.273  33.015  1.00  0.00     0.009 C 
BRANCH   4   5
ATOM      5  C   UNL     1      31.766   7.795  32.595  1.00  0.00     0.030 C 
BRANCH   5   6
ATOM      6  C   UNL     1      30.361   7.224  32.513  1.00  0.00    -0.077 C 
ATOM      7  C   UNL     1      29.560   7.129  33.787  1.00  0.00     0.039 C 
ATOM      8  C   UNL     1      29.781   6.789  31.369  1.00  0.00    -0.027 CG0
ATOM      9  G   UNL     1      30.395   6.793  29.987  1.00  0.00     0.000 G0
ENDBRANCH   5   6
ENDBRANCH   4   5
ENDBRANCH   3   4
ENDBRANCH   1   3
BRANCH   1  10
ATOM     10  C   UNL     1      31.552   9.547  29.560  1.00  0.00     0.057 C 
BRANCH  10  11
ATOM     11  C   UNL     1      30.199   9.670  28.911  1.00  0.00    -0.026 C 
ATOM     12  C   UNL     1      29.334   8.686  28.581  1.00  0.00    -0.024 C 
BRANCH  12  13
ATOM     13  C   UNL     1      29.444   7.168  28.789  1.00  0.00    -0.014 C 
ATOM     14  C   UNL     1      30.109   6.597  27.508  1.00  0.00     0.016 C 
ATOM     15  C   UNL     1      28.043   6.516  28.870  1.00  0.00     0.016 C 
BRANCH  13  16
ATOM     16  C   UNL     1      30.395   6.807  29.983  1.00  0.00     0.038 CG0
ATOM     17  G   UNL     1      29.764   6.783  31.357  1.00  0.00     0.000 G0
ENDBRANCH  13  16
ENDBRANCH  12  13
ENDBRANCH  10  11
ENDBRANCH   1  10
TORSDOF 0
ENDMDL
MODEL 8
REMARK VINA RESULT:    -3.022      4.963      7.203
REMARK INTER + INTRA:          -4.319
REMARK INTER:                  -4.904
REMARK INTRA:                   0.585
REMARK UNBOUND:                 0.117
REMARK SMILES C=C1CC=CC(C)(C)CC=C(C)CCC1
REMARK SMILES IDX 2 1 1 2 15 3 14 4 13 5 11 6 12 7 10 8 3 10 4 11 5 12 6 13
REMARK SMILES IDX 7 14 8 15 9 16
REMARK H PARENT
REMARK Flexibility Score: 60.00
ROOT
ATOM      1  C   UNL     1      29.675   7.262  27.149  1.00  0.00    -0.074 C 
ATOM      2  C   UNL     1      29.925   6.220  26.336  1.00  0.00     0.008 C 
ENDROOT
BRANCH   1   3
ATOM      3  C   UNL     1      28.329   7.970  27.058  1.00  0.00     0.031 C 
BRANCH   3   4
ATOM      4  C   UNL     1      28.365   9.240  26.182  1.00  0.00     0.009 C 
BRANCH   4   5
ATOM      5  C   UNL     1      27.862  10.508  26.890  1.00  0.00     0.030 C 
BRANCH   5   6
ATOM      6  C   UNL     1      28.821  11.679  26.764  1.00  0.00    -0.077 C 
ATOM      7  C   UNL     1      28.755  12.515  25.511  1.00  0.00     0.039 C 
ATOM      8  C   UNL     1      29.736  12.019  27.703  1.00  0.00    -0.027 CG0
ATOM      9  G   UNL     1      29.972  11.326  29.025  1.00  0.00     0.000 G0
ENDBRANCH   5   6
ENDBRANCH   4   5
ENDBRANCH   3   4
ENDBRANCH   1   3
BRANCH   1  10
ATOM     10  C   UNL     1      30.751   7.702  28.123  1.00  0.00     0.057 C 
BRANCH  10  11
ATOM     11  C   UNL     1      31.658   8.753  27.542  1.00  0.00    -0.026 C 
ATOM     12  C   UNL     1      31.908   9.997  28.008  1.00  0.00    -0.024 C 
BRANCH  12  13
ATOM     13  C   UNL     1      31.381  10.700  29.267  1.00  0.00    -0.014 C 
ATOM     14  C   UNL     1      32.350  11.879  29.550  1.00  0.00     0.016 C 
ATOM     15  C   UNL     1      31.471   9.768  30.500  1.00  0.00     0.016 C 
BRANCH  13  16
ATOM     16  C   UNL     1      29.964  11.333  29.038  1.00  0.00     0.038 CG0
ATOM     17  G   UNL     1      29.745  12.018  27.708  1.00  0.00     0.000 G0
ENDBRANCH  13  16
ENDBRANCH  12  13
ENDBRANCH  10  11
ENDBRANCH   1  10
TORSDOF 0
ENDMDL
MODEL 9
REMARK VINA RESULT:    -2.875      3.552      6.365
REMARK INTER + INTRA:          -4.103
REMARK INTER:                  -4.515
REMARK INTRA:                   0.412
REMARK UNBOUND:                 0.117
REMARK SMILES C=C1CC=CC(C)(C)CC=C(C)CCC1
REMARK SMILES IDX 2 1 1 2 15 3 14 4 13 5 11 6 12 7 10 8 3 10 4 11 5 12 6 13
REMARK SMILES IDX 7 14 8 15 9 16
REMARK H PARENT
REMARK Flexibility Score: 60.00
ROOT
ATOM      1  C   UNL     1      31.820  10.433  32.766  1.00  0.00    -0.074 C 
ATOM      2  C   UNL     1      32.716  11.164  33.452  1.00  0.00     0.008 C 
ENDROOT
BRANCH   1   3
ATOM      3  C   UNL     1      31.807   8.918  32.938  1.00  0.00     0.031 C 
BRANCH   3   4
ATOM      4  C   UNL     1      30.668   8.225  32.161  1.00  0.00     0.009 C 
BRANCH   4   5
ATOM      5  C   UNL     1      31.132   7.470  30.905  1.00  0.00     0.030 C 
BRANCH   5   6
ATOM      6  C   UNL     1      30.068   7.412  29.822  1.00  0.00    -0.077 C 
ATOM      7  C   UNL     1      29.000   6.354  29.935  1.00  0.00     0.039 C 
ATOM      8  C   UNL     1      30.020   8.247  28.757  1.00  0.00    -0.027 CG0
ATOM      9  G   UNL     1      30.981   9.372  28.447  1.00  0.00     0.000 G0
ENDBRANCH   5   6
ENDBRANCH   4   5
ENDBRANCH   3   4
ENDBRANCH   1   3
BRANCH   1  10
ATOM     10  C   UNL     1      30.859  11.144  31.833  1.00  0.00     0.057 C 
BRANCH  10  11
ATOM     11  C   UNL     1      31.566  11.870  30.722  1.00  0.00    -0.026 C 
ATOM     12  C   UNL     1      31.396  11.735  29.387  1.00  0.00    -0.024 C 
BRANCH  12  13
ATOM     13  C   UNL     1      30.423  10.840  28.606  1.00  0.00    -0.014 C 
ATOM     14  C   UNL     1      30.326  11.439  27.178  1.00  0.00     0.016 C 
ATOM     15  C   UNL     1      28.996  10.921  29.201  1.00  0.00     0.016 C 
BRANCH  13  16
ATOM     16  C   UNL     1      30.972   9.380  28.441  1.00  0.00     0.038 CG0
ATOM     17  G   UNL     1      30.009   8.262  28.768  1.00  0.00     0.000 G0
ENDBRANCH  13  16
ENDBRANCH  12  13
ENDBRANCH  10  11
ENDBRANCH   1  10
TORSDOF 0
ENDMDL
