MODEL 1
REMARK VINA RESULT:    -0.338      0.000      0.000
REMARK INTER + INTRA:          -2.208
REMARK INTER:                  -0.584
REMARK INTRA:                  -1.623
REMARK UNBOUND:                -1.623
REMARK SMILES OC[C@@H]1O[C@H](O[C@H]2[C@@H](O)[C@@H](O)[C@@H](O[C@H]3[C@@H](O)[C@@H](O)[C@H](O)O[C@H]3CO)O[C@H]2CO)[C@H](O)[C@@H](O)[C@@H]1O
REMARK SMILES IDX 7 1 26 2 25 3 12 4 10 5 8 6 6 7 5 8 3 9 33 10 4 11 31 12
REMARK SMILES IDX 29 13 2 14 1 15 34 17 32 19 30 21 27 23 28 24 9 26 11 28
REMARK SMILES IDX 13 30 14 31 22 32 15 33 21 34 17 35 19 36 23 37 24 38 16 40
REMARK SMILES IDX 18 42 20 44
REMARK H PARENT 1 16 34 18 32 20 30 22 28 25 9 27 11 29 24 39 16 41 18 43
REMARK H PARENT 20 45
REMARK Flexibility Score: inf
ROOT
ATOM      1  C   UNL     1      31.086  14.820  21.151  1.00  0.00     0.184 C 
ATOM      2  C   UNL     1      29.685  15.169  20.566  1.00  0.00     0.178 C 
ATOM      3  O   UNL     1      29.575  16.491  20.042  1.00  0.00    -0.341 OA
ATOM      4  C   UNL     1      30.625  16.907  19.175  1.00  0.00     0.282 C 
ATOM      5  C   UNL     1      32.019  16.711  19.804  1.00  0.00     0.202 C 
ATOM      6  C   UNL     1      32.234  15.254  20.227  1.00  0.00     0.180 C 
ENDROOT
BRANCH   1   7
ATOM      7  O   UNL     1      31.209  13.433  21.427  1.00  0.00    -0.341 OA
BRANCH   7   8
ATOM      8  C   UNL     1      30.718  13.073  22.712  1.00  0.00     0.282 C 
ATOM      9  C   UNL     1      28.460  12.378  23.094  1.00  0.00     0.178 C 
ATOM     10  C   UNL     1      28.628  11.196  22.105  1.00  0.00     0.177 C 
ATOM     11  O   UNL     1      29.339  13.438  22.776  1.00  0.00    -0.341 OA
ATOM     12  C   UNL     1      30.101  10.696  22.055  1.00  0.00     0.179 C 
ATOM     13  C   UNL     1      31.021  11.567  22.935  1.00  0.00     0.202 C 
BRANCH   9  14
ATOM     14  C   UNL     1      27.016  12.901  23.124  1.00  0.00     0.191 C 
BRANCH  14  15
ATOM     15  O   UNL     1      26.909  14.112  22.423  1.00  0.00    -0.394 OA
ATOM     16  H   UNL     1      27.601  14.712  22.808  1.00  0.00     0.210 HD
ENDBRANCH  14  15
ENDBRANCH   9  14
BRANCH  10  17
ATOM     17  O   UNL     1      28.182  11.547  20.818  1.00  0.00    -0.387 OA
ATOM     18  H   UNL     1      27.794  10.735  20.399  1.00  0.00     0.211 HD
ENDBRANCH  10  17
BRANCH  12  19
ATOM     19  O   UNL     1      30.173   9.366  22.500  1.00  0.00    -0.387 OA
ATOM     20  H   UNL     1      31.048   9.262  22.957  1.00  0.00     0.211 HD
ENDBRANCH  12  19
BRANCH  13  21
ATOM     21  O   UNL     1      32.374  11.317  22.640  1.00  0.00    -0.385 OA
ATOM     22  H   UNL     1      32.873  11.375  23.495  1.00  0.00     0.211 HD
ENDBRANCH  13  21
ENDBRANCH   7   8
ENDBRANCH   1   7
BRANCH   2  23
ATOM     23  C   UNL     1      29.025  14.110  19.653  1.00  0.00     0.191 C 
BRANCH  23  24
ATOM     24  O   UNL     1      29.814  13.796  18.546  1.00  0.00    -0.394 OA
ATOM     25  H   UNL     1      29.206  13.408  17.868  1.00  0.00     0.210 HD
ENDBRANCH  23  24
ENDBRANCH   2  23
BRANCH   6  26
ATOM     26  O   UNL     1      32.335  14.423  19.097  1.00  0.00    -0.387 OA
ATOM     27  H   UNL     1      31.773  14.829  18.387  1.00  0.00     0.211 HD
ENDBRANCH   6  26
BRANCH   5  28
ATOM     28  O   UNL     1      33.011  17.125  18.900  1.00  0.00    -0.385 OA
ATOM     29  H   UNL     1      33.628  17.725  19.395  1.00  0.00     0.211 HD
ENDBRANCH   5  28
BRANCH   4  30
ATOM     30  O   UNL     1      30.532  16.252  17.912  1.00  0.00    -0.341 OA
BRANCH  30  31
ATOM     31  C   UNL     1      30.215  17.123  16.826  1.00  0.00     0.184 C 
ATOM     32  C   UNL     1      28.827  16.779  16.243  1.00  0.00     0.178 C 
ATOM     33  C   UNL     1      31.258  16.971  15.694  1.00  0.00     0.180 C 
ATOM     34  O   UNL     1      28.809  15.439  15.774  1.00  0.00    -0.342 OA
ATOM     35  C   UNL     1      31.123  15.630  14.939  1.00  0.00     0.201 C 
ATOM     36  C   UNL     1      29.643  15.281  14.635  1.00  0.00     0.279 C 
BRANCH  32  37
ATOM     37  C   UNL     1      27.711  16.972  17.274  1.00  0.00     0.191 C 
BRANCH  37  38
ATOM     38  O   UNL     1      27.432  15.761  17.922  1.00  0.00    -0.394 OA
ATOM     39  H   UNL     1      27.512  15.043  17.242  1.00  0.00     0.210 HD
ENDBRANCH  37  38
ENDBRANCH  32  37
BRANCH  33  40
ATOM     40  O   UNL     1      32.561  17.111  16.193  1.00  0.00    -0.387 OA
ATOM     41  H   UNL     1      33.116  17.458  15.445  1.00  0.00     0.211 HD
ENDBRANCH  33  40
BRANCH  35  42
ATOM     42  O   UNL     1      31.765  14.581  15.622  1.00  0.00    -0.385 OA
ATOM     43  H   UNL     1      31.443  13.729  15.241  1.00  0.00     0.211 HD
ENDBRANCH  35  42
BRANCH  36  44
ATOM     44  O   UNL     1      29.158  16.046  13.558  1.00  0.00    -0.366 OA
ATOM     45  H   UNL     1      29.517  15.642  12.727  1.00  0.00     0.213 HD
ENDBRANCH  36  44
ENDBRANCH  30  31
ENDBRANCH   4  30
TORSDOF 18
ENDMDL
