MODEL 1
REMARK VINA RESULT:    -3.969      0.000      0.000
REMARK INTER + INTRA:          -6.126
REMARK INTER:                  -6.057
REMARK INTRA:                  -0.069
REMARK UNBOUND:                -0.069
REMARK SMILES CC1=CCC[C@@H](C)C(=O)C[C@@H](C(C)C)C(=O)C1
REMARK SMILES IDX 8 1 9 2 6 3 7 4 5 5 4 6 3 7 2 8 1 9 10 11 11 12 15 13 16 14
REMARK SMILES IDX 17 15 12 17 13 18 14 19
REMARK H PARENT
REMARK Flexibility Score: 70.00
ROOT
ATOM      1  C   UNL     1     102.220 115.575 124.423  1.00  0.00     0.136 C 
ATOM      2  O   UNL     1     102.594 115.233 125.536  1.00  0.00    -0.299 OA
ENDROOT
BRANCH   1   3
ATOM      3  C   UNL     1     101.522 114.559 123.530  1.00  0.00     0.053 C 
ATOM      4  C   UNL     1     101.564 113.151 124.144  1.00  0.00     0.016 C 
BRANCH   3   5
ATOM      5  C   UNL     1     102.079 114.548 122.084  1.00  0.00     0.015 C 
BRANCH   5   6
ATOM      6  C   UNL     1     101.067 114.978 120.994  1.00  0.00     0.028 C 
BRANCH   6   7
ATOM      7  C   UNL     1     101.666 115.949 120.007  1.00  0.00    -0.028 C 
ATOM      8  C   UNL     1     101.447 117.286 119.999  1.00  0.00    -0.070 CG0
ATOM      9  C   UNL     1     102.162 118.113 118.959  1.00  0.00     0.039 C 
ATOM     10  G   UNL     1     100.491 117.987 120.954  1.00  0.00     0.000 G0
ENDBRANCH   6   7
ENDBRANCH   5   6
ENDBRANCH   3   5
ENDBRANCH   1   3
BRANCH   1  11
ATOM     11  C   UNL     1     102.401 117.025 124.036  1.00  0.00     0.087 C 
BRANCH  11  12
ATOM     12  C   UNL     1     101.117 117.778 123.583  1.00  0.00     0.066 C 
BRANCH  12  13
ATOM     13  C   UNL     1     101.193 118.464 122.214  1.00  0.00     0.140 C 
ATOM     14  O   UNL     1     101.901 119.457 122.122  1.00  0.00    -0.299 OA
BRANCH  13  15
ATOM     15  C   UNL     1     100.476 117.998 120.963  1.00  0.00     0.106 CG0
ATOM     16  G   UNL     1     101.434 117.287 120.017  1.00  0.00     0.000 G0
ENDBRANCH  13  15
ENDBRANCH  12  13
BRANCH  12  17
ATOM     17  C   UNL     1     100.628 118.806 124.656  1.00  0.00    -0.006 C 
ATOM     18  C   UNL     1     100.443 118.184 126.051  1.00  0.00     0.008 C 
ATOM     19  C   UNL     1      99.353 119.551 124.229  1.00  0.00     0.008 C 
ENDBRANCH  12  17
ENDBRANCH  11  12
ENDBRANCH   1  11
TORSDOF 1
ENDMDL
MODEL 2
REMARK VINA RESULT:    -3.948      1.731      3.815
REMARK INTER + INTRA:          -6.094
REMARK INTER:                  -6.108
REMARK INTRA:                   0.013
REMARK UNBOUND:                -0.069
REMARK SMILES CC1=CCC[C@@H](C)C(=O)C[C@@H](C(C)C)C(=O)C1
REMARK SMILES IDX 8 1 9 2 6 3 7 4 5 5 4 6 3 7 2 8 1 9 10 11 11 12 15 13 16 14
REMARK SMILES IDX 17 15 12 17 13 18 14 19
REMARK H PARENT
REMARK Flexibility Score: 70.00
ROOT
ATOM      1  C   UNL     1     100.754 117.676 124.098  1.00  0.00     0.136 C 
ATOM      2  O   UNL     1     100.503 117.937 125.267  1.00  0.00    -0.299 OA
ENDROOT
BRANCH   1   3
ATOM      3  C   UNL     1     100.778 118.802 123.074  1.00  0.00     0.053 C 
ATOM      4  C   UNL     1     100.632 120.175 123.749  1.00  0.00     0.016 C 
BRANCH   3   5
ATOM      5  C   UNL     1      99.720 118.620 121.957  1.00  0.00     0.015 C 
BRANCH   5   6
ATOM      6  C   UNL     1     100.111 117.613 120.849  1.00  0.00     0.028 C 
BRANCH   6   7
ATOM      7  C   UNL     1     101.476 117.898 120.272  1.00  0.00    -0.028 C 
ATOM      8  C   UNL     1     102.539 117.060 120.334  1.00  0.00    -0.070 CG0
ATOM      9  C   UNL     1     103.820 117.494 119.666  1.00  0.00     0.039 C 
ATOM     10  G   UNL     1     102.518 115.729 121.073  1.00  0.00     0.000 G0
ENDBRANCH   6   7
ENDBRANCH   5   6
ENDBRANCH   3   5
ENDBRANCH   1   3
BRANCH   1  11
ATOM     11  C   UNL     1     101.112 116.246 123.759  1.00  0.00     0.087 C 
BRANCH  11  12
ATOM     12  C   UNL     1     102.630 115.904 123.754  1.00  0.00     0.066 C 
BRANCH  12  13
ATOM     13  C   UNL     1     103.282 115.785 122.372  1.00  0.00     0.140 C 
ATOM     14  O   UNL     1     104.503 115.728 122.330  1.00  0.00    -0.299 OA
BRANCH  13  15
ATOM     15  C   UNL     1     102.533 115.715 121.056  1.00  0.00     0.106 CG0
ATOM     16  G   UNL     1     102.543 117.063 120.348  1.00  0.00     0.000 G0
ENDBRANCH  13  15
ENDBRANCH  12  13
BRANCH  12  17
ATOM     17  C   UNL     1     102.947 114.623 124.594  1.00  0.00    -0.006 C 
ATOM     18  C   UNL     1     102.083 113.412 124.201  1.00  0.00     0.008 C 
ATOM     19  C   UNL     1     102.865 114.870 126.109  1.00  0.00     0.008 C 
ENDBRANCH  12  17
ENDBRANCH  11  12
ENDBRANCH   1  11
TORSDOF 1
ENDMDL
MODEL 3
REMARK VINA RESULT:    -3.940      2.090      5.359
REMARK INTER + INTRA:          -6.082
REMARK INTER:                  -5.957
REMARK INTRA:                  -0.125
REMARK UNBOUND:                -0.069
REMARK SMILES CC1=CCC[C@@H](C)C(=O)C[C@@H](C(C)C)C(=O)C1
REMARK SMILES IDX 8 1 9 2 6 3 7 4 5 5 4 6 3 7 2 8 1 9 10 11 11 12 15 13 16 14
REMARK SMILES IDX 17 15 12 17 13 18 14 19
REMARK H PARENT
REMARK Flexibility Score: 70.00
ROOT
ATOM      1  C   UNL     1     101.368 119.583 122.589  1.00  0.00     0.136 C 
ATOM      2  O   UNL     1     101.851 120.699 122.453  1.00  0.00    -0.299 OA
ENDROOT
BRANCH   1   3
ATOM      3  C   UNL     1     100.148 119.405 123.481  1.00  0.00     0.053 C 
ATOM      4  C   UNL     1      99.060 120.442 123.156  1.00  0.00     0.016 C 
BRANCH   3   5
ATOM      5  C   UNL     1     100.499 119.428 124.990  1.00  0.00     0.015 C 
BRANCH   5   6
ATOM      6  C   UNL     1     100.343 118.069 125.714  1.00  0.00     0.028 C 
BRANCH   6   7
ATOM      7  C   UNL     1     101.660 117.538 126.225  1.00  0.00    -0.028 C 
ATOM      8  C   UNL     1     102.361 116.522 125.666  1.00  0.00    -0.070 CG0
ATOM      9  C   UNL     1     103.682 116.148 126.289  1.00  0.00     0.039 C 
ATOM     10  G   UNL     1     101.865 115.716 124.472  1.00  0.00     0.000 G0
ENDBRANCH   6   7
ENDBRANCH   5   6
ENDBRANCH   3   5
ENDBRANCH   1   3
BRANCH   1  11
ATOM     11  C   UNL     1     101.972 118.455 121.785  1.00  0.00     0.087 C 
BRANCH  11  12
ATOM     12  C   UNL     1     101.496 117.020 122.153  1.00  0.00     0.066 C 
BRANCH  12  13
ATOM     13  C   UNL     1     102.371 116.264 123.159  1.00  0.00     0.140 C 
ATOM     14  O   UNL     1     103.557 116.136 122.888  1.00  0.00    -0.299 OA
BRANCH  13  15
ATOM     15  C   UNL     1     101.887 115.680 124.472  1.00  0.00     0.106 CG0
ATOM     16  G   UNL     1     102.367 116.515 125.651  1.00  0.00     0.000 G0
ENDBRANCH  13  15
ENDBRANCH  12  13
BRANCH  12  17
ATOM     17  C   UNL     1     101.270 116.132 120.886  1.00  0.00    -0.006 C 
ATOM     18  C   UNL     1     102.327 116.356 119.792  1.00  0.00     0.008 C 
ATOM     19  C   UNL     1      99.855 116.279 120.301  1.00  0.00     0.008 C 
ENDBRANCH  12  17
ENDBRANCH  11  12
ENDBRANCH   1  11
TORSDOF 1
ENDMDL
MODEL 4
REMARK VINA RESULT:    -3.889      2.024      4.191
REMARK INTER + INTRA:          -6.004
REMARK INTER:                  -6.153
REMARK INTRA:                   0.149
REMARK UNBOUND:                -0.069
REMARK SMILES CC1=CCC[C@@H](C)C(=O)C[C@@H](C(C)C)C(=O)C1
REMARK SMILES IDX 8 1 9 2 6 3 7 4 5 5 4 6 3 7 2 8 1 9 10 11 11 12 15 13 16 14
REMARK SMILES IDX 17 15 12 17 13 18 14 19
REMARK H PARENT
REMARK Flexibility Score: 70.00
ROOT
ATOM      1  C   UNL     1     100.478 117.931 122.661  1.00  0.00     0.136 C 
ATOM      2  O   UNL     1     100.597 119.065 123.105  1.00  0.00    -0.299 OA
ENDROOT
BRANCH   1   3
ATOM      3  C   UNL     1     100.486 117.719 121.154  1.00  0.00     0.053 C 
ATOM      4  C   UNL     1      99.320 118.458 120.478  1.00  0.00     0.016 C 
BRANCH   3   5
ATOM      5  C   UNL     1     100.493 116.220 120.759  1.00  0.00     0.015 C 
BRANCH   5   6
ATOM      6  C   UNL     1     101.875 115.666 120.336  1.00  0.00     0.028 C 
BRANCH   6   7
ATOM      7  C   UNL     1     102.033 114.204 120.671  1.00  0.00    -0.028 C 
ATOM      8  C   UNL     1     102.594 113.720 121.805  1.00  0.00    -0.070 CG0
ATOM      9  C   UNL     1     102.634 112.224 121.992  1.00  0.00     0.039 C 
ATOM     10  G   UNL     1     103.220 114.604 122.876  1.00  0.00     0.000 G0
ENDBRANCH   6   7
ENDBRANCH   5   6
ENDBRANCH   3   5
ENDBRANCH   1   3
BRANCH   1  11
ATOM     11  C   UNL     1     100.415 116.792 123.654  1.00  0.00     0.087 C 
BRANCH  11  12
ATOM     12  C   UNL     1     101.766 116.378 124.305  1.00  0.00     0.066 C 
BRANCH  12  13
ATOM     13  C   UNL     1     102.255 114.960 123.985  1.00  0.00     0.140 C 
ATOM     14  O   UNL     1     101.806 114.045 124.660  1.00  0.00    -0.299 OA
BRANCH  13  15
ATOM     15  C   UNL     1     103.235 114.603 122.885  1.00  0.00     0.106 CG0
ATOM     16  G   UNL     1     102.574 113.730 121.826  1.00  0.00     0.000 G0
ENDBRANCH  13  15
ENDBRANCH  12  13
BRANCH  12  17
ATOM     17  C   UNL     1     101.762 116.591 125.855  1.00  0.00    -0.006 C 
ATOM     18  C   UNL     1     101.276 117.990 126.272  1.00  0.00     0.008 C 
ATOM     19  C   UNL     1     103.121 116.282 126.502  1.00  0.00     0.008 C 
ENDBRANCH  12  17
ENDBRANCH  11  12
ENDBRANCH   1  11
TORSDOF 1
ENDMDL
MODEL 5
REMARK VINA RESULT:    -3.878      2.347      3.868
REMARK INTER + INTRA:          -5.988
REMARK INTER:                  -5.783
REMARK INTRA:                  -0.205
REMARK UNBOUND:                -0.069
REMARK SMILES CC1=CCC[C@@H](C)C(=O)C[C@@H](C(C)C)C(=O)C1
REMARK SMILES IDX 8 1 9 2 6 3 7 4 5 5 4 6 3 7 2 8 1 9 10 11 11 12 15 13 16 14
REMARK SMILES IDX 17 15 12 17 13 18 14 19
REMARK H PARENT
REMARK Flexibility Score: 70.00
ROOT
ATOM      1  C   UNL     1     102.841 116.082 123.624  1.00  0.00     0.136 C 
ATOM      2  O   UNL     1     104.008 115.835 123.351  1.00  0.00    -0.299 OA
ENDROOT
BRANCH   1   3
ATOM      3  C   UNL     1     102.236 115.498 124.893  1.00  0.00     0.053 C 
ATOM      4  C   UNL     1     102.904 116.077 126.150  1.00  0.00     0.016 C 
BRANCH   3   5
ATOM      5  C   UNL     1     102.266 113.949 124.914  1.00  0.00     0.015 C 
BRANCH   5   6
ATOM      6  C   UNL     1     101.503 113.268 123.752  1.00  0.00     0.028 C 
BRANCH   6   7
ATOM      7  C   UNL     1     102.436 112.668 122.730  1.00  0.00    -0.028 C 
ATOM      8  C   UNL     1     102.420 112.944 121.403  1.00  0.00    -0.070 CG0
ATOM      9  C   UNL     1     103.455 112.279 120.531  1.00  0.00     0.039 C 
ATOM     10  G   UNL     1     101.392 113.855 120.747  1.00  0.00     0.000 G0
ENDBRANCH   6   7
ENDBRANCH   5   6
ENDBRANCH   3   5
ENDBRANCH   1   3
BRANCH   1  11
ATOM     11  C   UNL     1     102.094 117.033 122.717  1.00  0.00     0.087 C 
BRANCH  11  12
ATOM     12  C   UNL     1     101.155 116.379 121.663  1.00  0.00     0.066 C 
BRANCH  12  13
ATOM     13  C   UNL     1     101.794 115.307 120.773  1.00  0.00     0.140 C 
ATOM     14  O   UNL     1     102.722 115.653 120.055  1.00  0.00    -0.299 OA
BRANCH  13  15
ATOM     15  C   UNL     1     101.380 113.850 120.726  1.00  0.00     0.106 CG0
ATOM     16  G   UNL     1     102.415 112.965 121.407  1.00  0.00     0.000 G0
ENDBRANCH  13  15
ENDBRANCH  12  13
BRANCH  12  17
ATOM     17  C   UNL     1     100.441 117.445 120.769  1.00  0.00    -0.006 C 
ATOM     18  C   UNL     1      99.937 118.662 121.562  1.00  0.00     0.008 C 
ATOM     19  C   UNL     1      99.303 116.848 119.925  1.00  0.00     0.008 C 
ENDBRANCH  12  17
ENDBRANCH  11  12
ENDBRANCH   1  11
TORSDOF 1
ENDMDL
MODEL 6
REMARK VINA RESULT:    -3.813      1.813      2.424
REMARK INTER + INTRA:          -5.889
REMARK INTER:                  -5.958
REMARK INTRA:                   0.069
REMARK UNBOUND:                -0.069
REMARK SMILES CC1=CCC[C@@H](C)C(=O)C[C@@H](C(C)C)C(=O)C1
REMARK SMILES IDX 8 1 9 2 6 3 7 4 5 5 4 6 3 7 2 8 1 9 10 11 11 12 15 13 16 14
REMARK SMILES IDX 17 15 12 17 13 18 14 19
REMARK H PARENT
REMARK Flexibility Score: 70.00
ROOT
ATOM      1  C   UNL     1     101.777 113.585 123.344  1.00  0.00     0.136 C 
ATOM      2  O   UNL     1     101.007 112.796 123.873  1.00  0.00    -0.299 OA
ENDROOT
BRANCH   1   3
ATOM      3  C   UNL     1     102.008 113.505 121.842  1.00  0.00     0.053 C 
ATOM      4  C   UNL     1     101.592 112.135 121.284  1.00  0.00     0.016 C 
BRANCH   3   5
ATOM      5  C   UNL     1     103.465 113.846 121.440  1.00  0.00     0.015 C 
BRANCH   5   6
ATOM      6  C   UNL     1     103.717 115.337 121.112  1.00  0.00     0.028 C 
BRANCH   6   7
ATOM      7  C   UNL     1     102.553 115.969 120.388  1.00  0.00    -0.028 C 
ATOM      8  C   UNL     1     101.736 116.918 120.906  1.00  0.00    -0.070 CG0
ATOM      9  C   UNL     1     100.642 117.466 120.024  1.00  0.00     0.039 C 
ATOM     10  G   UNL     1     101.839 117.425 122.338  1.00  0.00     0.000 G0
ENDBRANCH   6   7
ENDBRANCH   5   6
ENDBRANCH   3   5
ENDBRANCH   1   3
BRANCH   1  11
ATOM     11  C   UNL     1     102.392 114.657 124.216  1.00  0.00     0.087 C 
BRANCH  11  12
ATOM     12  C   UNL     1     101.491 115.887 124.526  1.00  0.00     0.066 C 
BRANCH  12  13
ATOM     13  C   UNL     1     100.984 116.667 123.307  1.00  0.00     0.140 C 
ATOM     14  O   UNL     1      99.778 116.673 123.105  1.00  0.00    -0.299 OA
BRANCH  13  15
ATOM     15  C   UNL     1     101.858 117.447 122.345  1.00  0.00     0.106 CG0
ATOM     16  G   UNL     1     101.736 116.899 120.929  1.00  0.00     0.000 G0
ENDBRANCH  13  15
ENDBRANCH  12  13
BRANCH  12  17
ATOM     17  C   UNL     1     102.169 116.874 125.533  1.00  0.00    -0.006 C 
ATOM     18  C   UNL     1     103.080 116.168 126.552  1.00  0.00     0.008 C 
ATOM     19  C   UNL     1     101.155 117.775 126.256  1.00  0.00     0.008 C 
ENDBRANCH  12  17
ENDBRANCH  11  12
ENDBRANCH   1  11
TORSDOF 1
ENDMDL
MODEL 7
REMARK VINA RESULT:    -3.661     10.699     12.586
REMARK INTER + INTRA:          -5.656
REMARK INTER:                  -5.335
REMARK INTRA:                  -0.321
REMARK UNBOUND:                -0.069
REMARK SMILES CC1=CCC[C@@H](C)C(=O)C[C@@H](C(C)C)C(=O)C1
REMARK SMILES IDX 8 1 9 2 6 3 7 4 5 5 4 6 3 7 2 8 1 9 10 11 11 12 15 13 16 14
REMARK SMILES IDX 17 15 12 17 13 18 14 19
REMARK H PARENT
REMARK Flexibility Score: 70.00
ROOT
ATOM      1  C   UNL     1      97.631 109.597 114.001  1.00  0.00     0.136 C 
ATOM      2  O   UNL     1      97.657 110.464 114.863  1.00  0.00    -0.299 OA
ENDROOT
BRANCH   1   3
ATOM      3  C   UNL     1      96.645 109.723 112.849  1.00  0.00     0.053 C 
ATOM      4  C   UNL     1      96.687 108.487 111.937  1.00  0.00     0.016 C 
BRANCH   3   5
ATOM      5  C   UNL     1      96.844 111.022 112.028  1.00  0.00     0.015 C 
BRANCH   5   6
ATOM      6  C   UNL     1      97.918 110.931 110.917  1.00  0.00     0.028 C 
BRANCH   6   7
ATOM      7  C   UNL     1      99.198 111.632 111.299  1.00  0.00    -0.028 C 
ATOM      8  C   UNL     1     100.358 111.013 111.626  1.00  0.00    -0.070 CG0
ATOM      9  C   UNL     1     101.553 111.875 111.945  1.00  0.00     0.039 C 
ATOM     10  G   UNL     1     100.504 109.501 111.728  1.00  0.00     0.000 G0
ENDBRANCH   6   7
ENDBRANCH   5   6
ENDBRANCH   3   5
ENDBRANCH   1   3
BRANCH   1  11
ATOM     11  C   UNL     1      98.653 108.485 114.093  1.00  0.00     0.087 C 
BRANCH  11  12
ATOM     12  C   UNL     1     100.122 108.927 114.350  1.00  0.00     0.066 C 
BRANCH  12  13
ATOM     13  C   UNL     1     101.007 109.060 113.105  1.00  0.00     0.140 C 
ATOM     14  O   UNL     1     102.193 108.788 113.226  1.00  0.00    -0.299 OA
BRANCH  13  15
ATOM     15  C   UNL     1     100.524 109.483 111.732  1.00  0.00     0.106 CG0
ATOM     16  G   UNL     1     100.374 110.996 111.648  1.00  0.00     0.000 G0
ENDBRANCH  13  15
ENDBRANCH  12  13
BRANCH  12  17
ATOM     17  C   UNL     1     100.835 108.014 115.402  1.00  0.00    -0.006 C 
ATOM     18  C   UNL     1     100.088 106.696 115.665  1.00  0.00     0.008 C 
ATOM     19  C   UNL     1     101.117 108.743 116.726  1.00  0.00     0.008 C 
ENDBRANCH  12  17
ENDBRANCH  11  12
ENDBRANCH   1  11
TORSDOF 1
ENDMDL
MODEL 8
REMARK VINA RESULT:    -3.656      1.933      4.865
REMARK INTER + INTRA:          -5.648
REMARK INTER:                  -5.605
REMARK INTRA:                  -0.044
REMARK UNBOUND:                -0.069
REMARK SMILES CC1=CCC[C@@H](C)C(=O)C[C@@H](C(C)C)C(=O)C1
REMARK SMILES IDX 8 1 9 2 6 3 7 4 5 5 4 6 3 7 2 8 1 9 10 11 11 12 15 13 16 14
REMARK SMILES IDX 17 15 12 17 13 18 14 19
REMARK H PARENT
REMARK Flexibility Score: 70.00
ROOT
ATOM      1  C   UNL     1     102.030 115.853 119.719  1.00  0.00     0.136 C 
ATOM      2  O   UNL     1     102.551 115.164 118.853  1.00  0.00    -0.299 OA
ENDROOT
BRANCH   1   3
ATOM      3  C   UNL     1     100.790 116.665 119.376  1.00  0.00     0.053 C 
ATOM      4  C   UNL     1     100.662 116.879 117.860  1.00  0.00     0.016 C 
BRANCH   3   5
ATOM      5  C   UNL     1     100.729 118.017 120.132  1.00  0.00     0.015 C 
BRANCH   5   6
ATOM      6  C   UNL     1      99.559 118.149 121.136  1.00  0.00     0.028 C 
BRANCH   6   7
ATOM      7  C   UNL     1      99.965 118.870 122.397  1.00  0.00    -0.028 C 
ATOM      8  C   UNL     1     100.276 118.270 123.572  1.00  0.00    -0.070 CG0
ATOM      9  C   UNL     1     100.700 119.148 124.723  1.00  0.00     0.039 C 
ATOM     10  G   UNL     1     100.180 116.767 123.800  1.00  0.00     0.000 G0
ENDBRANCH   6   7
ENDBRANCH   5   6
ENDBRANCH   3   5
ENDBRANCH   1   3
BRANCH   1  11
ATOM     11  C   UNL     1     102.610 115.784 121.114  1.00  0.00     0.087 C 
BRANCH  11  12
ATOM     12  C   UNL     1     101.687 115.174 122.209  1.00  0.00     0.066 C 
BRANCH  12  13
ATOM     13  C   UNL     1     101.467 116.041 123.455  1.00  0.00     0.140 C 
ATOM     14  O   UNL     1     102.414 116.183 124.216  1.00  0.00    -0.299 OA
BRANCH  13  15
ATOM     15  C   UNL     1     100.175 116.750 123.806  1.00  0.00     0.106 CG0
ATOM     16  G   UNL     1     100.293 118.250 123.573  1.00  0.00     0.000 G0
ENDBRANCH  13  15
ENDBRANCH  12  13
BRANCH  12  17
ATOM     17  C   UNL     1     102.154 113.746 122.643  1.00  0.00    -0.006 C 
ATOM     18  C   UNL     1     102.411 112.805 121.453  1.00  0.00     0.008 C 
ATOM     19  C   UNL     1     101.196 113.087 123.649  1.00  0.00     0.008 C 
ENDBRANCH  12  17
ENDBRANCH  11  12
ENDBRANCH   1  11
TORSDOF 1
ENDMDL
MODEL 9
REMARK VINA RESULT:    -3.483      2.254      4.822
REMARK INTER + INTRA:          -5.384
REMARK INTER:                  -5.676
REMARK INTRA:                   0.292
REMARK UNBOUND:                -0.069
REMARK SMILES CC1=CCC[C@@H](C)C(=O)C[C@@H](C(C)C)C(=O)C1
REMARK SMILES IDX 8 1 9 2 6 3 7 4 5 5 4 6 3 7 2 8 1 9 10 11 11 12 15 13 16 14
REMARK SMILES IDX 17 15 12 17 13 18 14 19
REMARK H PARENT
REMARK Flexibility Score: 70.00
ROOT
ATOM      1  C   UNL     1     100.376 117.702 123.612  1.00  0.00     0.136 C 
ATOM      2  O   UNL     1      99.571 116.837 123.293  1.00  0.00    -0.299 OA
ENDROOT
BRANCH   1   3
ATOM      3  C   UNL     1     100.279 118.335 124.993  1.00  0.00     0.053 C 
ATOM      4  C   UNL     1     100.670 119.821 124.957  1.00  0.00     0.016 C 
BRANCH   3   5
ATOM      5  C   UNL     1     101.101 117.573 126.062  1.00  0.00     0.015 C 
BRANCH   5   6
ATOM      6  C   UNL     1     102.448 117.000 125.559  1.00  0.00     0.028 C 
BRANCH   6   7
ATOM      7  C   UNL     1     102.374 115.517 125.288  1.00  0.00    -0.028 C 
ATOM      8  C   UNL     1     102.851 114.904 124.178  1.00  0.00    -0.070 CG0
ATOM      9  C   UNL     1     102.725 113.403 124.091  1.00  0.00     0.039 C 
ATOM     10  G   UNL     1     103.467 115.651 123.003  1.00  0.00     0.000 G0
ENDBRANCH   6   7
ENDBRANCH   5   6
ENDBRANCH   3   5
ENDBRANCH   1   3
BRANCH   1  11
ATOM     11  C   UNL     1     101.481 118.028 122.633  1.00  0.00     0.087 C 
BRANCH  11  12
ATOM     12  C   UNL     1     101.695 117.007 121.478  1.00  0.00     0.066 C 
BRANCH  12  13
ATOM     13  C   UNL     1     102.505 115.755 121.835  1.00  0.00     0.140 C 
ATOM     14  O   UNL     1     102.371 114.775 121.116  1.00  0.00    -0.299 OA
BRANCH  13  15
ATOM     15  C   UNL     1     103.471 115.644 122.997  1.00  0.00     0.106 CG0
ATOM     16  G   UNL     1     102.833 114.912 124.171  1.00  0.00     0.000 G0
ENDBRANCH  13  15
ENDBRANCH  12  13
BRANCH  12  17
ATOM     17  C   UNL     1     102.305 117.679 120.204  1.00  0.00    -0.006 C 
ATOM     18  C   UNL     1     103.227 118.867 120.528  1.00  0.00     0.008 C 
ATOM     19  C   UNL     1     101.236 118.095 119.181  1.00  0.00     0.008 C 
ENDBRANCH  12  17
ENDBRANCH  11  12
ENDBRANCH   1  11
TORSDOF 1
ENDMDL
