MODEL 1
REMARK VINA RESULT:    -3.548      0.000      0.000
REMARK INTER + INTRA:          -4.206
REMARK INTER:                  -4.170
REMARK INTRA:                  -0.036
REMARK UNBOUND:                -0.036
REMARK SMILES O=C([O-])CCC(=O)[O-]
REMARK SMILES IDX 4 1 2 2 1 3 3 4 5 5 6 6 7 7 8 8
REMARK H PARENT
REMARK Flexibility Score: inf
ROOT
ATOM      1  C   UNL     1     128.495 125.999 123.300  1.00  0.00     0.059 C 
ENDROOT
BRANCH   1   2
ATOM      2  C   UNL     1     128.981 126.692 122.064  1.00  0.00     0.042 C 
ATOM      3  O   UNL     1     128.569 126.330 120.931  1.00  0.00    -0.550 OA
ATOM      4  O   UNL     1     129.919 127.712 122.161  1.00  0.00    -0.550 OA
ENDBRANCH   1   2
BRANCH   1   5
ATOM      5  C   UNL     1     128.082 127.001 124.384  1.00  0.00     0.059 C 
BRANCH   5   6
ATOM      6  C   UNL     1     126.703 126.720 124.900  1.00  0.00     0.042 C 
ATOM      7  O   UNL     1     126.331 125.533 125.097  1.00  0.00    -0.550 OA
ATOM      8  O   UNL     1     125.816 127.765 125.123  1.00  0.00    -0.550 OA
ENDBRANCH   5   6
ENDBRANCH   1   5
TORSDOF 3
ENDMDL
MODEL 2
REMARK VINA RESULT:    -3.204     21.558     22.093
REMARK INTER + INTRA:          -3.802
REMARK INTER:                  -3.725
REMARK INTRA:                  -0.077
REMARK UNBOUND:                -0.036
REMARK SMILES O=C([O-])CCC(=O)[O-]
REMARK SMILES IDX 4 1 2 2 1 3 3 4 5 5 6 6 7 7 8 8
REMARK H PARENT
REMARK Flexibility Score: inf
ROOT
ATOM      1  C   UNL     1     113.227 116.194 109.405  1.00  0.00     0.059 C 
ENDROOT
BRANCH   1   2
ATOM      2  C   UNL     1     114.177 115.671 110.439  1.00  0.00     0.042 C 
ATOM      3  O   UNL     1     113.738 115.093 111.467  1.00  0.00    -0.550 OA
ATOM      4  O   UNL     1     115.545 115.857 110.285  1.00  0.00    -0.550 OA
ENDBRANCH   1   2
BRANCH   1   5
ATOM      5  C   UNL     1     113.683 117.549 108.852  1.00  0.00     0.059 C 
BRANCH   5   6
ATOM      6  C   UNL     1     112.907 118.681 109.454  1.00  0.00     0.042 C 
ATOM      7  O   UNL     1     111.691 118.530 109.745  1.00  0.00    -0.550 OA
ATOM      8  O   UNL     1     113.515 119.913 109.654  1.00  0.00    -0.550 OA
ENDBRANCH   5   6
ENDBRANCH   1   5
TORSDOF 3
ENDMDL
MODEL 3
REMARK VINA RESULT:    -3.204     21.377     21.936
REMARK INTER + INTRA:          -3.801
REMARK INTER:                  -3.703
REMARK INTRA:                  -0.098
REMARK UNBOUND:                -0.036
REMARK SMILES O=C([O-])CCC(=O)[O-]
REMARK SMILES IDX 4 1 2 2 1 3 3 4 5 5 6 6 7 7 8 8
REMARK H PARENT
REMARK Flexibility Score: inf
ROOT
ATOM      1  C   UNL     1     113.028 115.941 109.737  1.00  0.00     0.059 C 
ENDROOT
BRANCH   1   2
ATOM      2  C   UNL     1     113.043 117.381 109.325  1.00  0.00     0.042 C 
ATOM      3  O   UNL     1     114.003 117.838 108.651  1.00  0.00    -0.550 OA
ATOM      4  O   UNL     1     112.016 118.229 109.721  1.00  0.00    -0.550 OA
ENDBRANCH   1   2
BRANCH   1   5
ATOM      5  C   UNL     1     114.224 115.597 110.632  1.00  0.00     0.059 C 
BRANCH   5   6
ATOM      6  C   UNL     1     113.847 115.598 112.082  1.00  0.00     0.042 C 
ATOM      7  O   UNL     1     113.783 114.515 112.720  1.00  0.00    -0.550 OA
ATOM      8  O   UNL     1     113.526 116.791 112.717  1.00  0.00    -0.550 OA
ENDBRANCH   5   6
ENDBRANCH   1   5
TORSDOF 3
ENDMDL
MODEL 4
REMARK VINA RESULT:    -3.203     21.557     22.124
REMARK INTER + INTRA:          -3.800
REMARK INTER:                  -3.730
REMARK INTRA:                  -0.070
REMARK UNBOUND:                -0.036
REMARK SMILES O=C([O-])CCC(=O)[O-]
REMARK SMILES IDX 4 1 2 2 1 3 3 4 5 5 6 6 7 7 8 8
REMARK H PARENT
REMARK Flexibility Score: inf
ROOT
ATOM      1  C   UNL     1     113.642 117.501 108.808  1.00  0.00     0.059 C 
ENDROOT
BRANCH   1   2
ATOM      2  C   UNL     1     112.901 118.650 109.421  1.00  0.00     0.042 C 
ATOM      3  O   UNL     1     111.680 118.536 109.705  1.00  0.00    -0.550 OA
ATOM      4  O   UNL     1     113.549 119.858 109.641  1.00  0.00    -0.550 OA
ENDBRANCH   1   2
BRANCH   1   5
ATOM      5  C   UNL     1     113.245 116.166 109.449  1.00  0.00     0.059 C 
BRANCH   5   6
ATOM      6  C   UNL     1     114.303 115.668 110.386  1.00  0.00     0.042 C 
ATOM      7  O   UNL     1     115.521 115.832 110.111  1.00  0.00    -0.550 OA
ATOM      8  O   UNL     1     113.944 114.988 111.543  1.00  0.00    -0.550 OA
ENDBRANCH   5   6
ENDBRANCH   1   5
TORSDOF 3
ENDMDL
MODEL 5
REMARK VINA RESULT:    -3.185     14.141     15.632
REMARK INTER + INTRA:          -3.779
REMARK INTER:                  -3.693
REMARK INTRA:                  -0.086
REMARK UNBOUND:                -0.036
REMARK SMILES O=C([O-])CCC(=O)[O-]
REMARK SMILES IDX 4 1 2 2 1 3 3 4 5 5 6 6 7 7 8 8
REMARK H PARENT
REMARK Flexibility Score: inf
ROOT
ATOM      1  C   UNL     1     119.951 127.515 109.603  1.00  0.00     0.059 C 
ENDROOT
BRANCH   1   2
ATOM      2  C   UNL     1     118.905 126.824 110.423  1.00  0.00     0.042 C 
ATOM      3  O   UNL     1     118.432 127.383 111.446  1.00  0.00    -0.550 OA
ATOM      4  O   UNL     1     118.482 125.546 110.079  1.00  0.00    -0.550 OA
ENDBRANCH   1   2
BRANCH   1   5
ATOM      5  C   UNL     1     121.080 126.557 109.204  1.00  0.00     0.059 C 
BRANCH   5   6
ATOM      6  C   UNL     1     122.323 126.806 110.005  1.00  0.00     0.042 C 
ATOM      7  O   UNL     1     123.397 127.116 109.425  1.00  0.00    -0.550 OA
ATOM      8  O   UNL     1     122.304 126.655 111.385  1.00  0.00    -0.550 OA
ENDBRANCH   5   6
ENDBRANCH   1   5
TORSDOF 3
ENDMDL
MODEL 6
REMARK VINA RESULT:    -3.184     14.101     15.267
REMARK INTER + INTRA:          -3.778
REMARK INTER:                  -3.689
REMARK INTRA:                  -0.089
REMARK UNBOUND:                -0.036
REMARK SMILES O=C([O-])CCC(=O)[O-]
REMARK SMILES IDX 4 1 2 2 1 3 3 4 5 5 6 6 7 7 8 8
REMARK H PARENT
REMARK Flexibility Score: inf
ROOT
ATOM      1  C   UNL     1     121.105 126.530 109.261  1.00  0.00     0.059 C 
ENDROOT
BRANCH   1   2
ATOM      2  C   UNL     1     122.262 126.812 110.170  1.00  0.00     0.042 C 
ATOM      3  O   UNL     1     122.214 126.470 111.381  1.00  0.00    -0.550 OA
ATOM      4  O   UNL     1     123.377 127.487 109.690  1.00  0.00    -0.550 OA
ENDBRANCH   1   2
BRANCH   1   5
ATOM      5  C   UNL     1     119.921 127.460 109.548  1.00  0.00     0.059 C 
BRANCH   5   6
ATOM      6  C   UNL     1     118.888 126.790 110.403  1.00  0.00     0.042 C 
ATOM      7  O   UNL     1     118.475 127.351 111.452  1.00  0.00    -0.550 OA
ATOM      8  O   UNL     1     118.413 125.530 110.063  1.00  0.00    -0.550 OA
ENDBRANCH   5   6
ENDBRANCH   1   5
TORSDOF 3
ENDMDL
MODEL 7
REMARK VINA RESULT:    -3.178     15.499     17.009
REMARK INTER + INTRA:          -3.771
REMARK INTER:                  -3.667
REMARK INTRA:                  -0.104
REMARK UNBOUND:                -0.036
REMARK SMILES O=C([O-])CCC(=O)[O-]
REMARK SMILES IDX 4 1 2 2 1 3 3 4 5 5 6 6 7 7 8 8
REMARK H PARENT
REMARK Flexibility Score: inf
ROOT
ATOM      1  C   UNL     1     126.583 115.948 109.724  1.00  0.00     0.059 C 
ENDROOT
BRANCH   1   2
ATOM      2  C   UNL     1     125.353 115.197 109.314  1.00  0.00     0.042 C 
ATOM      3  O   UNL     1     125.175 114.013 109.704  1.00  0.00    -0.550 OA
ATOM      4  O   UNL     1     124.424 115.790 108.469  1.00  0.00    -0.550 OA
ENDBRANCH   1   2
BRANCH   1   5
ATOM      5  C   UNL     1     126.242 117.142 110.623  1.00  0.00     0.059 C 
BRANCH   5   6
ATOM      6  C   UNL     1     126.460 116.823 112.071  1.00  0.00     0.042 C 
ATOM      7  O   UNL     1     127.443 117.315 112.686  1.00  0.00    -0.550 OA
ATOM      8  O   UNL     1     125.603 115.952 112.730  1.00  0.00    -0.550 OA
ENDBRANCH   5   6
ENDBRANCH   1   5
TORSDOF 3
ENDMDL
MODEL 8
REMARK VINA RESULT:    -3.165     14.110     15.115
REMARK INTER + INTRA:          -3.755
REMARK INTER:                  -3.652
REMARK INTRA:                  -0.103
REMARK UNBOUND:                -0.036
REMARK SMILES O=C([O-])CCC(=O)[O-]
REMARK SMILES IDX 4 1 2 2 1 3 3 4 5 5 6 6 7 7 8 8
REMARK H PARENT
REMARK Flexibility Score: inf
ROOT
ATOM      1  C   UNL     1     119.754 127.540 109.705  1.00  0.00     0.059 C 
ENDROOT
BRANCH   1   2
ATOM      2  C   UNL     1     120.995 126.832 109.256  1.00  0.00     0.042 C 
ATOM      3  O   UNL     1     120.913 125.812 108.523  1.00  0.00    -0.550 OA
ATOM      4  O   UNL     1     122.242 127.277 109.679  1.00  0.00    -0.550 OA
ENDBRANCH   1   2
BRANCH   1   5
ATOM      5  C   UNL     1     118.892 126.650 110.608  1.00  0.00     0.059 C 
BRANCH   5   6
ATOM      6  C   UNL     1     119.078 126.988 112.056  1.00  0.00     0.042 C 
ATOM      7  O   UNL     1     118.151 127.548 112.700  1.00  0.00    -0.550 OA
ATOM      8  O   UNL     1     120.288 126.722 112.684  1.00  0.00    -0.550 OA
ENDBRANCH   5   6
ENDBRANCH   1   5
TORSDOF 3
ENDMDL
MODEL 9
REMARK VINA RESULT:    -3.158     16.258     17.768
REMARK INTER + INTRA:          -3.747
REMARK INTER:                  -3.676
REMARK INTRA:                  -0.071
REMARK UNBOUND:                -0.036
REMARK SMILES O=C([O-])CCC(=O)[O-]
REMARK SMILES IDX 4 1 2 2 1 3 3 4 5 5 6 6 7 7 8 8
REMARK H PARENT
REMARK Flexibility Score: inf
ROOT
ATOM      1  C   UNL     1     126.416 115.922 109.660  1.00  0.00     0.059 C 
ENDROOT
BRANCH   1   2
ATOM      2  C   UNL     1     126.318 117.095 110.586  1.00  0.00     0.042 C 
ATOM      3  O   UNL     1     125.525 118.039 110.330  1.00  0.00    -0.550 OA
ATOM      4  O   UNL     1     127.131 117.165 111.710  1.00  0.00    -0.550 OA
ENDBRANCH   1   2
BRANCH   1   5
ATOM      5  C   UNL     1     125.114 115.707 108.880  1.00  0.00     0.059 C 
BRANCH   5   6
ATOM      6  C   UNL     1     124.358 114.516 109.385  1.00  0.00     0.042 C 
ATOM      7  O   UNL     1     124.975 113.473 109.727  1.00  0.00    -0.550 OA
ATOM      8  O   UNL     1     122.970 114.544 109.440  1.00  0.00    -0.550 OA
ENDBRANCH   5   6
ENDBRANCH   1   5
TORSDOF 3
ENDMDL
