MODEL 1
REMARK VINA RESULT:    -4.443      0.000      0.000
REMARK INTER + INTRA:          -7.110
REMARK INTER:                  -6.261
REMARK INTRA:                  -0.848
REMARK UNBOUND:                -0.848
REMARK SMILES CCCCCCCCC(=O)[O-]
REMARK SMILES IDX 6 1 7 2 8 3 9 4 10 5 11 6 5 7 4 8 3 9 2 10 1 11
REMARK H PARENT
REMARK Flexibility Score: inf
ROOT
ATOM      1  C   UNL     1      22.255  15.840   1.948  1.00  0.00     0.000 C 
ENDROOT
BRANCH   1   2
ATOM      2  C   UNL     1      22.073  15.348   3.392  1.00  0.00     0.006 C 
BRANCH   2   3
ATOM      3  C   UNL     1      23.173  14.366   3.813  1.00  0.00     0.053 C 
BRANCH   3   4
ATOM      4  C   UNL     1      22.608  13.045   4.234  1.00  0.00     0.041 C 
ATOM      5  O   UNL     1      21.959  12.342   3.414  1.00  0.00    -0.550 OA
ATOM      6  O   UNL     1      22.768  12.604   5.541  1.00  0.00    -0.550 OA
ENDBRANCH   3   4
ENDBRANCH   2   3
ENDBRANCH   1   2
BRANCH   1   7
ATOM      7  C   UNL     1      21.067  15.424   1.072  1.00  0.00     0.000 C 
BRANCH   7   8
ATOM      8  C   UNL     1      21.347  14.092   0.359  1.00  0.00    -0.000 C 
BRANCH   8   9
ATOM      9  C   UNL     1      22.780  14.022  -0.207  1.00  0.00    -0.000 C 
BRANCH   9  10
ATOM     10  C   UNL     1      23.572  12.793   0.273  1.00  0.00    -0.003 C 
ATOM     11  C   UNL     1      24.927  13.154   0.879  1.00  0.00     0.004 C 
ENDBRANCH   9  10
ENDBRANCH   8   9
ENDBRANCH   7   8
ENDBRANCH   1   7
TORSDOF 7
ENDMDL
MODEL 2
REMARK VINA RESULT:    -4.347      2.690      4.145
REMARK INTER + INTRA:          -6.975
REMARK INTER:                  -6.256
REMARK INTRA:                  -0.719
REMARK UNBOUND:                -0.848
REMARK SMILES CCCCCCCCC(=O)[O-]
REMARK SMILES IDX 6 1 7 2 8 3 9 4 10 5 11 6 5 7 4 8 3 9 2 10 1 11
REMARK H PARENT
REMARK Flexibility Score: inf
ROOT
ATOM      1  C   UNL     1      22.941  12.857  -0.135  1.00  0.00     0.000 C 
ENDROOT
BRANCH   1   2
ATOM      2  C   UNL     1      22.599  14.349  -0.261  1.00  0.00     0.006 C 
BRANCH   2   3
ATOM      3  C   UNL     1      22.984  15.140   0.996  1.00  0.00     0.053 C 
BRANCH   3   4
ATOM      4  C   UNL     1      21.807  15.853   1.586  1.00  0.00     0.041 C 
ATOM      5  O   UNL     1      20.661  15.713   1.080  1.00  0.00    -0.550 OA
ATOM      6  O   UNL     1      21.979  16.697   2.675  1.00  0.00    -0.550 OA
ENDBRANCH   3   4
ENDBRANCH   2   3
ENDBRANCH   1   2
BRANCH   1   7
ATOM      7  C   UNL     1      21.860  12.110   0.656  1.00  0.00     0.000 C 
BRANCH   7   8
ATOM      8  C   UNL     1      20.745  11.607  -0.273  1.00  0.00    -0.000 C 
BRANCH   8   9
ATOM      9  C   UNL     1      19.429  12.390  -0.084  1.00  0.00    -0.000 C 
BRANCH   9  10
ATOM     10  C   UNL     1      19.081  13.304  -1.271  1.00  0.00    -0.003 C 
ATOM     11  C   UNL     1      19.886  12.985  -2.529  1.00  0.00     0.004 C 
ENDBRANCH   9  10
ENDBRANCH   8   9
ENDBRANCH   7   8
ENDBRANCH   1   7
TORSDOF 7
ENDMDL
MODEL 3
REMARK VINA RESULT:    -4.339      2.558      4.228
REMARK INTER + INTRA:          -6.962
REMARK INTER:                  -6.221
REMARK INTRA:                  -0.741
REMARK UNBOUND:                -0.848
REMARK SMILES CCCCCCCCC(=O)[O-]
REMARK SMILES IDX 6 1 7 2 8 3 9 4 10 5 11 6 5 7 4 8 3 9 2 10 1 11
REMARK H PARENT
REMARK Flexibility Score: inf
ROOT
ATOM      1  C   UNL     1      22.954  13.964   0.107  1.00  0.00     0.000 C 
ENDROOT
BRANCH   1   2
ATOM      2  C   UNL     1      23.264  12.533   0.570  1.00  0.00     0.006 C 
BRANCH   2   3
ATOM      3  C   UNL     1      21.993  11.751   0.928  1.00  0.00     0.053 C 
BRANCH   3   4
ATOM      4  C   UNL     1      21.234  11.335  -0.293  1.00  0.00     0.041 C 
ATOM      5  O   UNL     1      20.014  11.627  -0.412  1.00  0.00    -0.550 OA
ATOM      6  O   UNL     1      21.865  10.598  -1.287  1.00  0.00    -0.550 OA
ENDBRANCH   3   4
ENDBRANCH   2   3
ENDBRANCH   1   2
BRANCH   1   7
ATOM      7  C   UNL     1      23.483  14.993   1.113  1.00  0.00     0.000 C 
BRANCH   7   8
ATOM      8  C   UNL     1      22.341  15.850   1.680  1.00  0.00    -0.000 C 
BRANCH   8   9
ATOM      9  C   UNL     1      21.815  15.307   3.025  1.00  0.00    -0.000 C 
BRANCH   9  10
ATOM     10  C   UNL     1      22.920  14.745   3.937  1.00  0.00    -0.003 C 
ATOM     11  C   UNL     1      22.675  13.295   4.350  1.00  0.00     0.004 C 
ENDBRANCH   9  10
ENDBRANCH   8   9
ENDBRANCH   7   8
ENDBRANCH   1   7
TORSDOF 7
ENDMDL
MODEL 4
REMARK VINA RESULT:    -4.327      3.076      4.053
REMARK INTER + INTRA:          -6.946
REMARK INTER:                  -6.480
REMARK INTRA:                  -0.466
REMARK UNBOUND:                -0.848
REMARK SMILES CCCCCCCCC(=O)[O-]
REMARK SMILES IDX 6 1 7 2 8 3 9 4 10 5 11 6 5 7 4 8 3 9 2 10 1 11
REMARK H PARENT
REMARK Flexibility Score: inf
ROOT
ATOM      1  C   UNL     1      19.334  13.804   0.207  1.00  0.00     0.000 C 
ENDROOT
BRANCH   1   2
ATOM      2  C   UNL     1      20.747  14.403   0.165  1.00  0.00     0.006 C 
BRANCH   2   3
ATOM      3  C   UNL     1      20.784  15.841   0.699  1.00  0.00     0.053 C 
BRANCH   3   4
ATOM      4  C   UNL     1      22.029  16.110   1.486  1.00  0.00     0.041 C 
ATOM      5  O   UNL     1      23.150  15.738   1.048  1.00  0.00    -0.550 OA
ATOM      6  O   UNL     1      21.948  16.744   2.719  1.00  0.00    -0.550 OA
ENDBRANCH   3   4
ENDBRANCH   2   3
ENDBRANCH   1   2
BRANCH   1   7
ATOM      7  C   UNL     1      19.117  12.827  -0.954  1.00  0.00     0.000 C 
BRANCH   7   8
ATOM      8  C   UNL     1      19.792  13.335  -2.238  1.00  0.00    -0.000 C 
BRANCH   8   9
ATOM      9  C   UNL     1      20.545  12.214  -2.985  1.00  0.00    -0.000 C 
BRANCH   9  10
ATOM     10  C   UNL     1      21.912  12.654  -3.538  1.00  0.00    -0.003 C 
ATOM     11  C   UNL     1      22.936  12.942  -2.442  1.00  0.00     0.004 C 
ENDBRANCH   9  10
ENDBRANCH   8   9
ENDBRANCH   7   8
ENDBRANCH   1   7
TORSDOF 7
ENDMDL
MODEL 5
REMARK VINA RESULT:    -4.316      1.277      2.553
REMARK INTER + INTRA:          -6.931
REMARK INTER:                  -6.473
REMARK INTRA:                  -0.458
REMARK UNBOUND:                -0.848
REMARK SMILES CCCCCCCCC(=O)[O-]
REMARK SMILES IDX 6 1 7 2 8 3 9 4 10 5 11 6 5 7 4 8 3 9 2 10 1 11
REMARK H PARENT
REMARK Flexibility Score: inf
ROOT
ATOM      1  C   UNL     1      22.034  16.046   2.089  1.00  0.00     0.000 C 
ENDROOT
BRANCH   1   2
ATOM      2  C   UNL     1      22.122  15.342   3.451  1.00  0.00     0.006 C 
BRANCH   2   3
ATOM      3  C   UNL     1      23.233  14.285   3.487  1.00  0.00     0.053 C 
BRANCH   3   4
ATOM      4  C   UNL     1      22.719  12.954   3.940  1.00  0.00     0.041 C 
ATOM      5  O   UNL     1      22.967  12.540   5.104  1.00  0.00    -0.550 OA
ATOM      6  O   UNL     1      21.992  12.155   3.066  1.00  0.00    -0.550 OA
ENDBRANCH   3   4
ENDBRANCH   2   3
ENDBRANCH   1   2
BRANCH   1   7
ATOM      7  C   UNL     1      22.852  15.298   1.030  1.00  0.00     0.000 C 
BRANCH   7   8
ATOM      8  C   UNL     1      21.946  14.433   0.141  1.00  0.00    -0.000 C 
BRANCH   8   9
ATOM      9  C   UNL     1      20.474  14.893   0.183  1.00  0.00    -0.000 C 
BRANCH   9  10
ATOM     10  C   UNL     1      19.523  13.989  -0.621  1.00  0.00    -0.003 C 
ATOM     11  C   UNL     1      19.378  12.591  -0.023  1.00  0.00     0.004 C 
ENDBRANCH   9  10
ENDBRANCH   8   9
ENDBRANCH   7   8
ENDBRANCH   1   7
TORSDOF 7
ENDMDL
MODEL 6
REMARK VINA RESULT:    -4.303      2.873      4.247
REMARK INTER + INTRA:          -6.912
REMARK INTER:                  -6.145
REMARK INTRA:                  -0.767
REMARK UNBOUND:                -0.848
REMARK SMILES CCCCCCCCC(=O)[O-]
REMARK SMILES IDX 6 1 7 2 8 3 9 4 10 5 11 6 5 7 4 8 3 9 2 10 1 11
REMARK H PARENT
REMARK Flexibility Score: inf
ROOT
ATOM      1  C   UNL     1      21.006  15.746   1.220  1.00  0.00     0.000 C 
ENDROOT
BRANCH   1   2
ATOM      2  C   UNL     1      20.384  15.102  -0.029  1.00  0.00     0.006 C 
BRANCH   2   3
ATOM      3  C   UNL     1      19.242  14.140   0.322  1.00  0.00     0.053 C 
BRANCH   3   4
ATOM      4  C   UNL     1      19.089  13.062  -0.706  1.00  0.00     0.041 C 
ATOM      5  O   UNL     1      19.563  11.914  -0.498  1.00  0.00    -0.550 OA
ATOM      6  O   UNL     1      18.448  13.334  -1.908  1.00  0.00    -0.550 OA
ENDBRANCH   3   4
ENDBRANCH   2   3
ENDBRANCH   1   2
BRANCH   1   7
ATOM      7  C   UNL     1      22.522  15.903   1.061  1.00  0.00     0.000 C 
BRANCH   7   8
ATOM      8  C   UNL     1      23.275  14.817   1.844  1.00  0.00    -0.000 C 
BRANCH   8   9
ATOM      9  C   UNL     1      23.933  13.775   0.916  1.00  0.00    -0.000 C 
BRANCH   9  10
ATOM     10  C   UNL     1      23.057  12.536   0.661  1.00  0.00    -0.003 C 
ATOM     11  C   UNL     1      22.216  12.139   1.873  1.00  0.00     0.004 C 
ENDBRANCH   9  10
ENDBRANCH   8   9
ENDBRANCH   7   8
ENDBRANCH   1   7
TORSDOF 7
ENDMDL
MODEL 7
REMARK VINA RESULT:    -4.276      2.488      3.584
REMARK INTER + INTRA:          -6.875
REMARK INTER:                  -6.007
REMARK INTRA:                  -0.868
REMARK UNBOUND:                -0.848
REMARK SMILES CCCCCCCCC(=O)[O-]
REMARK SMILES IDX 6 1 7 2 8 3 9 4 10 5 11 6 5 7 4 8 3 9 2 10 1 11
REMARK H PARENT
REMARK Flexibility Score: inf
ROOT
ATOM      1  C   UNL     1      19.170  13.972  -0.441  1.00  0.00     0.000 C 
ENDROOT
BRANCH   1   2
ATOM      2  C   UNL     1      19.473  14.925   0.726  1.00  0.00     0.006 C 
BRANCH   2   3
ATOM      3  C   UNL     1      20.712  15.790   0.461  1.00  0.00     0.053 C 
BRANCH   3   4
ATOM      4  C   UNL     1      21.702  15.699   1.580  1.00  0.00     0.041 C 
ATOM      5  O   UNL     1      21.308  15.527   2.764  1.00  0.00    -0.550 OA
ATOM      6  O   UNL     1      23.060  15.837   1.320  1.00  0.00    -0.550 OA
ENDBRANCH   3   4
ENDBRANCH   2   3
ENDBRANCH   1   2
BRANCH   1   7
ATOM      7  C   UNL     1      19.264  12.509   0.006  1.00  0.00     0.000 C 
BRANCH   7   8
ATOM      8  C   UNL     1      20.564  11.861  -0.496  1.00  0.00    -0.000 C 
BRANCH   8   9
ATOM      9  C   UNL     1      21.676  11.876   0.573  1.00  0.00    -0.000 C 
BRANCH   9  10
ATOM     10  C   UNL     1      22.990  12.512   0.085  1.00  0.00    -0.003 C 
ATOM     11  C   UNL     1      22.843  13.242  -1.248  1.00  0.00     0.004 C 
ENDBRANCH   9  10
ENDBRANCH   8   9
ENDBRANCH   7   8
ENDBRANCH   1   7
TORSDOF 7
ENDMDL
MODEL 8
REMARK VINA RESULT:    -4.275      3.219      4.901
REMARK INTER + INTRA:          -6.873
REMARK INTER:                  -6.298
REMARK INTRA:                  -0.574
REMARK UNBOUND:                -0.848
REMARK SMILES CCCCCCCCC(=O)[O-]
REMARK SMILES IDX 6 1 7 2 8 3 9 4 10 5 11 6 5 7 4 8 3 9 2 10 1 11
REMARK H PARENT
REMARK Flexibility Score: inf
ROOT
ATOM      1  C   UNL     1      20.924  14.339   0.402  1.00  0.00     0.000 C 
ENDROOT
BRANCH   1   2
ATOM      2  C   UNL     1      20.551  12.873   0.670  1.00  0.00     0.006 C 
BRANCH   2   3
ATOM      3  C   UNL     1      19.489  12.357  -0.309  1.00  0.00     0.053 C 
BRANCH   3   4
ATOM      4  C   UNL     1      19.944  12.469  -1.731  1.00  0.00     0.041 C 
ATOM      5  O   UNL     1      20.853  11.716  -2.169  1.00  0.00    -0.550 OA
ATOM      6  O   UNL     1      19.385  13.429  -2.566  1.00  0.00    -0.550 OA
ENDBRANCH   3   4
ENDBRANCH   2   3
ENDBRANCH   1   2
BRANCH   1   7
ATOM      7  C   UNL     1      22.446  14.520   0.363  1.00  0.00     0.000 C 
BRANCH   7   8
ATOM      8  C   UNL     1      22.888  15.676   1.274  1.00  0.00    -0.000 C 
BRANCH   8   9
ATOM      9  C   UNL     1      22.105  15.706   2.603  1.00  0.00    -0.000 C 
BRANCH   9  10
ATOM     10  C   UNL     1      22.843  15.024   3.768  1.00  0.00    -0.003 C 
ATOM     11  C   UNL     1      22.439  13.564   3.960  1.00  0.00     0.004 C 
ENDBRANCH   9  10
ENDBRANCH   8   9
ENDBRANCH   7   8
ENDBRANCH   1   7
TORSDOF 7
ENDMDL
MODEL 9
REMARK VINA RESULT:    -4.269      2.850      4.738
REMARK INTER + INTRA:          -6.864
REMARK INTER:                  -6.219
REMARK INTRA:                  -0.645
REMARK UNBOUND:                -0.848
REMARK SMILES CCCCCCCCC(=O)[O-]
REMARK SMILES IDX 6 1 7 2 8 3 9 4 10 5 11 6 5 7 4 8 3 9 2 10 1 11
REMARK H PARENT
REMARK Flexibility Score: inf
ROOT
ATOM      1  C   UNL     1      22.197  11.806   1.202  1.00  0.00     0.000 C 
ENDROOT
BRANCH   1   2
ATOM      2  C   UNL     1      21.483  12.499   0.032  1.00  0.00     0.006 C 
BRANCH   2   3
ATOM      3  C   UNL     1      19.972  12.233   0.035  1.00  0.00     0.053 C 
BRANCH   3   4
ATOM      4  C   UNL     1      19.194  13.442  -0.383  1.00  0.00     0.041 C 
ATOM      5  O   UNL     1      18.569  13.449  -1.477  1.00  0.00    -0.550 OA
ATOM      6  O   UNL     1      19.185  14.575   0.421  1.00  0.00    -0.550 OA
ENDBRANCH   3   4
ENDBRANCH   2   3
ENDBRANCH   1   2
BRANCH   1   7
ATOM      7  C   UNL     1      21.777  12.419   2.543  1.00  0.00     0.000 C 
BRANCH   7   8
ATOM      8  C   UNL     1      22.970  13.086   3.244  1.00  0.00    -0.000 C 
BRANCH   8   9
ATOM      9  C   UNL     1      22.637  14.507   3.742  1.00  0.00    -0.000 C 
BRANCH   9  10
ATOM     10  C   UNL     1      21.787  15.323   2.752  1.00  0.00    -0.003 C 
ATOM     11  C   UNL     1      22.597  15.876   1.582  1.00  0.00     0.004 C 
ENDBRANCH   9  10
ENDBRANCH   8   9
ENDBRANCH   7   8
ENDBRANCH   1   7
TORSDOF 7
ENDMDL
