MODEL 1
REMARK VINA RESULT:    -4.863      0.000      0.000
REMARK INTER + INTRA:          -7.530
REMARK INTER:                  -6.569
REMARK INTRA:                  -0.962
REMARK UNBOUND:                -0.962
REMARK SMILES CC(=O)CCC=C(C)CCC=C(C)C
REMARK SMILES IDX 7 1 6 2 8 3 9 4 10 5 11 6 13 7 12 8 14 9 5 10 4 11 2 12 3 13
REMARK SMILES IDX 1 14
REMARK H PARENT
REMARK Flexibility Score: inf
ROOT
ATOM      1  C   UNL     1       7.257 -19.228  23.816  1.00  0.00    -0.077 C 
ATOM      2  C   UNL     1       6.658 -20.364  23.390  1.00  0.00    -0.028 C 
ATOM      3  C   UNL     1       6.429 -18.231  24.586  1.00  0.00     0.039 C 
ENDROOT
BRANCH   1   4
ATOM      4  C   UNL     1       8.711 -18.901  23.524  1.00  0.00     0.034 C 
BRANCH   4   5
ATOM      5  C   UNL     1       8.886 -17.455  23.034  1.00  0.00     0.032 C 
BRANCH   5   6
ATOM      6  C   UNL     1       8.309 -17.257  21.653  1.00  0.00    -0.028 C 
ATOM      7  C   UNL     1       6.913 -15.291  22.333  1.00  0.00     0.039 C 
ATOM      8  C   UNL     1       7.400 -16.311  21.330  1.00  0.00    -0.080 C 
ATOM      9  C   UNL     1       6.879 -16.270  19.917  1.00  0.00     0.039 C 
ENDBRANCH   5   6
ENDBRANCH   4   5
ENDBRANCH   1   4
BRANCH   2  10
ATOM     10  C   UNL     1       7.356 -21.485  22.661  1.00  0.00     0.035 C 
BRANCH  10  11
ATOM     11  C   UNL     1       7.191 -21.332  21.146  1.00  0.00     0.079 C 
BRANCH  11  12
ATOM     12  C   UNL     1       8.220 -22.153  20.414  1.00  0.00     0.130 C 
ATOM     13  O   UNL     1       8.365 -22.000  19.211  1.00  0.00    -0.300 OA
ATOM     14  C   UNL     1       9.068 -23.162  21.130  1.00  0.00     0.087 C 
ENDBRANCH  11  12
ENDBRANCH  10  11
ENDBRANCH   2  10
TORSDOF 6
ENDMDL
MODEL 2
REMARK VINA RESULT:    -4.834      2.228      4.343
REMARK INTER + INTRA:          -7.491
REMARK INTER:                  -6.202
REMARK INTRA:                  -1.289
REMARK UNBOUND:                -0.962
REMARK SMILES CC(=O)CCC=C(C)CCC=C(C)C
REMARK SMILES IDX 7 1 6 2 8 3 9 4 10 5 11 6 13 7 12 8 14 9 5 10 4 11 2 12 3 13
REMARK SMILES IDX 1 14
REMARK H PARENT
REMARK Flexibility Score: inf
ROOT
ATOM      1  C   UNL     1       7.265 -16.368  21.470  1.00  0.00    -0.077 C 
ATOM      2  C   UNL     1       7.940 -17.523  21.263  1.00  0.00    -0.028 C 
ATOM      3  C   UNL     1       6.871 -15.548  20.269  1.00  0.00     0.039 C 
ENDROOT
BRANCH   1   4
ATOM      4  C   UNL     1       6.920 -15.850  22.855  1.00  0.00     0.034 C 
BRANCH   4   5
ATOM      5  C   UNL     1       8.073 -15.039  23.467  1.00  0.00     0.032 C 
BRANCH   5   6
ATOM      6  C   UNL     1       8.727 -15.771  24.614  1.00  0.00    -0.028 C 
ATOM      7  C   UNL     1      10.962 -15.885  23.489  1.00  0.00     0.039 C 
ATOM      8  C   UNL     1      10.013 -16.184  24.626  1.00  0.00    -0.080 C 
ATOM      9  C   UNL     1      10.510 -16.950  25.825  1.00  0.00     0.039 C 
ENDBRANCH   5   6
ENDBRANCH   4   5
ENDBRANCH   1   4
BRANCH   2  10
ATOM     10  C   UNL     1       8.354 -18.485  22.348  1.00  0.00     0.035 C 
BRANCH  10  11
ATOM     11  C   UNL     1       7.410 -19.690  22.394  1.00  0.00     0.079 C 
BRANCH  11  12
ATOM     12  C   UNL     1       7.034 -20.017  23.816  1.00  0.00     0.130 C 
ATOM     13  O   UNL     1       6.654 -21.145  24.092  1.00  0.00    -0.300 OA
ATOM     14  C   UNL     1       7.110 -18.984  24.901  1.00  0.00     0.087 C 
ENDBRANCH  11  12
ENDBRANCH  10  11
ENDBRANCH   2  10
TORSDOF 6
ENDMDL
MODEL 3
REMARK VINA RESULT:    -4.780      2.684      5.669
REMARK INTER + INTRA:          -7.419
REMARK INTER:                  -6.625
REMARK INTRA:                  -0.794
REMARK UNBOUND:                -0.962
REMARK SMILES CC(=O)CCC=C(C)CCC=C(C)C
REMARK SMILES IDX 7 1 6 2 8 3 9 4 10 5 11 6 13 7 12 8 14 9 5 10 4 11 2 12 3 13
REMARK SMILES IDX 1 14
REMARK H PARENT
REMARK Flexibility Score: inf
ROOT
ATOM      1  C   UNL     1       7.498 -16.125  21.461  1.00  0.00    -0.077 C 
ATOM      2  C   UNL     1       7.191 -15.629  22.682  1.00  0.00    -0.028 C 
ATOM      3  C   UNL     1       6.774 -15.569  20.263  1.00  0.00     0.039 C 
ENDROOT
BRANCH   1   4
ATOM      4  C   UNL     1       8.512 -17.237  21.252  1.00  0.00     0.034 C 
BRANCH   4   5
ATOM      5  C   UNL     1       7.836 -18.609  21.106  1.00  0.00     0.032 C 
BRANCH   5   6
ATOM      6  C   UNL     1       7.496 -19.213  22.448  1.00  0.00    -0.028 C 
ATOM      7  C   UNL     1       7.004 -21.476  21.495  1.00  0.00     0.039 C 
ATOM      8  C   UNL     1       7.092 -20.488  22.635  1.00  0.00    -0.080 C 
ATOM      9  C   UNL     1       6.740 -20.932  24.031  1.00  0.00     0.039 C 
ENDBRANCH   5   6
ENDBRANCH   4   5
ENDBRANCH   1   4
BRANCH   2  10
ATOM     10  C   UNL     1       7.863 -16.033  23.970  1.00  0.00     0.035 C 
BRANCH  10  11
ATOM     11  C   UNL     1       9.002 -15.068  24.314  1.00  0.00     0.079 C 
BRANCH  11  12
ATOM     12  C   UNL     1      10.339 -15.744  24.154  1.00  0.00     0.130 C 
ATOM     13  O   UNL     1      11.110 -15.352  23.291  1.00  0.00    -0.300 OA
ATOM     14  C   UNL     1      10.742 -16.894  25.027  1.00  0.00     0.087 C 
ENDBRANCH  11  12
ENDBRANCH  10  11
ENDBRANCH   2  10
TORSDOF 6
ENDMDL
MODEL 4
REMARK VINA RESULT:    -4.775      2.162      3.510
REMARK INTER + INTRA:          -7.412
REMARK INTER:                  -6.347
REMARK INTRA:                  -1.065
REMARK UNBOUND:                -0.962
REMARK SMILES CC(=O)CCC=C(C)CCC=C(C)C
REMARK SMILES IDX 7 1 6 2 8 3 9 4 10 5 11 6 13 7 12 8 14 9 5 10 4 11 2 12 3 13
REMARK SMILES IDX 1 14
REMARK H PARENT
REMARK Flexibility Score: inf
ROOT
ATOM      1  C   UNL     1       7.486 -17.339  23.883  1.00  0.00    -0.077 C 
ATOM      2  C   UNL     1       7.677 -18.413  23.082  1.00  0.00    -0.028 C 
ATOM      3  C   UNL     1       7.138 -16.022  23.238  1.00  0.00     0.039 C 
ENDROOT
BRANCH   1   4
ATOM      4  C   UNL     1       7.642 -17.396  25.393  1.00  0.00     0.034 C 
BRANCH   4   5
ATOM      5  C   UNL     1       8.787 -16.499  25.886  1.00  0.00     0.032 C 
BRANCH   5   6
ATOM      6  C   UNL     1      10.116 -17.215  25.850  1.00  0.00    -0.028 C 
ATOM      7  C   UNL     1      10.926 -15.970  23.833  1.00  0.00     0.039 C 
ATOM      8  C   UNL     1      11.072 -17.011  24.918  1.00  0.00    -0.080 C 
ATOM      9  C   UNL     1      12.328 -17.841  24.985  1.00  0.00     0.039 C 
ENDBRANCH   5   6
ENDBRANCH   4   5
ENDBRANCH   1   4
BRANCH   2  10
ATOM     10  C   UNL     1       7.972 -19.809  23.570  1.00  0.00     0.035 C 
BRANCH  10  11
ATOM     11  C   UNL     1       6.958 -20.807  23.002  1.00  0.00     0.079 C 
BRANCH  11  12
ATOM     12  C   UNL     1       7.492 -21.454  21.751  1.00  0.00     0.130 C 
ATOM     13  O   UNL     1       7.329 -20.902  20.673  1.00  0.00    -0.300 OA
ATOM     14  C   UNL     1       8.215 -22.767  21.797  1.00  0.00     0.087 C 
ENDBRANCH  11  12
ENDBRANCH  10  11
ENDBRANCH   2  10
TORSDOF 6
ENDMDL
MODEL 5
REMARK VINA RESULT:    -4.770      3.136      5.502
REMARK INTER + INTRA:          -7.405
REMARK INTER:                  -5.641
REMARK INTRA:                  -1.764
REMARK UNBOUND:                -0.962
REMARK SMILES CC(=O)CCC=C(C)CCC=C(C)C
REMARK SMILES IDX 7 1 6 2 8 3 9 4 10 5 11 6 13 7 12 8 14 9 5 10 4 11 2 12 3 13
REMARK SMILES IDX 1 14
REMARK H PARENT
REMARK Flexibility Score: inf
ROOT
ATOM      1  C   UNL     1       7.556 -16.014  23.291  1.00  0.00    -0.077 C 
ATOM      2  C   UNL     1       8.621 -15.227  23.573  1.00  0.00    -0.028 C 
ATOM      3  C   UNL     1       6.687 -15.643  22.118  1.00  0.00     0.039 C 
ENDROOT
BRANCH   1   4
ATOM      4  C   UNL     1       7.183 -17.228  24.124  1.00  0.00     0.034 C 
BRANCH   4   5
ATOM      5  C   UNL     1       7.211 -18.522  23.296  1.00  0.00     0.032 C 
BRANCH   5   6
ATOM      6  C   UNL     1       8.465 -19.325  23.552  1.00  0.00    -0.028 C 
ATOM      7  C   UNL     1       9.605 -18.529  21.469  1.00  0.00     0.039 C 
ATOM      8  C   UNL     1       9.534 -19.362  22.727  1.00  0.00    -0.080 C 
ATOM      9  C   UNL     1      10.692 -20.252  23.095  1.00  0.00     0.039 C 
ENDBRANCH   5   6
ENDBRANCH   4   5
ENDBRANCH   1   4
BRANCH   2  10
ATOM     10  C   UNL     1       9.620 -15.491  24.671  1.00  0.00     0.035 C 
BRANCH  10  11
ATOM     11  C   UNL     1      10.879 -16.159  24.110  1.00  0.00     0.079 C 
BRANCH  11  12
ATOM     12  C   UNL     1      11.408 -17.191  25.072  1.00  0.00     0.130 C 
ATOM     13  O   UNL     1      12.533 -17.639  24.914  1.00  0.00    -0.300 OA
ATOM     14  C   UNL     1      10.578 -17.687  26.219  1.00  0.00     0.087 C 
ENDBRANCH  11  12
ENDBRANCH  10  11
ENDBRANCH   2  10
TORSDOF 6
ENDMDL
MODEL 6
REMARK VINA RESULT:    -4.737      2.568      4.169
REMARK INTER + INTRA:          -7.361
REMARK INTER:                  -5.710
REMARK INTRA:                  -1.650
REMARK UNBOUND:                -0.962
REMARK SMILES CC(=O)CCC=C(C)CCC=C(C)C
REMARK SMILES IDX 7 1 6 2 8 3 9 4 10 5 11 6 13 7 12 8 14 9 5 10 4 11 2 12 3 13
REMARK SMILES IDX 1 14
REMARK H PARENT
REMARK Flexibility Score: inf
ROOT
ATOM      1  C   UNL     1       8.702 -20.141  22.023  1.00  0.00    -0.077 C 
ATOM      2  C   UNL     1       8.183 -20.338  23.257  1.00  0.00    -0.028 C 
ATOM      3  C   UNL     1      10.179 -20.367  21.827  1.00  0.00     0.039 C 
ENDROOT
BRANCH   1   4
ATOM      4  C   UNL     1       7.870 -19.669  20.843  1.00  0.00     0.034 C 
BRANCH   4   5
ATOM      5  C   UNL     1       8.305 -18.279  20.354  1.00  0.00     0.032 C 
BRANCH   5   6
ATOM      6  C   UNL     1       7.547 -17.176  21.053  1.00  0.00    -0.028 C 
ATOM      7  C   UNL     1       9.461 -16.581  22.555  1.00  0.00     0.039 C 
ATOM      8  C   UNL     1       8.041 -16.427  22.062  1.00  0.00    -0.080 C 
ATOM      9  C   UNL     1       7.144 -15.395  22.695  1.00  0.00     0.039 C 
ENDBRANCH   5   6
ENDBRANCH   4   5
ENDBRANCH   1   4
BRANCH   2  10
ATOM     10  C   UNL     1       6.721 -20.213  23.607  1.00  0.00     0.035 C 
BRANCH  10  11
ATOM     11  C   UNL     1       6.427 -18.843  24.224  1.00  0.00     0.079 C 
BRANCH  11  12
ATOM     12  C   UNL     1       7.129 -18.693  25.548  1.00  0.00     0.130 C 
ATOM     13  O   UNL     1       6.894 -19.489  26.445  1.00  0.00    -0.300 OA
ATOM     14  C   UNL     1       8.106 -17.583  25.793  1.00  0.00     0.087 C 
ENDBRANCH  11  12
ENDBRANCH  10  11
ENDBRANCH   2  10
TORSDOF 6
ENDMDL
MODEL 7
REMARK VINA RESULT:    -4.700      2.479      4.124
REMARK INTER + INTRA:          -7.310
REMARK INTER:                  -5.831
REMARK INTRA:                  -1.479
REMARK UNBOUND:                -0.962
REMARK SMILES CC(=O)CCC=C(C)CCC=C(C)C
REMARK SMILES IDX 7 1 6 2 8 3 9 4 10 5 11 6 13 7 12 8 14 9 5 10 4 11 2 12 3 13
REMARK SMILES IDX 1 14
REMARK H PARENT
REMARK Flexibility Score: inf
ROOT
ATOM      1  C   UNL     1       7.334 -20.793  22.515  1.00  0.00    -0.077 C 
ATOM      2  C   UNL     1       6.478 -20.516  23.525  1.00  0.00    -0.028 C 
ATOM      3  C   UNL     1       6.805 -21.536  21.315  1.00  0.00     0.039 C 
ENDROOT
BRANCH   1   4
ATOM      4  C   UNL     1       8.806 -20.420  22.554  1.00  0.00     0.034 C 
BRANCH   4   5
ATOM      5  C   UNL     1       9.205 -19.533  21.365  1.00  0.00     0.032 C 
BRANCH   5   6
ATOM      6  C   UNL     1       8.579 -18.161  21.455  1.00  0.00    -0.028 C 
ATOM      7  C   UNL     1       7.273 -18.432  19.335  1.00  0.00     0.039 C 
ATOM      8  C   UNL     1       7.736 -17.641  20.537  1.00  0.00    -0.080 C 
ATOM      9  C   UNL     1       7.233 -16.236  20.739  1.00  0.00     0.039 C 
ENDBRANCH   5   6
ENDBRANCH   4   5
ENDBRANCH   1   4
BRANCH   2  10
ATOM     10  C   UNL     1       6.831 -19.733  24.764  1.00  0.00     0.035 C 
BRANCH  10  11
ATOM     11  C   UNL     1       6.523 -18.245  24.571  1.00  0.00     0.079 C 
BRANCH  11  12
ATOM     12  C   UNL     1       7.753 -17.410  24.818  1.00  0.00     0.130 C 
ATOM     13  O   UNL     1       7.821 -16.287  24.344  1.00  0.00    -0.300 OA
ATOM     14  C   UNL     1       8.901 -17.932  25.629  1.00  0.00     0.087 C 
ENDBRANCH  11  12
ENDBRANCH  10  11
ENDBRANCH   2  10
TORSDOF 6
ENDMDL
MODEL 8
REMARK VINA RESULT:    -4.680      3.003      5.507
REMARK INTER + INTRA:          -7.284
REMARK INTER:                  -5.538
REMARK INTRA:                  -1.746
REMARK UNBOUND:                -0.962
REMARK SMILES CC(=O)CCC=C(C)CCC=C(C)C
REMARK SMILES IDX 7 1 6 2 8 3 9 4 10 5 11 6 13 7 12 8 14 9 5 10 4 11 2 12 3 13
REMARK SMILES IDX 1 14
REMARK H PARENT
REMARK Flexibility Score: inf
ROOT
ATOM      1  C   UNL     1      11.295 -15.879  23.698  1.00  0.00    -0.077 C 
ATOM      2  C   UNL     1      10.108 -15.231  23.726  1.00  0.00    -0.028 C 
ATOM      3  C   UNL     1      12.374 -15.353  22.787  1.00  0.00     0.039 C 
ENDROOT
BRANCH   1   4
ATOM      4  C   UNL     1      11.574 -17.129  24.515  1.00  0.00     0.034 C 
BRANCH   4   5
ATOM      5  C   UNL     1      11.936 -18.327  23.625  1.00  0.00     0.032 C 
BRANCH   5   6
ATOM      6  C   UNL     1      10.840 -19.367  23.611  1.00  0.00    -0.028 C 
ATOM      7  C   UNL     1       9.843 -18.533  21.470  1.00  0.00     0.039 C 
ATOM      8  C   UNL     1       9.877 -19.453  22.668  1.00  0.00    -0.080 C 
ATOM      9  C   UNL     1       8.820 -20.516  22.818  1.00  0.00     0.039 C 
ENDBRANCH   5   6
ENDBRANCH   4   5
ENDBRANCH   1   4
BRANCH   2  10
ATOM     10  C   UNL     1       8.950 -15.592  24.622  1.00  0.00     0.035 C 
BRANCH  10  11
ATOM     11  C   UNL     1       7.874 -16.350  23.839  1.00  0.00     0.079 C 
BRANCH  11  12
ATOM     12  C   UNL     1       7.397 -17.549  24.615  1.00  0.00     0.130 C 
ATOM     13  O   UNL     1       6.360 -18.104  24.285  1.00  0.00    -0.300 OA
ATOM     14  C   UNL     1       8.165 -18.075  25.791  1.00  0.00     0.087 C 
ENDBRANCH  11  12
ENDBRANCH  10  11
ENDBRANCH   2  10
TORSDOF 6
ENDMDL
MODEL 9
REMARK VINA RESULT:    -4.669      1.569      4.116
REMARK INTER + INTRA:          -7.268
REMARK INTER:                  -5.706
REMARK INTRA:                  -1.562
REMARK UNBOUND:                -0.962
REMARK SMILES CC(=O)CCC=C(C)CCC=C(C)C
REMARK SMILES IDX 7 1 6 2 8 3 9 4 10 5 11 6 13 7 12 8 14 9 5 10 4 11 2 12 3 13
REMARK SMILES IDX 1 14
REMARK H PARENT
REMARK Flexibility Score: inf
ROOT
ATOM      1  C   UNL     1       7.650 -17.383  24.385  1.00  0.00    -0.077 C 
ATOM      2  C   UNL     1       8.232 -16.927  23.252  1.00  0.00    -0.028 C 
ATOM      3  C   UNL     1       8.284 -17.024  25.705  1.00  0.00     0.039 C 
ENDROOT
BRANCH   1   4
ATOM      4  C   UNL     1       6.413 -18.264  24.383  1.00  0.00     0.034 C 
BRANCH   4   5
ATOM      5  C   UNL     1       6.763 -19.745  24.592  1.00  0.00     0.032 C 
BRANCH   5   6
ATOM      6  C   UNL     1       6.577 -20.549  23.328  1.00  0.00    -0.028 C 
ATOM      7  C   UNL     1       9.026 -20.615  22.807  1.00  0.00     0.039 C 
ATOM      8  C   UNL     1       7.579 -20.921  22.501  1.00  0.00    -0.080 C 
ATOM      9  C   UNL     1       7.229 -21.679  21.247  1.00  0.00     0.039 C 
ENDBRANCH   5   6
ENDBRANCH   4   5
ENDBRANCH   1   4
BRANCH   2  10
ATOM     10  C   UNL     1       7.694 -17.146  21.860  1.00  0.00     0.035 C 
BRANCH  10  11
ATOM     11  C   UNL     1       8.838 -17.340  20.860  1.00  0.00     0.079 C 
BRANCH  11  12
ATOM     12  C   UNL     1       8.493 -18.408  19.856  1.00  0.00     0.130 C 
ATOM     13  O   UNL     1       9.336 -19.235  19.545  1.00  0.00    -0.300 OA
ATOM     14  C   UNL     1       7.134 -18.476  19.224  1.00  0.00     0.087 C 
ENDBRANCH  11  12
ENDBRANCH  10  11
ENDBRANCH   2  10
TORSDOF 6
ENDMDL
