MODEL 1
REMARK VINA RESULT:    -5.217      0.000      0.000
REMARK INTER + INTRA:          -6.083
REMARK INTER:                  -6.132
REMARK INTRA:                   0.049
REMARK UNBOUND:                 0.049
REMARK SMILES O=C([O-])C=Cc1ccc(O)c(O)c1
REMARK SMILES IDX 6 1 13 2 7 3 11 4 8 5 9 6 5 7 4 8 2 9 1 10 3 11 12 12 10 14
REMARK H PARENT 12 13 10 15
REMARK Flexibility Score: inf
ROOT
ATOM      1  C   UNL     1       8.656  16.075 -21.696  1.00  0.00    -0.022 A 
ATOM      2  C   UNL     1       9.332  16.331 -20.496  1.00  0.00     0.058 A 
ATOM      3  C   UNL     1       8.320  14.754 -22.026  1.00  0.00     0.012 A 
ATOM      4  C   UNL     1       9.627  15.294 -19.601  1.00  0.00     0.157 A 
ATOM      5  C   UNL     1       8.608  13.713 -21.140  1.00  0.00     0.051 A 
ATOM      6  C   UNL     1       9.254  13.968 -19.925  1.00  0.00     0.157 A 
ENDROOT
BRANCH   1   7
ATOM      7  C   UNL     1       8.410  17.186 -22.639  1.00  0.00     0.010 C 
ATOM      8  C   UNL     1       8.881  17.260 -23.895  1.00  0.00     0.025 C 
BRANCH   8   9
ATOM      9  C   UNL     1       9.574  16.178 -24.620  1.00  0.00     0.064 C 
ATOM     10  O   UNL     1      10.751  15.838 -24.330  1.00  0.00    -0.545 OA
ATOM     11  O   UNL     1       8.887  15.472 -25.600  1.00  0.00    -0.545 OA
ENDBRANCH   8   9
ENDBRANCH   1   7
BRANCH   4  12
ATOM     12  O   UNL     1      10.287  15.624 -18.415  1.00  0.00    -0.504 OA
ATOM     13  H   UNL     1       9.972  15.343 -17.497  1.00  0.00     0.293 HD
ENDBRANCH   4  12
BRANCH   6  14
ATOM     14  O   UNL     1       9.508  12.885 -19.082  1.00  0.00    -0.504 OA
ATOM     15  H   UNL     1      10.110  12.929 -18.272  1.00  0.00     0.293 HD
ENDBRANCH   6  14
TORSDOF 4
ENDMDL
MODEL 2
REMARK VINA RESULT:    -5.045      0.744      1.883
REMARK INTER + INTRA:          -5.880
REMARK INTER:                  -5.882
REMARK INTRA:                   0.002
REMARK UNBOUND:                 0.049
REMARK SMILES O=C([O-])C=Cc1ccc(O)c(O)c1
REMARK SMILES IDX 6 1 13 2 7 3 11 4 8 5 9 6 5 7 4 8 2 9 1 10 3 11 12 12 10 14
REMARK H PARENT 12 13 10 15
REMARK Flexibility Score: inf
ROOT
ATOM      1  C   UNL     1       8.718  16.090 -21.605  1.00  0.00    -0.022 A 
ATOM      2  C   UNL     1       8.303  14.770 -21.822  1.00  0.00     0.058 A 
ATOM      3  C   UNL     1       9.388  16.412 -20.415  1.00  0.00     0.012 A 
ATOM      4  C   UNL     1       8.594  13.762 -20.892  1.00  0.00     0.157 A 
ATOM      5  C   UNL     1       9.684  15.415 -19.482  1.00  0.00     0.051 A 
ATOM      6  C   UNL     1       9.298  14.089 -19.710  1.00  0.00     0.157 A 
ENDROOT
BRANCH   1   7
ATOM      7  C   UNL     1       8.348  17.135 -22.582  1.00  0.00     0.010 C 
ATOM      8  C   UNL     1       8.780  17.202 -23.851  1.00  0.00     0.025 C 
BRANCH   8   9
ATOM      9  C   UNL     1       9.552  16.159 -24.555  1.00  0.00     0.064 C 
ATOM     10  O   UNL     1      10.742  15.895 -24.240  1.00  0.00    -0.545 OA
ATOM     11  O   UNL     1       8.929  15.405 -25.541  1.00  0.00    -0.545 OA
ENDBRANCH   8   9
ENDBRANCH   1   7
BRANCH   4  12
ATOM     12  O   UNL     1       8.164  12.465 -21.181  1.00  0.00    -0.504 OA
ATOM     13  H   UNL     1       7.730  11.852 -20.506  1.00  0.00     0.293 HD
ENDBRANCH   4  12
BRANCH   6  14
ATOM     14  O   UNL     1       9.630  13.139 -18.741  1.00  0.00    -0.504 OA
ATOM     15  H   UNL     1       9.130  12.272 -18.607  1.00  0.00     0.293 HD
ENDBRANCH   6  14
TORSDOF 4
ENDMDL
MODEL 3
REMARK VINA RESULT:    -4.929      8.934     10.413
REMARK INTER + INTRA:          -5.744
REMARK INTER:                  -5.466
REMARK INTRA:                  -0.278
REMARK UNBOUND:                 0.049
REMARK SMILES O=C([O-])C=Cc1ccc(O)c(O)c1
REMARK SMILES IDX 6 1 13 2 7 3 11 4 8 5 9 6 5 7 4 8 2 9 1 10 3 11 12 12 10 14
REMARK H PARENT 12 13 10 15
REMARK Flexibility Score: inf
ROOT
ATOM      1  C   UNL     1       6.920   9.611 -13.500  1.00  0.00    -0.022 A 
ATOM      2  C   UNL     1       7.699  10.512 -12.764  1.00  0.00     0.058 A 
ATOM      3  C   UNL     1       6.026  10.104 -14.463  1.00  0.00     0.012 A 
ATOM      4  C   UNL     1       7.634  11.890 -13.013  1.00  0.00     0.157 A 
ATOM      5  C   UNL     1       5.955  11.475 -14.720  1.00  0.00     0.051 A 
ATOM      6  C   UNL     1       6.754  12.376 -14.008  1.00  0.00     0.157 A 
ENDROOT
BRANCH   1   7
ATOM      7  C   UNL     1       6.976   8.171 -13.174  1.00  0.00     0.010 C 
ATOM      8  C   UNL     1       7.781   7.271 -13.759  1.00  0.00     0.025 C 
BRANCH   8   9
ATOM      9  C   UNL     1       8.875   7.578 -14.701  1.00  0.00     0.064 C 
ATOM     10  O   UNL     1       8.752   7.389 -15.940  1.00  0.00    -0.545 OA
ATOM     11  O   UNL     1      10.043   8.152 -14.217  1.00  0.00    -0.545 OA
ENDBRANCH   8   9
ENDBRANCH   1   7
BRANCH   4  12
ATOM     12  O   UNL     1       8.452  12.729 -12.252  1.00  0.00    -0.504 OA
ATOM     13  H   UNL     1       8.364  12.848 -11.253  1.00  0.00     0.293 HD
ENDBRANCH   4  12
BRANCH   6  14
ATOM     14  O   UNL     1       6.640  13.733 -14.317  1.00  0.00    -0.504 OA
ATOM     15  H   UNL     1       5.874  14.318 -14.015  1.00  0.00     0.293 HD
ENDBRANCH   6  14
TORSDOF 4
ENDMDL
MODEL 4
REMARK VINA RESULT:    -4.895      9.817     13.141
REMARK INTER + INTRA:          -5.704
REMARK INTER:                  -5.790
REMARK INTRA:                   0.086
REMARK UNBOUND:                 0.049
REMARK SMILES O=C([O-])C=Cc1ccc(O)c(O)c1
REMARK SMILES IDX 6 1 13 2 7 3 11 4 8 5 9 6 5 7 4 8 2 9 1 10 3 11 12 12 10 14
REMARK H PARENT 12 13 10 15
REMARK Flexibility Score: inf
ROOT
ATOM      1  C   UNL     1       6.882   8.251 -12.058  1.00  0.00    -0.022 A 
ATOM      2  C   UNL     1       7.819   7.898 -13.038  1.00  0.00     0.058 A 
ATOM      3  C   UNL     1       6.639   9.607 -11.799  1.00  0.00     0.012 A 
ATOM      4  C   UNL     1       8.474   8.880 -13.794  1.00  0.00     0.157 A 
ATOM      5  C   UNL     1       7.285  10.594 -12.547  1.00  0.00     0.051 A 
ATOM      6  C   UNL     1       8.198  10.245 -13.548  1.00  0.00     0.157 A 
ENDROOT
BRANCH   1   7
ATOM      7  C   UNL     1       6.252   7.190 -11.245  1.00  0.00     0.010 C 
ATOM      8  C   UNL     1       6.264   7.126  -9.904  1.00  0.00     0.025 C 
BRANCH   8   9
ATOM      9  C   UNL     1       6.750   8.184  -8.995  1.00  0.00     0.064 C 
ATOM     10  O   UNL     1       5.954   8.903  -8.337  1.00  0.00    -0.545 OA
ATOM     11  O   UNL     1       8.117   8.341  -8.811  1.00  0.00    -0.545 OA
ENDBRANCH   8   9
ENDBRANCH   1   7
BRANCH   4  12
ATOM     12  O   UNL     1       9.384   8.456 -14.766  1.00  0.00    -0.504 OA
ATOM     13  H   UNL     1       9.871   7.572 -14.735  1.00  0.00     0.293 HD
ENDBRANCH   4  12
BRANCH   6  14
ATOM     14  O   UNL     1       8.806  11.279 -14.265  1.00  0.00    -0.504 OA
ATOM     15  H   UNL     1       9.242  11.159 -15.168  1.00  0.00     0.293 HD
ENDBRANCH   6  14
TORSDOF 4
ENDMDL
MODEL 5
REMARK VINA RESULT:    -4.850      2.068      3.090
REMARK INTER + INTRA:          -5.651
REMARK INTER:                  -5.574
REMARK INTRA:                  -0.078
REMARK UNBOUND:                 0.049
REMARK SMILES O=C([O-])C=Cc1ccc(O)c(O)c1
REMARK SMILES IDX 6 1 13 2 7 3 11 4 8 5 9 6 5 7 4 8 2 9 1 10 3 11 12 12 10 14
REMARK H PARENT 12 13 10 15
REMARK Flexibility Score: inf
ROOT
ATOM      1  C   UNL     1       8.302  14.545 -20.249  1.00  0.00    -0.022 A 
ATOM      2  C   UNL     1       9.224  13.550 -20.601  1.00  0.00     0.058 A 
ATOM      3  C   UNL     1       6.939  14.221 -20.174  1.00  0.00     0.012 A 
ATOM      4  C   UNL     1       8.808  12.231 -20.826  1.00  0.00     0.157 A 
ATOM      5  C   UNL     1       6.514  12.909 -20.395  1.00  0.00     0.051 A 
ATOM      6  C   UNL     1       7.435  11.906 -20.716  1.00  0.00     0.157 A 
ENDROOT
BRANCH   1   7
ATOM      7  C   UNL     1       8.769  15.935 -20.072  1.00  0.00     0.010 C 
ATOM      8  C   UNL     1       9.061  16.791 -21.064  1.00  0.00     0.025 C 
BRANCH   8   9
ATOM      9  C   UNL     1       8.800  16.567 -22.500  1.00  0.00     0.064 C 
ATOM     10  O   UNL     1       7.995  17.288 -23.145  1.00  0.00    -0.545 OA
ATOM     11  O   UNL     1       9.513  15.581 -23.170  1.00  0.00    -0.545 OA
ENDBRANCH   8   9
ENDBRANCH   1   7
BRANCH   4  12
ATOM     12  O   UNL     1       9.783  11.287 -21.157  1.00  0.00    -0.504 OA
ATOM     13  H   UNL     1       9.600  10.299 -21.258  1.00  0.00     0.293 HD
ENDBRANCH   4  12
BRANCH   6  14
ATOM     14  O   UNL     1       6.947  10.613 -20.918  1.00  0.00    -0.504 OA
ATOM     15  H   UNL     1       6.156  10.395 -21.507  1.00  0.00     0.293 HD
ENDBRANCH   6  14
TORSDOF 4
ENDMDL
MODEL 6
REMARK VINA RESULT:    -4.848      7.979     10.607
REMARK INTER + INTRA:          -5.649
REMARK INTER:                  -5.422
REMARK INTRA:                  -0.227
REMARK UNBOUND:                 0.049
REMARK SMILES O=C([O-])C=Cc1ccc(O)c(O)c1
REMARK SMILES IDX 6 1 13 2 7 3 11 4 8 5 9 6 5 7 4 8 2 9 1 10 3 11 12 12 10 14
REMARK H PARENT 12 13 10 15
REMARK Flexibility Score: inf
ROOT
ATOM      1  C   UNL     1       8.779   7.683 -15.367  1.00  0.00    -0.022 A 
ATOM      2  C   UNL     1       8.414   8.132 -16.643  1.00  0.00     0.058 A 
ATOM      3  C   UNL     1      10.056   7.987 -14.872  1.00  0.00     0.012 A 
ATOM      4  C   UNL     1       9.286   8.922 -17.405  1.00  0.00     0.157 A 
ATOM      5  C   UNL     1      10.932   8.774 -15.622  1.00  0.00     0.051 A 
ATOM      6  C   UNL     1      10.560   9.251 -16.884  1.00  0.00     0.157 A 
ENDROOT
BRANCH   1   7
ATOM      7  C   UNL     1       7.855   6.809 -14.616  1.00  0.00     0.010 C 
ATOM      8  C   UNL     1       7.026   7.210 -13.638  1.00  0.00     0.025 C 
BRANCH   8   9
ATOM      9  C   UNL     1       6.756   8.610 -13.258  1.00  0.00     0.064 C 
ATOM     10  O   UNL     1       6.190   9.411 -14.049  1.00  0.00    -0.545 OA
ATOM     11  O   UNL     1       7.070   9.035 -11.974  1.00  0.00    -0.545 OA
ENDBRANCH   8   9
ENDBRANCH   1   7
BRANCH   4  12
ATOM     12  O   UNL     1       8.851   9.349 -18.661  1.00  0.00    -0.504 OA
ATOM     13  H   UNL     1       9.458   9.464 -19.459  1.00  0.00     0.293 HD
ENDBRANCH   4  12
BRANCH   6  14
ATOM     14  O   UNL     1      11.480  10.038 -17.580  1.00  0.00    -0.504 OA
ATOM     15  H   UNL     1      12.434  10.186 -17.285  1.00  0.00     0.293 HD
ENDBRANCH   6  14
TORSDOF 4
ENDMDL
MODEL 7
REMARK VINA RESULT:    -4.774      2.973      4.220
REMARK INTER + INTRA:          -5.562
REMARK INTER:                  -5.321
REMARK INTRA:                  -0.241
REMARK UNBOUND:                 0.049
REMARK SMILES O=C([O-])C=Cc1ccc(O)c(O)c1
REMARK SMILES IDX 6 1 13 2 7 3 11 4 8 5 9 6 5 7 4 8 2 9 1 10 3 11 12 12 10 14
REMARK H PARENT 12 13 10 15
REMARK Flexibility Score: inf
ROOT
ATOM      1  C   UNL     1       8.110  13.791 -19.169  1.00  0.00    -0.022 A 
ATOM      2  C   UNL     1       8.562  13.157 -20.334  1.00  0.00     0.058 A 
ATOM      3  C   UNL     1       8.377  13.207 -17.923  1.00  0.00     0.012 A 
ATOM      4  C   UNL     1       9.320  11.980 -20.265  1.00  0.00     0.157 A 
ATOM      5  C   UNL     1       9.132  12.035 -17.842  1.00  0.00     0.051 A 
ATOM      6  C   UNL     1       9.613  11.416 -19.001  1.00  0.00     0.157 A 
ENDROOT
BRANCH   1   7
ATOM      7  C   UNL     1       7.269  15.001 -19.284  1.00  0.00     0.010 C 
ATOM      8  C   UNL     1       7.726  16.256 -19.422  1.00  0.00     0.025 C 
BRANCH   8   9
ATOM      9  C   UNL     1       9.131  16.640 -19.663  1.00  0.00     0.064 C 
ATOM     10  O   UNL     1       9.870  17.057 -18.733  1.00  0.00    -0.545 OA
ATOM     11  O   UNL     1       9.670  16.471 -20.932  1.00  0.00    -0.545 OA
ENDBRANCH   8   9
ENDBRANCH   1   7
BRANCH   4  12
ATOM     12  O   UNL     1       9.752  11.411 -21.464  1.00  0.00    -0.504 OA
ATOM     13  H   UNL     1      10.586  11.698 -21.956  1.00  0.00     0.293 HD
ENDBRANCH   4  12
BRANCH   6  14
ATOM     14  O   UNL     1      10.367  10.250 -18.851  1.00  0.00    -0.504 OA
ATOM     15  H   UNL     1       9.990   9.372 -18.523  1.00  0.00     0.293 HD
ENDBRANCH   6  14
TORSDOF 4
ENDMDL
MODEL 8
REMARK VINA RESULT:    -4.767      7.816     10.423
REMARK INTER + INTRA:          -5.553
REMARK INTER:                  -5.320
REMARK INTRA:                  -0.233
REMARK UNBOUND:                 0.049
REMARK SMILES O=C([O-])C=Cc1ccc(O)c(O)c1
REMARK SMILES IDX 6 1 13 2 7 3 11 4 8 5 9 6 5 7 4 8 2 9 1 10 3 11 12 12 10 14
REMARK H PARENT 12 13 10 15
REMARK Flexibility Score: inf
ROOT
ATOM      1  C   UNL     1       8.863   8.871 -14.298  1.00  0.00    -0.022 A 
ATOM      2  C   UNL     1       9.936   8.260 -14.960  1.00  0.00     0.058 A 
ATOM      3  C   UNL     1       8.585  10.223 -14.543  1.00  0.00     0.012 A 
ATOM      4  C   UNL     1      10.697   8.968 -15.900  1.00  0.00     0.157 A 
ATOM      5  C   UNL     1       9.337  10.937 -15.479  1.00  0.00     0.051 A 
ATOM      6  C   UNL     1      10.390  10.323 -16.166  1.00  0.00     0.157 A 
ENDROOT
BRANCH   1   7
ATOM      7  C   UNL     1       8.116   8.109 -13.275  1.00  0.00     0.010 C 
ATOM      8  C   UNL     1       7.077   7.294 -13.516  1.00  0.00     0.025 C 
BRANCH   8   9
ATOM      9  C   UNL     1       6.605   6.871 -14.850  1.00  0.00     0.064 C 
ATOM     10  O   UNL     1       6.794   5.701 -15.275  1.00  0.00    -0.545 OA
ATOM     11  O   UNL     1       5.876   7.764 -15.624  1.00  0.00    -0.545 OA
ENDBRANCH   8   9
ENDBRANCH   1   7
BRANCH   4  12
ATOM     12  O   UNL     1      11.742   8.292 -16.535  1.00  0.00    -0.504 OA
ATOM     13  H   UNL     1      12.605   8.031 -16.079  1.00  0.00     0.293 HD
ENDBRANCH   4  12
BRANCH   6  14
ATOM     14  O   UNL     1      11.098  11.090 -17.093  1.00  0.00    -0.504 OA
ATOM     15  H   UNL     1      10.849  12.033 -17.354  1.00  0.00     0.293 HD
ENDBRANCH   6  14
TORSDOF 4
ENDMDL
MODEL 9
REMARK VINA RESULT:    -4.703      7.933     10.390
REMARK INTER + INTRA:          -5.479
REMARK INTER:                  -5.241
REMARK INTRA:                  -0.238
REMARK UNBOUND:                 0.049
REMARK SMILES O=C([O-])C=Cc1ccc(O)c(O)c1
REMARK SMILES IDX 6 1 13 2 7 3 11 4 8 5 9 6 5 7 4 8 2 9 1 10 3 11 12 12 10 14
REMARK H PARENT 12 13 10 15
REMARK Flexibility Score: inf
ROOT
ATOM      1  C   UNL     1       8.880   8.829 -14.133  1.00  0.00    -0.022 A 
ATOM      2  C   UNL     1       8.617  10.107 -14.641  1.00  0.00     0.058 A 
ATOM      3  C   UNL     1       9.939   8.082 -14.668  1.00  0.00     0.012 A 
ATOM      4  C   UNL     1       9.428  10.666 -15.638  1.00  0.00     0.157 A 
ATOM      5  C   UNL     1      10.755   8.630 -15.661  1.00  0.00     0.051 A 
ATOM      6  C   UNL     1      10.515   9.919 -16.150  1.00  0.00     0.157 A 
ENDROOT
BRANCH   1   7
ATOM      7  C   UNL     1       7.971   8.252 -13.120  1.00  0.00     0.010 C 
ATOM      8  C   UNL     1       6.943   7.428 -13.377  1.00  0.00     0.025 C 
BRANCH   8   9
ATOM      9  C   UNL     1       6.640   6.808 -14.682  1.00  0.00     0.064 C 
ATOM     10  O   UNL     1       6.942   5.611 -14.930  1.00  0.00    -0.545 OA
ATOM     11  O   UNL     1       5.944   7.542 -15.634  1.00  0.00    -0.545 OA
ENDBRANCH   8   9
ENDBRANCH   1   7
BRANCH   4  12
ATOM     12  O   UNL     1       9.118  11.952 -16.087  1.00  0.00    -0.504 OA
ATOM     13  H   UNL     1       9.714  12.756 -15.950  1.00  0.00     0.293 HD
ENDBRANCH   4  12
BRANCH   6  14
ATOM     14  O   UNL     1      11.371  10.411 -17.137  1.00  0.00    -0.504 OA
ATOM     15  H   UNL     1      11.779  11.335 -17.122  1.00  0.00     0.293 HD
ENDBRANCH   6  14
TORSDOF 4
ENDMDL
