MODEL 1
REMARK VINA RESULT:    -5.519      0.000      0.000
REMARK INTER + INTRA:         -12.520
REMARK INTER:                 -10.358
REMARK INTRA:                  -2.161
REMARK UNBOUND:                -2.161
REMARK SMILES CCCCCCCCCCCCCC=CC=CC(=O)OC
REMARK SMILES IDX 9 1 8 2 7 3 6 4 5 5 4 6 3 7 2 8 1 9 10 10 11 11 12 12 13 13
REMARK SMILES IDX 14 14 15 15 16 16 17 17 18 18 19 19 20 20 21 21
REMARK H PARENT
REMARK Flexibility Score: inf
ROOT
ATOM      1  C   UNL     1       2.657  30.066  67.271  1.00  0.00     0.000 C 
ENDROOT
BRANCH   1   2
ATOM      2  C   UNL     1       2.146  29.025  68.286  1.00  0.00     0.000 C 
BRANCH   2   3
ATOM      3  C   UNL     1       1.938  29.556  69.717  1.00  0.00     0.000 C 
BRANCH   3   4
ATOM      4  C   UNL     1       3.064  29.141  70.678  1.00  0.00    -0.000 C 
BRANCH   4   5
ATOM      5  C   UNL     1       3.936  30.330  71.114  1.00  0.00    -0.000 C 
BRANCH   5   6
ATOM      6  C   UNL     1       5.436  30.073  70.907  1.00  0.00    -0.000 C 
BRANCH   6   7
ATOM      7  C   UNL     1       5.767  28.584  71.095  1.00  0.00    -0.000 C 
BRANCH   7   8
ATOM      8  C   UNL     1       6.250  28.261  72.517  1.00  0.00    -0.003 C 
ATOM      9  C   UNL     1       5.751  26.904  73.016  1.00  0.00     0.004 C 
ENDBRANCH   7   8
ENDBRANCH   6   7
ENDBRANCH   5   6
ENDBRANCH   4   5
ENDBRANCH   3   4
ENDBRANCH   2   3
ENDBRANCH   1   2
BRANCH   1  10
ATOM     10  C   UNL     1       4.161  30.387  67.365  1.00  0.00     0.000 C 
BRANCH  10  11
ATOM     11  C   UNL     1       4.497  31.870  67.619  1.00  0.00     0.000 C 
BRANCH  11  12
ATOM     12  C   UNL     1       3.424  32.654  68.397  1.00  0.00     0.004 C 
BRANCH  12  13
ATOM     13  C   UNL     1       2.822  33.810  67.584  1.00  0.00     0.027 C 
BRANCH  13  14
ATOM     14  C   UNL     1       1.501  33.418  66.987  1.00  0.00    -0.027 C 
ATOM     15  C   UNL     1       1.348  33.273  65.668  1.00  0.00    -0.004 C 
BRANCH  15  16
ATOM     16  C   UNL     1       0.051  32.849  65.102  1.00  0.00     0.007 C 
ATOM     17  C   UNL     1      -0.917  33.682  64.687  1.00  0.00     0.093 C 
BRANCH  17  18
ATOM     18  C   UNL     1      -0.938  35.148  64.853  1.00  0.00     0.330 C 
ATOM     19  O   UNL     1      -1.375  35.683  65.908  1.00  0.00    -0.247 OA
BRANCH  18  20
ATOM     20  O   UNL     1      -0.523  35.946  63.783  1.00  0.00    -0.466 OA
ATOM     21  C   UNL     1       0.842  36.270  63.551  1.00  0.00     0.282 C 
ENDBRANCH  18  20
ENDBRANCH  17  18
ENDBRANCH  15  16
ENDBRANCH  13  14
ENDBRANCH  12  13
ENDBRANCH  11  12
ENDBRANCH  10  11
ENDBRANCH   1  10
TORSDOF 15
ENDMDL
MODEL 2
REMARK VINA RESULT:    -5.507      1.444      2.445
REMARK INTER + INTRA:         -12.497
REMARK INTER:                  -9.852
REMARK INTRA:                  -2.645
REMARK UNBOUND:                -2.161
REMARK SMILES CCCCCCCCCCCCCC=CC=CC(=O)OC
REMARK SMILES IDX 9 1 8 2 7 3 6 4 5 5 4 6 3 7 2 8 1 9 10 10 11 11 12 12 13 13
REMARK SMILES IDX 14 14 15 15 16 16 17 17 18 18 19 19 20 20 21 21
REMARK H PARENT
REMARK Flexibility Score: inf
ROOT
ATOM      1  C   UNL     1       1.502  29.533  67.575  1.00  0.00     0.000 C 
ENDROOT
BRANCH   1   2
ATOM      2  C   UNL     1       3.038  29.399  67.550  1.00  0.00     0.000 C 
BRANCH   2   3
ATOM      3  C   UNL     1       3.803  30.710  67.292  1.00  0.00     0.000 C 
BRANCH   3   4
ATOM      4  C   UNL     1       4.303  31.375  68.585  1.00  0.00    -0.000 C 
BRANCH   4   5
ATOM      5  C   UNL     1       4.814  30.352  69.614  1.00  0.00    -0.000 C 
BRANCH   5   6
ATOM      6  C   UNL     1       3.997  30.362  70.915  1.00  0.00    -0.000 C 
BRANCH   6   7
ATOM      7  C   UNL     1       3.617  28.933  71.333  1.00  0.00    -0.000 C 
BRANCH   7   8
ATOM      8  C   UNL     1       4.713  27.909  71.000  1.00  0.00    -0.003 C 
ATOM      9  C   UNL     1       5.154  27.098  72.220  1.00  0.00     0.004 C 
ENDBRANCH   7   8
ENDBRANCH   6   7
ENDBRANCH   5   6
ENDBRANCH   4   5
ENDBRANCH   3   4
ENDBRANCH   2   3
ENDBRANCH   1   2
BRANCH   1  10
ATOM     10  C   UNL     1       0.887  29.751  68.971  1.00  0.00     0.000 C 
BRANCH  10  11
ATOM     11  C   UNL     1       0.629  31.224  69.347  1.00  0.00     0.000 C 
BRANCH  11  12
ATOM     12  C   UNL     1       0.203  32.127  68.175  1.00  0.00     0.004 C 
BRANCH  12  13
ATOM     13  C   UNL     1       1.209  33.253  67.894  1.00  0.00     0.027 C 
BRANCH  13  14
ATOM     14  C   UNL     1       1.377  33.471  66.418  1.00  0.00    -0.027 C 
ATOM     15  C   UNL     1       0.833  32.640  65.524  1.00  0.00    -0.004 C 
BRANCH  15  16
ATOM     16  C   UNL     1       0.976  32.892  64.076  1.00  0.00     0.007 C 
ATOM     17  C   UNL     1       0.236  33.761  63.369  1.00  0.00     0.093 C 
BRANCH  17  18
ATOM     18  C   UNL     1      -0.941  34.506  63.858  1.00  0.00     0.330 C 
ATOM     19  O   UNL     1      -0.825  35.655  64.365  1.00  0.00    -0.247 OA
BRANCH  18  20
ATOM     20  O   UNL     1      -2.191  33.883  63.811  1.00  0.00    -0.466 OA
ATOM     21  C   UNL     1      -2.797  33.469  62.593  1.00  0.00     0.282 C 
ENDBRANCH  18  20
ENDBRANCH  17  18
ENDBRANCH  15  16
ENDBRANCH  13  14
ENDBRANCH  12  13
ENDBRANCH  11  12
ENDBRANCH  10  11
ENDBRANCH   1  10
TORSDOF 15
ENDMDL
MODEL 3
REMARK VINA RESULT:    -5.390      3.438      8.905
REMARK INTER + INTRA:         -12.279
REMARK INTER:                  -9.645
REMARK INTRA:                  -2.633
REMARK UNBOUND:                -2.161
REMARK SMILES CCCCCCCCCCCCCC=CC=CC(=O)OC
REMARK SMILES IDX 9 1 8 2 7 3 6 4 5 5 4 6 3 7 2 8 1 9 10 10 11 11 12 12 13 13
REMARK SMILES IDX 14 14 15 15 16 16 17 17 18 18 19 19 20 20 21 21
REMARK H PARENT
REMARK Flexibility Score: inf
ROOT
ATOM      1  C   UNL     1      -1.875  33.164  62.465  1.00  0.00     0.000 C 
ENDROOT
BRANCH   1   2
ATOM      2  C   UNL     1      -3.086  33.895  63.077  1.00  0.00     0.000 C 
BRANCH   2   3
ATOM      3  C   UNL     1      -3.128  33.912  64.616  1.00  0.00     0.000 C 
BRANCH   3   4
ATOM      4  C   UNL     1      -2.718  35.270  65.210  1.00  0.00    -0.000 C 
BRANCH   4   5
ATOM      5  C   UNL     1      -3.285  36.457  64.414  1.00  0.00    -0.000 C 
BRANCH   5   6
ATOM      6  C   UNL     1      -2.216  37.505  64.069  1.00  0.00    -0.000 C 
BRANCH   6   7
ATOM      7  C   UNL     1      -0.804  36.919  64.231  1.00  0.00    -0.000 C 
BRANCH   7   8
ATOM      8  C   UNL     1       0.001  36.950  62.923  1.00  0.00    -0.003 C 
ATOM      9  C   UNL     1      -0.852  36.625  61.696  1.00  0.00     0.004 C 
ENDBRANCH   7   8
ENDBRANCH   6   7
ENDBRANCH   5   6
ENDBRANCH   4   5
ENDBRANCH   3   4
ENDBRANCH   2   3
ENDBRANCH   1   2
BRANCH   1  10
ATOM     10  C   UNL     1      -0.887  32.568  63.487  1.00  0.00     0.000 C 
BRANCH  10  11
ATOM     11  C   UNL     1       0.549  33.124  63.406  1.00  0.00     0.000 C 
BRANCH  11  12
ATOM     12  C   UNL     1       1.034  33.853  64.673  1.00  0.00     0.004 C 
BRANCH  12  13
ATOM     13  C   UNL     1       0.392  33.309  65.958  1.00  0.00     0.027 C 
BRANCH  13  14
ATOM     14  C   UNL     1       1.308  33.484  67.134  1.00  0.00    -0.027 C 
ATOM     15  C   UNL     1       2.586  33.096  67.088  1.00  0.00    -0.004 C 
BRANCH  15  16
ATOM     16  C   UNL     1       3.482  33.313  68.242  1.00  0.00     0.007 C 
ATOM     17  C   UNL     1       3.789  32.386  69.163  1.00  0.00     0.093 C 
BRANCH  17  18
ATOM     18  C   UNL     1       3.185  31.045  69.287  1.00  0.00     0.330 C 
ATOM     19  O   UNL     1       3.760  30.022  68.825  1.00  0.00    -0.247 OA
BRANCH  18  20
ATOM     20  O   UNL     1       1.920  30.934  69.871  1.00  0.00    -0.466 OA
ATOM     21  C   UNL     1       0.810  30.359  69.194  1.00  0.00     0.282 C 
ENDBRANCH  18  20
ENDBRANCH  17  18
ENDBRANCH  15  16
ENDBRANCH  13  14
ENDBRANCH  12  13
ENDBRANCH  11  12
ENDBRANCH  10  11
ENDBRANCH   1  10
TORSDOF 15
ENDMDL
MODEL 4
REMARK VINA RESULT:    -5.369      3.495      8.945
REMARK INTER + INTRA:         -12.238
REMARK INTER:                  -9.655
REMARK INTRA:                  -2.584
REMARK UNBOUND:                -2.161
REMARK SMILES CCCCCCCCCCCCCC=CC=CC(=O)OC
REMARK SMILES IDX 9 1 8 2 7 3 6 4 5 5 4 6 3 7 2 8 1 9 10 10 11 11 12 12 13 13
REMARK SMILES IDX 14 14 15 15 16 16 17 17 18 18 19 19 20 20 21 21
REMARK H PARENT
REMARK Flexibility Score: inf
ROOT
ATOM      1  C   UNL     1      -0.816  36.458  63.660  1.00  0.00     0.000 C 
ENDROOT
BRANCH   1   2
ATOM      2  C   UNL     1      -2.129  36.841  64.372  1.00  0.00     0.000 C 
BRANCH   2   3
ATOM      3  C   UNL     1      -2.620  35.829  65.422  1.00  0.00     0.000 C 
BRANCH   3   4
ATOM      4  C   UNL     1      -2.886  34.435  64.830  1.00  0.00    -0.000 C 
BRANCH   4   5
ATOM      5  C   UNL     1      -3.908  34.467  63.681  1.00  0.00    -0.000 C 
BRANCH   5   6
ATOM      6  C   UNL     1      -3.353  33.876  62.377  1.00  0.00    -0.000 C 
BRANCH   6   7
ATOM      7  C   UNL     1      -2.077  33.062  62.645  1.00  0.00    -0.000 C 
BRANCH   7   8
ATOM      8  C   UNL     1      -0.969  33.347  61.620  1.00  0.00    -0.003 C 
ATOM      9  C   UNL     1      -1.375  34.399  60.588  1.00  0.00     0.004 C 
ENDBRANCH   7   8
ENDBRANCH   6   7
ENDBRANCH   5   6
ENDBRANCH   4   5
ENDBRANCH   3   4
ENDBRANCH   2   3
ENDBRANCH   1   2
BRANCH   1  10
ATOM     10  C   UNL     1       0.340  36.052  64.594  1.00  0.00     0.000 C 
BRANCH  10  11
ATOM     11  C   UNL     1       1.285  34.971  64.032  1.00  0.00     0.000 C 
BRANCH  11  12
ATOM     12  C   UNL     1       1.234  33.619  64.766  1.00  0.00     0.004 C 
BRANCH  12  13
ATOM     13  C   UNL     1       0.440  33.683  66.080  1.00  0.00     0.027 C 
BRANCH  13  14
ATOM     14  C   UNL     1       1.358  33.656  67.267  1.00  0.00    -0.027 C 
ATOM     15  C   UNL     1       2.659  33.378  67.137  1.00  0.00    -0.004 C 
BRANCH  15  16
ATOM     16  C   UNL     1       3.554  33.395  68.312  1.00  0.00     0.007 C 
ATOM     17  C   UNL     1       3.872  32.322  69.053  1.00  0.00     0.093 C 
BRANCH  17  18
ATOM     18  C   UNL     1       3.283  30.974  68.936  1.00  0.00     0.330 C 
ATOM     19  O   UNL     1       3.741  30.127  68.122  1.00  0.00    -0.247 OA
BRANCH  18  20
ATOM     20  O   UNL     1       2.153  30.671  69.702  1.00  0.00    -0.466 OA
ATOM     21  C   UNL     1       0.878  30.424  69.124  1.00  0.00     0.282 C 
ENDBRANCH  18  20
ENDBRANCH  17  18
ENDBRANCH  15  16
ENDBRANCH  13  14
ENDBRANCH  12  13
ENDBRANCH  11  12
ENDBRANCH  10  11
ENDBRANCH   1  10
TORSDOF 15
ENDMDL
MODEL 5
REMARK VINA RESULT:    -5.350      1.932      3.437
REMARK INTER + INTRA:         -12.202
REMARK INTER:                  -9.642
REMARK INTRA:                  -2.561
REMARK UNBOUND:                -2.161
REMARK SMILES CCCCCCCCCCCCCC=CC=CC(=O)OC
REMARK SMILES IDX 9 1 8 2 7 3 6 4 5 5 4 6 3 7 2 8 1 9 10 10 11 11 12 12 13 13
REMARK SMILES IDX 14 14 15 15 16 16 17 17 18 18 19 19 20 20 21 21
REMARK H PARENT
REMARK Flexibility Score: inf
ROOT
ATOM      1  C   UNL     1       1.147  30.208  67.419  1.00  0.00     0.000 C 
ENDROOT
BRANCH   1   2
ATOM      2  C   UNL     1       1.934  28.946  67.825  1.00  0.00     0.000 C 
BRANCH   2   3
ATOM      3  C   UNL     1       2.006  28.682  69.341  1.00  0.00     0.000 C 
BRANCH   3   4
ATOM      4  C   UNL     1       3.449  28.603  69.866  1.00  0.00    -0.000 C 
BRANCH   4   5
ATOM      5  C   UNL     1       3.851  29.848  70.674  1.00  0.00    -0.000 C 
BRANCH   5   6
ATOM      6  C   UNL     1       4.648  30.864  69.842  1.00  0.00    -0.000 C 
BRANCH   6   7
ATOM      7  C   UNL     1       3.793  32.101  69.524  1.00  0.00    -0.000 C 
BRANCH   7   8
ATOM      8  C   UNL     1       4.211  32.789  68.216  1.00  0.00    -0.003 C 
ATOM      9  C   UNL     1       4.246  31.827  67.028  1.00  0.00     0.004 C 
ENDBRANCH   7   8
ENDBRANCH   6   7
ENDBRANCH   5   6
ENDBRANCH   4   5
ENDBRANCH   3   4
ENDBRANCH   2   3
ENDBRANCH   1   2
BRANCH   1  10
ATOM     10  C   UNL     1       0.410  30.918  68.571  1.00  0.00     0.000 C 
BRANCH  10  11
ATOM     11  C   UNL     1       0.200  32.433  68.375  1.00  0.00     0.000 C 
BRANCH  11  12
ATOM     12  C   UNL     1       0.068  32.885  66.910  1.00  0.00     0.004 C 
BRANCH  12  13
ATOM     13  C   UNL     1       1.185  33.847  66.479  1.00  0.00     0.027 C 
BRANCH  13  14
ATOM     14  C   UNL     1       1.290  33.917  64.983  1.00  0.00    -0.027 C 
ATOM     15  C   UNL     1       0.887  32.907  64.207  1.00  0.00    -0.004 C 
BRANCH  15  16
ATOM     16  C   UNL     1       0.961  33.011  62.736  1.00  0.00     0.007 C 
ATOM     17  C   UNL     1      -0.007  33.507  61.949  1.00  0.00     0.093 C 
BRANCH  17  18
ATOM     18  C   UNL     1      -1.365  33.898  62.376  1.00  0.00     0.330 C 
ATOM     19  O   UNL     1      -2.340  33.107  62.263  1.00  0.00    -0.247 OA
BRANCH  18  20
ATOM     20  O   UNL     1      -1.567  35.197  62.850  1.00  0.00    -0.466 OA
ATOM     21  C   UNL     1      -2.328  35.478  64.018  1.00  0.00     0.282 C 
ENDBRANCH  18  20
ENDBRANCH  17  18
ENDBRANCH  15  16
ENDBRANCH  13  14
ENDBRANCH  12  13
ENDBRANCH  11  12
ENDBRANCH  10  11
ENDBRANCH   1  10
TORSDOF 15
ENDMDL
MODEL 6
REMARK VINA RESULT:    -5.347      1.902      3.221
REMARK INTER + INTRA:         -12.197
REMARK INTER:                  -9.688
REMARK INTRA:                  -2.509
REMARK UNBOUND:                -2.161
REMARK SMILES CCCCCCCCCCCCCC=CC=CC(=O)OC
REMARK SMILES IDX 9 1 8 2 7 3 6 4 5 5 4 6 3 7 2 8 1 9 10 10 11 11 12 12 13 13
REMARK SMILES IDX 14 14 15 15 16 16 17 17 18 18 19 19 20 20 21 21
REMARK H PARENT
REMARK Flexibility Score: inf
ROOT
ATOM      1  C   UNL     1       0.755  31.536  69.138  1.00  0.00     0.000 C 
ENDROOT
BRANCH   1   2
ATOM      2  C   UNL     1       0.718  30.053  68.718  1.00  0.00     0.000 C 
BRANCH   2   3
ATOM      3  C   UNL     1       1.467  29.726  67.413  1.00  0.00     0.000 C 
BRANCH   3   4
ATOM      4  C   UNL     1       2.918  29.277  67.653  1.00  0.00    -0.000 C 
BRANCH   4   5
ATOM      5  C   UNL     1       3.940  30.368  67.294  1.00  0.00    -0.000 C 
BRANCH   5   6
ATOM      6  C   UNL     1       4.475  31.109  68.529  1.00  0.00    -0.000 C 
BRANCH   6   7
ATOM      7  C   UNL     1       4.797  30.121  69.662  1.00  0.00    -0.000 C 
BRANCH   7   8
ATOM      8  C   UNL     1       3.952  30.370  70.920  1.00  0.00    -0.003 C 
ATOM      9  C   UNL     1       3.627  29.083  71.678  1.00  0.00     0.004 C 
ENDBRANCH   7   8
ENDBRANCH   6   7
ENDBRANCH   5   6
ENDBRANCH   4   5
ENDBRANCH   3   4
ENDBRANCH   2   3
ENDBRANCH   1   2
BRANCH   1  10
ATOM     10  C   UNL     1       0.594  32.546  67.986  1.00  0.00     0.000 C 
BRANCH  10  11
ATOM     11  C   UNL     1       1.776  33.518  67.800  1.00  0.00     0.000 C 
BRANCH  11  12
ATOM     12  C   UNL     1       2.362  33.564  66.377  1.00  0.00     0.004 C 
BRANCH  12  13
ATOM     13  C   UNL     1       1.570  32.707  65.378  1.00  0.00     0.027 C 
BRANCH  13  14
ATOM     14  C   UNL     1       0.974  33.555  64.292  1.00  0.00    -0.027 C 
ATOM     15  C   UNL     1       0.130  34.553  64.570  1.00  0.00    -0.004 C 
BRANCH  15  16
ATOM     16  C   UNL     1      -0.415  35.402  63.492  1.00  0.00     0.007 C 
ATOM     17  C   UNL     1      -1.603  35.218  62.893  1.00  0.00     0.093 C 
BRANCH  17  18
ATOM     18  C   UNL     1      -2.508  34.068  63.084  1.00  0.00     0.330 C 
ATOM     19  O   UNL     1      -2.325  32.980  62.474  1.00  0.00    -0.247 OA
BRANCH  18  20
ATOM     20  O   UNL     1      -3.624  34.229  63.911  1.00  0.00    -0.466 OA
ATOM     21  C   UNL     1      -4.653  35.172  63.638  1.00  0.00     0.282 C 
ENDBRANCH  18  20
ENDBRANCH  17  18
ENDBRANCH  15  16
ENDBRANCH  13  14
ENDBRANCH  12  13
ENDBRANCH  11  12
ENDBRANCH  10  11
ENDBRANCH   1  10
TORSDOF 15
ENDMDL
MODEL 7
REMARK VINA RESULT:    -5.290      3.653      8.956
REMARK INTER + INTRA:         -12.090
REMARK INTER:                  -9.698
REMARK INTRA:                  -2.392
REMARK UNBOUND:                -2.161
REMARK SMILES CCCCCCCCCCCCCC=CC=CC(=O)OC
REMARK SMILES IDX 9 1 8 2 7 3 6 4 5 5 4 6 3 7 2 8 1 9 10 10 11 11 12 12 13 13
REMARK SMILES IDX 14 14 15 15 16 16 17 17 18 18 19 19 20 20 21 21
REMARK H PARENT
REMARK Flexibility Score: inf
ROOT
ATOM      1  C   UNL     1      -1.661  32.846  62.502  1.00  0.00     0.000 C 
ENDROOT
BRANCH   1   2
ATOM      2  C   UNL     1      -2.851  33.607  63.123  1.00  0.00     0.000 C 
BRANCH   2   3
ATOM      3  C   UNL     1      -2.740  33.866  64.637  1.00  0.00     0.000 C 
BRANCH   3   4
ATOM      4  C   UNL     1      -2.747  35.364  64.988  1.00  0.00    -0.000 C 
BRANCH   4   5
ATOM      5  C   UNL     1      -1.409  35.836  65.581  1.00  0.00    -0.000 C 
BRANCH   5   6
ATOM      6  C   UNL     1      -0.516  36.536  64.546  1.00  0.00    -0.000 C 
BRANCH   6   7
ATOM      7  C   UNL     1      -1.358  37.115  63.398  1.00  0.00    -0.000 C 
BRANCH   7   8
ATOM      8  C   UNL     1      -1.244  38.643  63.293  1.00  0.00    -0.003 C 
ATOM      9  C   UNL     1       0.027  39.092  62.570  1.00  0.00     0.004 C 
ENDBRANCH   7   8
ENDBRANCH   6   7
ENDBRANCH   5   6
ENDBRANCH   4   5
ENDBRANCH   3   4
ENDBRANCH   2   3
ENDBRANCH   1   2
BRANCH   1  10
ATOM     10  C   UNL     1      -0.569  33.738  61.881  1.00  0.00     0.000 C 
BRANCH  10  11
ATOM     11  C   UNL     1       0.794  33.698  62.603  1.00  0.00     0.000 C 
BRANCH  11  12
ATOM     12  C   UNL     1       0.901  32.654  63.729  1.00  0.00     0.004 C 
BRANCH  12  13
ATOM     13  C   UNL     1       1.286  33.272  65.081  1.00  0.00     0.027 C 
BRANCH  13  14
ATOM     14  C   UNL     1       0.423  32.734  66.186  1.00  0.00    -0.027 C 
ATOM     15  C   UNL     1       0.856  31.769  67.002  1.00  0.00    -0.004 C 
BRANCH  15  16
ATOM     16  C   UNL     1       0.007  31.279  68.107  1.00  0.00     0.007 C 
ATOM     17  C   UNL     1       0.425  30.484  69.105  1.00  0.00     0.093 C 
BRANCH  17  18
ATOM     18  C   UNL     1       1.746  29.834  69.208  1.00  0.00     0.330 C 
ATOM     19  O   UNL     1       2.007  28.775  68.576  1.00  0.00    -0.247 OA
BRANCH  18  20
ATOM     20  O   UNL     1       2.692  30.381  70.081  1.00  0.00    -0.466 OA
ATOM     21  C   UNL     1       3.461  31.532  69.756  1.00  0.00     0.282 C 
ENDBRANCH  18  20
ENDBRANCH  17  18
ENDBRANCH  15  16
ENDBRANCH  13  14
ENDBRANCH  12  13
ENDBRANCH  11  12
ENDBRANCH  10  11
ENDBRANCH   1  10
TORSDOF 15
ENDMDL
MODEL 8
REMARK VINA RESULT:    -5.289      3.373      8.920
REMARK INTER + INTRA:         -12.089
REMARK INTER:                  -9.699
REMARK INTRA:                  -2.390
REMARK UNBOUND:                -2.161
REMARK SMILES CCCCCCCCCCCCCC=CC=CC(=O)OC
REMARK SMILES IDX 9 1 8 2 7 3 6 4 5 5 4 6 3 7 2 8 1 9 10 10 11 11 12 12 13 13
REMARK SMILES IDX 14 14 15 15 16 16 17 17 18 18 19 19 20 20 21 21
REMARK H PARENT
REMARK Flexibility Score: inf
ROOT
ATOM      1  C   UNL     1       0.061  36.586  63.066  1.00  0.00     0.000 C 
ENDROOT
BRANCH   1   2
ATOM      2  C   UNL     1       0.110  35.820  61.729  1.00  0.00     0.000 C 
BRANCH   2   3
ATOM      3  C   UNL     1      -1.190  35.088  61.349  1.00  0.00     0.000 C 
BRANCH   3   4
ATOM      4  C   UNL     1      -1.096  33.565  61.542  1.00  0.00    -0.000 C 
BRANCH   4   5
ATOM      5  C   UNL     1      -2.238  33.008  62.408  1.00  0.00    -0.000 C 
BRANCH   5   6
ATOM      6  C   UNL     1      -2.272  33.627  63.814  1.00  0.00    -0.000 C 
BRANCH   6   7
ATOM      7  C   UNL     1      -3.600  34.363  64.055  1.00  0.00    -0.000 C 
BRANCH   7   8
ATOM      8  C   UNL     1      -3.396  35.802  64.555  1.00  0.00    -0.003 C 
ATOM      9  C   UNL     1      -2.438  35.884  65.744  1.00  0.00     0.004 C 
ENDBRANCH   7   8
ENDBRANCH   6   7
ENDBRANCH   5   6
ENDBRANCH   4   5
ENDBRANCH   3   4
ENDBRANCH   2   3
ENDBRANCH   1   2
BRANCH   1  10
ATOM     10  C   UNL     1       0.847  35.935  64.221  1.00  0.00     0.000 C 
BRANCH  10  11
ATOM     11  C   UNL     1       1.589  34.633  63.853  1.00  0.00     0.000 C 
BRANCH  11  12
ATOM     12  C   UNL     1       1.228  33.414  64.721  1.00  0.00     0.004 C 
BRANCH  12  13
ATOM     13  C   UNL     1       1.130  33.753  66.216  1.00  0.00     0.027 C 
BRANCH  13  14
ATOM     14  C   UNL     1       2.392  33.380  66.937  1.00  0.00    -0.027 C 
ATOM     15  C   UNL     1       3.097  32.298  66.596  1.00  0.00    -0.004 C 
BRANCH  15  16
ATOM     16  C   UNL     1       4.357  31.968  67.293  1.00  0.00     0.007 C 
ATOM     17  C   UNL     1       4.460  31.150  68.352  1.00  0.00     0.093 C 
BRANCH  17  18
ATOM     18  C   UNL     1       3.341  30.554  69.107  1.00  0.00     0.330 C 
ATOM     19  O   UNL     1       2.782  31.175  70.051  1.00  0.00    -0.247 OA
BRANCH  18  20
ATOM     20  O   UNL     1       2.951  29.247  68.799  1.00  0.00    -0.466 OA
ATOM     21  C   UNL     1       1.908  28.954  67.878  1.00  0.00     0.282 C 
ENDBRANCH  18  20
ENDBRANCH  17  18
ENDBRANCH  15  16
ENDBRANCH  13  14
ENDBRANCH  12  13
ENDBRANCH  11  12
ENDBRANCH  10  11
ENDBRANCH   1  10
TORSDOF 15
ENDMDL
MODEL 9
REMARK VINA RESULT:    -5.282      3.349      8.854
REMARK INTER + INTRA:         -12.076
REMARK INTER:                  -9.525
REMARK INTRA:                  -2.550
REMARK UNBOUND:                -2.161
REMARK SMILES CCCCCCCCCCCCCC=CC=CC(=O)OC
REMARK SMILES IDX 9 1 8 2 7 3 6 4 5 5 4 6 3 7 2 8 1 9 10 10 11 11 12 12 13 13
REMARK SMILES IDX 14 14 15 15 16 16 17 17 18 18 19 19 20 20 21 21
REMARK H PARENT
REMARK Flexibility Score: inf
ROOT
ATOM      1  C   UNL     1       0.037  33.494  61.971  1.00  0.00     0.000 C 
ENDROOT
BRANCH   1   2
ATOM      2  C   UNL     1       0.619  34.832  61.472  1.00  0.00     0.000 C 
BRANCH   2   3
ATOM      3  C   UNL     1      -0.112  36.090  61.975  1.00  0.00     0.000 C 
BRANCH   3   4
ATOM      4  C   UNL     1       0.436  36.603  63.317  1.00  0.00    -0.000 C 
BRANCH   4   5
ATOM      5  C   UNL     1      -0.590  36.486  64.457  1.00  0.00    -0.000 C 
BRANCH   5   6
ATOM      6  C   UNL     1      -2.026  36.300  63.945  1.00  0.00    -0.000 C 
BRANCH   6   7
ATOM      7  C   UNL     1      -2.852  35.456  64.929  1.00  0.00    -0.000 C 
BRANCH   7   8
ATOM      8  C   UNL     1      -3.930  34.617  64.226  1.00  0.00    -0.003 C 
ATOM      9  C   UNL     1      -3.508  34.162  62.829  1.00  0.00     0.004 C 
ENDBRANCH   7   8
ENDBRANCH   6   7
ENDBRANCH   5   6
ENDBRANCH   4   5
ENDBRANCH   3   4
ENDBRANCH   2   3
ENDBRANCH   1   2
BRANCH   1  10
ATOM     10  C   UNL     1       0.643  32.969  63.287  1.00  0.00     0.000 C 
BRANCH  10  11
ATOM     11  C   UNL     1      -0.364  32.774  64.438  1.00  0.00     0.000 C 
BRANCH  11  12
ATOM     12  C   UNL     1       0.202  33.033  65.846  1.00  0.00     0.004 C 
BRANCH  12  13
ATOM     13  C   UNL     1       1.555  33.759  65.821  1.00  0.00     0.027 C 
BRANCH  13  14
ATOM     14  C   UNL     1       2.226  33.696  67.163  1.00  0.00    -0.027 C 
ATOM     15  C   UNL     1       3.274  32.898  67.383  1.00  0.00    -0.004 C 
BRANCH  15  16
ATOM     16  C   UNL     1       3.945  32.879  68.699  1.00  0.00     0.007 C 
ATOM     17  C   UNL     1       3.879  31.870  69.582  1.00  0.00     0.093 C 
BRANCH  17  18
ATOM     18  C   UNL     1       3.020  30.675  69.479  1.00  0.00     0.330 C 
ATOM     19  O   UNL     1       3.438  29.611  68.946  1.00  0.00    -0.247 OA
BRANCH  18  20
ATOM     20  O   UNL     1       1.698  30.763  69.926  1.00  0.00    -0.466 OA
ATOM     21  C   UNL     1       0.591  30.837  69.037  1.00  0.00     0.282 C 
ENDBRANCH  18  20
ENDBRANCH  17  18
ENDBRANCH  15  16
ENDBRANCH  13  14
ENDBRANCH  12  13
ENDBRANCH  11  12
ENDBRANCH  10  11
ENDBRANCH   1  10
TORSDOF 15
ENDMDL
