MODEL 1
REMARK VINA RESULT:    -6.991      0.000      0.000
REMARK INTER + INTRA:         -17.818
REMARK INTER:                 -15.982
REMARK INTRA:                  -1.836
REMARK UNBOUND:                -1.836
REMARK SMILES CCCCCCCCCCCCCCCCCCCCCCCC(=O)[O-]
REMARK SMILES IDX 13 1 14 2 15 3 16 4 17 5 18 6 19 7 20 8 21 9 22 10 23 11
REMARK SMILES IDX 24 12 25 13 26 14 12 15 11 16 10 17 9 18 8 19 7 20 6 21 5 22
REMARK SMILES IDX 4 23 3 24 2 25 1 26
REMARK H PARENT
REMARK Flexibility Score: inf
ROOT
ATOM      1  C   UNL     1     -22.189 -22.117  28.406  1.00  0.00     0.000 C 
ENDROOT
BRANCH   1   2
ATOM      2  C   UNL     1     -21.919 -23.574  28.804  1.00  0.00     0.000 C 
BRANCH   2   3
ATOM      3  C   UNL     1     -23.104 -24.474  28.421  1.00  0.00     0.000 C 
BRANCH   3   4
ATOM      4  C   UNL     1     -23.296 -25.659  29.380  1.00  0.00     0.000 C 
BRANCH   4   5
ATOM      5  C   UNL     1     -23.974 -25.251  30.699  1.00  0.00     0.000 C 
BRANCH   5   6
ATOM      6  C   UNL     1     -25.420 -25.765  30.817  1.00  0.00     0.000 C 
BRANCH   6   7
ATOM      7  C   UNL     1     -25.569 -27.196  31.374  1.00  0.00     0.000 C 
BRANCH   7   8
ATOM      8  C   UNL     1     -25.898 -28.232  30.285  1.00  0.00     0.000 C 
BRANCH   8   9
ATOM      9  C   UNL     1     -26.333 -27.591  28.954  1.00  0.00     0.000 C 
BRANCH   9  10
ATOM     10  C   UNL     1     -26.471 -28.565  27.769  1.00  0.00     0.006 C 
BRANCH  10  11
ATOM     11  C   UNL     1     -26.812 -27.860  26.449  1.00  0.00     0.053 C 
BRANCH  11  12
ATOM     12  C   UNL     1     -26.827 -28.842  25.320  1.00  0.00     0.041 C 
ATOM     13  O   UNL     1     -27.909 -29.378  24.961  1.00  0.00    -0.550 OA
ATOM     14  O   UNL     1     -25.656 -29.125  24.630  1.00  0.00    -0.550 OA
ENDBRANCH  11  12
ENDBRANCH  10  11
ENDBRANCH   9  10
ENDBRANCH   8   9
ENDBRANCH   7   8
ENDBRANCH   6   7
ENDBRANCH   5   6
ENDBRANCH   4   5
ENDBRANCH   3   4
ENDBRANCH   2   3
ENDBRANCH   1   2
BRANCH   1  15
ATOM     15  C   UNL     1     -22.320 -21.174  29.616  1.00  0.00     0.000 C 
BRANCH  15  16
ATOM     16  C   UNL     1     -21.828 -21.787  30.944  1.00  0.00     0.000 C 
BRANCH  16  17
ATOM     17  C   UNL     1     -20.920 -20.828  31.737  1.00  0.00     0.000 C 
BRANCH  17  18
ATOM     18  C   UNL     1     -21.194 -19.352  31.412  1.00  0.00    -0.000 C 
BRANCH  18  19
ATOM     19  C   UNL     1     -19.915 -18.568  31.075  1.00  0.00    -0.000 C 
BRANCH  19  20
ATOM     20  C   UNL     1     -19.532 -18.762  29.603  1.00  0.00    -0.000 C 
BRANCH  20  21
ATOM     21  C   UNL     1     -20.388 -17.880  28.683  1.00  0.00    -0.000 C 
BRANCH  21  22
ATOM     22  C   UNL     1     -19.550 -16.883  27.862  1.00  0.00    -0.000 C 
BRANCH  22  23
ATOM     23  C   UNL     1     -18.233 -16.433  28.526  1.00  0.00    -0.000 C 
BRANCH  23  24
ATOM     24  C   UNL     1     -17.240 -15.727  27.587  1.00  0.00    -0.000 C 
BRANCH  24  25
ATOM     25  C   UNL     1     -17.713 -15.715  26.126  1.00  0.00    -0.003 C 
ATOM     26  C   UNL     1     -16.559 -15.403  25.175  1.00  0.00     0.004 C 
ENDBRANCH  24  25
ENDBRANCH  23  24
ENDBRANCH  22  23
ENDBRANCH  21  22
ENDBRANCH  20  21
ENDBRANCH  19  20
ENDBRANCH  18  19
ENDBRANCH  17  18
ENDBRANCH  16  17
ENDBRANCH  15  16
ENDBRANCH   1  15
TORSDOF 22
ENDMDL
MODEL 2
REMARK VINA RESULT:    -6.964      1.063      1.745
REMARK INTER + INTRA:         -17.757
REMARK INTER:                 -16.177
REMARK INTRA:                  -1.580
REMARK UNBOUND:                -1.836
REMARK SMILES CCCCCCCCCCCCCCCCCCCCCCCC(=O)[O-]
REMARK SMILES IDX 13 1 14 2 15 3 16 4 17 5 18 6 19 7 20 8 21 9 22 10 23 11
REMARK SMILES IDX 24 12 25 13 26 14 12 15 11 16 10 17 9 18 8 19 7 20 6 21 5 22
REMARK SMILES IDX 4 23 3 24 2 25 1 26
REMARK H PARENT
REMARK Flexibility Score: inf
ROOT
ATOM      1  C   UNL     1     -22.062 -22.381  28.550  1.00  0.00     0.000 C 
ENDROOT
BRANCH   1   2
ATOM      2  C   UNL     1     -21.892 -23.372  29.710  1.00  0.00     0.000 C 
BRANCH   2   3
ATOM      3  C   UNL     1     -22.362 -22.751  31.034  1.00  0.00     0.000 C 
BRANCH   3   4
ATOM      4  C   UNL     1     -23.455 -23.575  31.731  1.00  0.00     0.000 C 
BRANCH   4   5
ATOM      5  C   UNL     1     -23.523 -25.024  31.222  1.00  0.00     0.000 C 
BRANCH   5   6
ATOM      6  C   UNL     1     -24.946 -25.456  30.822  1.00  0.00     0.000 C 
BRANCH   6   7
ATOM      7  C   UNL     1     -25.359 -26.870  31.278  1.00  0.00     0.000 C 
BRANCH   7   8
ATOM      8  C   UNL     1     -25.717 -27.799  30.105  1.00  0.00     0.000 C 
BRANCH   8   9
ATOM      9  C   UNL     1     -25.356 -27.202  28.732  1.00  0.00     0.000 C 
BRANCH   9  10
ATOM     10  C   UNL     1     -26.456 -27.307  27.660  1.00  0.00     0.006 C 
BRANCH  10  11
ATOM     11  C   UNL     1     -26.620 -28.727  27.103  1.00  0.00     0.053 C 
BRANCH  11  12
ATOM     12  C   UNL     1     -26.792 -28.692  25.617  1.00  0.00     0.041 C 
ATOM     13  O   UNL     1     -25.855 -29.061  24.862  1.00  0.00    -0.550 OA
ATOM     14  O   UNL     1     -28.005 -28.299  25.067  1.00  0.00    -0.550 OA
ENDBRANCH  11  12
ENDBRANCH  10  11
ENDBRANCH   9  10
ENDBRANCH   8   9
ENDBRANCH   7   8
ENDBRANCH   6   7
ENDBRANCH   5   6
ENDBRANCH   4   5
ENDBRANCH   3   4
ENDBRANCH   2   3
ENDBRANCH   1   2
BRANCH   1  15
ATOM     15  C   UNL     1     -22.399 -20.954  29.019  1.00  0.00     0.000 C 
BRANCH  15  16
ATOM     16  C   UNL     1     -21.662 -19.847  28.237  1.00  0.00     0.000 C 
BRANCH  16  17
ATOM     17  C   UNL     1     -20.662 -19.070  29.114  1.00  0.00     0.000 C 
BRANCH  17  18
ATOM     18  C   UNL     1     -20.946 -19.228  30.615  1.00  0.00    -0.000 C 
BRANCH  18  19
ATOM     19  C   UNL     1     -19.786 -18.738  31.496  1.00  0.00    -0.000 C 
BRANCH  19  20
ATOM     20  C   UNL     1     -18.735 -18.005  30.652  1.00  0.00    -0.000 C 
BRANCH  20  21
ATOM     21  C   UNL     1     -18.823 -16.485  30.851  1.00  0.00    -0.000 C 
BRANCH  21  22
ATOM     22  C   UNL     1     -18.003 -15.699  29.811  1.00  0.00    -0.000 C 
BRANCH  22  23
ATOM     23  C   UNL     1     -18.087 -16.239  28.368  1.00  0.00    -0.000 C 
BRANCH  23  24
ATOM     24  C   UNL     1     -17.212 -15.495  27.345  1.00  0.00    -0.000 C 
BRANCH  24  25
ATOM     25  C   UNL     1     -17.766 -15.585  25.916  1.00  0.00    -0.003 C 
ATOM     26  C   UNL     1     -16.641 -15.531  24.884  1.00  0.00     0.004 C 
ENDBRANCH  24  25
ENDBRANCH  23  24
ENDBRANCH  22  23
ENDBRANCH  21  22
ENDBRANCH  20  21
ENDBRANCH  19  20
ENDBRANCH  18  19
ENDBRANCH  17  18
ENDBRANCH  16  17
ENDBRANCH  15  16
ENDBRANCH   1  15
TORSDOF 22
ENDMDL
MODEL 3
REMARK VINA RESULT:    -6.919      4.593     11.741
REMARK INTER + INTRA:         -17.654
REMARK INTER:                 -15.926
REMARK INTRA:                  -1.728
REMARK UNBOUND:                -1.836
REMARK SMILES CCCCCCCCCCCCCCCCCCCCCCCC(=O)[O-]
REMARK SMILES IDX 13 1 14 2 15 3 16 4 17 5 18 6 19 7 20 8 21 9 22 10 23 11
REMARK SMILES IDX 24 12 25 13 26 14 12 15 11 16 10 17 9 18 8 19 7 20 6 21 5 22
REMARK SMILES IDX 4 23 3 24 2 25 1 26
REMARK H PARENT
REMARK Flexibility Score: inf
ROOT
ATOM      1  C   UNL     1     -22.727 -21.374  30.025  1.00  0.00     0.000 C 
ENDROOT
BRANCH   1   2
ATOM      2  C   UNL     1     -22.043 -21.849  31.314  1.00  0.00     0.000 C 
BRANCH   2   3
ATOM      3  C   UNL     1     -20.925 -20.881  31.729  1.00  0.00     0.000 C 
BRANCH   3   4
ATOM      4  C   UNL     1     -21.151 -19.448  31.226  1.00  0.00     0.000 C 
BRANCH   4   5
ATOM      5  C   UNL     1     -19.967 -18.516  31.536  1.00  0.00     0.000 C 
BRANCH   5   6
ATOM      6  C   UNL     1     -18.845 -18.597  30.484  1.00  0.00     0.000 C 
BRANCH   6   7
ATOM      7  C   UNL     1     -19.299 -18.428  29.020  1.00  0.00     0.000 C 
BRANCH   7   8
ATOM      8  C   UNL     1     -19.471 -16.955  28.612  1.00  0.00     0.000 C 
BRANCH   8   9
ATOM      9  C   UNL     1     -18.262 -16.080  28.989  1.00  0.00     0.000 C 
BRANCH   9  10
ATOM     10  C   UNL     1     -17.621 -15.306  27.822  1.00  0.00     0.006 C 
BRANCH  10  11
ATOM     11  C   UNL     1     -17.320 -16.192  26.606  1.00  0.00     0.053 C 
BRANCH  11  12
ATOM     12  C   UNL     1     -17.310 -15.376  25.352  1.00  0.00     0.041 C 
ATOM     13  O   UNL     1     -16.222 -14.953  24.881  1.00  0.00    -0.550 OA
ATOM     14  O   UNL     1     -18.497 -15.126  24.676  1.00  0.00    -0.550 OA
ENDBRANCH  11  12
ENDBRANCH  10  11
ENDBRANCH   9  10
ENDBRANCH   8   9
ENDBRANCH   7   8
ENDBRANCH   6   7
ENDBRANCH   5   6
ENDBRANCH   4   5
ENDBRANCH   3   4
ENDBRANCH   2   3
ENDBRANCH   1   2
BRANCH   1  15
ATOM     15  C   UNL     1     -22.133 -22.013  28.755  1.00  0.00     0.000 C 
BRANCH  15  16
ATOM     16  C   UNL     1     -21.847 -23.523  28.889  1.00  0.00     0.000 C 
BRANCH  16  17
ATOM     17  C   UNL     1     -23.080 -24.389  28.568  1.00  0.00     0.000 C 
BRANCH  17  18
ATOM     18  C   UNL     1     -23.195 -25.616  29.485  1.00  0.00    -0.000 C 
BRANCH  18  19
ATOM     19  C   UNL     1     -23.682 -25.261  30.898  1.00  0.00    -0.000 C 
BRANCH  19  20
ATOM     20  C   UNL     1     -24.973 -26.017  31.234  1.00  0.00    -0.000 C 
BRANCH  20  21
ATOM     21  C   UNL     1     -24.965 -27.428  30.630  1.00  0.00    -0.000 C 
BRANCH  21  22
ATOM     22  C   UNL     1     -26.173 -27.691  29.711  1.00  0.00    -0.000 C 
BRANCH  22  23
ATOM     23  C   UNL     1     -25.842 -27.780  28.207  1.00  0.00    -0.000 C 
BRANCH  23  24
ATOM     24  C   UNL     1     -26.695 -28.784  27.413  1.00  0.00    -0.000 C 
BRANCH  24  25
ATOM     25  C   UNL     1     -27.171 -28.222  26.065  1.00  0.00    -0.003 C 
ATOM     26  C   UNL     1     -27.135 -29.293  24.977  1.00  0.00     0.004 C 
ENDBRANCH  24  25
ENDBRANCH  23  24
ENDBRANCH  22  23
ENDBRANCH  21  22
ENDBRANCH  20  21
ENDBRANCH  19  20
ENDBRANCH  18  19
ENDBRANCH  17  18
ENDBRANCH  16  17
ENDBRANCH  15  16
ENDBRANCH   1  15
TORSDOF 22
ENDMDL
MODEL 4
REMARK VINA RESULT:    -6.913      4.665     11.569
REMARK INTER + INTRA:         -17.640
REMARK INTER:                 -15.739
REMARK INTRA:                  -1.901
REMARK UNBOUND:                -1.836
REMARK SMILES CCCCCCCCCCCCCCCCCCCCCCCC(=O)[O-]
REMARK SMILES IDX 13 1 14 2 15 3 16 4 17 5 18 6 19 7 20 8 21 9 22 10 23 11
REMARK SMILES IDX 24 12 25 13 26 14 12 15 11 16 10 17 9 18 8 19 7 20 6 21 5 22
REMARK SMILES IDX 4 23 3 24 2 25 1 26
REMARK H PARENT
REMARK Flexibility Score: inf
ROOT
ATOM      1  C   UNL     1     -22.613 -21.272  28.904  1.00  0.00     0.000 C 
ENDROOT
BRANCH   1   2
ATOM      2  C   UNL     1     -21.574 -20.390  28.197  1.00  0.00     0.000 C 
BRANCH   2   3
ATOM      3  C   UNL     1     -21.040 -19.307  29.146  1.00  0.00     0.000 C 
BRANCH   3   4
ATOM      4  C   UNL     1     -21.338 -19.600  30.624  1.00  0.00     0.000 C 
BRANCH   4   5
ATOM      5  C   UNL     1     -20.255 -19.053  31.568  1.00  0.00     0.000 C 
BRANCH   5   6
ATOM      6  C   UNL     1     -19.089 -18.378  30.821  1.00  0.00     0.000 C 
BRANCH   6   7
ATOM      7  C   UNL     1     -18.881 -16.883  31.135  1.00  0.00     0.000 C 
BRANCH   7   8
ATOM      8  C   UNL     1     -18.131 -16.134  30.020  1.00  0.00     0.000 C 
BRANCH   8   9
ATOM      9  C   UNL     1     -18.710 -16.405  28.618  1.00  0.00     0.000 C 
BRANCH   9  10
ATOM     10  C   UNL     1     -17.666 -16.613  27.505  1.00  0.00     0.006 C 
BRANCH  10  11
ATOM     11  C   UNL     1     -17.258 -15.306  26.811  1.00  0.00     0.053 C 
BRANCH  11  12
ATOM     12  C   UNL     1     -17.335 -15.456  25.325  1.00  0.00     0.041 C 
ATOM     13  O   UNL     1     -16.336 -15.863  24.676  1.00  0.00    -0.550 OA
ATOM     14  O   UNL     1     -18.527 -15.195  24.661  1.00  0.00    -0.550 OA
ENDBRANCH  11  12
ENDBRANCH  10  11
ENDBRANCH   9  10
ENDBRANCH   8   9
ENDBRANCH   7   8
ENDBRANCH   6   7
ENDBRANCH   5   6
ENDBRANCH   4   5
ENDBRANCH   3   4
ENDBRANCH   2   3
ENDBRANCH   1   2
BRANCH   1  15
ATOM     15  C   UNL     1     -22.351 -22.778  28.721  1.00  0.00     0.000 C 
BRANCH  15  16
ATOM     16  C   UNL     1     -21.778 -23.471  29.976  1.00  0.00     0.000 C 
BRANCH  16  17
ATOM     17  C   UNL     1     -22.459 -22.996  31.275  1.00  0.00     0.000 C 
BRANCH  17  18
ATOM     18  C   UNL     1     -23.708 -23.820  31.622  1.00  0.00    -0.000 C 
BRANCH  18  19
ATOM     19  C   UNL     1     -23.514 -25.325  31.384  1.00  0.00    -0.000 C 
BRANCH  19  20
ATOM     20  C   UNL     1     -24.637 -25.885  30.502  1.00  0.00    -0.000 C 
BRANCH  20  21
ATOM     21  C   UNL     1     -24.075 -26.525  29.224  1.00  0.00    -0.000 C 
BRANCH  21  22
ATOM     22  C   UNL     1     -25.171 -26.876  28.201  1.00  0.00    -0.000 C 
BRANCH  22  23
ATOM     23  C   UNL     1     -25.989 -28.142  28.526  1.00  0.00    -0.000 C 
BRANCH  23  24
ATOM     24  C   UNL     1     -27.090 -28.484  27.508  1.00  0.00    -0.000 C 
BRANCH  24  25
ATOM     25  C   UNL     1     -26.596 -28.413  26.056  1.00  0.00    -0.003 C 
ATOM     26  C   UNL     1     -27.468 -29.263  25.134  1.00  0.00     0.004 C 
ENDBRANCH  24  25
ENDBRANCH  23  24
ENDBRANCH  22  23
ENDBRANCH  21  22
ENDBRANCH  20  21
ENDBRANCH  19  20
ENDBRANCH  18  19
ENDBRANCH  17  18
ENDBRANCH  16  17
ENDBRANCH  15  16
ENDBRANCH   1  15
TORSDOF 22
ENDMDL
MODEL 5
REMARK VINA RESULT:    -6.740      1.494      2.530
REMARK INTER + INTRA:         -17.244
REMARK INTER:                 -15.499
REMARK INTRA:                  -1.745
REMARK UNBOUND:                -1.836
REMARK SMILES CCCCCCCCCCCCCCCCCCCCCCCC(=O)[O-]
REMARK SMILES IDX 13 1 14 2 15 3 16 4 17 5 18 6 19 7 20 8 21 9 22 10 23 11
REMARK SMILES IDX 24 12 25 13 26 14 12 15 11 16 10 17 9 18 8 19 7 20 6 21 5 22
REMARK SMILES IDX 4 23 3 24 2 25 1 26
REMARK H PARENT
REMARK Flexibility Score: inf
ROOT
ATOM      1  C   UNL     1     -21.867 -20.647  29.162  1.00  0.00     0.000 C 
ENDROOT
BRANCH   1   2
ATOM      2  C   UNL     1     -22.007 -21.939  28.345  1.00  0.00     0.000 C 
BRANCH   2   3
ATOM      3  C   UNL     1     -22.383 -23.121  29.252  1.00  0.00     0.000 C 
BRANCH   3   4
ATOM      4  C   UNL     1     -22.078 -22.864  30.735  1.00  0.00     0.000 C 
BRANCH   4   5
ATOM      5  C   UNL     1     -23.189 -23.376  31.667  1.00  0.00     0.000 C 
BRANCH   5   6
ATOM      6  C   UNL     1     -23.386 -24.901  31.590  1.00  0.00     0.000 C 
BRANCH   6   7
ATOM      7  C   UNL     1     -24.802 -25.364  31.193  1.00  0.00     0.000 C 
BRANCH   7   8
ATOM      8  C   UNL     1     -24.818 -26.758  30.542  1.00  0.00     0.000 C 
BRANCH   8   9
ATOM      9  C   UNL     1     -23.915 -26.853  29.298  1.00  0.00     0.000 C 
BRANCH   9  10
ATOM     10  C   UNL     1     -24.656 -27.039  27.961  1.00  0.00     0.006 C 
BRANCH  10  11
ATOM     11  C   UNL     1     -26.183 -27.074  28.119  1.00  0.00     0.053 C 
BRANCH  11  12
ATOM     12  C   UNL     1     -26.702 -28.456  27.877  1.00  0.00     0.041 C 
ATOM     13  O   UNL     1     -26.865 -29.250  28.841  1.00  0.00    -0.550 OA
ATOM     14  O   UNL     1     -27.057 -28.851  26.593  1.00  0.00    -0.550 OA
ENDBRANCH  11  12
ENDBRANCH  10  11
ENDBRANCH   9  10
ENDBRANCH   8   9
ENDBRANCH   7   8
ENDBRANCH   6   7
ENDBRANCH   5   6
ENDBRANCH   4   5
ENDBRANCH   3   4
ENDBRANCH   2   3
ENDBRANCH   1   2
BRANCH   1  15
ATOM     15  C   UNL     1     -21.279 -19.479  28.349  1.00  0.00     0.000 C 
BRANCH  15  16
ATOM     16  C   UNL     1     -20.062 -18.804  29.013  1.00  0.00     0.000 C 
BRANCH  16  17
ATOM     17  C   UNL     1     -20.029 -19.015  30.539  1.00  0.00     0.000 C 
BRANCH  17  18
ATOM     18  C   UNL     1     -19.484 -17.793  31.293  1.00  0.00    -0.000 C 
BRANCH  18  19
ATOM     19  C   UNL     1     -19.433 -16.528  30.421  1.00  0.00    -0.000 C 
BRANCH  19  20
ATOM     20  C   UNL     1     -18.000 -15.990  30.326  1.00  0.00    -0.000 C 
BRANCH  20  21
ATOM     21  C   UNL     1     -17.867 -14.955  29.200  1.00  0.00    -0.000 C 
BRANCH  21  22
ATOM     22  C   UNL     1     -17.099 -15.495  27.979  1.00  0.00    -0.000 C 
BRANCH  22  23
ATOM     23  C   UNL     1     -17.983 -16.076  26.857  1.00  0.00    -0.000 C 
BRANCH  23  24
ATOM     24  C   UNL     1     -17.882 -15.345  25.507  1.00  0.00    -0.000 C 
BRANCH  24  25
ATOM     25  C   UNL     1     -16.431 -15.168  25.036  1.00  0.00    -0.003 C 
ATOM     26  C   UNL     1     -15.949 -16.393  24.263  1.00  0.00     0.004 C 
ENDBRANCH  24  25
ENDBRANCH  23  24
ENDBRANCH  22  23
ENDBRANCH  21  22
ENDBRANCH  20  21
ENDBRANCH  19  20
ENDBRANCH  18  19
ENDBRANCH  17  18
ENDBRANCH  16  17
ENDBRANCH  15  16
ENDBRANCH   1  15
TORSDOF 22
ENDMDL
MODEL 6
REMARK VINA RESULT:    -6.450      4.556     11.484
REMARK INTER + INTRA:         -16.582
REMARK INTER:                 -14.794
REMARK INTRA:                  -1.788
REMARK UNBOUND:                -1.836
REMARK SMILES CCCCCCCCCCCCCCCCCCCCCCCC(=O)[O-]
REMARK SMILES IDX 13 1 14 2 15 3 16 4 17 5 18 6 19 7 20 8 21 9 22 10 23 11
REMARK SMILES IDX 24 12 25 13 26 14 12 15 11 16 10 17 9 18 8 19 7 20 6 21 5 22
REMARK SMILES IDX 4 23 3 24 2 25 1 26
REMARK H PARENT
REMARK Flexibility Score: inf
ROOT
ATOM      1  C   UNL     1     -22.565 -24.617  28.208  1.00  0.00     0.000 C 
ENDROOT
BRANCH   1   2
ATOM      2  C   UNL     1     -21.755 -23.435  28.759  1.00  0.00     0.000 C 
BRANCH   2   3
ATOM      3  C   UNL     1     -22.400 -22.098  28.364  1.00  0.00     0.000 C 
BRANCH   3   4
ATOM      4  C   UNL     1     -22.255 -21.017  29.445  1.00  0.00     0.000 C 
BRANCH   4   5
ATOM      5  C   UNL     1     -21.930 -21.601  30.830  1.00  0.00     0.000 C 
BRANCH   5   6
ATOM      6  C   UNL     1     -20.978 -20.711  31.650  1.00  0.00     0.000 C 
BRANCH   6   7
ATOM      7  C   UNL     1     -21.007 -19.211  31.296  1.00  0.00     0.000 C 
BRANCH   7   8
ATOM      8  C   UNL     1     -19.773 -18.759  30.496  1.00  0.00     0.000 C 
BRANCH   8   9
ATOM      9  C   UNL     1     -18.927 -17.707  31.236  1.00  0.00     0.000 C 
BRANCH   9  10
ATOM     10  C   UNL     1     -18.516 -16.483  30.396  1.00  0.00     0.006 C 
BRANCH  10  11
ATOM     11  C   UNL     1     -18.917 -16.606  28.919  1.00  0.00     0.053 C 
BRANCH  11  12
ATOM     12  C   UNL     1     -17.882 -15.977  28.041  1.00  0.00     0.041 C 
ATOM     13  O   UNL     1     -17.975 -16.065  26.788  1.00  0.00    -0.550 OA
ATOM     14  O   UNL     1     -16.841 -15.250  28.604  1.00  0.00    -0.550 OA
ENDBRANCH  11  12
ENDBRANCH  10  11
ENDBRANCH   9  10
ENDBRANCH   8   9
ENDBRANCH   7   8
ENDBRANCH   6   7
ENDBRANCH   5   6
ENDBRANCH   4   5
ENDBRANCH   3   4
ENDBRANCH   2   3
ENDBRANCH   1   2
BRANCH   1  15
ATOM     15  C   UNL     1     -23.508 -25.242  29.252  1.00  0.00     0.000 C 
BRANCH  15  16
ATOM     16  C   UNL     1     -23.127 -24.919  30.712  1.00  0.00     0.000 C 
BRANCH  16  17
ATOM     17  C   UNL     1     -24.296 -25.144  31.691  1.00  0.00     0.000 C 
BRANCH  17  18
ATOM     18  C   UNL     1     -25.559 -25.670  30.992  1.00  0.00    -0.000 C 
BRANCH  18  19
ATOM     19  C   UNL     1     -25.947 -27.085  31.449  1.00  0.00    -0.000 C 
BRANCH  19  20
ATOM     20  C   UNL     1     -25.400 -28.139  30.479  1.00  0.00    -0.000 C 
BRANCH  20  21
ATOM     21  C   UNL     1     -26.477 -29.170  30.111  1.00  0.00    -0.000 C 
BRANCH  21  22
ATOM     22  C   UNL     1     -26.853 -29.135  28.618  1.00  0.00    -0.000 C 
BRANCH  22  23
ATOM     23  C   UNL     1     -26.113 -28.070  27.782  1.00  0.00    -0.000 C 
BRANCH  23  24
ATOM     24  C   UNL     1     -26.782 -27.715  26.444  1.00  0.00    -0.000 C 
BRANCH  24  25
ATOM     25  C   UNL     1     -26.606 -28.813  25.384  1.00  0.00    -0.003 C 
ATOM     26  C   UNL     1     -27.957 -29.346  24.913  1.00  0.00     0.004 C 
ENDBRANCH  24  25
ENDBRANCH  23  24
ENDBRANCH  22  23
ENDBRANCH  21  22
ENDBRANCH  20  21
ENDBRANCH  19  20
ENDBRANCH  18  19
ENDBRANCH  17  18
ENDBRANCH  16  17
ENDBRANCH  15  16
ENDBRANCH   1  15
TORSDOF 22
ENDMDL
MODEL 7
REMARK VINA RESULT:    -6.169      1.046      1.992
REMARK INTER + INTRA:         -15.940
REMARK INTER:                 -14.708
REMARK INTRA:                  -1.232
REMARK UNBOUND:                -1.836
REMARK SMILES CCCCCCCCCCCCCCCCCCCCCCCC(=O)[O-]
REMARK SMILES IDX 13 1 14 2 15 3 16 4 17 5 18 6 19 7 20 8 21 9 22 10 23 11
REMARK SMILES IDX 24 12 25 13 26 14 12 15 11 16 10 17 9 18 8 19 7 20 6 21 5 22
REMARK SMILES IDX 4 23 3 24 2 25 1 26
REMARK H PARENT
REMARK Flexibility Score: inf
ROOT
ATOM      1  C   UNL     1     -21.965 -20.871  29.285  1.00  0.00     0.000 C 
ENDROOT
BRANCH   1   2
ATOM      2  C   UNL     1     -22.693 -22.147  28.842  1.00  0.00     0.000 C 
BRANCH   2   3
ATOM      3  C   UNL     1     -21.774 -23.371  28.961  1.00  0.00     0.000 C 
BRANCH   3   4
ATOM      4  C   UNL     1     -22.486 -24.608  29.528  1.00  0.00     0.000 C 
BRANCH   4   5
ATOM      5  C   UNL     1     -23.219 -24.318  30.849  1.00  0.00     0.000 C 
BRANCH   5   6
ATOM      6  C   UNL     1     -24.178 -25.447  31.267  1.00  0.00     0.000 C 
BRANCH   6   7
ATOM      7  C   UNL     1     -25.272 -25.799  30.238  1.00  0.00     0.000 C 
BRANCH   7   8
ATOM      8  C   UNL     1     -25.281 -27.289  29.856  1.00  0.00     0.000 C 
BRANCH   8   9
ATOM      9  C   UNL     1     -25.145 -27.523  28.340  1.00  0.00     0.000 C 
BRANCH   9  10
ATOM     10  C   UNL     1     -26.451 -27.390  27.535  1.00  0.00     0.006 C 
BRANCH  10  11
ATOM     11  C   UNL     1     -27.049 -28.745  27.132  1.00  0.00     0.053 C 
BRANCH  11  12
ATOM     12  C   UNL     1     -27.026 -28.907  25.645  1.00  0.00     0.041 C 
ATOM     13  O   UNL     1     -28.097 -29.099  25.012  1.00  0.00    -0.550 OA
ATOM     14  O   UNL     1     -25.827 -28.796  24.952  1.00  0.00    -0.550 OA
ENDBRANCH  11  12
ENDBRANCH  10  11
ENDBRANCH   9  10
ENDBRANCH   8   9
ENDBRANCH   7   8
ENDBRANCH   6   7
ENDBRANCH   5   6
ENDBRANCH   4   5
ENDBRANCH   3   4
ENDBRANCH   2   3
ENDBRANCH   1   2
BRANCH   1  15
ATOM     15  C   UNL     1     -21.872 -20.728  30.815  1.00  0.00     0.000 C 
BRANCH  15  16
ATOM     16  C   UNL     1     -20.787 -19.738  31.287  1.00  0.00     0.000 C 
BRANCH  16  17
ATOM     17  C   UNL     1     -20.520 -18.620  30.261  1.00  0.00     0.000 C 
BRANCH  17  18
ATOM     18  C   UNL     1     -19.540 -17.559  30.785  1.00  0.00    -0.000 C 
BRANCH  18  19
ATOM     19  C   UNL     1     -18.578 -17.050  29.700  1.00  0.00    -0.000 C 
BRANCH  19  20
ATOM     20  C   UNL     1     -18.048 -15.656  30.056  1.00  0.00    -0.000 C 
BRANCH  20  21
ATOM     21  C   UNL     1     -17.613 -14.888  28.799  1.00  0.00    -0.000 C 
BRANCH  21  22
ATOM     22  C   UNL     1     -17.144 -15.817  27.664  1.00  0.00    -0.000 C 
BRANCH  22  23
ATOM     23  C   UNL     1     -18.111 -15.927  26.468  1.00  0.00    -0.000 C 
BRANCH  23  24
ATOM     24  C   UNL     1     -17.662 -15.183  25.199  1.00  0.00    -0.000 C 
BRANCH  24  25
ATOM     25  C   UNL     1     -16.139 -15.213  25.002  1.00  0.00    -0.003 C 
ATOM     26  C   UNL     1     -15.728 -16.328  24.044  1.00  0.00     0.004 C 
ENDBRANCH  24  25
ENDBRANCH  23  24
ENDBRANCH  22  23
ENDBRANCH  21  22
ENDBRANCH  20  21
ENDBRANCH  19  20
ENDBRANCH  18  19
ENDBRANCH  17  18
ENDBRANCH  16  17
ENDBRANCH  15  16
ENDBRANCH   1  15
TORSDOF 22
ENDMDL
MODEL 8
REMARK VINA RESULT:    -5.358      1.346      1.976
REMARK INTER + INTRA:         -14.086
REMARK INTER:                 -12.750
REMARK INTRA:                  -1.336
REMARK UNBOUND:                -1.836
REMARK SMILES CCCCCCCCCCCCCCCCCCCCCCCC(=O)[O-]
REMARK SMILES IDX 13 1 14 2 15 3 16 4 17 5 18 6 19 7 20 8 21 9 22 10 23 11
REMARK SMILES IDX 24 12 25 13 26 14 12 15 11 16 10 17 9 18 8 19 7 20 6 21 5 22
REMARK SMILES IDX 4 23 3 24 2 25 1 26
REMARK H PARENT
REMARK Flexibility Score: inf
ROOT
ATOM      1  C   UNL     1     -22.364 -21.002  28.930  1.00  0.00     0.000 C 
ENDROOT
BRANCH   1   2
ATOM      2  C   UNL     1     -21.768 -22.267  28.297  1.00  0.00     0.000 C 
BRANCH   2   3
ATOM      3  C   UNL     1     -22.798 -23.407  28.276  1.00  0.00     0.000 C 
BRANCH   3   4
ATOM      4  C   UNL     1     -22.752 -24.285  29.535  1.00  0.00     0.000 C 
BRANCH   4   5
ATOM      5  C   UNL     1     -23.571 -25.578  29.387  1.00  0.00     0.000 C 
BRANCH   5   6
ATOM      6  C   UNL     1     -24.739 -25.669  30.387  1.00  0.00     0.000 C 
BRANCH   6   7
ATOM      7  C   UNL     1     -24.826 -26.986  31.183  1.00  0.00     0.000 C 
BRANCH   7   8
ATOM      8  C   UNL     1     -26.191 -27.683  31.044  1.00  0.00     0.000 C 
BRANCH   8   9
ATOM      9  C   UNL     1     -26.101 -29.047  30.336  1.00  0.00     0.000 C 
BRANCH   9  10
ATOM     10  C   UNL     1     -27.078 -29.245  29.162  1.00  0.00     0.006 C 
BRANCH  10  11
ATOM     11  C   UNL     1     -26.382 -29.239  27.794  1.00  0.00     0.053 C 
BRANCH  11  12
ATOM     12  C   UNL     1     -26.710 -27.986  27.045  1.00  0.00     0.041 C 
ATOM     13  O   UNL     1     -26.502 -26.861  27.571  1.00  0.00    -0.550 OA
ATOM     14  O   UNL     1     -27.196 -28.060  25.746  1.00  0.00    -0.550 OA
ENDBRANCH  11  12
ENDBRANCH  10  11
ENDBRANCH   9  10
ENDBRANCH   8   9
ENDBRANCH   7   8
ENDBRANCH   6   7
ENDBRANCH   5   6
ENDBRANCH   4   5
ENDBRANCH   3   4
ENDBRANCH   2   3
ENDBRANCH   1   2
BRANCH   1  15
ATOM     15  C   UNL     1     -21.701 -19.706  28.430  1.00  0.00     0.000 C 
BRANCH  15  16
ATOM     16  C   UNL     1     -20.520 -19.230  29.301  1.00  0.00     0.000 C 
BRANCH  16  17
ATOM     17  C   UNL     1     -20.887 -19.141  30.795  1.00  0.00     0.000 C 
BRANCH  17  18
ATOM     18  C   UNL     1     -19.975 -18.179  31.571  1.00  0.00    -0.000 C 
BRANCH  18  19
ATOM     19  C   UNL     1     -18.626 -17.945  30.873  1.00  0.00    -0.000 C 
BRANCH  19  20
ATOM     20  C   UNL     1     -18.131 -16.513  31.114  1.00  0.00    -0.000 C 
BRANCH  20  21
ATOM     21  C   UNL     1     -18.393 -15.620  29.893  1.00  0.00    -0.000 C 
BRANCH  21  22
ATOM     22  C   UNL     1     -18.079 -16.324  28.560  1.00  0.00    -0.000 C 
BRANCH  22  23
ATOM     23  C   UNL     1     -17.670 -15.386  27.406  1.00  0.00    -0.000 C 
BRANCH  23  24
ATOM     24  C   UNL     1     -17.526 -16.069  26.034  1.00  0.00    -0.000 C 
BRANCH  24  25
ATOM     25  C   UNL     1     -16.828 -15.175  24.999  1.00  0.00    -0.003 C 
ATOM     26  C   UNL     1     -15.848 -15.980  24.147  1.00  0.00     0.004 C 
ENDBRANCH  24  25
ENDBRANCH  23  24
ENDBRANCH  22  23
ENDBRANCH  21  22
ENDBRANCH  20  21
ENDBRANCH  19  20
ENDBRANCH  18  19
ENDBRANCH  17  18
ENDBRANCH  16  17
ENDBRANCH  15  16
ENDBRANCH   1  15
TORSDOF 22
ENDMDL
MODEL 9
REMARK VINA RESULT:    -4.849      4.624     11.779
REMARK INTER + INTRA:         -12.922
REMARK INTER:                 -12.062
REMARK INTRA:                  -0.860
REMARK UNBOUND:                -1.836
REMARK SMILES CCCCCCCCCCCCCCCCCCCCCCCC(=O)[O-]
REMARK SMILES IDX 13 1 14 2 15 3 16 4 17 5 18 6 19 7 20 8 21 9 22 10 23 11
REMARK SMILES IDX 24 12 25 13 26 14 12 15 11 16 10 17 9 18 8 19 7 20 6 21 5 22
REMARK SMILES IDX 4 23 3 24 2 25 1 26
REMARK H PARENT
REMARK Flexibility Score: inf
ROOT
ATOM      1  C   UNL     1     -22.451 -23.957  28.379  1.00  0.00     0.000 C 
ENDROOT
BRANCH   1   2
ATOM      2  C   UNL     1     -22.636 -22.447  28.584  1.00  0.00     0.000 C 
BRANCH   2   3
ATOM      3  C   UNL     1     -21.414 -21.836  29.285  1.00  0.00     0.000 C 
BRANCH   3   4
ATOM      4  C   UNL     1     -21.734 -20.529  30.025  1.00  0.00     0.000 C 
BRANCH   4   5
ATOM      5  C   UNL     1     -20.546 -20.007  30.851  1.00  0.00     0.000 C 
BRANCH   5   6
ATOM      6  C   UNL     1     -20.772 -18.587  31.400  1.00  0.00     0.000 C 
BRANCH   6   7
ATOM      7  C   UNL     1     -20.419 -17.440  30.431  1.00  0.00     0.000 C 
BRANCH   7   8
ATOM      8  C   UNL     1     -19.527 -17.894  29.263  1.00  0.00     0.000 C 
BRANCH   8   9
ATOM      9  C   UNL     1     -19.188 -16.753  28.286  1.00  0.00     0.000 C 
BRANCH   9  10
ATOM     10  C   UNL     1     -17.783 -16.819  27.659  1.00  0.00     0.006 C 
BRANCH  10  11
ATOM     11  C   UNL     1     -17.346 -15.493  27.022  1.00  0.00     0.053 C 
BRANCH  11  12
ATOM     12  C   UNL     1     -17.320 -15.612  25.531  1.00  0.00     0.041 C 
ATOM     13  O   UNL     1     -16.315 -16.101  24.952  1.00  0.00    -0.550 OA
ATOM     14  O   UNL     1     -18.427 -15.229  24.785  1.00  0.00    -0.550 OA
ENDBRANCH  11  12
ENDBRANCH  10  11
ENDBRANCH   9  10
ENDBRANCH   8   9
ENDBRANCH   7   8
ENDBRANCH   6   7
ENDBRANCH   5   6
ENDBRANCH   4   5
ENDBRANCH   3   4
ENDBRANCH   2   3
ENDBRANCH   1   2
BRANCH   1  15
ATOM     15  C   UNL     1     -23.530 -24.799  29.084  1.00  0.00     0.000 C 
BRANCH  15  16
ATOM     16  C   UNL     1     -23.594 -24.583  30.610  1.00  0.00     0.000 C 
BRANCH  16  17
ATOM     17  C   UNL     1     -23.606 -25.910  31.394  1.00  0.00     0.000 C 
BRANCH  17  18
ATOM     18  C   UNL     1     -25.023 -26.347  31.795  1.00  0.00    -0.000 C 
BRANCH  18  19
ATOM     19  C   UNL     1     -25.596 -27.431  30.868  1.00  0.00    -0.000 C 
BRANCH  19  20
ATOM     20  C   UNL     1     -26.069 -26.819  29.544  1.00  0.00    -0.000 C 
BRANCH  20  21
ATOM     21  C   UNL     1     -25.486 -27.574  28.342  1.00  0.00    -0.000 C 
BRANCH  21  22
ATOM     22  C   UNL     1     -26.481 -27.695  27.172  1.00  0.00    -0.000 C 
BRANCH  22  23
ATOM     23  C   UNL     1     -26.530 -29.081  26.497  1.00  0.00    -0.000 C 
BRANCH  23  24
ATOM     24  C   UNL     1     -26.803 -29.056  24.983  1.00  0.00    -0.000 C 
BRANCH  24  25
ATOM     25  C   UNL     1     -28.302 -29.057  24.652  1.00  0.00    -0.003 C 
ATOM     26  C   UNL     1     -28.684 -27.835  23.818  1.00  0.00     0.004 C 
ENDBRANCH  24  25
ENDBRANCH  23  24
ENDBRANCH  22  23
ENDBRANCH  21  22
ENDBRANCH  20  21
ENDBRANCH  19  20
ENDBRANCH  18  19
ENDBRANCH  17  18
ENDBRANCH  16  17
ENDBRANCH  15  16
ENDBRANCH   1  15
TORSDOF 22
ENDMDL
