MODEL 1
REMARK VINA RESULT:    -5.542      0.000      0.000
REMARK INTER + INTRA:          -6.493
REMARK INTER:                  -6.676
REMARK INTRA:                   0.184
REMARK UNBOUND:                 0.184
REMARK SMILES O=c1c(O)c(-c2ccc(O)c(O)c2)oc2cc(O)cc(O)c12
REMARK SMILES IDX 5 1 3 2 2 3 1 4 22 5 20 6 19 7 17 8 16 9 15 10 14 11 6 12
REMARK SMILES IDX 7 13 8 14 9 15 13 16 11 17 10 18 12 20 4 22 21 24 18 26
REMARK H PARENT 10 19 12 21 4 23 21 25 18 27
REMARK Flexibility Score: inf
ROOT
ATOM      1  C   UNL     1     148.268 152.965 157.622  1.00  0.00     0.180 A 
ATOM      2  C   UNL     1     147.157 153.781 157.901  1.00  0.00     0.208 A 
ATOM      3  C   UNL     1     147.323 155.175 157.913  1.00  0.00     0.238 A 
ATOM      4  O   UNL     1     146.315 155.902 158.109  1.00  0.00    -0.285 OA
ATOM      5  C   UNL     1     148.600 155.735 157.662  1.00  0.00     0.111 A 
ATOM      6  C   UNL     1     148.891 157.132 157.689  1.00  0.00     0.134 A 
ATOM      7  C   UNL     1     150.158 157.580 157.297  1.00  0.00     0.093 A 
ATOM      8  C   UNL     1     151.165 156.677 156.942  1.00  0.00     0.123 A 
ATOM      9  C   UNL     1     150.906 155.309 156.970  1.00  0.00     0.094 A 
ATOM     10  C   UNL     1     149.642 154.833 157.322  1.00  0.00     0.146 A 
ATOM     11  O   UNL     1     149.436 153.522 157.326  1.00  0.00    -0.452 OA
ENDROOT
BRANCH   1  12
ATOM     12  C   UNL     1     148.176 151.486 157.616  1.00  0.00     0.025 A 
ATOM     13  C   UNL     1     149.213 150.688 158.125  1.00  0.00     0.016 A 
ATOM     14  C   UNL     1     149.115 149.296 158.087  1.00  0.00     0.051 A 
ATOM     15  C   UNL     1     147.992 148.673 157.530  1.00  0.00     0.157 A 
ATOM     16  C   UNL     1     147.059 150.864 157.037  1.00  0.00     0.062 A 
ATOM     17  C   UNL     1     146.951 149.469 156.993  1.00  0.00     0.158 A 
BRANCH  15  18
ATOM     18  O   UNL     1     147.954 147.278 157.526  1.00  0.00    -0.504 OA
ATOM     19  H   UNL     1     147.133 146.736 157.296  1.00  0.00     0.293 HD
ENDBRANCH  15  18
BRANCH  17  20
ATOM     20  O   UNL     1     145.806 148.921 156.413  1.00  0.00    -0.504 OA
ATOM     21  H   UNL     1     145.467 147.989 156.603  1.00  0.00     0.293 HD
ENDBRANCH  17  20
ENDBRANCH   1  12
BRANCH   2  22
ATOM     22  O   UNL     1     145.902 153.209 158.125  1.00  0.00    -0.502 OA
ATOM     23  H   UNL     1     145.406 152.689 157.411  1.00  0.00     0.293 HD
ENDBRANCH   2  22
BRANCH   6  24
ATOM     24  O   UNL     1     147.987 158.110 158.115  1.00  0.00    -0.507 OA
ATOM     25  H   UNL     1     147.787 158.327 159.080  1.00  0.00     0.293 HD
ENDBRANCH   6  24
BRANCH   8  26
ATOM     26  O   UNL     1     152.427 157.132 156.568  1.00  0.00    -0.508 OA
ATOM     27  H   UNL     1     152.574 157.632 155.699  1.00  0.00     0.293 HD
ENDBRANCH   8  26
TORSDOF 6
ENDMDL
MODEL 2
REMARK VINA RESULT:    -3.140      5.484     11.536
REMARK INTER + INTRA:          -3.599
REMARK INTER:                  -3.968
REMARK INTRA:                   0.369
REMARK UNBOUND:                 0.184
REMARK SMILES O=c1c(O)c(-c2ccc(O)c(O)c2)oc2cc(O)cc(O)c12
REMARK SMILES IDX 5 1 3 2 2 3 1 4 22 5 20 6 19 7 17 8 16 9 15 10 14 11 6 12
REMARK SMILES IDX 7 13 8 14 9 15 13 16 11 17 10 18 12 20 4 22 21 24 18 26
REMARK H PARENT 10 19 12 21 4 23 21 25 18 27
REMARK Flexibility Score: inf
ROOT
ATOM      1  C   UNL     1     147.341 144.908 157.402  1.00  0.00     0.180 A 
ATOM      2  C   UNL     1     148.618 144.321 157.341  1.00  0.00     0.208 A 
ATOM      3  C   UNL     1     148.737 142.932 157.505  1.00  0.00     0.238 A 
ATOM      4  O   UNL     1     149.875 142.406 157.395  1.00  0.00    -0.285 OA
ATOM      5  C   UNL     1     147.582 142.149 157.745  1.00  0.00     0.111 A 
ATOM      6  C   UNL     1     147.591 140.739 157.966  1.00  0.00     0.134 A 
ATOM      7  C   UNL     1     146.377 140.048 158.062  1.00  0.00     0.093 A 
ATOM      8  C   UNL     1     145.155 140.726 158.011  1.00  0.00     0.123 A 
ATOM      9  C   UNL     1     145.139 142.109 157.855  1.00  0.00     0.094 A 
ATOM     10  C   UNL     1     146.332 142.822 157.719  1.00  0.00     0.146 A 
ATOM     11  O   UNL     1     146.271 144.139 157.562  1.00  0.00    -0.452 OA
ENDROOT
BRANCH   1  12
ATOM     12  C   UNL     1     147.138 146.369 157.262  1.00  0.00     0.025 A 
ATOM     13  C   UNL     1     145.935 146.895 156.765  1.00  0.00     0.016 A 
ATOM     14  C   UNL     1     145.776 148.274 156.621  1.00  0.00     0.051 A 
ATOM     15  C   UNL     1     146.812 149.153 156.954  1.00  0.00     0.157 A 
ATOM     16  C   UNL     1     148.187 147.246 157.578  1.00  0.00     0.062 A 
ATOM     17  C   UNL     1     148.037 148.631 157.436  1.00  0.00     0.158 A 
BRANCH  15  18
ATOM     18  O   UNL     1     146.587 150.521 156.790  1.00  0.00    -0.504 OA
ATOM     19  H   UNL     1     147.309 151.224 156.859  1.00  0.00     0.293 HD
ENDBRANCH  15  18
BRANCH  17  20
ATOM     20  O   UNL     1     149.119 149.443 157.781  1.00  0.00    -0.504 OA
ATOM     21  H   UNL     1     149.373 149.673 158.731  1.00  0.00     0.293 HD
ENDBRANCH  17  20
ENDBRANCH   1  12
BRANCH   2  22
ATOM     22  O   UNL     1     149.742 145.110 157.082  1.00  0.00    -0.502 OA
ATOM     23  H   UNL     1     150.511 145.193 157.736  1.00  0.00     0.293 HD
ENDBRANCH   2  22
BRANCH   6  24
ATOM     24  O   UNL     1     148.755 139.981 158.124  1.00  0.00    -0.507 OA
ATOM     25  H   UNL     1     149.372 140.034 158.921  1.00  0.00     0.293 HD
ENDBRANCH   6  24
BRANCH   8  26
ATOM     26  O   UNL     1     143.953 140.032 158.123  1.00  0.00    -0.508 OA
ATOM     27  H   UNL     1     143.342 139.898 157.326  1.00  0.00     0.293 HD
ENDBRANCH   8  26
TORSDOF 6
ENDMDL
MODEL 3
REMARK VINA RESULT:    -2.746      1.100      1.377
REMARK INTER + INTRA:          -3.125
REMARK INTER:                  -3.231
REMARK INTRA:                   0.106
REMARK UNBOUND:                 0.184
REMARK SMILES O=c1c(O)c(-c2ccc(O)c(O)c2)oc2cc(O)cc(O)c12
REMARK SMILES IDX 5 1 3 2 2 3 1 4 22 5 20 6 19 7 17 8 16 9 15 10 14 11 6 12
REMARK SMILES IDX 7 13 8 14 9 15 13 16 11 17 10 18 12 20 4 22 21 24 18 26
REMARK H PARENT 10 19 12 21 4 23 21 25 18 27
REMARK Flexibility Score: inf
ROOT
ATOM      1  C   UNL     1     147.931 151.700 157.488  1.00  0.00     0.180 A 
ATOM      2  C   UNL     1     146.724 152.399 157.668  1.00  0.00     0.208 A 
ATOM      3  C   UNL     1     146.755 153.801 157.745  1.00  0.00     0.238 A 
ATOM      4  O   UNL     1     145.666 154.424 157.851  1.00  0.00    -0.285 OA
ATOM      5  C   UNL     1     147.992 154.484 157.660  1.00  0.00     0.111 A 
ATOM      6  C   UNL     1     148.145 155.899 157.766  1.00  0.00     0.134 A 
ATOM      7  C   UNL     1     149.399 156.477 157.535  1.00  0.00     0.093 A 
ATOM      8  C   UNL     1     150.519 155.686 157.267  1.00  0.00     0.123 A 
ATOM      9  C   UNL     1     150.390 154.300 157.219  1.00  0.00     0.094 A 
ATOM     10  C   UNL     1     149.146 153.696 157.409  1.00  0.00     0.146 A 
ATOM     11  O   UNL     1     149.066 152.372 157.346  1.00  0.00    -0.452 OA
ENDROOT
BRANCH   1  12
ATOM     12  C   UNL     1     147.982 150.220 157.422  1.00  0.00     0.025 A 
ATOM     13  C   UNL     1     148.968 149.492 158.106  1.00  0.00     0.016 A 
ATOM     14  C   UNL     1     149.010 148.100 158.009  1.00  0.00     0.051 A 
ATOM     15  C   UNL     1     148.083 147.409 157.221  1.00  0.00     0.157 A 
ATOM     16  C   UNL     1     147.064 149.532 156.613  1.00  0.00     0.062 A 
ATOM     17  C   UNL     1     147.098 148.137 156.510  1.00  0.00     0.158 A 
BRANCH  15  18
ATOM     18  O   UNL     1     148.177 146.017 157.170  1.00  0.00    -0.504 OA
ATOM     19  H   UNL     1     147.885 145.460 156.380  1.00  0.00     0.293 HD
ENDBRANCH  15  18
BRANCH  17  20
ATOM     20  O   UNL     1     146.145 147.519 155.696  1.00  0.00    -0.504 OA
ATOM     21  H   UNL     1     146.364 146.818 155.003  1.00  0.00     0.293 HD
ENDBRANCH  17  20
ENDBRANCH   1  12
BRANCH   2  22
ATOM     22  O   UNL     1     145.512 151.706 157.728  1.00  0.00    -0.502 OA
ATOM     23  H   UNL     1     144.900 151.749 158.534  1.00  0.00     0.293 HD
ENDBRANCH   2  22
BRANCH   6  24
ATOM     24  O   UNL     1     147.110 156.771 158.120  1.00  0.00    -0.507 OA
ATOM     25  H   UNL     1     146.194 156.778 157.697  1.00  0.00     0.293 HD
ENDBRANCH   6  24
BRANCH   8  26
ATOM     26  O   UNL     1     151.766 156.269 157.054  1.00  0.00    -0.508 OA
ATOM     27  H   UNL     1     152.035 157.129 157.517  1.00  0.00     0.293 HD
ENDBRANCH   8  26
TORSDOF 6
ENDMDL
