MODEL 1
REMARK VINA RESULT:    -2.966      0.000      0.000
REMARK INTER + INTRA:          -6.675
REMARK INTER:                  -5.568
REMARK INTRA:                  -1.107
REMARK UNBOUND:                -1.107
REMARK SMILES CCCCCCCCC=CCCCCCCCC(=O)[O-]
REMARK SMILES IDX 10 1 9 2 11 3 12 4 13 5 14 6 15 7 16 8 17 9 18 10 19 11
REMARK SMILES IDX 20 12 8 13 7 14 6 15 5 16 4 17 3 18 2 19 1 20
REMARK H PARENT
REMARK Flexibility Score: inf
ROOT
ATOM      1  C   UNL     1      -9.428  16.287 -12.763  1.00  0.00    -0.031 C 
ATOM      2  C   UNL     1      -8.525  15.593 -12.047  1.00  0.00    -0.031 C 
ENDROOT
BRANCH   1   3
ATOM      3  C   UNL     1      -9.333  16.544 -14.248  1.00  0.00     0.027 C 
BRANCH   3   4
ATOM      4  C   UNL     1      -8.460  17.769 -14.562  1.00  0.00     0.004 C 
BRANCH   4   5
ATOM      5  C   UNL     1      -7.899  17.730 -15.991  1.00  0.00     0.000 C 
BRANCH   5   6
ATOM      6  C   UNL     1      -6.372  17.893 -15.985  1.00  0.00     0.000 C 
BRANCH   6   7
ATOM      7  C   UNL     1      -5.925  19.361 -16.110  1.00  0.00     0.000 C 
BRANCH   7   8
ATOM      8  C   UNL     1      -6.759  20.370 -15.295  1.00  0.00     0.006 C 
BRANCH   8   9
ATOM      9  C   UNL     1      -5.979  21.093 -14.185  1.00  0.00     0.053 C 
BRANCH   9  10
ATOM     10  C   UNL     1      -6.526  20.782 -12.825  1.00  0.00     0.041 C 
ATOM     11  O   UNL     1      -5.891  21.125 -11.793  1.00  0.00    -0.550 OA
ATOM     12  O   UNL     1      -7.721  20.086 -12.699  1.00  0.00    -0.550 OA
ENDBRANCH   9  10
ENDBRANCH   8   9
ENDBRANCH   7   8
ENDBRANCH   6   7
ENDBRANCH   5   6
ENDBRANCH   4   5
ENDBRANCH   3   4
ENDBRANCH   1   3
BRANCH   2  13
ATOM     13  C   UNL     1      -7.330  14.880 -12.630  1.00  0.00     0.027 C 
BRANCH  13  14
ATOM     14  C   UNL     1      -7.395  13.363 -12.395  1.00  0.00     0.004 C 
BRANCH  14  15
ATOM     15  C   UNL     1      -6.856  12.568 -13.598  1.00  0.00     0.000 C 
BRANCH  15  16
ATOM     16  C   UNL     1      -6.288  13.476 -14.700  1.00  0.00     0.000 C 
BRANCH  16  17
ATOM     17  C   UNL     1      -6.607  12.964 -16.114  1.00  0.00    -0.000 C 
BRANCH  17  18
ATOM     18  C   UNL     1      -7.921  12.169 -16.125  1.00  0.00    -0.000 C 
BRANCH  18  19
ATOM     19  C   UNL     1      -9.160  13.073 -16.041  1.00  0.00    -0.003 C 
ATOM     20  C   UNL     1     -10.457  12.285 -15.858  1.00  0.00     0.004 C 
ENDBRANCH  18  19
ENDBRANCH  17  18
ENDBRANCH  16  17
ENDBRANCH  15  16
ENDBRANCH  14  15
ENDBRANCH  13  14
ENDBRANCH   2  13
TORSDOF 15
ENDMDL
MODEL 2
REMARK VINA RESULT:    -2.322      2.070      2.856
REMARK INTER + INTRA:          -5.465
REMARK INTER:                  -4.439
REMARK INTRA:                  -1.026
REMARK UNBOUND:                -1.107
REMARK SMILES CCCCCCCCC=CCCCCCCCC(=O)[O-]
REMARK SMILES IDX 10 1 9 2 11 3 12 4 13 5 14 6 15 7 16 8 17 9 18 10 19 11
REMARK SMILES IDX 20 12 8 13 7 14 6 15 5 16 4 17 3 18 2 19 1 20
REMARK H PARENT
REMARK Flexibility Score: inf
ROOT
ATOM      1  C   UNL     1      -9.578  16.788 -12.850  1.00  0.00    -0.031 C 
ATOM      2  C   UNL     1      -9.053  15.551 -12.932  1.00  0.00    -0.031 C 
ENDROOT
BRANCH   1   3
ATOM      3  C   UNL     1      -8.899  17.968 -12.197  1.00  0.00     0.027 C 
BRANCH   3   4
ATOM      4  C   UNL     1      -9.060  19.252 -13.025  1.00  0.00     0.004 C 
BRANCH   4   5
ATOM      5  C   UNL     1      -7.753  20.054 -13.109  1.00  0.00     0.000 C 
BRANCH   5   6
ATOM      6  C   UNL     1      -7.751  20.971 -14.342  1.00  0.00     0.000 C 
BRANCH   6   7
ATOM      7  C   UNL     1      -7.372  20.232 -15.638  1.00  0.00     0.000 C 
BRANCH   7   8
ATOM      8  C   UNL     1      -6.117  19.342 -15.539  1.00  0.00     0.006 C 
BRANCH   8   9
ATOM      9  C   UNL     1      -6.341  18.000 -14.822  1.00  0.00     0.053 C 
BRANCH   9  10
ATOM     10  C   UNL     1      -6.955  16.979 -15.729  1.00  0.00     0.041 C 
ATOM     11  O   UNL     1      -8.143  17.113 -16.125  1.00  0.00    -0.550 OA
ATOM     12  O   UNL     1      -6.225  15.860 -16.111  1.00  0.00    -0.550 OA
ENDBRANCH   9  10
ENDBRANCH   8   9
ENDBRANCH   7   8
ENDBRANCH   6   7
ENDBRANCH   5   6
ENDBRANCH   4   5
ENDBRANCH   3   4
ENDBRANCH   1   3
BRANCH   2  13
ATOM     13  C   UNL     1      -7.666  15.175 -12.474  1.00  0.00     0.027 C 
BRANCH  13  14
ATOM     14  C   UNL     1      -7.636  13.792 -11.806  1.00  0.00     0.004 C 
BRANCH  14  15
ATOM     15  C   UNL     1      -7.685  12.651 -12.839  1.00  0.00     0.000 C 
BRANCH  15  16
ATOM     16  C   UNL     1      -7.021  13.031 -14.172  1.00  0.00     0.000 C 
BRANCH  16  17
ATOM     17  C   UNL     1      -8.034  13.180 -15.318  1.00  0.00    -0.000 C 
BRANCH  17  18
ATOM     18  C   UNL     1      -9.401  12.604 -14.919  1.00  0.00    -0.000 C 
BRANCH  18  19
ATOM     19  C   UNL     1     -10.359  12.476 -16.113  1.00  0.00    -0.003 C 
ATOM     20  C   UNL     1     -11.276  11.257 -16.008  1.00  0.00     0.004 C 
ENDBRANCH  18  19
ENDBRANCH  17  18
ENDBRANCH  16  17
ENDBRANCH  15  16
ENDBRANCH  14  15
ENDBRANCH  13  14
ENDBRANCH   2  13
TORSDOF 15
ENDMDL
MODEL 3
REMARK VINA RESULT:    -2.239      2.719      6.651
REMARK INTER + INTRA:          -5.310
REMARK INTER:                  -4.187
REMARK INTRA:                  -1.123
REMARK UNBOUND:                -1.107
REMARK SMILES CCCCCCCCC=CCCCCCCCC(=O)[O-]
REMARK SMILES IDX 10 1 9 2 11 3 12 4 13 5 14 6 15 7 16 8 17 9 18 10 19 11
REMARK SMILES IDX 20 12 8 13 7 14 6 15 5 16 4 17 3 18 2 19 1 20
REMARK H PARENT
REMARK Flexibility Score: inf
ROOT
ATOM      1  C   UNL     1      -8.853  15.222 -12.951  1.00  0.00    -0.031 C 
ATOM      2  C   UNL     1      -9.320  16.475 -13.096  1.00  0.00    -0.031 C 
ENDROOT
BRANCH   1   3
ATOM      3  C   UNL     1      -8.193  14.690 -11.702  1.00  0.00     0.027 C 
BRANCH   3   4
ATOM      4  C   UNL     1      -7.362  13.429 -11.985  1.00  0.00     0.004 C 
BRANCH   4   5
ATOM      5  C   UNL     1      -6.639  13.505 -13.338  1.00  0.00     0.000 C 
BRANCH   5   6
ATOM      6  C   UNL     1      -6.059  12.136 -13.727  1.00  0.00     0.000 C 
BRANCH   6   7
ATOM      7  C   UNL     1      -5.875  11.973 -15.246  1.00  0.00     0.000 C 
BRANCH   7   8
ATOM      8  C   UNL     1      -6.975  12.620 -16.111  1.00  0.00     0.006 C 
BRANCH   8   9
ATOM      9  C   UNL     1      -8.354  11.950 -15.996  1.00  0.00     0.053 C 
BRANCH   9  10
ATOM     10  C   UNL     1      -9.462  12.956 -15.952  1.00  0.00     0.041 C 
ATOM     11  O   UNL     1      -9.208  14.172 -15.747  1.00  0.00    -0.550 OA
ATOM     12  O   UNL     1     -10.780  12.545 -16.106  1.00  0.00    -0.550 OA
ENDBRANCH   9  10
ENDBRANCH   8   9
ENDBRANCH   7   8
ENDBRANCH   6   7
ENDBRANCH   5   6
ENDBRANCH   4   5
ENDBRANCH   3   4
ENDBRANCH   1   3
BRANCH   2  13
ATOM     13  C   UNL     1      -9.347  17.514 -12.002  1.00  0.00     0.027 C 
BRANCH  13  14
ATOM     14  C   UNL     1      -8.769  18.858 -12.472  1.00  0.00     0.004 C 
BRANCH  14  15
ATOM     15  C   UNL     1      -8.610  18.915 -14.002  1.00  0.00     0.000 C 
BRANCH  15  16
ATOM     16  C   UNL     1      -8.397  20.345 -14.522  1.00  0.00     0.000 C 
BRANCH  16  17
ATOM     17  C   UNL     1      -7.424  20.406 -15.710  1.00  0.00    -0.000 C 
BRANCH  17  18
ATOM     18  C   UNL     1      -6.108  19.686 -15.377  1.00  0.00    -0.000 C 
BRANCH  18  19
ATOM     19  C   UNL     1      -6.011  18.301 -16.034  1.00  0.00    -0.003 C 
ATOM     20  C   UNL     1      -6.002  17.162 -15.015  1.00  0.00     0.004 C 
ENDBRANCH  18  19
ENDBRANCH  17  18
ENDBRANCH  16  17
ENDBRANCH  15  16
ENDBRANCH  14  15
ENDBRANCH  13  14
ENDBRANCH   2  13
TORSDOF 15
ENDMDL
MODEL 4
REMARK VINA RESULT:    -1.894      2.684      6.655
REMARK INTER + INTRA:          -4.661
REMARK INTER:                  -3.855
REMARK INTRA:                  -0.806
REMARK UNBOUND:                -1.107
REMARK SMILES CCCCCCCCC=CCCCCCCCC(=O)[O-]
REMARK SMILES IDX 10 1 9 2 11 3 12 4 13 5 14 6 15 7 16 8 17 9 18 10 19 11
REMARK SMILES IDX 20 12 8 13 7 14 6 15 5 16 4 17 3 18 2 19 1 20
REMARK H PARENT
REMARK Flexibility Score: inf
ROOT
ATOM      1  C   UNL     1      -8.958  15.392 -11.598  1.00  0.00    -0.031 C 
ATOM      2  C   UNL     1      -9.183  16.514 -12.307  1.00  0.00    -0.031 C 
ENDROOT
BRANCH   1   3
ATOM      3  C   UNL     1      -7.660  14.620 -11.602  1.00  0.00     0.027 C 
BRANCH   3   4
ATOM      4  C   UNL     1      -7.791  13.283 -12.347  1.00  0.00     0.004 C 
BRANCH   4   5
ATOM      5  C   UNL     1      -6.743  13.135 -13.460  1.00  0.00     0.000 C 
BRANCH   5   6
ATOM      6  C   UNL     1      -6.217  14.509 -13.903  1.00  0.00     0.000 C 
BRANCH   6   7
ATOM      7  C   UNL     1      -6.230  14.692 -15.431  1.00  0.00     0.000 C 
BRANCH   7   8
ATOM      8  C   UNL     1      -7.623  14.611 -16.087  1.00  0.00     0.006 C 
BRANCH   8   9
ATOM      9  C   UNL     1      -8.230  13.199 -16.125  1.00  0.00     0.053 C 
BRANCH   9  10
ATOM     10  C   UNL     1      -9.559  13.144 -15.438  1.00  0.00     0.041 C 
ATOM     11  O   UNL     1     -10.459  12.370 -15.858  1.00  0.00    -0.550 OA
ATOM     12  O   UNL     1      -9.815  13.971 -14.352  1.00  0.00    -0.550 OA
ENDBRANCH   9  10
ENDBRANCH   8   9
ENDBRANCH   7   8
ENDBRANCH   6   7
ENDBRANCH   5   6
ENDBRANCH   4   5
ENDBRANCH   3   4
ENDBRANCH   1   3
BRANCH   2  13
ATOM     13  C   UNL     1      -8.145  17.230 -13.136  1.00  0.00     0.027 C 
BRANCH  13  14
ATOM     14  C   UNL     1      -8.755  18.377 -13.955  1.00  0.00     0.004 C 
BRANCH  14  15
ATOM     15  C   UNL     1      -8.198  18.423 -15.389  1.00  0.00     0.000 C 
BRANCH  15  16
ATOM     16  C   UNL     1      -8.566  19.721 -16.125  1.00  0.00     0.000 C 
BRANCH  16  17
ATOM     17  C   UNL     1      -7.921  20.965 -15.495  1.00  0.00    -0.000 C 
BRANCH  17  18
ATOM     18  C   UNL     1      -6.400  20.790 -15.370  1.00  0.00    -0.000 C 
BRANCH  18  19
ATOM     19  C   UNL     1      -5.918  20.831 -13.913  1.00  0.00    -0.003 C 
ATOM     20  C   UNL     1      -7.055  21.077 -12.920  1.00  0.00     0.004 C 
ENDBRANCH  18  19
ENDBRANCH  17  18
ENDBRANCH  16  17
ENDBRANCH  15  16
ENDBRANCH  14  15
ENDBRANCH  13  14
ENDBRANCH   2  13
TORSDOF 15
ENDMDL
MODEL 5
REMARK VINA RESULT:    -1.557      3.073      7.067
REMARK INTER + INTRA:          -4.030
REMARK INTER:                  -3.932
REMARK INTRA:                  -0.099
REMARK UNBOUND:                -1.107
REMARK SMILES CCCCCCCCC=CCCCCCCCC(=O)[O-]
REMARK SMILES IDX 10 1 9 2 11 3 12 4 13 5 14 6 15 7 16 8 17 9 18 10 19 11
REMARK SMILES IDX 20 12 8 13 7 14 6 15 5 16 4 17 3 18 2 19 1 20
REMARK H PARENT
REMARK Flexibility Score: inf
ROOT
ATOM      1  C   UNL     1      -9.085  15.865 -14.812  1.00  0.00    -0.031 C 
ATOM      2  C   UNL     1      -8.393  16.119 -15.937  1.00  0.00    -0.031 C 
ENDROOT
BRANCH   1   3
ATOM      3  C   UNL     1      -8.552  16.061 -13.413  1.00  0.00     0.027 C 
BRANCH   3   4
ATOM      4  C   UNL     1      -8.993  14.932 -12.468  1.00  0.00     0.004 C 
BRANCH   4   5
ATOM      5  C   UNL     1      -7.801  14.275 -11.756  1.00  0.00     0.000 C 
BRANCH   5   6
ATOM      6  C   UNL     1      -6.965  13.443 -12.739  1.00  0.00     0.000 C 
BRANCH   6   7
ATOM      7  C   UNL     1      -7.827  12.590 -13.687  1.00  0.00     0.000 C 
BRANCH   7   8
ATOM      8  C   UNL     1      -7.542  12.791 -15.189  1.00  0.00     0.006 C 
BRANCH   8   9
ATOM      9  C   UNL     1      -8.437  11.962 -16.125  1.00  0.00     0.053 C 
BRANCH   9  10
ATOM     10  C   UNL     1      -9.886  12.089 -15.769  1.00  0.00     0.041 C 
ATOM     11  O   UNL     1     -10.355  13.198 -15.400  1.00  0.00    -0.550 OA
ATOM     12  O   UNL     1     -10.713  10.973 -15.813  1.00  0.00    -0.550 OA
ENDBRANCH   9  10
ENDBRANCH   8   9
ENDBRANCH   7   8
ENDBRANCH   6   7
ENDBRANCH   5   6
ENDBRANCH   4   5
ENDBRANCH   3   4
ENDBRANCH   1   3
BRANCH   2  13
ATOM     13  C   UNL     1      -7.015  16.733 -15.978  1.00  0.00     0.027 C 
BRANCH  13  14
ATOM     14  C   UNL     1      -7.071  18.261 -16.124  1.00  0.00     0.004 C 
BRANCH  14  15
ATOM     15  C   UNL     1      -5.877  18.951 -15.441  1.00  0.00     0.000 C 
BRANCH  15  16
ATOM     16  C   UNL     1      -5.969  20.484 -15.495  1.00  0.00     0.000 C 
BRANCH  16  17
ATOM     17  C   UNL     1      -7.343  20.980 -15.971  1.00  0.00    -0.000 C 
BRANCH  17  18
ATOM     18  C   UNL     1      -8.437  20.621 -14.954  1.00  0.00    -0.000 C 
BRANCH  18  19
ATOM     19  C   UNL     1      -7.868  20.293 -13.566  1.00  0.00    -0.003 C 
ATOM     20  C   UNL     1      -8.581  19.119 -12.896  1.00  0.00     0.004 C 
ENDBRANCH  18  19
ENDBRANCH  17  18
ENDBRANCH  16  17
ENDBRANCH  15  16
ENDBRANCH  14  15
ENDBRANCH  13  14
ENDBRANCH   2  13
TORSDOF 15
ENDMDL
MODEL 6
REMARK VINA RESULT:    -1.512      1.596      6.233
REMARK INTER + INTRA:          -3.945
REMARK INTER:                  -5.041
REMARK INTRA:                   1.096
REMARK UNBOUND:                -1.107
REMARK SMILES CCCCCCCCC=CCCCCCCCC(=O)[O-]
REMARK SMILES IDX 10 1 9 2 11 3 12 4 13 5 14 6 15 7 16 8 17 9 18 10 19 11
REMARK SMILES IDX 20 12 8 13 7 14 6 15 5 16 4 17 3 18 2 19 1 20
REMARK H PARENT
REMARK Flexibility Score: inf
ROOT
ATOM      1  C   UNL     1      -6.019  13.712 -15.150  1.00  0.00    -0.031 C 
ATOM      2  C   UNL     1      -5.957  15.056 -15.123  1.00  0.00    -0.031 C 
ENDROOT
BRANCH   1   3
ATOM      3  C   UNL     1      -6.848  12.910 -16.125  1.00  0.00     0.027 C 
BRANCH   3   4
ATOM      4  C   UNL     1      -7.956  12.116 -15.416  1.00  0.00     0.004 C 
BRANCH   4   5
ATOM      5  C   UNL     1      -8.705  12.967 -14.380  1.00  0.00     0.000 C 
BRANCH   5   6
ATOM      6  C   UNL     1      -7.951  12.992 -13.042  1.00  0.00     0.000 C 
BRANCH   6   7
ATOM      7  C   UNL     1      -7.356  14.373 -12.715  1.00  0.00     0.000 C 
BRANCH   7   8
ATOM      8  C   UNL     1      -8.212  15.248 -11.778  1.00  0.00     0.006 C 
BRANCH   8   9
ATOM      9  C   UNL     1      -9.536  15.734 -12.390  1.00  0.00     0.053 C 
BRANCH   9  10
ATOM     10  C   UNL     1      -9.402  17.093 -13.004  1.00  0.00     0.041 C 
ATOM     11  O   UNL     1      -9.145  18.092 -12.282  1.00  0.00    -0.550 OA
ATOM     12  O   UNL     1      -9.593  17.261 -14.369  1.00  0.00    -0.550 OA
ENDBRANCH   9  10
ENDBRANCH   8   9
ENDBRANCH   7   8
ENDBRANCH   6   7
ENDBRANCH   5   6
ENDBRANCH   4   5
ENDBRANCH   3   4
ENDBRANCH   1   3
BRANCH   2  13
ATOM     13  C   UNL     1      -6.627  15.968 -16.121  1.00  0.00     0.027 C 
BRANCH  13  14
ATOM     14  C   UNL     1      -6.046  17.389 -16.080  1.00  0.00     0.004 C 
BRANCH  14  15
ATOM     15  C   UNL     1      -6.911  18.342 -15.236  1.00  0.00     0.000 C 
BRANCH  15  16
ATOM     16  C   UNL     1      -7.702  19.341 -16.095  1.00  0.00     0.000 C 
BRANCH  16  17
ATOM     17  C   UNL     1      -7.350  20.804 -15.781  1.00  0.00    -0.000 C 
BRANCH  17  18
ATOM     18  C   UNL     1      -5.917  20.918 -15.240  1.00  0.00    -0.000 C 
BRANCH  18  19
ATOM     19  C   UNL     1      -5.875  21.123 -13.719  1.00  0.00    -0.003 C 
ATOM     20  C   UNL     1      -7.264  21.099 -13.080  1.00  0.00     0.004 C 
ENDBRANCH  18  19
ENDBRANCH  17  18
ENDBRANCH  16  17
ENDBRANCH  15  16
ENDBRANCH  14  15
ENDBRANCH  13  14
ENDBRANCH   2  13
TORSDOF 15
ENDMDL
MODEL 7
REMARK VINA RESULT:    -1.275      1.375      2.797
REMARK INTER + INTRA:          -3.500
REMARK INTER:                  -2.571
REMARK INTRA:                  -0.929
REMARK UNBOUND:                -1.107
REMARK SMILES CCCCCCCCC=CCCCCCCCC(=O)[O-]
REMARK SMILES IDX 10 1 9 2 11 3 12 4 13 5 14 6 15 7 16 8 17 9 18 10 19 11
REMARK SMILES IDX 20 12 8 13 7 14 6 15 5 16 4 17 3 18 2 19 1 20
REMARK H PARENT
REMARK Flexibility Score: inf
ROOT
ATOM      1  C   UNL     1      -8.719  14.838 -15.570  1.00  0.00    -0.031 C 
ATOM      2  C   UNL     1      -9.536  15.210 -14.568  1.00  0.00    -0.031 C 
ENDROOT
BRANCH   1   3
ATOM      3  C   UNL     1      -7.597  15.684 -16.123  1.00  0.00     0.027 C 
BRANCH   3   4
ATOM      4  C   UNL     1      -6.793  16.368 -15.007  1.00  0.00     0.004 C 
BRANCH   4   5
ATOM      5  C   UNL     1      -5.887  17.485 -15.548  1.00  0.00     0.000 C 
BRANCH   5   6
ATOM      6  C   UNL     1      -6.722  18.637 -16.125  1.00  0.00     0.000 C 
BRANCH   6   7
ATOM      7  C   UNL     1      -6.080  20.017 -15.893  1.00  0.00     0.000 C 
BRANCH   7   8
ATOM      8  C   UNL     1      -7.050  21.118 -15.419  1.00  0.00     0.006 C 
BRANCH   8   9
ATOM      9  C   UNL     1      -8.169  20.625 -14.487  1.00  0.00     0.053 C 
BRANCH   9  10
ATOM     10  C   UNL     1      -7.630  20.137 -13.177  1.00  0.00     0.041 C 
ATOM     11  O   UNL     1      -8.385  19.550 -12.359  1.00  0.00    -0.550 OA
ATOM     12  O   UNL     1      -6.299  20.361 -12.847  1.00  0.00    -0.550 OA
ENDBRANCH   9  10
ENDBRANCH   8   9
ENDBRANCH   7   8
ENDBRANCH   6   7
ENDBRANCH   5   6
ENDBRANCH   4   5
ENDBRANCH   3   4
ENDBRANCH   1   3
BRANCH   2  13
ATOM     13  C   UNL     1      -9.396  16.487 -13.774  1.00  0.00     0.027 C 
BRANCH  13  14
ATOM     14  C   UNL     1      -9.369  16.222 -12.261  1.00  0.00     0.004 C 
BRANCH  14  15
ATOM     15  C   UNL     1      -8.013  15.659 -11.798  1.00  0.00     0.000 C 
BRANCH  15  16
ATOM     16  C   UNL     1      -7.932  14.130 -11.931  1.00  0.00     0.000 C 
BRANCH  16  17
ATOM     17  C   UNL     1      -6.758  13.672 -12.810  1.00  0.00    -0.000 C 
BRANCH  17  18
ATOM     18  C   UNL     1      -6.970  12.232 -13.300  1.00  0.00    -0.000 C 
BRANCH  18  19
ATOM     19  C   UNL     1      -5.892  11.782 -14.297  1.00  0.00    -0.003 C 
ATOM     20  C   UNL     1      -5.875  12.626 -15.571  1.00  0.00     0.004 C 
ENDBRANCH  18  19
ENDBRANCH  17  18
ENDBRANCH  16  17
ENDBRANCH  15  16
ENDBRANCH  14  15
ENDBRANCH  13  14
ENDBRANCH   2  13
TORSDOF 15
ENDMDL
MODEL 8
REMARK VINA RESULT:    -0.942      2.945      6.827
REMARK INTER + INTRA:          -2.874
REMARK INTER:                  -2.765
REMARK INTRA:                  -0.109
REMARK UNBOUND:                -1.107
REMARK SMILES CCCCCCCCC=CCCCCCCCC(=O)[O-]
REMARK SMILES IDX 10 1 9 2 11 3 12 4 13 5 14 6 15 7 16 8 17 9 18 10 19 11
REMARK SMILES IDX 20 12 8 13 7 14 6 15 5 16 4 17 3 18 2 19 1 20
REMARK H PARENT
REMARK Flexibility Score: inf
ROOT
ATOM      1  C   UNL     1      -8.505  16.346 -11.834  1.00  0.00    -0.031 C 
ATOM      2  C   UNL     1      -7.880  17.116 -12.743  1.00  0.00    -0.031 C 
ENDROOT
BRANCH   1   3
ATOM      3  C   UNL     1      -8.669  14.849 -11.943  1.00  0.00     0.027 C 
BRANCH   3   4
ATOM      4  C   UNL     1      -7.315  14.133 -12.069  1.00  0.00     0.004 C 
BRANCH   4   5
ATOM      5  C   UNL     1      -7.333  13.046 -13.154  1.00  0.00     0.000 C 
BRANCH   5   6
ATOM      6  C   UNL     1      -5.973  12.954 -13.861  1.00  0.00     0.000 C 
BRANCH   6   7
ATOM      7  C   UNL     1      -5.893  11.785 -14.860  1.00  0.00     0.000 C 
BRANCH   7   8
ATOM      8  C   UNL     1      -6.781  11.934 -16.112  1.00  0.00     0.006 C 
BRANCH   8   9
ATOM      9  C   UNL     1      -7.660  13.195 -16.125  1.00  0.00     0.053 C 
BRANCH   9  10
ATOM     10  C   UNL     1      -9.114  12.863 -15.993  1.00  0.00     0.041 C 
ATOM     11  O   UNL     1      -9.961  13.779 -15.825  1.00  0.00    -0.550 OA
ATOM     12  O   UNL     1      -9.530  11.538 -16.023  1.00  0.00    -0.550 OA
ENDBRANCH   9  10
ENDBRANCH   8   9
ENDBRANCH   7   8
ENDBRANCH   6   7
ENDBRANCH   5   6
ENDBRANCH   4   5
ENDBRANCH   3   4
ENDBRANCH   1   3
BRANCH   2  13
ATOM     13  C   UNL     1      -7.160  16.594 -13.962  1.00  0.00     0.027 C 
BRANCH  13  14
ATOM     14  C   UNL     1      -5.883  17.395 -14.261  1.00  0.00     0.004 C 
BRANCH  14  15
ATOM     15  C   UNL     1      -6.075  18.367 -15.439  1.00  0.00     0.000 C 
BRANCH  15  16
ATOM     16  C   UNL     1      -5.880  19.836 -15.031  1.00  0.00     0.000 C 
BRANCH  16  17
ATOM     17  C   UNL     1      -6.325  20.115 -13.587  1.00  0.00    -0.000 C 
BRANCH  17  18
ATOM     18  C   UNL     1      -7.600  20.971 -13.563  1.00  0.00    -0.000 C 
BRANCH  18  19
ATOM     19  C   UNL     1      -8.664  20.474 -14.553  1.00  0.00    -0.003 C 
ATOM     20  C   UNL     1      -8.499  21.073 -15.950  1.00  0.00     0.004 C 
ENDBRANCH  18  19
ENDBRANCH  17  18
ENDBRANCH  16  17
ENDBRANCH  15  16
ENDBRANCH  14  15
ENDBRANCH  13  14
ENDBRANCH   2  13
TORSDOF 15
ENDMDL
