MODEL 1
REMARK VINA RESULT:    -4.407      0.000      0.000
REMARK INTER + INTRA:          -4.407
REMARK INTER:                  -4.407
REMARK INTRA:                   0.000
REMARK UNBOUND:                 0.000
REMARK SMILES C=C1CCC[C@@]2(C)CC(=O)C(=C(C)C)C[C@@H]12
REMARK SMILES IDX 13 1 12 2 11 3 15 4 16 5 2 6 1 7 3 8 4 9 5 10 6 11 8 12 9 13
REMARK SMILES IDX 10 14 7 15 14 16
REMARK H PARENT
REMARK Flexibility Score: inf
ROOT
ATOM      1  C   UNL     1      21.044  39.857  88.156  1.00  0.00     0.039 C 
ATOM      2  C   UNL     1      20.085  39.299  89.181  1.00  0.00    -0.070 C 
ATOM      3  C   UNL     1      19.831  39.958  90.347  1.00  0.00    -0.006 C 
ATOM      4  C   UNL     1      20.513  41.259  90.727  1.00  0.00     0.047 C 
ATOM      5  C   UNL     1      21.243  41.163  92.097  1.00  0.00     0.025 C 
ATOM      6  C   UNL     1      21.408  42.567  92.657  1.00  0.00    -0.073 C 
ATOM      7  C   UNL     1      22.400  43.361  92.224  1.00  0.00     0.008 C 
ATOM      8  C   UNL     1      20.365  43.098  93.611  1.00  0.00     0.031 C 
ATOM      9  C   UNL     1      20.092  42.132  94.778  1.00  0.00     0.005 C 
ATOM     10  C   UNL     1      20.691  40.727  94.586  1.00  0.00     0.008 C 
ATOM     11  C   UNL     1      20.559  40.180  93.135  1.00  0.00    -0.018 C 
ATOM     12  C   UNL     1      19.057  39.949  92.795  1.00  0.00     0.088 C 
ATOM     13  C   UNL     1      18.890  39.462  91.384  1.00  0.00     0.159 C 
ATOM     14  O   UNL     1      17.915  38.717  91.099  1.00  0.00    -0.295 OA
ATOM     15  C   UNL     1      21.288  38.810  93.105  1.00  0.00     0.012 C 
ATOM     16  C   UNL     1      19.453  37.959  88.877  1.00  0.00     0.039 C 
ENDROOT
TORSDOF 0
ENDMDL
MODEL 2
REMARK VINA RESULT:    -4.230      1.546      2.370
REMARK INTER + INTRA:          -4.230
REMARK INTER:                  -4.230
REMARK INTRA:                   0.000
REMARK UNBOUND:                 0.000
REMARK SMILES C=C1CCC[C@@]2(C)CC(=O)C(=C(C)C)C[C@@H]12
REMARK SMILES IDX 13 1 12 2 11 3 15 4 16 5 2 6 1 7 3 8 4 9 5 10 6 11 8 12 9 13
REMARK SMILES IDX 10 14 7 15 14 16
REMARK H PARENT
REMARK Flexibility Score: inf
ROOT
ATOM      1  C   UNL     1      21.909  43.033  88.875  1.00  0.00     0.039 C 
ATOM      2  C   UNL     1      21.463  41.589  88.862  1.00  0.00    -0.070 C 
ATOM      3  C   UNL     1      20.749  41.060  89.896  1.00  0.00    -0.006 C 
ATOM      4  C   UNL     1      20.388  41.847  91.141  1.00  0.00     0.047 C 
ATOM      5  C   UNL     1      20.890  41.156  92.440  1.00  0.00     0.025 C 
ATOM      6  C   UNL     1      20.057  41.659  93.609  1.00  0.00    -0.073 C 
ATOM      7  C   UNL     1      20.326  42.844  94.178  1.00  0.00     0.008 C 
ATOM      8  C   UNL     1      18.846  40.863  94.035  1.00  0.00     0.031 C 
ATOM      9  C   UNL     1      19.173  39.377  94.267  1.00  0.00     0.005 C 
ATOM     10  C   UNL     1      20.555  38.946  93.742  1.00  0.00     0.008 C 
ATOM     11  C   UNL     1      20.928  39.574  92.367  1.00  0.00    -0.018 C 
ATOM     12  C   UNL     1      19.970  39.032  91.265  1.00  0.00     0.088 C 
ATOM     13  C   UNL     1      20.275  39.651  89.931  1.00  0.00     0.159 C 
ATOM     14  O   UNL     1      20.046  38.997  88.879  1.00  0.00    -0.295 OA
ATOM     15  C   UNL     1      22.372  39.107  92.039  1.00  0.00     0.012 C 
ATOM     16  C   UNL     1      21.881  40.748  87.678  1.00  0.00     0.039 C 
ENDROOT
TORSDOF 0
ENDMDL
MODEL 3
REMARK VINA RESULT:    -4.155      1.880      4.683
REMARK INTER + INTRA:          -4.155
REMARK INTER:                  -4.155
REMARK INTRA:                   0.000
REMARK UNBOUND:                 0.000
REMARK SMILES C=C1CCC[C@@]2(C)CC(=O)C(=C(C)C)C[C@@H]12
REMARK SMILES IDX 13 1 12 2 11 3 15 4 16 5 2 6 1 7 3 8 4 9 5 10 6 11 8 12 9 13
REMARK SMILES IDX 10 14 7 15 14 16
REMARK H PARENT
REMARK Flexibility Score: inf
ROOT
ATOM      1  C   UNL     1      20.502  43.173  94.326  1.00  0.00     0.039 C 
ATOM      2  C   UNL     1      20.826  41.722  94.058  1.00  0.00    -0.070 C 
ATOM      3  C   UNL     1      21.346  41.322  92.863  1.00  0.00    -0.006 C 
ATOM      4  C   UNL     1      21.594  42.274  91.708  1.00  0.00     0.047 C 
ATOM      5  C   UNL     1      20.863  41.829  90.410  1.00  0.00     0.025 C 
ATOM      6  C   UNL     1      21.565  42.461  89.218  1.00  0.00    -0.073 C 
ATOM      7  C   UNL     1      21.316  43.735  88.878  1.00  0.00     0.008 C 
ATOM      8  C   UNL     1      22.636  41.673  88.503  1.00  0.00     0.031 C 
ATOM      9  C   UNL     1      22.161  40.264  88.104  1.00  0.00     0.005 C 
ATOM     10  C   UNL     1      20.835  39.838  88.760  1.00  0.00     0.008 C 
ATOM     11  C   UNL     1      20.707  40.260  90.252  1.00  0.00    -0.018 C 
ATOM     12  C   UNL     1      21.761  39.495  91.106  1.00  0.00     0.088 C 
ATOM     13  C   UNL     1      21.695  39.912  92.548  1.00  0.00     0.159 C 
ATOM     14  O   UNL     1      22.013  39.087  93.445  1.00  0.00    -0.295 OA
ATOM     15  C   UNL     1      19.290  39.832  90.719  1.00  0.00     0.012 C 
ATOM     16  C   UNL     1      20.509  40.729  95.153  1.00  0.00     0.039 C 
ENDROOT
TORSDOF 0
ENDMDL
MODEL 4
REMARK VINA RESULT:    -4.131      2.016      4.623
REMARK INTER + INTRA:          -4.131
REMARK INTER:                  -4.131
REMARK INTRA:                   0.000
REMARK UNBOUND:                 0.000
REMARK SMILES C=C1CCC[C@@]2(C)CC(=O)C(=C(C)C)C[C@@H]12
REMARK SMILES IDX 13 1 12 2 11 3 15 4 16 5 2 6 1 7 3 8 4 9 5 10 6 11 8 12 9 13
REMARK SMILES IDX 10 14 7 15 14 16
REMARK H PARENT
REMARK Flexibility Score: inf
ROOT
ATOM      1  C   UNL     1      21.719  43.771  94.439  1.00  0.00     0.039 C 
ATOM      2  C   UNL     1      21.588  43.403  92.979  1.00  0.00    -0.070 C 
ATOM      3  C   UNL     1      20.647  42.513  92.555  1.00  0.00    -0.006 C 
ATOM      4  C   UNL     1      19.700  41.796  93.499  1.00  0.00     0.047 C 
ATOM      5  C   UNL     1      19.790  40.250  93.363  1.00  0.00     0.025 C 
ATOM      6  C   UNL     1      18.496  39.643  93.884  1.00  0.00    -0.073 C 
ATOM      7  C   UNL     1      18.304  39.479  95.203  1.00  0.00     0.008 C 
ATOM      8  C   UNL     1      17.386  39.344  92.906  1.00  0.00     0.031 C 
ATOM      9  C   UNL     1      17.870  38.513  91.704  1.00  0.00     0.005 C 
ATOM     10  C   UNL     1      19.402  38.413  91.584  1.00  0.00     0.008 C 
ATOM     11  C   UNL     1      20.146  39.742  91.905  1.00  0.00    -0.018 C 
ATOM     12  C   UNL     1      19.798  40.812  90.828  1.00  0.00     0.088 C 
ATOM     13  C   UNL     1      20.466  42.123  91.132  1.00  0.00     0.159 C 
ATOM     14  O   UNL     1      20.780  42.890  90.185  1.00  0.00    -0.295 OA
ATOM     15  C   UNL     1      21.665  39.435  91.823  1.00  0.00     0.012 C 
ATOM     16  C   UNL     1      22.574  44.028  92.019  1.00  0.00     0.039 C 
ENDROOT
TORSDOF 0
ENDMDL
MODEL 5
REMARK VINA RESULT:    -4.126      2.046      5.100
REMARK INTER + INTRA:          -4.126
REMARK INTER:                  -4.126
REMARK INTRA:                   0.000
REMARK UNBOUND:                 0.000
REMARK SMILES C=C1CCC[C@@]2(C)CC(=O)C(=C(C)C)C[C@@H]12
REMARK SMILES IDX 13 1 12 2 11 3 15 4 16 5 2 6 1 7 3 8 4 9 5 10 6 11 8 12 9 13
REMARK SMILES IDX 10 14 7 15 14 16
REMARK H PARENT
REMARK Flexibility Score: inf
ROOT
ATOM      1  C   UNL     1      20.456  42.605  92.691  1.00  0.00     0.039 C 
ATOM      2  C   UNL     1      21.027  42.265  91.334  1.00  0.00    -0.070 C 
ATOM      3  C   UNL     1      20.521  41.241  90.590  1.00  0.00    -0.006 C 
ATOM      4  C   UNL     1      19.394  40.347  91.071  1.00  0.00     0.047 C 
ATOM      5  C   UNL     1      19.789  38.843  91.057  1.00  0.00     0.025 C 
ATOM      6  C   UNL     1      18.518  38.009  91.004  1.00  0.00    -0.073 C 
ATOM      7  C   UNL     1      17.809  37.776  92.119  1.00  0.00     0.008 C 
ATOM      8  C   UNL     1      18.000  37.556  89.659  1.00  0.00     0.031 C 
ATOM      9  C   UNL     1      19.084  36.856  88.820  1.00  0.00     0.005 C 
ATOM     10  C   UNL     1      20.512  37.021  89.370  1.00  0.00     0.008 C 
ATOM     11  C   UNL     1      20.815  38.446  89.916  1.00  0.00    -0.018 C 
ATOM     12  C   UNL     1      20.789  39.474  88.746  1.00  0.00     0.088 C 
ATOM     13  C   UNL     1      21.035  40.869  89.246  1.00  0.00     0.159 C 
ATOM     14  O   UNL     1      21.593  41.707  88.489  1.00  0.00    -0.295 OA
ATOM     15  C   UNL     1      22.250  38.404  90.505  1.00  0.00     0.012 C 
ATOM     16  C   UNL     1      22.211  43.077  90.859  1.00  0.00     0.039 C 
ENDROOT
TORSDOF 0
ENDMDL
MODEL 6
REMARK VINA RESULT:    -4.089      1.013      1.191
REMARK INTER + INTRA:          -4.089
REMARK INTER:                  -4.089
REMARK INTRA:                   0.000
REMARK UNBOUND:                 0.000
REMARK SMILES C=C1CCC[C@@]2(C)CC(=O)C(=C(C)C)C[C@@H]12
REMARK SMILES IDX 13 1 12 2 11 3 15 4 16 5 2 6 1 7 3 8 4 9 5 10 6 11 8 12 9 13
REMARK SMILES IDX 10 14 7 15 14 16
REMARK H PARENT
REMARK Flexibility Score: inf
ROOT
ATOM      1  C   UNL     1      19.806  38.489  88.902  1.00  0.00     0.039 C 
ATOM      2  C   UNL     1      18.912  38.410  90.117  1.00  0.00    -0.070 C 
ATOM      3  C   UNL     1      18.940  39.376  91.080  1.00  0.00    -0.006 C 
ATOM      4  C   UNL     1      19.884  40.562  91.035  1.00  0.00     0.047 C 
ATOM      5  C   UNL     1      20.765  40.662  92.312  1.00  0.00     0.025 C 
ATOM      6  C   UNL     1      21.248  42.097  92.456  1.00  0.00    -0.073 C 
ATOM      7  C   UNL     1      22.296  42.538  91.742  1.00  0.00     0.008 C 
ATOM      8  C   UNL     1      20.454  43.050  93.317  1.00  0.00     0.031 C 
ATOM      9  C   UNL     1      20.178  42.480  94.721  1.00  0.00     0.005 C 
ATOM     10  C   UNL     1      20.490  40.980  94.864  1.00  0.00     0.008 C 
ATOM     11  C   UNL     1      20.068  40.129  93.631  1.00  0.00    -0.018 C 
ATOM     12  C   UNL     1      18.516  40.134  93.497  1.00  0.00     0.088 C 
ATOM     13  C   UNL     1      18.076  39.356  92.289  1.00  0.00     0.159 C 
ATOM     14  O   UNL     1      16.956  38.779  92.300  1.00  0.00    -0.295 OA
ATOM     15  C   UNL     1      20.534  38.675  93.910  1.00  0.00     0.012 C 
ATOM     16  C   UNL     1      18.020  37.196  90.242  1.00  0.00     0.039 C 
ENDROOT
TORSDOF 0
ENDMDL
MODEL 7
REMARK VINA RESULT:    -4.049      1.795      2.852
REMARK INTER + INTRA:          -4.049
REMARK INTER:                  -4.049
REMARK INTRA:                   0.000
REMARK UNBOUND:                 0.000
REMARK SMILES C=C1CCC[C@@]2(C)CC(=O)C(=C(C)C)C[C@@H]12
REMARK SMILES IDX 13 1 12 2 11 3 15 4 16 5 2 6 1 7 3 8 4 9 5 10 6 11 8 12 9 13
REMARK SMILES IDX 10 14 7 15 14 16
REMARK H PARENT
REMARK Flexibility Score: inf
ROOT
ATOM      1  C   UNL     1      19.732  39.782  90.386  1.00  0.00     0.039 C 
ATOM      2  C   UNL     1      19.432  39.993  91.852  1.00  0.00    -0.070 C 
ATOM      3  C   UNL     1      19.847  41.116  92.504  1.00  0.00    -0.006 C 
ATOM      4  C   UNL     1      20.668  42.204  91.839  1.00  0.00     0.047 C 
ATOM      5  C   UNL     1      22.002  42.477  92.588  1.00  0.00     0.025 C 
ATOM      6  C   UNL     1      22.480  43.877  92.233  1.00  0.00    -0.073 C 
ATOM      7  C   UNL     1      23.124  44.103  91.077  1.00  0.00     0.008 C 
ATOM      8  C   UNL     1      22.107  45.026  93.139  1.00  0.00     0.031 C 
ATOM      9  C   UNL     1      22.454  44.747  94.612  1.00  0.00     0.005 C 
ATOM     10  C   UNL     1      22.820  43.281  94.907  1.00  0.00     0.008 C 
ATOM     11  C   UNL     1      21.931  42.248  94.155  1.00  0.00    -0.018 C 
ATOM     12  C   UNL     1      20.467  42.336  94.677  1.00  0.00     0.088 C 
ATOM     13  C   UNL     1      19.571  41.381  93.940  1.00  0.00     0.159 C 
ATOM     14  O   UNL     1      18.569  40.896  94.528  1.00  0.00    -0.295 OA
ATOM     15  C   UNL     1      22.493  40.842  94.496  1.00  0.00     0.012 C 
ATOM     16  C   UNL     1      18.694  38.888  92.572  1.00  0.00     0.039 C 
ENDROOT
TORSDOF 0
ENDMDL
MODEL 8
REMARK VINA RESULT:    -4.038      2.943      6.407
REMARK INTER + INTRA:          -4.038
REMARK INTER:                  -4.038
REMARK INTRA:                   0.000
REMARK UNBOUND:                 0.000
REMARK SMILES C=C1CCC[C@@]2(C)CC(=O)C(=C(C)C)C[C@@H]12
REMARK SMILES IDX 13 1 12 2 11 3 15 4 16 5 2 6 1 7 3 8 4 9 5 10 6 11 8 12 9 13
REMARK SMILES IDX 10 14 7 15 14 16
REMARK H PARENT
REMARK Flexibility Score: inf
ROOT
ATOM      1  C   UNL     1      16.216  39.615  94.576  1.00  0.00     0.039 C 
ATOM      2  C   UNL     1      17.447  39.732  93.709  1.00  0.00    -0.070 C 
ATOM      3  C   UNL     1      17.484  39.196  92.455  1.00  0.00    -0.006 C 
ATOM      4  C   UNL     1      16.330  38.415  91.855  1.00  0.00     0.047 C 
ATOM      5  C   UNL     1      16.757  36.992  91.398  1.00  0.00     0.025 C 
ATOM      6  C   UNL     1      15.767  36.501  90.353  1.00  0.00    -0.073 C 
ATOM      7  C   UNL     1      14.584  35.988  90.723  1.00  0.00     0.008 C 
ATOM      8  C   UNL     1      16.085  36.717  88.892  1.00  0.00     0.031 C 
ATOM      9  C   UNL     1      17.489  36.211  88.516  1.00  0.00     0.005 C 
ATOM     10  C   UNL     1      18.382  35.875  89.724  1.00  0.00     0.008 C 
ATOM     11  C   UNL     1      18.258  36.888  90.899  1.00  0.00    -0.018 C 
ATOM     12  C   UNL     1      18.808  38.276  90.456  1.00  0.00     0.088 C 
ATOM     13  C   UNL     1      18.662  39.290  91.554  1.00  0.00     0.159 C 
ATOM     14  O   UNL     1      19.490  40.236  91.635  1.00  0.00    -0.295 OA
ATOM     15  C   UNL     1      19.148  36.349  92.051  1.00  0.00     0.012 C 
ATOM     16  C   UNL     1      18.650  40.426  94.306  1.00  0.00     0.039 C 
ENDROOT
TORSDOF 0
ENDMDL
MODEL 9
REMARK VINA RESULT:    -4.015      2.768      5.572
REMARK INTER + INTRA:          -4.015
REMARK INTER:                  -4.015
REMARK INTRA:                   0.000
REMARK UNBOUND:                 0.000
REMARK SMILES C=C1CCC[C@@]2(C)CC(=O)C(=C(C)C)C[C@@H]12
REMARK SMILES IDX 13 1 12 2 11 3 15 4 16 5 2 6 1 7 3 8 4 9 5 10 6 11 8 12 9 13
REMARK SMILES IDX 10 14 7 15 14 16
REMARK H PARENT
REMARK Flexibility Score: inf
ROOT
ATOM      1  C   UNL     1      22.838  46.518  93.370  1.00  0.00     0.039 C 
ATOM      2  C   UNL     1      22.764  45.202  94.110  1.00  0.00    -0.070 C 
ATOM      3  C   UNL     1      22.706  44.016  93.440  1.00  0.00    -0.006 C 
ATOM      4  C   UNL     1      22.666  43.922  91.926  1.00  0.00     0.047 C 
ATOM      5  C   UNL     1      21.427  43.132  91.418  1.00  0.00     0.025 C 
ATOM      6  C   UNL     1      21.725  42.610  90.021  1.00  0.00    -0.073 C 
ATOM      7  C   UNL     1      21.605  43.416  88.953  1.00  0.00     0.008 C 
ATOM      8  C   UNL     1      22.279  41.214  89.867  1.00  0.00     0.031 C 
ATOM      9  C   UNL     1      21.438  40.164  90.615  1.00  0.00     0.005 C 
ATOM     10  C   UNL     1      20.408  40.761  91.591  1.00  0.00     0.008 C 
ATOM     11  C   UNL     1      20.938  41.984  92.395  1.00  0.00    -0.018 C 
ATOM     12  C   UNL     1      22.078  41.528  93.353  1.00  0.00     0.088 C 
ATOM     13  C   UNL     1      22.643  42.693  94.114  1.00  0.00     0.159 C 
ATOM     14  O   UNL     1      23.121  42.507  95.264  1.00  0.00    -0.295 OA
ATOM     15  C   UNL     1      19.752  42.505  93.251  1.00  0.00     0.012 C 
ATOM     16  C   UNL     1      22.711  45.260  95.619  1.00  0.00     0.039 C 
ENDROOT
TORSDOF 0
ENDMDL
