MODEL 1
REMARK VINA RESULT:    23.640      0.000      0.000
REMARK INTER + INTRA:          39.448
REMARK INTER:                  36.077
REMARK INTRA:                   3.371
REMARK UNBOUND:                 3.371
REMARK SMILES CC1=CCC[C@@H](C)C(=O)C[C@@H](C(C)C)C(=O)C1
REMARK SMILES IDX 8 1 9 2 6 3 7 4 5 5 4 6 3 7 2 8 1 9 10 11 11 12 15 13 16 14
REMARK SMILES IDX 17 15 12 17 13 18 14 19
REMARK H PARENT
REMARK Flexibility Score: 70.00
ROOT
ATOM      1  C   UNL     1      -4.849  -9.530  -7.234  1.00  0.00     0.136 C 
ATOM      2  O   UNL     1      -6.004  -9.604  -6.840  1.00  0.00    -0.299 OA
ENDROOT
BRANCH   1   3
ATOM      3  C   UNL     1      -3.825  -8.801  -6.378  1.00  0.00     0.053 C 
ATOM      4  C   UNL     1      -2.715  -8.252  -7.283  1.00  0.00     0.016 C 
BRANCH   3   5
ATOM      5  C   UNL     1      -3.227  -9.691  -5.255  1.00  0.00     0.015 C 
BRANCH   5   6
ATOM      6  C   UNL     1      -3.743 -11.144  -5.199  1.00  0.00     0.028 C 
BRANCH   6   7
ATOM      7  C   UNL     1      -5.207 -11.335  -4.885  1.00  0.00    -0.028 C 
ATOM      8  C   UNL     1      -6.060 -12.161  -5.532  1.00  0.00    -0.070 CG0
ATOM      9  C   UNL     1      -7.399 -12.420  -4.883  1.00  0.00     0.039 C 
ATOM     10  G   UNL     1      -5.741 -12.843  -6.854  1.00  0.00     0.000 G0
ENDBRANCH   6   7
ENDBRANCH   5   6
ENDBRANCH   3   5
ENDBRANCH   1   3
BRANCH   1  11
ATOM     11  C   UNL     1      -4.508 -10.043  -8.619  1.00  0.00     0.087 C 
BRANCH  11  12
ATOM     12  C   UNL     1      -4.814 -11.549  -8.875  1.00  0.00     0.066 C 
BRANCH  12  13
ATOM     13  C   UNL     1      -4.665 -12.430  -7.642  1.00  0.00     0.140 C 
ATOM     14  O   UNL     1      -3.534 -12.680  -7.249  1.00  0.00    -0.299 OA
BRANCH  13  15
ATOM     15  C   UNL     1      -5.844 -12.931  -6.835  1.00  0.00     0.106 CG0
ATOM     16  G   UNL     1      -5.985 -12.139  -5.544  1.00  0.00     0.000 G0
ENDBRANCH  13  15
ENDBRANCH  12  13
BRANCH  12  17
ATOM     17  C   UNL     1      -3.988 -12.115 -10.074  1.00  0.00    -0.006 C 
ATOM     18  C   UNL     1      -2.852 -11.159 -10.482  1.00  0.00     0.008 C 
ATOM     19  C   UNL     1      -4.874 -12.385 -11.305  1.00  0.00     0.008 C 
ENDBRANCH  12  17
ENDBRANCH  11  12
ENDBRANCH   1  11
TORSDOF 1
ENDMDL
MODEL 2
REMARK VINA RESULT:    25.442      8.264     10.969
REMARK INTER + INTRA:          42.198
REMARK INTER:                  41.798
REMARK INTRA:                   0.400
REMARK UNBOUND:                 3.371
REMARK SMILES CC1=CCC[C@@H](C)C(=O)C[C@@H](C(C)C)C(=O)C1
REMARK SMILES IDX 8 1 9 2 6 3 7 4 5 5 4 6 3 7 2 8 1 9 10 11 11 12 15 13 16 14
REMARK SMILES IDX 17 15 12 17 13 18 14 19
REMARK H PARENT
REMARK Flexibility Score: 70.00
ROOT
ATOM      1  C   UNL     1      -0.391 -18.146 -16.457  1.00  0.00     0.136 C 
ATOM      2  O   UNL     1      -1.225 -18.613 -17.219  1.00  0.00    -0.299 OA
ENDROOT
BRANCH   1   3
ATOM      3  C   UNL     1       0.901 -17.588 -17.033  1.00  0.00     0.053 C 
ATOM      4  C   UNL     1       2.080 -18.068 -16.178  1.00  0.00     0.016 C 
BRANCH   3   5
ATOM      5  C   UNL     1       0.899 -16.038 -17.142  1.00  0.00     0.015 C 
BRANCH   5   6
ATOM      6  C   UNL     1       1.340 -15.273 -15.877  1.00  0.00     0.028 C 
BRANCH   6   7
ATOM      7  C   UNL     1       0.397 -14.214 -15.358  1.00  0.00    -0.028 C 
ATOM      8  C   UNL     1      -0.372 -14.306 -14.250  1.00  0.00    -0.070 CG0
ATOM      9  C   UNL     1      -1.019 -13.036 -13.749  1.00  0.00     0.039 C 
ATOM     10  G   UNL     1      -0.607 -15.600 -13.486  1.00  0.00     0.000 G0
ENDBRANCH   6   7
ENDBRANCH   5   6
ENDBRANCH   3   5
ENDBRANCH   1   3
BRANCH   1  11
ATOM     11  C   UNL     1      -0.610 -18.265 -14.962  1.00  0.00     0.087 C 
BRANCH  11  12
ATOM     12  C   UNL     1      -1.970 -17.719 -14.433  1.00  0.00     0.066 C 
BRANCH  12  13
ATOM     13  C   UNL     1      -1.909 -16.280 -13.938  1.00  0.00     0.140 C 
ATOM     14  O   UNL     1      -2.960 -15.665 -13.833  1.00  0.00    -0.299 OA
BRANCH  13  15
ATOM     15  C   UNL     1      -0.627 -15.613 -13.489  1.00  0.00     0.106 CG0
ATOM     16  G   UNL     1      -0.411 -14.308 -14.240  1.00  0.00     0.000 G0
ENDBRANCH  13  15
ENDBRANCH  12  13
BRANCH  12  17
ATOM     17  C   UNL     1      -2.595 -18.660 -13.355  1.00  0.00    -0.006 C 
ATOM     18  C   UNL     1      -4.088 -18.354 -13.133  1.00  0.00     0.008 C 
ATOM     19  C   UNL     1      -1.861 -18.555 -12.005  1.00  0.00     0.008 C 
ENDBRANCH  12  17
ENDBRANCH  11  12
ENDBRANCH   1  11
TORSDOF 1
ENDMDL
