MODEL 1
REMARK VINA RESULT:    -4.923      0.000      0.000
REMARK INTER + INTRA:          -5.302
REMARK INTER:                  -5.211
REMARK INTRA:                  -0.091
REMARK UNBOUND:                -0.091
REMARK SMILES C=C(C)[C@H]1CC=C(C)C(=O)C1
REMARK SMILES IDX 8 1 7 2 6 3 5 4 4 5 11 6 9 7 10 8 2 9 1 10 3 11
REMARK H PARENT
REMARK Flexibility Score: inf
ROOT
ATOM      1  C   UNL     1     -19.322  -4.786   8.491  1.00  0.00     0.048 C 
ATOM      2  C   UNL     1     -18.974  -3.659   9.424  1.00  0.00    -0.012 C 
ATOM      3  C   UNL     1     -17.737  -3.136   9.409  1.00  0.00    -0.019 C 
ATOM      4  C   UNL     1     -17.331  -2.020  10.335  1.00  0.00     0.036 C 
ATOM      5  C   UNL     1     -18.518  -1.086  10.632  1.00  0.00     0.025 C 
ATOM      6  C   UNL     1     -19.709  -1.893  11.181  1.00  0.00     0.089 C 
ATOM      7  C   UNL     1     -20.030  -3.047  10.270  1.00  0.00     0.158 C 
ATOM      8  O   UNL     1     -21.200  -3.514  10.259  1.00  0.00    -0.295 OA
ENDROOT
BRANCH   5   9
ATOM      9  C   UNL     1     -18.122   0.035  11.583  1.00  0.00    -0.077 C 
ATOM     10  C   UNL     1     -18.795   1.197  11.573  1.00  0.00     0.008 C 
ATOM     11  C   UNL     1     -16.977  -0.125  12.555  1.00  0.00     0.039 C 
ENDBRANCH   5   9
TORSDOF 1
ENDMDL
MODEL 2
REMARK VINA RESULT:    -4.763      1.729      4.260
REMARK INTER + INTRA:          -5.133
REMARK INTER:                  -5.035
REMARK INTRA:                  -0.098
REMARK UNBOUND:                -0.091
REMARK SMILES C=C(C)[C@H]1CC=C(C)C(=O)C1
REMARK SMILES IDX 8 1 7 2 6 3 5 4 4 5 11 6 9 7 10 8 2 9 1 10 3 11
REMARK H PARENT
REMARK Flexibility Score: inf
ROOT
ATOM      1  C   UNL     1     -17.000   0.182  12.749  1.00  0.00     0.048 C 
ATOM      2  C   UNL     1     -17.598  -0.600  11.612  1.00  0.00    -0.012 C 
ATOM      3  C   UNL     1     -16.898  -1.600  11.047  1.00  0.00    -0.019 C 
ATOM      4  C   UNL     1     -17.442  -2.402   9.895  1.00  0.00     0.036 C 
ATOM      5  C   UNL     1     -18.973  -2.539   9.987  1.00  0.00     0.025 C 
ATOM      6  C   UNL     1     -19.629  -1.150  10.091  1.00  0.00     0.089 C 
ATOM      7  C   UNL     1     -19.002  -0.350  11.200  1.00  0.00     0.158 C 
ATOM      8  O   UNL     1     -19.671   0.563  11.753  1.00  0.00    -0.295 OA
ENDROOT
BRANCH   5   9
ATOM      9  C   UNL     1     -19.534  -3.333   8.816  1.00  0.00    -0.077 C 
ATOM     10  C   UNL     1     -20.765  -3.068   8.350  1.00  0.00     0.008 C 
ATOM     11  C   UNL     1     -18.732  -4.426   8.150  1.00  0.00     0.039 C 
ENDBRANCH   5   9
TORSDOF 1
ENDMDL
MODEL 3
REMARK VINA RESULT:    -4.747      1.134      4.356
REMARK INTER + INTRA:          -5.116
REMARK INTER:                  -5.017
REMARK INTRA:                  -0.098
REMARK UNBOUND:                -0.091
REMARK SMILES C=C(C)[C@H]1CC=C(C)C(=O)C1
REMARK SMILES IDX 8 1 7 2 6 3 5 4 4 5 11 6 9 7 10 8 2 9 1 10 3 11
REMARK H PARENT
REMARK Flexibility Score: inf
ROOT
ATOM      1  C   UNL     1     -17.786  -0.001  12.047  1.00  0.00     0.048 C 
ATOM      2  C   UNL     1     -18.117  -1.100  11.076  1.00  0.00    -0.012 C 
ATOM      3  C   UNL     1     -17.131  -1.722  10.407  1.00  0.00    -0.019 C 
ATOM      4  C   UNL     1     -17.409  -2.816   9.410  1.00  0.00     0.036 C 
ATOM      5  C   UNL     1     -18.650  -3.633   9.815  1.00  0.00     0.025 C 
ATOM      6  C   UNL     1     -19.861  -2.704  10.013  1.00  0.00     0.089 C 
ATOM      7  C   UNL     1     -19.517  -1.579  10.951  1.00  0.00     0.158 C 
ATOM      8  O   UNL     1     -20.438  -1.020  11.604  1.00  0.00    -0.295 OA
ENDROOT
BRANCH   5   9
ATOM      9  C   UNL     1     -18.950  -4.730   8.802  1.00  0.00    -0.077 C 
ATOM     10  C   UNL     1     -18.357  -4.715   7.598  1.00  0.00     0.008 C 
ATOM     11  C   UNL     1     -19.908  -5.852   9.119  1.00  0.00     0.039 C 
ENDBRANCH   5   9
TORSDOF 1
ENDMDL
MODEL 4
REMARK VINA RESULT:    -4.578     17.367     18.400
REMARK INTER + INTRA:          -4.936
REMARK INTER:                  -4.838
REMARK INTRA:                  -0.098
REMARK UNBOUND:                -0.091
REMARK SMILES C=C(C)[C@H]1CC=C(C)C(=O)C1
REMARK SMILES IDX 8 1 7 2 6 3 5 4 4 5 11 6 9 7 10 8 2 9 1 10 3 11
REMARK H PARENT
REMARK Flexibility Score: inf
ROOT
ATOM      1  C   UNL     1      -5.202  -8.978  14.648  1.00  0.00     0.048 C 
ATOM      2  C   UNL     1      -4.985 -10.094  15.633  1.00  0.00    -0.012 C 
ATOM      3  C   UNL     1      -5.007  -9.836  16.952  1.00  0.00    -0.019 C 
ATOM      4  C   UNL     1      -4.778 -10.913  17.979  1.00  0.00     0.036 C 
ATOM      5  C   UNL     1      -5.313 -12.271  17.489  1.00  0.00     0.025 C 
ATOM      6  C   UNL     1      -4.696 -12.627  16.124  1.00  0.00     0.089 C 
ATOM      7  C   UNL     1      -4.873 -11.493  15.151  1.00  0.00     0.158 C 
ATOM      8  O   UNL     1      -4.889 -11.741  13.916  1.00  0.00    -0.295 OA
ENDROOT
BRANCH   5   9
ATOM      9  C   UNL     1      -5.068 -13.369  18.513  1.00  0.00    -0.077 C 
ATOM     10  C   UNL     1      -4.594 -14.563  18.121  1.00  0.00     0.008 C 
ATOM     11  C   UNL     1      -5.346 -13.153  19.981  1.00  0.00     0.039 C 
ENDBRANCH   5   9
TORSDOF 1
ENDMDL
MODEL 5
REMARK VINA RESULT:    -4.415     17.548     18.581
REMARK INTER + INTRA:          -4.764
REMARK INTER:                  -4.667
REMARK INTRA:                  -0.096
REMARK UNBOUND:                -0.091
REMARK SMILES C=C(C)[C@H]1CC=C(C)C(=O)C1
REMARK SMILES IDX 8 1 7 2 6 3 5 4 4 5 11 6 9 7 10 8 2 9 1 10 3 11
REMARK H PARENT
REMARK Flexibility Score: inf
ROOT
ATOM      1  C   UNL     1      -4.461 -12.813  20.353  1.00  0.00     0.048 C 
ATOM      2  C   UNL     1      -4.736 -12.275  18.976  1.00  0.00    -0.012 C 
ATOM      3  C   UNL     1      -4.631 -10.956  18.739  1.00  0.00    -0.019 C 
ATOM      4  C   UNL     1      -4.913 -10.364  17.384  1.00  0.00     0.036 C 
ATOM      5  C   UNL     1      -4.530 -11.343  16.259  1.00  0.00     0.025 C 
ATOM      6  C   UNL     1      -5.239 -12.695  16.463  1.00  0.00     0.089 C 
ATOM      7  C   UNL     1      -5.000 -13.213  17.855  1.00  0.00     0.158 C 
ATOM      8  O   UNL     1      -5.063 -14.453  18.068  1.00  0.00    -0.295 OA
ENDROOT
BRANCH   5   9
ATOM      9  C   UNL     1      -4.830 -10.760  14.885  1.00  0.00    -0.077 C 
ATOM     10  C   UNL     1      -4.713 -11.526  13.788  1.00  0.00     0.008 C 
ATOM     11  C   UNL     1      -5.264  -9.324  14.718  1.00  0.00     0.039 C 
ENDBRANCH   5   9
TORSDOF 1
ENDMDL
MODEL 6
REMARK VINA RESULT:    -4.398      1.852      4.774
REMARK INTER + INTRA:          -4.746
REMARK INTER:                  -4.649
REMARK INTRA:                  -0.097
REMARK UNBOUND:                -0.091
REMARK SMILES C=C(C)[C@H]1CC=C(C)C(=O)C1
REMARK SMILES IDX 8 1 7 2 6 3 5 4 4 5 11 6 9 7 10 8 2 9 1 10 3 11
REMARK H PARENT
REMARK Flexibility Score: inf
ROOT
ATOM      1  C   UNL     1     -18.869   0.524  11.254  1.00  0.00     0.048 C 
ATOM      2  C   UNL     1     -18.927  -0.869  10.691  1.00  0.00    -0.012 C 
ATOM      3  C   UNL     1     -20.055  -1.308  10.107  1.00  0.00    -0.019 C 
ATOM      4  C   UNL     1     -20.173  -2.699   9.544  1.00  0.00     0.036 C 
ATOM      5  C   UNL     1     -18.822  -3.190   8.991  1.00  0.00     0.025 C 
ATOM      6  C   UNL     1     -17.732  -3.091  10.074  1.00  0.00     0.089 C 
ATOM      7  C   UNL     1     -17.703  -1.709  10.669  1.00  0.00     0.158 C 
ATOM      8  O   UNL     1     -16.634  -1.285  11.184  1.00  0.00    -0.295 OA
ENDROOT
BRANCH   5   9
ATOM      9  C   UNL     1     -18.927  -4.604   8.436  1.00  0.00    -0.077 C 
ATOM     10  C   UNL     1     -19.598  -5.547   9.117  1.00  0.00     0.008 C 
ATOM     11  C   UNL     1     -18.291  -4.982   7.120  1.00  0.00     0.039 C 
ENDBRANCH   5   9
TORSDOF 1
ENDMDL
MODEL 7
REMARK VINA RESULT:    -4.298      1.394      2.298
REMARK INTER + INTRA:          -4.640
REMARK INTER:                  -4.550
REMARK INTRA:                  -0.091
REMARK UNBOUND:                -0.091
REMARK SMILES C=C(C)[C@H]1CC=C(C)C(=O)C1
REMARK SMILES IDX 8 1 7 2 6 3 5 4 4 5 11 6 9 7 10 8 2 9 1 10 3 11
REMARK H PARENT
REMARK Flexibility Score: inf
ROOT
ATOM      1  C   UNL     1     -20.476  -5.026   8.817  1.00  0.00     0.048 C 
ATOM      2  C   UNL     1     -19.877  -3.775   9.397  1.00  0.00    -0.012 C 
ATOM      3  C   UNL     1     -20.593  -3.025  10.253  1.00  0.00    -0.019 C 
ATOM      4  C   UNL     1     -20.048  -1.754  10.848  1.00  0.00     0.036 C 
ATOM      5  C   UNL     1     -18.525  -1.844  11.050  1.00  0.00     0.025 C 
ATOM      6  C   UNL     1     -17.830  -2.211   9.725  1.00  0.00     0.089 C 
ATOM      7  C   UNL     1     -18.458  -3.438   9.121  1.00  0.00     0.158 C 
ATOM      8  O   UNL     1     -17.774  -4.160   8.348  1.00  0.00    -0.295 OA
ENDROOT
BRANCH   5   9
ATOM      9  C   UNL     1     -17.962  -0.556  11.634  1.00  0.00    -0.077 C 
ATOM     10  C   UNL     1     -16.826  -0.580  12.350  1.00  0.00     0.008 C 
ATOM     11  C   UNL     1     -18.653   0.770  11.425  1.00  0.00     0.039 C 
ENDBRANCH   5   9
TORSDOF 1
ENDMDL
MODEL 8
REMARK VINA RESULT:    -4.269      2.505      4.358
REMARK INTER + INTRA:          -4.610
REMARK INTER:                  -4.511
REMARK INTRA:                  -0.098
REMARK UNBOUND:                -0.091
REMARK SMILES C=C(C)[C@H]1CC=C(C)C(=O)C1
REMARK SMILES IDX 8 1 7 2 6 3 5 4 4 5 11 6 9 7 10 8 2 9 1 10 3 11
REMARK H PARENT
REMARK Flexibility Score: inf
ROOT
ATOM      1  C   UNL     1     -23.007   0.435  12.455  1.00  0.00     0.048 C 
ATOM      2  C   UNL     1     -21.698  -0.211  12.094  1.00  0.00    -0.012 C 
ATOM      3  C   UNL     1     -21.611  -1.551  12.026  1.00  0.00    -0.019 C 
ATOM      4  C   UNL     1     -20.321  -2.250  11.688  1.00  0.00     0.036 C 
ATOM      5  C   UNL     1     -19.472  -1.410  10.716  1.00  0.00     0.025 C 
ATOM      6  C   UNL     1     -19.238  -0.001  11.292  1.00  0.00     0.089 C 
ATOM      7  C   UNL     1     -20.543   0.631  11.694  1.00  0.00     0.158 C 
ATOM      8  O   UNL     1     -20.634   1.887  11.722  1.00  0.00    -0.295 OA
ENDROOT
BRANCH   5   9
ATOM      9  C   UNL     1     -18.157  -2.100  10.383  1.00  0.00    -0.077 C 
ATOM     10  C   UNL     1     -17.000  -1.609  10.855  1.00  0.00     0.008 C 
ATOM     11  C   UNL     1     -18.115  -3.342   9.526  1.00  0.00     0.039 C 
ENDBRANCH   5   9
TORSDOF 1
ENDMDL
MODEL 9
REMARK VINA RESULT:    -4.194      1.041      1.401
REMARK INTER + INTRA:          -4.530
REMARK INTER:                  -4.432
REMARK INTRA:                  -0.098
REMARK UNBOUND:                -0.091
REMARK SMILES C=C(C)[C@H]1CC=C(C)C(=O)C1
REMARK SMILES IDX 8 1 7 2 6 3 5 4 4 5 11 6 9 7 10 8 2 9 1 10 3 11
REMARK H PARENT
REMARK Flexibility Score: inf
ROOT
ATOM      1  C   UNL     1     -18.479  -4.353   8.935  1.00  0.00     0.048 C 
ATOM      2  C   UNL     1     -18.734  -3.098   9.724  1.00  0.00    -0.012 C 
ATOM      3  C   UNL     1     -17.779  -2.156   9.810  1.00  0.00    -0.019 C 
ATOM      4  C   UNL     1     -17.975  -0.891  10.601  1.00  0.00     0.036 C 
ATOM      5  C   UNL     1     -19.447  -0.441  10.573  1.00  0.00     0.025 C 
ATOM      6  C   UNL     1     -20.363  -1.579  11.059  1.00  0.00     0.089 C 
ATOM      7  C   UNL     1     -20.079  -2.847  10.300  1.00  0.00     0.158 C 
ATOM      8  O   UNL     1     -20.987  -3.713  10.190  1.00  0.00    -0.295 OA
ENDROOT
BRANCH   5   9
ATOM      9  C   UNL     1     -19.658   0.828  11.387  1.00  0.00    -0.077 C 
ATOM     10  C   UNL     1     -20.812   1.021  12.046  1.00  0.00     0.008 C 
ATOM     11  C   UNL     1     -18.591   1.892  11.477  1.00  0.00     0.039 C 
ENDBRANCH   5   9
TORSDOF 1
ENDMDL
