MODEL 1
REMARK VINA RESULT:    -6.332      0.000      0.000
REMARK INTER + INTRA:          -7.755
REMARK INTER:                  -7.443
REMARK INTRA:                  -0.313
REMARK UNBOUND:                -0.313
REMARK SMILES O=c1cc(-c2ccc(O)c(O)c2)oc2cc(O)cc(O)c12
REMARK SMILES IDX 4 1 3 2 2 3 1 4 21 5 19 6 18 7 16 8 15 9 14 10 13 11 5 12
REMARK SMILES IDX 6 13 7 14 8 15 12 16 10 17 9 18 11 20 20 22 17 24
REMARK H PARENT 9 19 11 21 20 23 17 25
REMARK Flexibility Score: inf
ROOT
ATOM      1  C   UNL     1      27.531  11.421  61.578  1.00  0.00     0.138 A 
ATOM      2  C   UNL     1      26.768  10.416  62.188  1.00  0.00     0.100 A 
ATOM      3  C   UNL     1      26.848  10.232  63.569  1.00  0.00     0.197 A 
ATOM      4  O   UNL     1      26.105   9.363  64.096  1.00  0.00    -0.289 OA
ATOM      5  C   UNL     1      27.720  11.038  64.337  1.00  0.00     0.107 A 
ATOM      6  C   UNL     1      27.914  10.913  65.745  1.00  0.00     0.134 A 
ATOM      7  C   UNL     1      28.717  11.844  66.416  1.00  0.00     0.093 A 
ATOM      8  C   UNL     1      29.379  12.859  65.722  1.00  0.00     0.123 A 
ATOM      9  C   UNL     1      29.239  12.957  64.339  1.00  0.00     0.094 A 
ATOM     10  C   UNL     1      28.419  12.064  63.646  1.00  0.00     0.146 A 
ATOM     11  O   UNL     1      28.301  12.200  62.329  1.00  0.00    -0.456 OA
ENDROOT
BRANCH   1  12
ATOM     12  C   UNL     1      27.485  11.659  60.112  1.00  0.00     0.021 A 
ATOM     13  C   UNL     1      26.428  11.177  59.317  1.00  0.00     0.016 A 
ATOM     14  C   UNL     1      26.416  11.407  57.940  1.00  0.00     0.051 A 
ATOM     15  C   UNL     1      27.460  12.114  57.330  1.00  0.00     0.157 A 
ATOM     16  C   UNL     1      28.537  12.356  59.491  1.00  0.00     0.062 A 
ATOM     17  C   UNL     1      28.527  12.588  58.111  1.00  0.00     0.158 A 
BRANCH  15  18
ATOM     18  O   UNL     1      27.445  12.342  55.955  1.00  0.00    -0.504 OA
ATOM     19  H   UNL     1      26.582  12.540  55.460  1.00  0.00     0.293 HD
ENDBRANCH  15  18
BRANCH  17  20
ATOM     20  O   UNL     1      29.583  13.292  57.535  1.00  0.00    -0.504 OA
ATOM     21  H   UNL     1      30.547  13.121  57.792  1.00  0.00     0.293 HD
ENDBRANCH  17  20
ENDBRANCH   1  12
BRANCH   6  22
ATOM     22  O   UNL     1      27.367   9.887  66.521  1.00  0.00    -0.507 OA
ATOM     23  H   UNL     1      27.840   9.027  66.757  1.00  0.00     0.293 HD
ENDBRANCH   6  22
BRANCH   8  24
ATOM     24  O   UNL     1      30.188  13.772  66.396  1.00  0.00    -0.508 OA
ATOM     25  H   UNL     1      30.481  14.640  65.964  1.00  0.00     0.293 HD
ENDBRANCH   8  24
TORSDOF 5
ENDMDL
MODEL 2
REMARK VINA RESULT:    -6.327      1.268      2.881
REMARK INTER + INTRA:          -7.750
REMARK INTER:                  -7.456
REMARK INTRA:                  -0.293
REMARK UNBOUND:                -0.313
REMARK SMILES O=c1cc(-c2ccc(O)c(O)c2)oc2cc(O)cc(O)c12
REMARK SMILES IDX 4 1 3 2 2 3 1 4 21 5 19 6 18 7 16 8 15 9 14 10 13 11 5 12
REMARK SMILES IDX 6 13 7 14 8 15 12 16 10 17 9 18 11 20 20 22 17 24
REMARK H PARENT 9 19 11 21 20 23 17 25
REMARK Flexibility Score: inf
ROOT
ATOM      1  C   UNL     1      27.655  11.835  60.416  1.00  0.00     0.138 A 
ATOM      2  C   UNL     1      28.619  12.764  60.832  1.00  0.00     0.100 A 
ATOM      3  C   UNL     1      28.929  12.877  62.187  1.00  0.00     0.197 A 
ATOM      4  O   UNL     1      29.843  13.676  62.522  1.00  0.00    -0.289 OA
ATOM      5  C   UNL     1      28.248  12.077  63.134  1.00  0.00     0.107 A 
ATOM      6  C   UNL     1      28.453  12.136  64.545  1.00  0.00     0.134 A 
ATOM      7  C   UNL     1      27.804  11.213  65.375  1.00  0.00     0.093 A 
ATOM      8  C   UNL     1      26.913  10.273  64.851  1.00  0.00     0.123 A 
ATOM      9  C   UNL     1      26.665  10.244  63.480  1.00  0.00     0.094 A 
ATOM     10  C   UNL     1      27.323  11.128  62.623  1.00  0.00     0.146 A 
ATOM     11  O   UNL     1      27.069  11.058  61.320  1.00  0.00    -0.456 OA
ENDROOT
BRANCH   1  12
ATOM     12  C   UNL     1      27.286  11.674  58.986  1.00  0.00     0.021 A 
ATOM     13  C   UNL     1      26.184  10.894  58.590  1.00  0.00     0.016 A 
ATOM     14  C   UNL     1      25.866  10.753  57.237  1.00  0.00     0.051 A 
ATOM     15  C   UNL     1      26.645  11.381  56.257  1.00  0.00     0.157 A 
ATOM     16  C   UNL     1      28.072  12.290  57.996  1.00  0.00     0.062 A 
ATOM     17  C   UNL     1      27.755  12.150  56.639  1.00  0.00     0.158 A 
BRANCH  15  18
ATOM     18  O   UNL     1      26.325  11.238  54.908  1.00  0.00    -0.504 OA
ATOM     19  H   UNL     1      26.752  11.821  54.197  1.00  0.00     0.293 HD
ENDBRANCH  15  18
BRANCH  17  20
ATOM     20  O   UNL     1      28.554  12.785  55.689  1.00  0.00    -0.504 OA
ATOM     21  H   UNL     1      29.395  13.289  55.942  1.00  0.00     0.293 HD
ENDBRANCH  17  20
ENDBRANCH   1  12
BRANCH   6  22
ATOM     22  O   UNL     1      29.256  13.088  65.179  1.00  0.00    -0.507 OA
ATOM     23  H   UNL     1      29.981  13.624  64.726  1.00  0.00     0.293 HD
ENDBRANCH   6  22
BRANCH   8  24
ATOM     24  O   UNL     1      26.259   9.370  65.687  1.00  0.00    -0.508 OA
ATOM     25  H   UNL     1      26.147   8.397  65.429  1.00  0.00     0.293 HD
ENDBRANCH   8  24
TORSDOF 5
ENDMDL
MODEL 3
REMARK VINA RESULT:    -6.324      1.515      7.121
REMARK INTER + INTRA:          -7.746
REMARK INTER:                  -7.454
REMARK INTRA:                  -0.292
REMARK UNBOUND:                -0.313
REMARK SMILES O=c1cc(-c2ccc(O)c(O)c2)oc2cc(O)cc(O)c12
REMARK SMILES IDX 4 1 3 2 2 3 1 4 21 5 19 6 18 7 16 8 15 9 14 10 13 11 5 12
REMARK SMILES IDX 6 13 7 14 8 15 12 16 10 17 9 18 11 20 20 22 17 24
REMARK H PARENT 9 19 11 21 20 23 17 25
REMARK Flexibility Score: inf
ROOT
ATOM      1  C   UNL     1      28.389  11.532  62.465  1.00  0.00     0.138 A 
ATOM      2  C   UNL     1      29.702  12.015  62.368  1.00  0.00     0.100 A 
ATOM      3  C   UNL     1      30.194  12.433  61.131  1.00  0.00     0.197 A 
ATOM      4  O   UNL     1      31.354  12.920  61.087  1.00  0.00    -0.289 OA
ATOM      5  C   UNL     1      29.376  12.339  59.980  1.00  0.00     0.107 A 
ATOM      6  C   UNL     1      29.785  12.698  58.661  1.00  0.00     0.134 A 
ATOM      7  C   UNL     1      28.850  12.671  57.618  1.00  0.00     0.093 A 
ATOM      8  C   UNL     1      27.539  12.241  57.835  1.00  0.00     0.123 A 
ATOM      9  C   UNL     1      27.145  11.838  59.109  1.00  0.00     0.094 A 
ATOM     10  C   UNL     1      28.044  11.885  60.177  1.00  0.00     0.146 A 
ATOM     11  O   UNL     1      27.625  11.505  61.379  1.00  0.00    -0.456 OA
ENDROOT
BRANCH   1  12
ATOM     12  C   UNL     1      27.817  11.072  63.756  1.00  0.00     0.021 A 
ATOM     13  C   UNL     1      26.646  10.294  63.811  1.00  0.00     0.016 A 
ATOM     14  C   UNL     1      26.124   9.884  65.040  1.00  0.00     0.051 A 
ATOM     15  C   UNL     1      26.756  10.249  66.235  1.00  0.00     0.157 A 
ATOM     16  C   UNL     1      28.438  11.448  64.961  1.00  0.00     0.062 A 
ATOM     17  C   UNL     1      27.918  11.038  66.194  1.00  0.00     0.158 A 
BRANCH  15  18
ATOM     18  O   UNL     1      26.233   9.839  67.460  1.00  0.00    -0.504 OA
ATOM     19  H   UNL     1      25.355  10.204  67.811  1.00  0.00     0.293 HD
ENDBRANCH  15  18
BRANCH  17  20
ATOM     20  O   UNL     1      28.570  11.422  67.365  1.00  0.00    -0.504 OA
ATOM     21  H   UNL     1      28.187  12.120  67.990  1.00  0.00     0.293 HD
ENDBRANCH  17  20
ENDBRANCH   1  12
BRANCH   6  22
ATOM     22  O   UNL     1      31.091  13.061  58.319  1.00  0.00    -0.507 OA
ATOM     23  H   UNL     1      31.339  13.663  57.549  1.00  0.00     0.293 HD
ENDBRANCH   6  22
BRANCH   8  24
ATOM     24  O   UNL     1      26.620  12.203  56.788  1.00  0.00    -0.508 OA
ATOM     25  H   UNL     1      25.622  12.221  56.959  1.00  0.00     0.293 HD
ENDBRANCH   8  24
TORSDOF 5
ENDMDL
MODEL 4
REMARK VINA RESULT:    -6.230      1.854      7.543
REMARK INTER + INTRA:          -7.635
REMARK INTER:                  -7.318
REMARK INTRA:                  -0.317
REMARK UNBOUND:                -0.313
REMARK SMILES O=c1cc(-c2ccc(O)c(O)c2)oc2cc(O)cc(O)c12
REMARK SMILES IDX 4 1 3 2 2 3 1 4 21 5 19 6 18 7 16 8 15 9 14 10 13 11 5 12
REMARK SMILES IDX 6 13 7 14 8 15 12 16 10 17 9 18 11 20 20 22 17 24
REMARK H PARENT 9 19 11 21 20 23 17 25
REMARK Flexibility Score: inf
ROOT
ATOM      1  C   UNL     1      27.681  11.724  60.463  1.00  0.00     0.138 A 
ATOM      2  C   UNL     1      28.396  12.409  59.471  1.00  0.00     0.100 A 
ATOM      3  C   UNL     1      28.113  12.168  58.126  1.00  0.00     0.197 A 
ATOM      4  O   UNL     1      28.728  12.843  57.259  1.00  0.00    -0.289 OA
ATOM      5  C   UNL     1      27.131  11.212  57.774  1.00  0.00     0.107 A 
ATOM      6  C   UNL     1      26.787  10.855  56.436  1.00  0.00     0.134 A 
ATOM      7  C   UNL     1      25.717   9.980  56.209  1.00  0.00     0.093 A 
ATOM      8  C   UNL     1      25.017   9.405  57.272  1.00  0.00     0.123 A 
ATOM      9  C   UNL     1      25.380   9.706  58.583  1.00  0.00     0.094 A 
ATOM     10  C   UNL     1      26.421  10.601  58.842  1.00  0.00     0.146 A 
ATOM     11  O   UNL     1      26.726  10.872  60.106  1.00  0.00    -0.456 OA
ENDROOT
BRANCH   1  12
ATOM     12  C   UNL     1      27.943  11.942  61.909  1.00  0.00     0.021 A 
ATOM     13  C   UNL     1      28.789  12.972  62.361  1.00  0.00     0.016 A 
ATOM     14  C   UNL     1      29.025  13.147  63.726  1.00  0.00     0.051 A 
ATOM     15  C   UNL     1      28.429  12.294  64.664  1.00  0.00     0.157 A 
ATOM     16  C   UNL     1      27.359  11.080  62.855  1.00  0.00     0.062 A 
ATOM     17  C   UNL     1      27.594  11.254  64.224  1.00  0.00     0.158 A 
BRANCH  15  18
ATOM     18  O   UNL     1      28.666  12.472  66.025  1.00  0.00    -0.504 OA
ATOM     19  H   UNL     1      28.137  13.141  66.573  1.00  0.00     0.293 HD
ENDBRANCH  15  18
BRANCH  17  20
ATOM     20  O   UNL     1      26.988  10.385  65.130  1.00  0.00    -0.504 OA
ATOM     21  H   UNL     1      26.123  10.617  65.603  1.00  0.00     0.293 HD
ENDBRANCH  17  20
ENDBRANCH   1  12
BRANCH   6  22
ATOM     22  O   UNL     1      27.475  11.306  55.306  1.00  0.00    -0.507 OA
ATOM     23  H   UNL     1      28.380  11.752  55.321  1.00  0.00     0.293 HD
ENDBRANCH   6  22
BRANCH   8  24
ATOM     24  O   UNL     1      23.964   8.523  57.036  1.00  0.00    -0.508 OA
ATOM     25  H   UNL     1      24.082   7.701  56.457  1.00  0.00     0.293 HD
ENDBRANCH   8  24
TORSDOF 5
ENDMDL
MODEL 5
REMARK VINA RESULT:    -6.203      2.797      8.244
REMARK INTER + INTRA:          -7.604
REMARK INTER:                  -7.342
REMARK INTRA:                  -0.262
REMARK UNBOUND:                -0.313
REMARK SMILES O=c1cc(-c2ccc(O)c(O)c2)oc2cc(O)cc(O)c12
REMARK SMILES IDX 4 1 3 2 2 3 1 4 21 5 19 6 18 7 16 8 15 9 14 10 13 11 5 12
REMARK SMILES IDX 6 13 7 14 8 15 12 16 10 17 9 18 11 20 20 22 17 24
REMARK H PARENT 9 19 11 21 20 23 17 25
REMARK Flexibility Score: inf
ROOT
ATOM      1  C   UNL     1      27.777  10.464  66.419  1.00  0.00     0.138 A 
ATOM      2  C   UNL     1      28.531  11.645  66.483  1.00  0.00     0.100 A 
ATOM      3  C   UNL     1      28.707  12.415  65.334  1.00  0.00     0.197 A 
ATOM      4  O   UNL     1      29.335  13.501  65.437  1.00  0.00    -0.289 OA
ATOM      5  C   UNL     1      28.151  11.985  64.106  1.00  0.00     0.107 A 
ATOM      6  C   UNL     1      28.300  12.668  62.862  1.00  0.00     0.134 A 
ATOM      7  C   UNL     1      27.607  12.208  61.736  1.00  0.00     0.093 A 
ATOM      8  C   UNL     1      26.819  11.056  61.794  1.00  0.00     0.123 A 
ATOM      9  C   UNL     1      26.710  10.352  62.991  1.00  0.00     0.094 A 
ATOM     10  C   UNL     1      27.362  10.804  64.140  1.00  0.00     0.146 A 
ATOM     11  O   UNL     1      27.221  10.111  65.265  1.00  0.00    -0.456 OA
ENDROOT
BRANCH   1  12
ATOM     12  C   UNL     1      27.560   9.606  67.611  1.00  0.00     0.021 A 
ATOM     13  C   UNL     1      28.277   8.410  67.802  1.00  0.00     0.016 A 
ATOM     14  C   UNL     1      28.044   7.618  68.929  1.00  0.00     0.051 A 
ATOM     15  C   UNL     1      27.090   8.000  69.880  1.00  0.00     0.157 A 
ATOM     16  C   UNL     1      26.594   9.977  68.563  1.00  0.00     0.062 A 
ATOM     17  C   UNL     1      26.359   9.185  69.693  1.00  0.00     0.158 A 
BRANCH  15  18
ATOM     18  O   UNL     1      26.861   7.207  71.003  1.00  0.00    -0.504 OA
ATOM     19  H   UNL     1      26.296   6.367  70.953  1.00  0.00     0.293 HD
ENDBRANCH  15  18
BRANCH  17  20
ATOM     20  O   UNL     1      25.400   9.593  70.619  1.00  0.00    -0.504 OA
ATOM     21  H   UNL     1      24.684   8.965  70.964  1.00  0.00     0.293 HD
ENDBRANCH  17  20
ENDBRANCH   1  12
BRANCH   6  22
ATOM     22  O   UNL     1      29.128  13.778  62.675  1.00  0.00    -0.507 OA
ATOM     23  H   UNL     1      29.016  14.464  61.943  1.00  0.00     0.293 HD
ENDBRANCH   6  22
BRANCH   8  24
ATOM     24  O   UNL     1      26.145  10.597  60.663  1.00  0.00    -0.508 OA
ATOM     25  H   UNL     1      25.589  11.220  60.089  1.00  0.00     0.293 HD
ENDBRANCH   8  24
TORSDOF 5
ENDMDL
MODEL 6
REMARK VINA RESULT:    -6.071      1.461      6.782
REMARK INTER + INTRA:          -7.448
REMARK INTER:                  -7.137
REMARK INTRA:                  -0.311
REMARK UNBOUND:                -0.313
REMARK SMILES O=c1cc(-c2ccc(O)c(O)c2)oc2cc(O)cc(O)c12
REMARK SMILES IDX 4 1 3 2 2 3 1 4 21 5 19 6 18 7 16 8 15 9 14 10 13 11 5 12
REMARK SMILES IDX 6 13 7 14 8 15 12 16 10 17 9 18 11 20 20 22 17 24
REMARK H PARENT 9 19 11 21 20 23 17 25
REMARK Flexibility Score: inf
ROOT
ATOM      1  C   UNL     1      27.655  11.369  61.816  1.00  0.00     0.138 A 
ATOM      2  C   UNL     1      26.659  10.538  61.287  1.00  0.00     0.100 A 
ATOM      3  C   UNL     1      26.434  10.519  59.910  1.00  0.00     0.197 A 
ATOM      4  O   UNL     1      25.576   9.716  59.459  1.00  0.00    -0.289 OA
ATOM      5  C   UNL     1      27.191  11.361  59.062  1.00  0.00     0.107 A 
ATOM      6  C   UNL     1      27.021  11.456  57.648  1.00  0.00     0.134 A 
ATOM      7  C   UNL     1      27.908  12.239  56.899  1.00  0.00     0.093 A 
ATOM      8  C   UNL     1      28.920  12.978  57.518  1.00  0.00     0.123 A 
ATOM      9  C   UNL     1      29.059  12.934  58.903  1.00  0.00     0.094 A 
ATOM     10  C   UNL     1      28.212  12.135  59.675  1.00  0.00     0.146 A 
ATOM     11  O   UNL     1      28.388  12.110  60.992  1.00  0.00    -0.456 OA
ENDROOT
BRANCH   1  12
ATOM     12  C   UNL     1      27.934  11.429  63.273  1.00  0.00     0.021 A 
ATOM     13  C   UNL     1      27.558  10.387  64.142  1.00  0.00     0.016 A 
ATOM     14  C   UNL     1      27.825  10.475  65.510  1.00  0.00     0.051 A 
ATOM     15  C   UNL     1      28.463  11.606  66.037  1.00  0.00     0.157 A 
ATOM     16  C   UNL     1      28.562  12.567  63.811  1.00  0.00     0.062 A 
ATOM     17  C   UNL     1      28.830  12.657  65.182  1.00  0.00     0.158 A 
BRANCH  15  18
ATOM     18  O   UNL     1      28.727  11.690  67.403  1.00  0.00    -0.504 OA
ATOM     19  H   UNL     1      28.125  12.214  68.028  1.00  0.00     0.293 HD
ENDBRANCH  15  18
BRANCH  17  20
ATOM     20  O   UNL     1      29.464  13.797  65.674  1.00  0.00    -0.504 OA
ATOM     21  H   UNL     1      30.114  13.760  66.449  1.00  0.00     0.293 HD
ENDBRANCH  17  20
ENDBRANCH   1  12
BRANCH   6  22
ATOM     22  O   UNL     1      25.993  10.827  56.941  1.00  0.00    -0.507 OA
ATOM     23  H   UNL     1      25.505   9.999  57.248  1.00  0.00     0.293 HD
ENDBRANCH   6  22
BRANCH   8  24
ATOM     24  O   UNL     1      29.787  13.767  56.765  1.00  0.00    -0.508 OA
ATOM     25  H   UNL     1      29.621  14.757  56.632  1.00  0.00     0.293 HD
ENDBRANCH   8  24
TORSDOF 5
ENDMDL
MODEL 7
REMARK VINA RESULT:    -6.055      2.667      7.920
REMARK INTER + INTRA:          -7.430
REMARK INTER:                  -7.151
REMARK INTRA:                  -0.279
REMARK UNBOUND:                -0.313
REMARK SMILES O=c1cc(-c2ccc(O)c(O)c2)oc2cc(O)cc(O)c12
REMARK SMILES IDX 4 1 3 2 2 3 1 4 21 5 19 6 18 7 16 8 15 9 14 10 13 11 5 12
REMARK SMILES IDX 6 13 7 14 8 15 12 16 10 17 9 18 11 20 20 22 17 24
REMARK H PARENT 9 19 11 21 20 23 17 25
REMARK Flexibility Score: inf
ROOT
ATOM      1  C   UNL     1      27.509  10.520  66.208  1.00  0.00     0.138 A 
ATOM      2  C   UNL     1      26.762   9.624  65.431  1.00  0.00     0.100 A 
ATOM      3  C   UNL     1      26.648   9.831  64.057  1.00  0.00     0.197 A 
ATOM      4  O   UNL     1      26.023   8.975  63.377  1.00  0.00    -0.289 OA
ATOM      5  C   UNL     1      27.261  10.958  63.462  1.00  0.00     0.107 A 
ATOM      6  C   UNL     1      27.179  11.293  62.077  1.00  0.00     0.134 A 
ATOM      7  C   UNL     1      27.924  12.370  61.582  1.00  0.00     0.093 A 
ATOM      8  C   UNL     1      28.700  13.162  62.432  1.00  0.00     0.123 A 
ATOM      9  C   UNL     1      28.744  12.876  63.795  1.00  0.00     0.094 A 
ATOM     10  C   UNL     1      28.040  11.787  64.313  1.00  0.00     0.146 A 
ATOM     11  O   UNL     1      28.120  11.540  65.617  1.00  0.00    -0.456 OA
ENDROOT
BRANCH   1  12
ATOM     12  C   UNL     1      27.661  10.347  67.676  1.00  0.00     0.021 A 
ATOM     13  C   UNL     1      28.896  10.547  68.320  1.00  0.00     0.016 A 
ATOM     14  C   UNL     1      29.011  10.367  69.701  1.00  0.00     0.051 A 
ATOM     15  C   UNL     1      27.901   9.979  70.461  1.00  0.00     0.157 A 
ATOM     16  C   UNL     1      26.553   9.944  68.442  1.00  0.00     0.062 A 
ATOM     17  C   UNL     1      26.666   9.764  69.826  1.00  0.00     0.158 A 
BRANCH  15  18
ATOM     18  O   UNL     1      28.020   9.801  71.838  1.00  0.00    -0.504 OA
ATOM     19  H   UNL     1      28.601  10.410  72.403  1.00  0.00     0.293 HD
ENDBRANCH  15  18
BRANCH  17  20
ATOM     20  O   UNL     1      25.542   9.374  70.552  1.00  0.00    -0.504 OA
ATOM     21  H   UNL     1      25.037  10.017  71.150  1.00  0.00     0.293 HD
ENDBRANCH  17  20
ENDBRANCH   1  12
BRANCH   6  22
ATOM     22  O   UNL     1      26.368  10.620  61.158  1.00  0.00    -0.507 OA
ATOM     23  H   UNL     1      25.955  11.040  60.338  1.00  0.00     0.293 HD
ENDBRANCH   6  22
BRANCH   8  24
ATOM     24  O   UNL     1      29.425  14.242  61.933  1.00  0.00    -0.508 OA
ATOM     25  H   UNL     1      29.372  15.158  62.361  1.00  0.00     0.293 HD
ENDBRANCH   8  24
TORSDOF 5
ENDMDL
MODEL 8
REMARK VINA RESULT:    -5.931      1.489      3.073
REMARK INTER + INTRA:          -7.284
REMARK INTER:                  -7.004
REMARK INTRA:                  -0.279
REMARK UNBOUND:                -0.313
REMARK SMILES O=c1cc(-c2ccc(O)c(O)c2)oc2cc(O)cc(O)c12
REMARK SMILES IDX 4 1 3 2 2 3 1 4 21 5 19 6 18 7 16 8 15 9 14 10 13 11 5 12
REMARK SMILES IDX 6 13 7 14 8 15 12 16 10 17 9 18 11 20 20 22 17 24
REMARK H PARENT 9 19 11 21 20 23 17 25
REMARK Flexibility Score: inf
ROOT
ATOM      1  C   UNL     1      28.223  11.686  61.996  1.00  0.00     0.138 A 
ATOM      2  C   UNL     1      28.510  12.726  62.891  1.00  0.00     0.100 A 
ATOM      3  C   UNL     1      28.545  12.468  64.261  1.00  0.00     0.197 A 
ATOM      4  O   UNL     1      28.867  13.408  65.034  1.00  0.00    -0.289 OA
ATOM      5  C   UNL     1      28.260  11.168  64.740  1.00  0.00     0.107 A 
ATOM      6  C   UNL     1      28.227  10.798  66.118  1.00  0.00     0.134 A 
ATOM      7  C   UNL     1      28.047   9.454  66.467  1.00  0.00     0.093 A 
ATOM      8  C   UNL     1      27.840   8.476  65.491  1.00  0.00     0.123 A 
ATOM      9  C   UNL     1      27.818   8.836  64.145  1.00  0.00     0.094 A 
ATOM     10  C   UNL     1      28.028  10.163  63.763  1.00  0.00     0.146 A 
ATOM     11  O   UNL     1      28.012  10.462  62.469  1.00  0.00    -0.456 OA
ENDROOT
BRANCH   1  12
ATOM     12  C   UNL     1      28.171  11.905  60.528  1.00  0.00     0.021 A 
ATOM     13  C   UNL     1      29.269  12.427  59.819  1.00  0.00     0.016 A 
ATOM     14  C   UNL     1      29.188  12.633  58.440  1.00  0.00     0.051 A 
ATOM     15  C   UNL     1      28.010  12.330  57.746  1.00  0.00     0.157 A 
ATOM     16  C   UNL     1      26.986  11.617  59.827  1.00  0.00     0.062 A 
ATOM     17  C   UNL     1      26.903  11.821  58.445  1.00  0.00     0.158 A 
BRANCH  15  18
ATOM     18  O   UNL     1      27.933  12.536  56.370  1.00  0.00    -0.504 OA
ATOM     19  H   UNL     1      27.275  13.195  55.968  1.00  0.00     0.293 HD
ENDBRANCH  15  18
BRANCH  17  20
ATOM     20  O   UNL     1      25.715  11.513  57.785  1.00  0.00    -0.504 OA
ATOM     21  H   UNL     1      25.702  11.156  56.838  1.00  0.00     0.293 HD
ENDBRANCH  17  20
ENDBRANCH   1  12
BRANCH   6  22
ATOM     22  O   UNL     1      28.339  11.707  67.174  1.00  0.00    -0.507 OA
ATOM     23  H   UNL     1      27.765  11.701  68.004  1.00  0.00     0.293 HD
ENDBRANCH   6  22
BRANCH   8  24
ATOM     24  O   UNL     1      27.647   7.143  65.849  1.00  0.00    -0.508 OA
ATOM     25  H   UNL     1      26.888   6.596  65.460  1.00  0.00     0.293 HD
ENDBRANCH   8  24
TORSDOF 5
ENDMDL
MODEL 9
REMARK VINA RESULT:    -5.897      2.755      5.037
REMARK INTER + INTRA:          -7.244
REMARK INTER:                  -6.967
REMARK INTRA:                  -0.276
REMARK UNBOUND:                -0.313
REMARK SMILES O=c1cc(-c2ccc(O)c(O)c2)oc2cc(O)cc(O)c12
REMARK SMILES IDX 4 1 3 2 2 3 1 4 21 5 19 6 18 7 16 8 15 9 14 10 13 11 5 12
REMARK SMILES IDX 6 13 7 14 8 15 12 16 10 17 9 18 11 20 20 22 17 24
REMARK H PARENT 9 19 11 21 20 23 17 25
REMARK Flexibility Score: inf
ROOT
ATOM      1  C   UNL     1      28.378  11.184  65.829  1.00  0.00     0.138 A 
ATOM      2  C   UNL     1      29.685  11.238  66.333  1.00  0.00     0.100 A 
ATOM      3  C   UNL     1      29.928  10.893  67.662  1.00  0.00     0.197 A 
ATOM      4  O   UNL     1      31.120  10.892  68.068  1.00  0.00    -0.289 OA
ATOM      5  C   UNL     1      28.850  10.521  68.501  1.00  0.00     0.107 A 
ATOM      6  C   UNL     1      28.973  10.188  69.883  1.00  0.00     0.134 A 
ATOM      7  C   UNL     1      27.852   9.723  70.582  1.00  0.00     0.093 A 
ATOM      8  C   UNL     1      26.602   9.635  69.965  1.00  0.00     0.123 A 
ATOM      9  C   UNL     1      26.461  10.009  68.631  1.00  0.00     0.094 A 
ATOM     10  C   UNL     1      27.567  10.445  67.897  1.00  0.00     0.146 A 
ATOM     11  O   UNL     1      27.392  10.779  66.623  1.00  0.00    -0.456 OA
ENDROOT
BRANCH   1  12
ATOM     12  C   UNL     1      28.064  11.542  64.422  1.00  0.00     0.021 A 
ATOM     13  C   UNL     1      27.221  10.745  63.626  1.00  0.00     0.016 A 
ATOM     14  C   UNL     1      26.952  11.101  62.303  1.00  0.00     0.051 A 
ATOM     15  C   UNL     1      27.524  12.253  61.748  1.00  0.00     0.157 A 
ATOM     16  C   UNL     1      28.646  12.690  63.855  1.00  0.00     0.062 A 
ATOM     17  C   UNL     1      28.377  13.050  62.529  1.00  0.00     0.158 A 
BRANCH  15  18
ATOM     18  O   UNL     1      27.252  12.606  60.428  1.00  0.00    -0.504 OA
ATOM     19  H   UNL     1      27.961  12.542  59.706  1.00  0.00     0.293 HD
ENDBRANCH  15  18
BRANCH  17  20
ATOM     20  O   UNL     1      28.965  14.201  62.007  1.00  0.00    -0.504 OA
ATOM     21  H   UNL     1      29.495  14.843  62.583  1.00  0.00     0.293 HD
ENDBRANCH  17  20
ENDBRANCH   1  12
BRANCH   6  22
ATOM     22  O   UNL     1      30.156  10.319  70.616  1.00  0.00    -0.507 OA
ATOM     23  H   UNL     1      31.058   9.977  70.321  1.00  0.00     0.293 HD
ENDBRANCH   6  22
BRANCH   8  24
ATOM     24  O   UNL     1      25.489   9.186  70.674  1.00  0.00    -0.508 OA
ATOM     25  H   UNL     1      24.762   8.640  70.227  1.00  0.00     0.293 HD
ENDBRANCH   8  24
TORSDOF 5
ENDMDL
