MODEL 1
REMARK VINA RESULT:    -2.056      0.000      0.000
REMARK INTER + INTRA:          -2.056
REMARK INTER:                  -2.056
REMARK INTRA:                   0.000
REMARK UNBOUND:                 0.000
REMARK SMILES CC(=O)[O-]
REMARK SMILES IDX 1 1 2 2 3 3 4 4
REMARK H PARENT
REMARK Flexibility Score: inf
ROOT
ATOM      1  C   UNL     1     161.969 155.884 165.728  1.00  0.00     0.063 C 
ATOM      2  C   UNL     1     163.032 156.191 166.728  1.00  0.00     0.038 C 
ATOM      3  O   UNL     1     162.817 157.026 167.644  1.00  0.00    -0.550 OA
ATOM      4  O   UNL     1     164.245 155.515 166.682  1.00  0.00    -0.550 OA
ENDROOT
TORSDOF 0
ENDMDL
MODEL 2
REMARK VINA RESULT:    -1.951     16.694     17.007
REMARK INTER + INTRA:          -1.951
REMARK INTER:                  -1.951
REMARK INTRA:                   0.000
REMARK UNBOUND:                 0.000
REMARK SMILES CC(=O)[O-]
REMARK SMILES IDX 1 1 2 2 3 3 4 4
REMARK H PARENT
REMARK Flexibility Score: inf
ROOT
ATOM      1  C   UNL     1     158.420 156.997 149.875  1.00  0.00     0.063 C 
ATOM      2  C   UNL     1     158.172 158.245 150.654  1.00  0.00     0.038 C 
ATOM      3  O   UNL     1     159.130 159.000 150.959  1.00  0.00    -0.550 OA
ATOM      4  O   UNL     1     156.875 158.601 151.000  1.00  0.00    -0.550 OA
ENDROOT
TORSDOF 0
ENDMDL
MODEL 3
REMARK VINA RESULT:    -1.948      2.522      2.818
REMARK INTER + INTRA:          -1.948
REMARK INTER:                  -1.948
REMARK INTRA:                   0.000
REMARK UNBOUND:                 0.000
REMARK SMILES CC(=O)[O-]
REMARK SMILES IDX 1 1 2 2 3 3 4 4
REMARK H PARENT
REMARK Flexibility Score: inf
ROOT
ATOM      1  C   UNL     1     161.468 158.974 165.272  1.00  0.00     0.063 C 
ATOM      2  C   UNL     1     162.673 158.199 165.689  1.00  0.00     0.038 C 
ATOM      3  O   UNL     1     163.592 157.968 164.862  1.00  0.00    -0.550 OA
ATOM      4  O   UNL     1     162.806 157.776 167.005  1.00  0.00    -0.550 OA
ENDROOT
TORSDOF 0
ENDMDL
MODEL 4
REMARK VINA RESULT:    -1.945     16.176     16.528
REMARK INTER + INTRA:          -1.945
REMARK INTER:                  -1.945
REMARK INTRA:                   0.000
REMARK UNBOUND:                 0.000
REMARK SMILES CC(=O)[O-]
REMARK SMILES IDX 1 1 2 2 3 3 4 4
REMARK H PARENT
REMARK Flexibility Score: inf
ROOT
ATOM      1  C   UNL     1     158.765 158.731 150.751  1.00  0.00     0.063 C 
ATOM      2  C   UNL     1     157.545 158.077 151.308  1.00  0.00     0.038 C 
ATOM      3  O   UNL     1     156.526 157.921 150.586  1.00  0.00    -0.550 OA
ATOM      4  O   UNL     1     157.549 157.590 152.609  1.00  0.00    -0.550 OA
ENDROOT
TORSDOF 0
ENDMDL
MODEL 5
REMARK VINA RESULT:    -1.941      1.381      1.774
REMARK INTER + INTRA:          -1.941
REMARK INTER:                  -1.941
REMARK INTRA:                   0.000
REMARK UNBOUND:                 0.000
REMARK SMILES CC(=O)[O-]
REMARK SMILES IDX 1 1 2 2 3 3 4 4
REMARK H PARENT
REMARK Flexibility Score: inf
ROOT
ATOM      1  C   UNL     1     164.093 155.584 166.114  1.00  0.00     0.063 C 
ATOM      2  C   UNL     1     162.810 156.192 166.573  1.00  0.00     0.038 C 
ATOM      3  O   UNL     1     162.777 156.874 167.630  1.00  0.00    -0.550 OA
ATOM      4  O   UNL     1     161.661 156.052 165.806  1.00  0.00    -0.550 OA
ENDROOT
TORSDOF 0
ENDMDL
MODEL 6
REMARK VINA RESULT:    -1.912      2.599      2.896
REMARK INTER + INTRA:          -1.912
REMARK INTER:                  -1.912
REMARK INTRA:                   0.000
REMARK UNBOUND:                 0.000
REMARK SMILES CC(=O)[O-]
REMARK SMILES IDX 1 1 2 2 3 3 4 4
REMARK H PARENT
REMARK Flexibility Score: inf
ROOT
ATOM      1  C   UNL     1     162.829 159.468 165.241  1.00  0.00     0.063 C 
ATOM      2  C   UNL     1     162.389 158.191 165.875  1.00  0.00     0.038 C 
ATOM      3  O   UNL     1     162.843 157.854 166.999  1.00  0.00    -0.550 OA
ATOM      4  O   UNL     1     161.437 157.396 165.249  1.00  0.00    -0.550 OA
ENDROOT
TORSDOF 0
ENDMDL
MODEL 7
REMARK VINA RESULT:    -1.894     16.839     16.989
REMARK INTER + INTRA:          -1.894
REMARK INTER:                  -1.894
REMARK INTRA:                   0.000
REMARK UNBOUND:                 0.000
REMARK SMILES CC(=O)[O-]
REMARK SMILES IDX 1 1 2 2 3 3 4 4
REMARK H PARENT
REMARK Flexibility Score: inf
ROOT
ATOM      1  C   UNL     1     157.022 158.210 151.011  1.00  0.00     0.063 C 
ATOM      2  C   UNL     1     158.414 158.083 150.490  1.00  0.00     0.038 C 
ATOM      3  O   UNL     1     159.234 159.025 150.643  1.00  0.00    -0.550 OA
ATOM      4  O   UNL     1     158.823 156.904 149.881  1.00  0.00    -0.550 OA
ENDROOT
TORSDOF 0
ENDMDL
MODEL 8
REMARK VINA RESULT:    -1.871      3.723      4.357
REMARK INTER + INTRA:          -1.871
REMARK INTER:                  -1.871
REMARK INTRA:                   0.000
REMARK UNBOUND:                 0.000
REMARK SMILES CC(=O)[O-]
REMARK SMILES IDX 1 1 2 2 3 3 4 4
REMARK H PARENT
REMARK Flexibility Score: inf
ROOT
ATOM      1  C   UNL     1     162.809 159.458 165.170  1.00  0.00     0.063 C 
ATOM      2  C   UNL     1     161.357 159.114 165.179  1.00  0.00     0.038 C 
ATOM      3  O   UNL     1     160.987 157.934 164.951  1.00  0.00    -0.550 OA
ATOM      4  O   UNL     1     160.415 160.085 165.491  1.00  0.00    -0.550 OA
ENDROOT
TORSDOF 0
ENDMDL
MODEL 9
REMARK VINA RESULT:    -1.768     16.592     16.901
REMARK INTER + INTRA:          -1.768
REMARK INTER:                  -1.768
REMARK INTRA:                   0.000
REMARK UNBOUND:                 0.000
REMARK SMILES CC(=O)[O-]
REMARK SMILES IDX 1 1 2 2 3 3 4 4
REMARK H PARENT
REMARK Flexibility Score: inf
ROOT
ATOM      1  C   UNL     1     162.373 158.554 150.198  1.00  0.00     0.063 C 
ATOM      2  C   UNL     1     160.895 158.353 150.214  1.00  0.00     0.038 C 
ATOM      3  O   UNL     1     160.410 157.252 150.580  1.00  0.00    -0.550 OA
ATOM      4  O   UNL     1     160.048 159.401 149.875  1.00  0.00    -0.550 OA
ENDROOT
TORSDOF 0
ENDMDL
