MODEL 1
REMARK VINA RESULT:    -7.793      0.000      0.000
REMARK INTER + INTRA:          -9.422
REMARK INTER:                  -9.160
REMARK INTRA:                  -0.262
REMARK UNBOUND:                -0.262
REMARK SMILES O=c1c(O)c(-c2ccc(O)c(O)c2)oc2cc(O)ccc12
REMARK SMILES IDX 5 1 3 2 2 3 1 4 21 5 15 6 14 7 16 8 17 9 19 10 20 11 6 12
REMARK SMILES IDX 7 13 8 14 9 15 13 16 11 17 10 18 12 20 4 22 18 24
REMARK H PARENT 10 19 12 21 4 23 18 25
REMARK Flexibility Score: inf
ROOT
ATOM      1  C   UNL     1      97.799 106.600 106.073  1.00  0.00     0.180 A 
ATOM      2  C   UNL     1      98.923 107.320 106.526  1.00  0.00     0.208 A 
ATOM      3  C   UNL     1      98.755 108.656 106.922  1.00  0.00     0.235 A 
ATOM      4  O   UNL     1      99.744 109.318 107.342  1.00  0.00    -0.285 OA
ATOM      5  C   UNL     1      97.484 109.246 106.840  1.00  0.00     0.069 A 
ATOM      6  C   UNL     1      96.414 108.465 106.353  1.00  0.00     0.142 A 
ATOM      7  O   UNL     1      96.613 107.201 105.996  1.00  0.00    -0.452 OA
ATOM      8  C   UNL     1      95.135 109.020 106.246  1.00  0.00     0.094 A 
ATOM      9  C   UNL     1      94.908 110.348 106.623  1.00  0.00     0.119 A 
ATOM     10  C   UNL     1      95.967 111.126 107.108  1.00  0.00     0.047 A 
ATOM     11  C   UNL     1      97.250 110.582 107.216  1.00  0.00     0.020 A 
ENDROOT
BRANCH   1  12
ATOM     12  C   UNL     1      97.889 105.182 105.654  1.00  0.00     0.025 A 
ATOM     13  C   UNL     1      98.452 104.818 104.419  1.00  0.00     0.016 A 
ATOM     14  C   UNL     1      98.548 103.472 104.056  1.00  0.00     0.051 A 
ATOM     15  C   UNL     1      98.096 102.471 104.924  1.00  0.00     0.157 A 
ATOM     16  C   UNL     1      97.456 104.173 106.530  1.00  0.00     0.062 A 
ATOM     17  C   UNL     1      97.551 102.825 106.170  1.00  0.00     0.158 A 
BRANCH  15  18
ATOM     18  O   UNL     1      98.192 101.130 104.558  1.00  0.00    -0.504 OA
ATOM     19  H   UNL     1      99.070 100.628 104.605  1.00  0.00     0.293 HD
ENDBRANCH  15  18
BRANCH  17  20
ATOM     20  O   UNL     1      97.098 101.852 107.060  1.00  0.00    -0.504 OA
ATOM     21  H   UNL     1      96.684 100.982 106.744  1.00  0.00     0.293 HD
ENDBRANCH  17  20
ENDBRANCH   1  12
BRANCH   2  22
ATOM     22  O   UNL     1     100.185 106.721 106.551  1.00  0.00    -0.502 OA
ATOM     23  H   UNL     1     100.340 105.800 106.945  1.00  0.00     0.293 HD
ENDBRANCH   2  22
BRANCH   9  24
ATOM     24  O   UNL     1      93.627 110.885 106.509  1.00  0.00    -0.508 OA
ATOM     25  H   UNL     1      93.033 111.013 107.320  1.00  0.00     0.293 HD
ENDBRANCH   9  24
TORSDOF 5
ENDMDL
MODEL 2
REMARK VINA RESULT:    -7.659      8.760     11.120
REMARK INTER + INTRA:          -9.264
REMARK INTER:                  -8.976
REMARK INTRA:                  -0.288
REMARK UNBOUND:                -0.262
REMARK SMILES O=c1c(O)c(-c2ccc(O)c(O)c2)oc2cc(O)ccc12
REMARK SMILES IDX 5 1 3 2 2 3 1 4 21 5 15 6 14 7 16 8 17 9 19 10 20 11 6 12
REMARK SMILES IDX 7 13 8 14 9 15 13 16 11 17 10 18 12 20 4 22 18 24
REMARK H PARENT 10 19 12 21 4 23 18 25
REMARK Flexibility Score: inf
ROOT
ATOM      1  C   UNL     1     106.658 105.297 107.447  1.00  0.00     0.180 A 
ATOM      2  C   UNL     1     105.623 105.707 108.312  1.00  0.00     0.208 A 
ATOM      3  C   UNL     1     105.889 105.811 109.686  1.00  0.00     0.235 A 
ATOM      4  O   UNL     1     104.982 106.186 110.478  1.00  0.00    -0.285 OA
ATOM      5  C   UNL     1     107.168 105.487 110.167  1.00  0.00     0.069 A 
ATOM      6  C   UNL     1     108.143 105.061 109.240  1.00  0.00     0.142 A 
ATOM      7  O   UNL     1     107.853 104.985 107.946  1.00  0.00    -0.452 OA
ATOM      8  C   UNL     1     109.426 104.720 109.682  1.00  0.00     0.094 A 
ATOM      9  C   UNL     1     109.749 104.800 111.040  1.00  0.00     0.119 A 
ATOM     10  C   UNL     1     108.784 105.223 111.963  1.00  0.00     0.047 A 
ATOM     11  C   UNL     1     107.499 105.565 111.532  1.00  0.00     0.020 A 
ENDROOT
BRANCH   1  12
ATOM     12  C   UNL     1     106.462 105.180 105.984  1.00  0.00     0.025 A 
ATOM     13  C   UNL     1     105.828 104.061 105.418  1.00  0.00     0.016 A 
ATOM     14  C   UNL     1     105.633 103.983 104.037  1.00  0.00     0.051 A 
ATOM     15  C   UNL     1     106.055 105.026 103.203  1.00  0.00     0.157 A 
ATOM     16  C   UNL     1     106.865 106.232 105.146  1.00  0.00     0.062 A 
ATOM     17  C   UNL     1     106.671 106.158 103.763  1.00  0.00     0.158 A 
BRANCH  15  18
ATOM     18  O   UNL     1     105.861 104.945 101.825  1.00  0.00    -0.504 OA
ATOM     19  H   UNL     1     106.459 105.440 101.175  1.00  0.00     0.293 HD
ENDBRANCH  15  18
BRANCH  17  20
ATOM     20  O   UNL     1     107.097 107.216 102.961  1.00  0.00    -0.504 OA
ATOM     21  H   UNL     1     107.790 107.886 103.275  1.00  0.00     0.293 HD
ENDBRANCH  17  20
ENDBRANCH   1  12
BRANCH   2  22
ATOM     22  O   UNL     1     104.346 105.976 107.810  1.00  0.00    -0.502 OA
ATOM     23  H   UNL     1     103.792 106.762 108.130  1.00  0.00     0.293 HD
ENDBRANCH   2  22
BRANCH   9  24
ATOM     24  O   UNL     1     111.031 104.455 111.462  1.00  0.00    -0.508 OA
ATOM     25  H   UNL     1     111.389 104.751 112.363  1.00  0.00     0.293 HD
ENDBRANCH   9  24
TORSDOF 5
ENDMDL
MODEL 3
REMARK VINA RESULT:    -7.520      1.855      6.793
REMARK INTER + INTRA:          -9.100
REMARK INTER:                  -8.785
REMARK INTRA:                  -0.315
REMARK UNBOUND:                -0.262
REMARK SMILES O=c1c(O)c(-c2ccc(O)c(O)c2)oc2cc(O)ccc12
REMARK SMILES IDX 5 1 3 2 2 3 1 4 21 5 15 6 14 7 16 8 17 9 19 10 20 11 6 12
REMARK SMILES IDX 7 13 8 14 9 15 13 16 11 17 10 18 12 20 4 22 18 24
REMARK H PARENT 10 19 12 21 4 23 18 25
REMARK Flexibility Score: inf
ROOT
ATOM      1  C   UNL     1      97.199 107.550 105.967  1.00  0.00     0.180 A 
ATOM      2  C   UNL     1      97.110 106.333 106.674  1.00  0.00     0.208 A 
ATOM      3  C   UNL     1      97.684 105.181 106.114  1.00  0.00     0.235 A 
ATOM      4  O   UNL     1      97.626 104.083 106.733  1.00  0.00    -0.285 OA
ATOM      5  C   UNL     1      98.313 105.263 104.862  1.00  0.00     0.069 A 
ATOM      6  C   UNL     1      98.340 106.513 104.207  1.00  0.00     0.142 A 
ATOM      7  O   UNL     1      97.792 107.581 104.775  1.00  0.00    -0.452 OA
ATOM      8  C   UNL     1      98.948 106.633 102.953  1.00  0.00     0.094 A 
ATOM      9  C   UNL     1      99.534 105.518 102.344  1.00  0.00     0.119 A 
ATOM     10  C   UNL     1      99.510 104.276 102.991  1.00  0.00     0.047 A 
ATOM     11  C   UNL     1      98.903 104.145 104.244  1.00  0.00     0.020 A 
ENDROOT
BRANCH   1  12
ATOM     12  C   UNL     1      96.635 108.812 106.498  1.00  0.00     0.025 A 
ATOM     13  C   UNL     1      97.429 109.723 107.217  1.00  0.00     0.016 A 
ATOM     14  C   UNL     1      96.881 110.919 107.688  1.00  0.00     0.051 A 
ATOM     15  C   UNL     1      95.538 111.228 107.438  1.00  0.00     0.157 A 
ATOM     16  C   UNL     1      95.295 109.137 106.233  1.00  0.00     0.062 A 
ATOM     17  C   UNL     1      94.743 110.333 106.703  1.00  0.00     0.158 A 
BRANCH  15  18
ATOM     18  O   UNL     1      94.994 112.421 107.911  1.00  0.00    -0.504 OA
ATOM     19  H   UNL     1      95.581 113.192 108.208  1.00  0.00     0.293 HD
ENDBRANCH  15  18
BRANCH  17  20
ATOM     20  O   UNL     1      93.405 110.614 106.432  1.00  0.00    -0.504 OA
ATOM     21  H   UNL     1      93.003 111.530 106.594  1.00  0.00     0.293 HD
ENDBRANCH  17  20
ENDBRANCH   1  12
BRANCH   2  22
ATOM     22  O   UNL     1      96.434 106.273 107.896  1.00  0.00    -0.502 OA
ATOM     23  H   UNL     1      96.036 105.412 108.253  1.00  0.00     0.293 HD
ENDBRANCH   2  22
BRANCH   9  24
ATOM     24  O   UNL     1     100.135 105.655 101.095  1.00  0.00    -0.508 OA
ATOM     25  H   UNL     1     100.395 104.848 100.540  1.00  0.00     0.293 HD
ENDBRANCH   9  24
TORSDOF 5
ENDMDL
MODEL 4
REMARK VINA RESULT:    -7.476      3.668      6.104
REMARK INTER + INTRA:          -9.049
REMARK INTER:                  -8.753
REMARK INTRA:                  -0.296
REMARK UNBOUND:                -0.262
REMARK SMILES O=c1c(O)c(-c2ccc(O)c(O)c2)oc2cc(O)ccc12
REMARK SMILES IDX 5 1 3 2 2 3 1 4 21 5 15 6 14 7 16 8 17 9 19 10 20 11 6 12
REMARK SMILES IDX 7 13 8 14 9 15 13 16 11 17 10 18 12 20 4 22 18 24
REMARK H PARENT 10 19 12 21 4 23 18 25
REMARK Flexibility Score: inf
ROOT
ATOM      1  C   UNL     1     100.418 102.924 103.733  1.00  0.00     0.180 A 
ATOM      2  C   UNL     1      99.159 102.495 104.200  1.00  0.00     0.208 A 
ATOM      3  C   UNL     1      98.242 103.456 104.653  1.00  0.00     0.235 A 
ATOM      4  O   UNL     1      97.105 103.097 105.066  1.00  0.00    -0.285 OA
ATOM      5  C   UNL     1      98.604 104.812 104.648  1.00  0.00     0.069 A 
ATOM      6  C   UNL     1      99.892 105.159 104.187  1.00  0.00     0.142 A 
ATOM      7  O   UNL     1     100.728 104.219 103.759  1.00  0.00    -0.452 OA
ATOM      8  C   UNL     1     100.294 106.499 104.175  1.00  0.00     0.094 A 
ATOM      9  C   UNL     1      99.424 107.500 104.618  1.00  0.00     0.119 A 
ATOM     10  C   UNL     1      98.144 107.160 105.075  1.00  0.00     0.047 A 
ATOM     11  C   UNL     1      97.734 105.824 105.092  1.00  0.00     0.020 A 
ENDROOT
BRANCH   1  12
ATOM     12  C   UNL     1     101.434 101.975 103.223  1.00  0.00     0.025 A 
ATOM     13  C   UNL     1     102.268 101.255 104.096  1.00  0.00     0.016 A 
ATOM     14  C   UNL     1     103.203 100.347 103.593  1.00  0.00     0.051 A 
ATOM     15  C   UNL     1     103.311 100.135 102.213  1.00  0.00     0.157 A 
ATOM     16  C   UNL     1     101.532 101.743 101.841  1.00  0.00     0.062 A 
ATOM     17  C   UNL     1     102.467 100.835 101.333  1.00  0.00     0.158 A 
BRANCH  15  18
ATOM     18  O   UNL     1     104.246  99.230 101.714  1.00  0.00    -0.504 OA
ATOM     19  H   UNL     1     104.997  98.872 102.291  1.00  0.00     0.293 HD
ENDBRANCH  15  18
BRANCH  17  20
ATOM     20  O   UNL     1     102.545 100.642  99.955  1.00  0.00    -0.504 OA
ATOM     21  H   UNL     1     101.973  99.957  99.474  1.00  0.00     0.293 HD
ENDBRANCH  17  20
ENDBRANCH   1  12
BRANCH   2  22
ATOM     22  O   UNL     1      98.845 101.134 104.239  1.00  0.00    -0.502 OA
ATOM     23  H   UNL     1      98.072 100.771 104.785  1.00  0.00     0.293 HD
ENDBRANCH   2  22
BRANCH   9  24
ATOM     24  O   UNL     1      99.841 108.829 104.600  1.00  0.00    -0.508 OA
ATOM     25  H   UNL     1      99.913 109.373 105.452  1.00  0.00     0.293 HD
ENDBRANCH   9  24
TORSDOF 5
ENDMDL
MODEL 5
REMARK VINA RESULT:    -7.389      8.778     11.006
REMARK INTER + INTRA:          -8.947
REMARK INTER:                  -8.644
REMARK INTRA:                  -0.303
REMARK UNBOUND:                -0.262
REMARK SMILES O=c1c(O)c(-c2ccc(O)c(O)c2)oc2cc(O)ccc12
REMARK SMILES IDX 5 1 3 2 2 3 1 4 21 5 15 6 14 7 16 8 17 9 19 10 20 11 6 12
REMARK SMILES IDX 7 13 8 14 9 15 13 16 11 17 10 18 12 20 4 22 18 24
REMARK H PARENT 10 19 12 21 4 23 18 25
REMARK Flexibility Score: inf
ROOT
ATOM      1  C   UNL     1     106.682 105.435 107.622  1.00  0.00     0.180 A 
ATOM      2  C   UNL     1     105.667 105.854 108.505  1.00  0.00     0.208 A 
ATOM      3  C   UNL     1     105.948 105.916 109.879  1.00  0.00     0.235 A 
ATOM      4  O   UNL     1     105.059 106.299 110.688  1.00  0.00    -0.285 OA
ATOM      5  C   UNL     1     107.220 105.543 110.340  1.00  0.00     0.069 A 
ATOM      6  C   UNL     1     108.175 105.112 109.395  1.00  0.00     0.142 A 
ATOM      7  O   UNL     1     107.871 105.075 108.102  1.00  0.00    -0.452 OA
ATOM      8  C   UNL     1     109.451 104.723 109.816  1.00  0.00     0.094 A 
ATOM      9  C   UNL     1     109.788 104.760 111.173  1.00  0.00     0.119 A 
ATOM     10  C   UNL     1     108.843 105.189 112.114  1.00  0.00     0.047 A 
ATOM     11  C   UNL     1     107.565 105.578 111.704  1.00  0.00     0.020 A 
ENDROOT
BRANCH   1  12
ATOM     12  C   UNL     1     106.470 105.359 106.158  1.00  0.00     0.025 A 
ATOM     13  C   UNL     1     106.893 106.392 105.303  1.00  0.00     0.016 A 
ATOM     14  C   UNL     1     106.703 106.288 103.923  1.00  0.00     0.051 A 
ATOM     15  C   UNL     1     106.102 105.149 103.375  1.00  0.00     0.157 A 
ATOM     16  C   UNL     1     105.886 104.210 105.602  1.00  0.00     0.062 A 
ATOM     17  C   UNL     1     105.695 104.102 104.220  1.00  0.00     0.158 A 
BRANCH  15  18
ATOM     18  O   UNL     1     105.912 105.049 101.998  1.00  0.00    -0.504 OA
ATOM     19  H   UNL     1     106.676 104.823 101.372  1.00  0.00     0.293 HD
ENDBRANCH  15  18
BRANCH  17  20
ATOM     20  O   UNL     1     105.099 102.952 103.706  1.00  0.00    -0.504 OA
ATOM     21  H   UNL     1     104.274 102.989 103.117  1.00  0.00     0.293 HD
ENDBRANCH  17  20
ENDBRANCH   1  12
BRANCH   2  22
ATOM     22  O   UNL     1     104.394 106.172 108.022  1.00  0.00    -0.502 OA
ATOM     23  H   UNL     1     103.920 107.032 108.270  1.00  0.00     0.293 HD
ENDBRANCH   2  22
BRANCH   9  24
ATOM     24  O   UNL     1     111.063 104.368 111.575  1.00  0.00    -0.508 OA
ATOM     25  H   UNL     1     111.255 104.091 112.530  1.00  0.00     0.293 HD
ENDBRANCH   9  24
TORSDOF 5
ENDMDL
MODEL 6
REMARK VINA RESULT:    -7.310      3.343      5.612
REMARK INTER + INTRA:          -8.854
REMARK INTER:                  -8.654
REMARK INTRA:                  -0.200
REMARK UNBOUND:                -0.262
REMARK SMILES O=c1c(O)c(-c2ccc(O)c(O)c2)oc2cc(O)ccc12
REMARK SMILES IDX 5 1 3 2 2 3 1 4 21 5 15 6 14 7 16 8 17 9 19 10 20 11 6 12
REMARK SMILES IDX 7 13 8 14 9 15 13 16 11 17 10 18 12 20 4 22 18 24
REMARK H PARENT 10 19 12 21 4 23 18 25
REMARK Flexibility Score: inf
ROOT
ATOM      1  C   UNL     1     100.351 104.222 103.652  1.00  0.00     0.180 A 
ATOM      2  C   UNL     1      98.975 104.464 103.457  1.00  0.00     0.208 A 
ATOM      3  C   UNL     1      98.382 105.557 104.108  1.00  0.00     0.235 A 
ATOM      4  O   UNL     1      97.155 105.801 103.941  1.00  0.00    -0.285 OA
ATOM      5  C   UNL     1      99.163 106.367 104.947  1.00  0.00     0.069 A 
ATOM      6  C   UNL     1     100.527 106.045 105.108  1.00  0.00     0.142 A 
ATOM      7  O   UNL     1     101.052 105.006 104.468  1.00  0.00    -0.452 OA
ATOM      8  C   UNL     1     101.336 106.822 105.944  1.00  0.00     0.094 A 
ATOM      9  C   UNL     1     100.800 107.922 106.621  1.00  0.00     0.119 A 
ATOM     10  C   UNL     1      99.446 108.246 106.463  1.00  0.00     0.047 A 
ATOM     11  C   UNL     1      98.629 107.475 105.632  1.00  0.00     0.020 A 
ENDROOT
BRANCH   1  12
ATOM     12  C   UNL     1     101.054 103.101 102.987  1.00  0.00     0.025 A 
ATOM     13  C   UNL     1     101.500 101.983 103.714  1.00  0.00     0.016 A 
ATOM     14  C   UNL     1     102.140 100.926 103.062  1.00  0.00     0.051 A 
ATOM     15  C   UNL     1     102.333 100.963 101.676  1.00  0.00     0.157 A 
ATOM     16  C   UNL     1     101.231 103.123 101.594  1.00  0.00     0.062 A 
ATOM     17  C   UNL     1     101.872 102.067 100.938  1.00  0.00     0.158 A 
BRANCH  15  18
ATOM     18  O   UNL     1     102.974  99.908 101.029  1.00  0.00    -0.504 OA
ATOM     19  H   UNL     1     103.880  99.572 101.332  1.00  0.00     0.293 HD
ENDBRANCH  15  18
BRANCH  17  20
ATOM     20  O   UNL     1     102.042 102.131  99.556  1.00  0.00    -0.504 OA
ATOM     21  H   UNL     1     102.456 101.372  99.028  1.00  0.00     0.293 HD
ENDBRANCH  17  20
ENDBRANCH   1  12
BRANCH   2  22
ATOM     22  O   UNL     1      98.213 103.611 102.655  1.00  0.00    -0.502 OA
ATOM     23  H   UNL     1      98.633 102.902 102.065  1.00  0.00     0.293 HD
ENDBRANCH   2  22
BRANCH   9  24
ATOM     24  O   UNL     1     101.619 108.685 107.450  1.00  0.00    -0.508 OA
ATOM     25  H   UNL     1     101.250 109.451 108.001  1.00  0.00     0.293 HD
ENDBRANCH   9  24
TORSDOF 5
ENDMDL
MODEL 7
REMARK VINA RESULT:    -7.153      8.549      9.917
REMARK INTER + INTRA:          -8.669
REMARK INTER:                  -8.353
REMARK INTRA:                  -0.317
REMARK UNBOUND:                -0.262
REMARK SMILES O=c1c(O)c(-c2ccc(O)c(O)c2)oc2cc(O)ccc12
REMARK SMILES IDX 5 1 3 2 2 3 1 4 21 5 15 6 14 7 16 8 17 9 19 10 20 11 6 12
REMARK SMILES IDX 7 13 8 14 9 15 13 16 11 17 10 18 12 20 4 22 18 24
REMARK H PARENT 10 19 12 21 4 23 18 25
REMARK Flexibility Score: inf
ROOT
ATOM      1  C   UNL     1     106.365 105.113 107.904  1.00  0.00     0.180 A 
ATOM      2  C   UNL     1     107.463 104.532 108.571  1.00  0.00     0.208 A 
ATOM      3  C   UNL     1     107.568 104.684 109.963  1.00  0.00     0.235 A 
ATOM      4  O   UNL     1     108.535 104.165 110.583  1.00  0.00    -0.285 OA
ATOM      5  C   UNL     1     106.593 105.424 110.651  1.00  0.00     0.069 A 
ATOM      6  C   UNL     1     105.537 105.994 109.908  1.00  0.00     0.142 A 
ATOM      7  O   UNL     1     105.470 105.819 108.593  1.00  0.00    -0.452 OA
ATOM      8  C   UNL     1     104.552 106.746 110.556  1.00  0.00     0.094 A 
ATOM      9  C   UNL     1     104.605 106.935 111.941  1.00  0.00     0.119 A 
ATOM     10  C   UNL     1     105.651 106.370 112.682  1.00  0.00     0.047 A 
ATOM     11  C   UNL     1     106.641 105.618 112.044  1.00  0.00     0.020 A 
ENDROOT
BRANCH   1  12
ATOM     12  C   UNL     1     106.174 104.982 106.442  1.00  0.00     0.025 A 
ATOM     13  C   UNL     1     105.368 103.967 105.897  1.00  0.00     0.016 A 
ATOM     14  C   UNL     1     105.183 103.878 104.515  1.00  0.00     0.051 A 
ATOM     15  C   UNL     1     105.788 104.806 103.659  1.00  0.00     0.157 A 
ATOM     16  C   UNL     1     106.762 105.923 105.580  1.00  0.00     0.062 A 
ATOM     17  C   UNL     1     106.578 105.837 104.196  1.00  0.00     0.158 A 
BRANCH  15  18
ATOM     18  O   UNL     1     105.603 104.713 102.280  1.00  0.00    -0.504 OA
ATOM     19  H   UNL     1     105.369 103.834 101.835  1.00  0.00     0.293 HD
ENDBRANCH  15  18
BRANCH  17  20
ATOM     20  O   UNL     1     107.189 106.780 103.372  1.00  0.00    -0.504 OA
ATOM     21  H   UNL     1     107.057 107.777 103.503  1.00  0.00     0.293 HD
ENDBRANCH  17  20
ENDBRANCH   1  12
BRANCH   2  22
ATOM     22  O   UNL     1     108.444 103.843 107.853  1.00  0.00    -0.502 OA
ATOM     23  H   UNL     1     108.631 102.858 107.998  1.00  0.00     0.293 HD
ENDBRANCH   2  22
BRANCH   9  24
ATOM     24  O   UNL     1     103.616 107.687 112.570  1.00  0.00    -0.508 OA
ATOM     25  H   UNL     1     103.699 108.692 112.672  1.00  0.00     0.293 HD
ENDBRANCH   9  24
TORSDOF 5
ENDMDL
MODEL 8
REMARK VINA RESULT:    -7.106      8.573     11.153
REMARK INTER + INTRA:          -8.614
REMARK INTER:                  -8.295
REMARK INTRA:                  -0.320
REMARK UNBOUND:                -0.262
REMARK SMILES O=c1c(O)c(-c2ccc(O)c(O)c2)oc2cc(O)ccc12
REMARK SMILES IDX 5 1 3 2 2 3 1 4 21 5 15 6 14 7 16 8 17 9 19 10 20 11 6 12
REMARK SMILES IDX 7 13 8 14 9 15 13 16 11 17 10 18 12 20 4 22 18 24
REMARK H PARENT 10 19 12 21 4 23 18 25
REMARK Flexibility Score: inf
ROOT
ATOM      1  C   UNL     1     107.012 105.060 107.477  1.00  0.00     0.180 A 
ATOM      2  C   UNL     1     107.131 106.031 106.462  1.00  0.00     0.208 A 
ATOM      3  C   UNL     1     106.401 105.863 105.275  1.00  0.00     0.235 A 
ATOM      4  O   UNL     1     106.483 106.723 104.357  1.00  0.00    -0.285 OA
ATOM      5  C   UNL     1     105.589 104.728 105.120  1.00  0.00     0.069 A 
ATOM      6  C   UNL     1     105.541 103.790 106.173  1.00  0.00     0.142 A 
ATOM      7  O   UNL     1     106.241 103.991 107.284  1.00  0.00    -0.452 OA
ATOM      8  C   UNL     1     104.751 102.642 106.053  1.00  0.00     0.094 A 
ATOM      9  C   UNL     1     104.004 102.419 104.892  1.00  0.00     0.119 A 
ATOM     10  C   UNL     1     104.047 103.348 103.844  1.00  0.00     0.047 A 
ATOM     11  C   UNL     1     104.835 104.498 103.954  1.00  0.00     0.020 A 
ENDROOT
BRANCH   1  12
ATOM     12  C   UNL     1     107.735 105.174 108.765  1.00  0.00     0.025 A 
ATOM     13  C   UNL     1     107.141 105.778 109.887  1.00  0.00     0.016 A 
ATOM     14  C   UNL     1     107.833 105.853 111.098  1.00  0.00     0.051 A 
ATOM     15  C   UNL     1     109.122 105.317 111.210  1.00  0.00     0.157 A 
ATOM     16  C   UNL     1     109.019 104.620 108.888  1.00  0.00     0.062 A 
ATOM     17  C   UNL     1     109.716 104.693 110.099  1.00  0.00     0.158 A 
BRANCH  15  18
ATOM     18  O   UNL     1     109.811 105.395 112.419  1.00  0.00    -0.504 OA
ATOM     19  H   UNL     1     110.308 106.234 112.693  1.00  0.00     0.293 HD
ENDBRANCH  15  18
BRANCH  17  20
ATOM     20  O   UNL     1     110.994 104.144 110.180  1.00  0.00    -0.504 OA
ATOM     21  H   UNL     1     111.546 103.939 109.355  1.00  0.00     0.293 HD
ENDBRANCH  17  20
ENDBRANCH   1  12
BRANCH   2  22
ATOM     22  O   UNL     1     107.986 107.125 106.625  1.00  0.00    -0.502 OA
ATOM     23  H   UNL     1     108.894 107.042 107.066  1.00  0.00     0.293 HD
ENDBRANCH   2  22
BRANCH   9  24
ATOM     24  O   UNL     1     103.223 101.270 104.788  1.00  0.00    -0.508 OA
ATOM     25  H   UNL     1     103.582 100.360 105.052  1.00  0.00     0.293 HD
ENDBRANCH   9  24
TORSDOF 5
ENDMDL
MODEL 9
REMARK VINA RESULT:    -7.102      2.018      6.741
REMARK INTER + INTRA:          -8.610
REMARK INTER:                  -8.292
REMARK INTRA:                  -0.318
REMARK UNBOUND:                -0.262
REMARK SMILES O=c1c(O)c(-c2ccc(O)c(O)c2)oc2cc(O)ccc12
REMARK SMILES IDX 5 1 3 2 2 3 1 4 21 5 15 6 14 7 16 8 17 9 19 10 20 11 6 12
REMARK SMILES IDX 7 13 8 14 9 15 13 16 11 17 10 18 12 20 4 22 18 24
REMARK H PARENT 10 19 12 21 4 23 18 25
REMARK Flexibility Score: inf
ROOT
ATOM      1  C   UNL     1      98.707 107.674 106.319  1.00  0.00     0.180 A 
ATOM      2  C   UNL     1      99.301 107.631 105.041  1.00  0.00     0.208 A 
ATOM      3  C   UNL     1      99.293 106.420 104.331  1.00  0.00     0.235 A 
ATOM      4  O   UNL     1      99.809 106.359 103.181  1.00  0.00    -0.285 OA
ATOM      5  C   UNL     1      98.714 105.282 104.914  1.00  0.00     0.069 A 
ATOM      6  C   UNL     1      98.161 105.401 106.207  1.00  0.00     0.142 A 
ATOM      7  O   UNL     1      98.181 106.568 106.842  1.00  0.00    -0.452 OA
ATOM      8  C   UNL     1      97.584 104.287 106.827  1.00  0.00     0.094 A 
ATOM      9  C   UNL     1      97.550 103.053 106.170  1.00  0.00     0.119 A 
ATOM     10  C   UNL     1      98.097 102.931 104.885  1.00  0.00     0.047 A 
ATOM     11  C   UNL     1      98.678 104.038 104.259  1.00  0.00     0.020 A 
ENDROOT
BRANCH   1  12
ATOM     12  C   UNL     1      98.658 108.916 107.123  1.00  0.00     0.025 A 
ATOM     13  C   UNL     1      97.651 109.877 106.926  1.00  0.00     0.016 A 
ATOM     14  C   UNL     1      97.612 111.031 107.713  1.00  0.00     0.051 A 
ATOM     15  C   UNL     1      98.568 111.236 108.715  1.00  0.00     0.157 A 
ATOM     16  C   UNL     1      99.603 109.117 108.143  1.00  0.00     0.062 A 
ATOM     17  C   UNL     1      99.567 110.271 108.933  1.00  0.00     0.158 A 
BRANCH  15  18
ATOM     18  O   UNL     1      98.528 112.389 109.497  1.00  0.00    -0.504 OA
ATOM     19  H   UNL     1      97.851 112.501 110.243  1.00  0.00     0.293 HD
ENDBRANCH  15  18
BRANCH  17  20
ATOM     20  O   UNL     1     100.529 110.442 109.927  1.00  0.00    -0.504 OA
ATOM     21  H   UNL     1     101.522 110.378 109.733  1.00  0.00     0.293 HD
ENDBRANCH  17  20
ENDBRANCH   1  12
BRANCH   2  22
ATOM     22  O   UNL     1      99.913 108.768 104.506  1.00  0.00    -0.502 OA
ATOM     23  H   UNL     1      99.514 109.694 104.602  1.00  0.00     0.293 HD
ENDBRANCH   2  22
BRANCH   9  24
ATOM     24  O   UNL     1      96.972 101.954 106.801  1.00  0.00    -0.508 OA
ATOM     25  H   UNL     1      97.477 101.083 106.916  1.00  0.00     0.293 HD
ENDBRANCH   9  24
TORSDOF 5
ENDMDL
