MODEL 1
REMARK VINA RESULT:    20.342      0.000      0.000
REMARK INTER + INTRA:          30.000
REMARK INTER:                  28.666
REMARK INTRA:                   1.334
REMARK UNBOUND:                 1.334
REMARK SMILES O=C(C=Cc1ccc(O)cc1)CC(=O)C=Cc1ccc(O)cc1
REMARK SMILES IDX 12 1 2 2 1 3 3 4 4 5 5 6 6 7 7 8 8 9 11 10 10 11 9 12 13 14
REMARK SMILES IDX 14 15 15 16 16 17 17 18 18 19 23 20 19 21 22 22 20 23 21 24
REMARK H PARENT 9 13 21 25
REMARK Flexibility Score: inf
ROOT
ATOM      1  C   UNL     1      36.836 -23.122   8.124  1.00  0.00     0.160 C 
ENDROOT
BRANCH   1   2
ATOM      2  C   UNL     1      35.828 -22.717   7.091  1.00  0.00     0.163 C 
ATOM      3  O   UNL     1      35.650 -21.491   6.852  1.00  0.00    -0.294 OA
BRANCH   2   4
ATOM      4  C   UNL     1      35.093 -23.747   6.329  1.00  0.00     0.048 C 
ATOM      5  C   UNL     1      34.141 -24.506   6.890  1.00  0.00     0.012 C 
BRANCH   5   6
ATOM      6  C   UNL     1      33.384 -25.554   6.161  1.00  0.00    -0.025 A 
ATOM      7  C   UNL     1      33.065 -25.447   4.791  1.00  0.00     0.012 A 
ATOM      8  C   UNL     1      32.338 -26.456   4.154  1.00  0.00     0.047 A 
ATOM      9  C   UNL     1      31.911 -27.580   4.872  1.00  0.00     0.115 A 
ATOM     10  C   UNL     1      32.937 -26.679   6.874  1.00  0.00     0.012 A 
ATOM     11  C   UNL     1      32.211 -27.687   6.232  1.00  0.00     0.047 A 
BRANCH   9  12
ATOM     12  O   UNL     1      31.185 -28.591   4.246  1.00  0.00    -0.508 OA
ATOM     13  H   UNL     1      30.761 -28.452   3.336  1.00  0.00     0.293 HD
ENDBRANCH   9  12
ENDBRANCH   5   6
ENDBRANCH   2   4
ENDBRANCH   1   2
BRANCH   1  14
ATOM     14  C   UNL     1      38.215 -23.085   7.541  1.00  0.00     0.163 C 
ATOM     15  O   UNL     1      38.624 -22.019   7.004  1.00  0.00    -0.294 OA
BRANCH  14  16
ATOM     16  C   UNL     1      39.033 -24.318   7.503  1.00  0.00     0.048 C 
ATOM     17  C   UNL     1      39.124 -25.163   6.464  1.00  0.00     0.012 C 
BRANCH  17  18
ATOM     18  C   UNL     1      38.572 -24.924   5.115  1.00  0.00    -0.025 A 
ATOM     19  C   UNL     1      37.534 -23.994   4.952  1.00  0.00     0.012 A 
ATOM     20  C   UNL     1      38.996 -25.680   4.008  1.00  0.00     0.012 A 
ATOM     21  C   UNL     1      36.962 -23.785   3.693  1.00  0.00     0.047 A 
ATOM     22  C   UNL     1      38.425 -25.469   2.750  1.00  0.00     0.047 A 
ATOM     23  C   UNL     1      37.408 -24.518   2.588  1.00  0.00     0.115 A 
BRANCH  23  24
ATOM     24  O   UNL     1      36.833 -24.297   1.340  1.00  0.00    -0.508 OA
ATOM     25  H   UNL     1      37.133 -23.533   0.745  1.00  0.00     0.293 HD
ENDBRANCH  23  24
ENDBRANCH  17  18
ENDBRANCH  14  16
ENDBRANCH   1  14
TORSDOF 8
ENDMDL
MODEL 2
REMARK VINA RESULT:    22.176      2.563      3.053
REMARK INTER + INTRA:          32.585
REMARK INTER:                  31.449
REMARK INTRA:                   1.136
REMARK UNBOUND:                 1.334
REMARK SMILES O=C(C=Cc1ccc(O)cc1)CC(=O)C=Cc1ccc(O)cc1
REMARK SMILES IDX 12 1 2 2 1 3 3 4 4 5 5 6 6 7 7 8 8 9 11 10 10 11 9 12 13 14
REMARK SMILES IDX 14 15 15 16 16 17 17 18 18 19 23 20 19 21 22 22 20 23 21 24
REMARK H PARENT 9 13 21 25
REMARK Flexibility Score: inf
ROOT
ATOM      1  C   UNL     1      36.069 -23.446   6.438  1.00  0.00     0.160 C 
ENDROOT
BRANCH   1   2
ATOM      2  C   UNL     1      35.511 -24.704   7.035  1.00  0.00     0.163 C 
ATOM      3  O   UNL     1      36.296 -25.648   7.326  1.00  0.00    -0.294 OA
BRANCH   2   4
ATOM      4  C   UNL     1      34.066 -24.809   7.321  1.00  0.00     0.048 C 
ATOM      5  C   UNL     1      33.133 -24.467   6.420  1.00  0.00     0.012 C 
BRANCH   5   6
ATOM      6  C   UNL     1      31.673 -24.554   6.671  1.00  0.00    -0.025 A 
ATOM      7  C   UNL     1      30.718 -23.984   5.803  1.00  0.00     0.012 A 
ATOM      8  C   UNL     1      29.353 -24.082   6.091  1.00  0.00     0.047 A 
ATOM      9  C   UNL     1      28.922 -24.738   7.251  1.00  0.00     0.115 A 
ATOM     10  C   UNL     1      31.228 -25.197   7.838  1.00  0.00     0.012 A 
ATOM     11  C   UNL     1      29.862 -25.293   8.122  1.00  0.00     0.047 A 
BRANCH   9  12
ATOM     12  O   UNL     1      27.564 -24.840   7.547  1.00  0.00    -0.508 OA
ATOM     13  H   UNL     1      26.854 -24.631   6.854  1.00  0.00     0.293 HD
ENDBRANCH   9  12
ENDBRANCH   5   6
ENDBRANCH   2   4
ENDBRANCH   1   2
BRANCH   1  14
ATOM     14  C   UNL     1      36.277 -22.417   7.507  1.00  0.00     0.163 C 
ATOM     15  O   UNL     1      35.319 -21.660   7.823  1.00  0.00    -0.294 OA
BRANCH  14  16
ATOM     16  C   UNL     1      37.622 -22.227   8.097  1.00  0.00     0.048 C 
ATOM     17  C   UNL     1      38.740 -22.864   7.714  1.00  0.00     0.012 C 
BRANCH  17  18
ATOM     18  C   UNL     1      38.867 -23.730   6.524  1.00  0.00    -0.025 A 
ATOM     19  C   UNL     1      38.699 -23.172   5.248  1.00  0.00     0.012 A 
ATOM     20  C   UNL     1      39.054 -25.118   6.648  1.00  0.00     0.012 A 
ATOM     21  C   UNL     1      38.768 -23.980   4.108  1.00  0.00     0.047 A 
ATOM     22  C   UNL     1      39.124 -25.924   5.508  1.00  0.00     0.047 A 
ATOM     23  C   UNL     1      38.985 -25.356   4.234  1.00  0.00     0.115 A 
BRANCH  23  24
ATOM     24  O   UNL     1      39.054 -26.148   3.091  1.00  0.00    -0.508 OA
ATOM     25  H   UNL     1      38.466 -25.969   2.285  1.00  0.00     0.293 HD
ENDBRANCH  23  24
ENDBRANCH  17  18
ENDBRANCH  14  16
ENDBRANCH   1  14
TORSDOF 8
ENDMDL
MODEL 3
REMARK VINA RESULT:    23.025      4.418      6.583
REMARK INTER + INTRA:          33.782
REMARK INTER:                  32.794
REMARK INTRA:                   0.987
REMARK UNBOUND:                 1.334
REMARK SMILES O=C(C=Cc1ccc(O)cc1)CC(=O)C=Cc1ccc(O)cc1
REMARK SMILES IDX 12 1 2 2 1 3 3 4 4 5 5 6 6 7 7 8 8 9 11 10 10 11 9 12 13 14
REMARK SMILES IDX 14 15 15 16 16 17 17 18 18 19 23 20 19 21 22 22 20 23 21 24
REMARK H PARENT 9 13 21 25
REMARK Flexibility Score: inf
ROOT
ATOM      1  C   UNL     1      36.340 -24.814   1.110  1.00  0.00     0.160 C 
ENDROOT
BRANCH   1   2
ATOM      2  C   UNL     1      36.736 -26.141   0.535  1.00  0.00     0.163 C 
ATOM      3  O   UNL     1      37.954 -26.470   0.527  1.00  0.00    -0.294 OA
BRANCH   2   4
ATOM      4  C   UNL     1      35.702 -27.068   0.032  1.00  0.00     0.048 C 
ATOM      5  C   UNL     1      35.921 -27.887  -1.006  1.00  0.00     0.012 C 
BRANCH   5   6
ATOM      6  C   UNL     1      34.908 -28.829  -1.544  1.00  0.00    -0.025 A 
ATOM      7  C   UNL     1      35.245 -29.911  -2.384  1.00  0.00     0.012 A 
ATOM      8  C   UNL     1      34.251 -30.762  -2.875  1.00  0.00     0.047 A 
ATOM      9  C   UNL     1      32.908 -30.542  -2.546  1.00  0.00     0.115 A 
ATOM     10  C   UNL     1      33.555 -28.610  -1.234  1.00  0.00     0.012 A 
ATOM     11  C   UNL     1      32.564 -29.464  -1.726  1.00  0.00     0.047 A 
BRANCH   9  12
ATOM     12  O   UNL     1      31.909 -31.384  -3.031  1.00  0.00    -0.508 OA
ATOM     13  H   UNL     1      31.992 -32.392  -2.971  1.00  0.00     0.293 HD
ENDBRANCH   9  12
ENDBRANCH   5   6
ENDBRANCH   2   4
ENDBRANCH   1   2
BRANCH   1  14
ATOM     14  C   UNL     1      36.987 -24.618   2.447  1.00  0.00     0.163 C 
ATOM     15  O   UNL     1      36.507 -23.763   3.240  1.00  0.00    -0.294 OA
BRANCH  14  16
ATOM     16  C   UNL     1      38.236 -25.343   2.776  1.00  0.00     0.048 C 
ATOM     17  C   UNL     1      39.031 -25.093   3.828  1.00  0.00     0.012 C 
BRANCH  17  18
ATOM     18  C   UNL     1      38.713 -24.176   4.942  1.00  0.00    -0.025 A 
ATOM     19  C   UNL     1      39.029 -22.815   4.823  1.00  0.00     0.012 A 
ATOM     20  C   UNL     1      38.192 -24.658   6.156  1.00  0.00     0.012 A 
ATOM     21  C   UNL     1      38.781 -21.937   5.883  1.00  0.00     0.047 A 
ATOM     22  C   UNL     1      37.943 -23.779   7.214  1.00  0.00     0.047 A 
ATOM     23  C   UNL     1      38.234 -22.414   7.079  1.00  0.00     0.115 A 
BRANCH  23  24
ATOM     24  O   UNL     1      37.990 -21.528   8.125  1.00  0.00    -0.508 OA
ATOM     25  H   UNL     1      38.645 -21.418   8.890  1.00  0.00     0.293 HD
ENDBRANCH  23  24
ENDBRANCH  17  18
ENDBRANCH  14  16
ENDBRANCH   1  14
TORSDOF 8
ENDMDL
