MODEL 1
REMARK VINA RESULT:     8.498      0.000      0.000
REMARK INTER + INTRA:          13.550
REMARK INTER:                  13.962
REMARK INTRA:                  -0.412
REMARK UNBOUND:                -0.412
REMARK SMILES CCCCCCCCCCCCCC
REMARK SMILES IDX 7 1 6 2 5 3 4 4 3 5 2 6 1 7 8 8 9 9 10 10 11 11 12 12 13 13
REMARK SMILES IDX 14 14
REMARK H PARENT
REMARK Flexibility Score: inf
ROOT
ATOM      1  C   UNL     1      16.374  51.107  60.501  1.00  0.00    -0.000 C 
ENDROOT
BRANCH   1   2
ATOM      2  C   UNL     1      15.427  52.154  61.115  1.00  0.00    -0.000 C 
BRANCH   2   3
ATOM      3  C   UNL     1      15.457  53.496  60.364  1.00  0.00    -0.000 C 
BRANCH   3   4
ATOM      4  C   UNL     1      15.141  54.689  61.279  1.00  0.00    -0.000 C 
BRANCH   4   5
ATOM      5  C   UNL     1      16.307  55.036  62.220  1.00  0.00    -0.000 C 
BRANCH   5   6
ATOM      6  C   UNL     1      15.870  55.125  63.691  1.00  0.00    -0.003 C 
ATOM      7  C   UNL     1      14.351  55.125  63.856  1.00  0.00     0.004 C 
ENDBRANCH   5   6
ENDBRANCH   4   5
ENDBRANCH   3   4
ENDBRANCH   2   3
ENDBRANCH   1   2
BRANCH   1   8
ATOM      8  C   UNL     1      15.754  50.252  59.379  1.00  0.00    -0.000 C 
BRANCH   8   9
ATOM      9  C   UNL     1      16.726  49.280  58.681  1.00  0.00    -0.000 C 
BRANCH   9  10
ATOM     10  C   UNL     1      16.125  47.912  58.310  1.00  0.00    -0.000 C 
BRANCH  10  11
ATOM     11  C   UNL     1      16.861  47.233  57.145  1.00  0.00    -0.000 C 
BRANCH  11  12
ATOM     12  C   UNL     1      16.613  45.717  57.151  1.00  0.00    -0.000 C 
BRANCH  12  13
ATOM     13  C   UNL     1      17.436  44.982  56.081  1.00  0.00    -0.003 C 
ATOM     14  C   UNL     1      17.114  43.490  56.008  1.00  0.00     0.004 C 
ENDBRANCH  12  13
ENDBRANCH  11  12
ENDBRANCH  10  11
ENDBRANCH   9  10
ENDBRANCH   8   9
ENDBRANCH   1   8
TORSDOF 11
ENDMDL
