MODEL 1
REMARK VINA RESULT:    -4.371      0.000      0.000
REMARK INTER + INTRA:          -5.005
REMARK INTER:                  -4.755
REMARK INTRA:                  -0.250
REMARK UNBOUND:                -0.250
REMARK SMILES O=C([O-])c1ccccc1O
REMARK SMILES IDX 4 1 9 2 5 3 8 4 6 5 7 6 2 7 1 8 3 9 10 10
REMARK H PARENT 10 11
REMARK Flexibility Score: inf
ROOT
ATOM      1  C   UNL     1     -18.515  46.095  -6.120  1.00  0.00     0.039 A 
ATOM      2  C   UNL     1     -18.248  44.703  -6.137  1.00  0.00     0.124 A 
ATOM      3  C   UNL     1     -19.578  46.592  -6.900  1.00  0.00     0.014 A 
ATOM      4  C   UNL     1     -18.999  43.861  -6.969  1.00  0.00     0.047 A 
ATOM      5  C   UNL     1     -20.330  45.737  -7.707  1.00  0.00     0.001 A 
ATOM      6  C   UNL     1     -20.034  44.375  -7.750  1.00  0.00     0.004 A 
ENDROOT
BRANCH   1   7
ATOM      7  C   UNL     1     -17.696  47.052  -5.345  1.00  0.00     0.075 C 
ATOM      8  O   UNL     1     -16.442  46.944  -5.332  1.00  0.00    -0.545 OA
ATOM      9  O   UNL     1     -18.296  48.037  -4.571  1.00  0.00    -0.545 OA
ENDBRANCH   1   7
BRANCH   2  10
ATOM     10  O   UNL     1     -17.279  44.113  -5.322  1.00  0.00    -0.507 OA
ATOM     11  H   UNL     1     -17.389  43.997  -4.324  1.00  0.00     0.293 HD
ENDBRANCH   2  10
TORSDOF 2
ENDMDL
MODEL 2
REMARK VINA RESULT:    -4.291      2.479      3.286
REMARK INTER + INTRA:          -4.917
REMARK INTER:                  -4.664
REMARK INTRA:                  -0.253
REMARK UNBOUND:                -0.250
REMARK SMILES O=C([O-])c1ccccc1O
REMARK SMILES IDX 4 1 9 2 5 3 8 4 6 5 7 6 2 7 1 8 3 9 10 10
REMARK H PARENT 10 11
REMARK Flexibility Score: inf
ROOT
ATOM      1  C   UNL     1     -19.184  44.506  -7.721  1.00  0.00     0.039 A 
ATOM      2  C   UNL     1     -20.398  44.209  -8.391  1.00  0.00     0.124 A 
ATOM      3  C   UNL     1     -18.035  43.753  -8.029  1.00  0.00     0.014 A 
ATOM      4  C   UNL     1     -20.448  43.139  -9.295  1.00  0.00     0.047 A 
ATOM      5  C   UNL     1     -18.096  42.703  -8.948  1.00  0.00     0.001 A 
ATOM      6  C   UNL     1     -19.304  42.390  -9.572  1.00  0.00     0.004 A 
ENDROOT
BRANCH   1   7
ATOM      7  C   UNL     1     -19.087  45.553  -6.680  1.00  0.00     0.075 C 
ATOM      8  O   UNL     1     -18.527  45.301  -5.581  1.00  0.00    -0.545 OA
ATOM      9  O   UNL     1     -19.668  46.801  -6.871  1.00  0.00    -0.545 OA
ENDBRANCH   1   7
BRANCH   2  10
ATOM     10  O   UNL     1     -21.558  44.967  -8.218  1.00  0.00    -0.507 OA
ATOM     11  H   UNL     1     -22.424  44.584  -7.862  1.00  0.00     0.293 HD
ENDBRANCH   2  10
TORSDOF 2
ENDMDL
MODEL 3
REMARK VINA RESULT:    -4.287      3.505      4.651
REMARK INTER + INTRA:          -4.913
REMARK INTER:                  -4.665
REMARK INTRA:                  -0.248
REMARK UNBOUND:                -0.250
REMARK SMILES O=C([O-])c1ccccc1O
REMARK SMILES IDX 4 1 9 2 5 3 8 4 6 5 7 6 2 7 1 8 3 9 10 10
REMARK H PARENT 10 11
REMARK Flexibility Score: inf
ROOT
ATOM      1  C   UNL     1     -18.641  43.600  -8.386  1.00  0.00     0.039 A 
ATOM      2  C   UNL     1     -19.848  44.162  -7.899  1.00  0.00     0.124 A 
ATOM      3  C   UNL     1     -17.568  43.416  -7.493  1.00  0.00     0.014 A 
ATOM      4  C   UNL     1     -19.931  44.579  -6.564  1.00  0.00     0.047 A 
ATOM      5  C   UNL     1     -17.674  43.817  -6.159  1.00  0.00     0.001 A 
ATOM      6  C   UNL     1     -18.850  44.408  -5.698  1.00  0.00     0.004 A 
ENDROOT
BRANCH   1   7
ATOM      7  C   UNL     1     -18.451  43.235  -9.807  1.00  0.00     0.075 C 
ATOM      8  O   UNL     1     -17.344  43.444 -10.370  1.00  0.00    -0.545 OA
ATOM      9  O   UNL     1     -19.503  42.723 -10.556  1.00  0.00    -0.545 OA
ENDBRANCH   1   7
BRANCH   2  10
ATOM     10  O   UNL     1     -20.992  44.290  -8.691  1.00  0.00    -0.507 OA
ATOM     11  H   UNL     1     -21.621  43.523  -8.884  1.00  0.00     0.293 HD
ENDBRANCH   2  10
TORSDOF 2
ENDMDL
MODEL 4
REMARK VINA RESULT:    -4.264      2.350      3.217
REMARK INTER + INTRA:          -4.888
REMARK INTER:                  -4.640
REMARK INTRA:                  -0.248
REMARK UNBOUND:                -0.250
REMARK SMILES O=C([O-])c1ccccc1O
REMARK SMILES IDX 4 1 9 2 5 3 8 4 6 5 7 6 2 7 1 8 3 9 10 10
REMARK H PARENT 10 11
REMARK Flexibility Score: inf
ROOT
ATOM      1  C   UNL     1     -19.043  44.596  -7.640  1.00  0.00     0.039 A 
ATOM      2  C   UNL     1     -18.055  44.402  -6.641  1.00  0.00     0.124 A 
ATOM      3  C   UNL     1     -19.042  43.755  -8.770  1.00  0.00     0.014 A 
ATOM      4  C   UNL     1     -17.066  43.426  -6.824  1.00  0.00     0.047 A 
ATOM      5  C   UNL     1     -18.061  42.773  -8.926  1.00  0.00     0.001 A 
ATOM      6  C   UNL     1     -17.068  42.616  -7.960  1.00  0.00     0.004 A 
ENDROOT
BRANCH   1   7
ATOM      7  C   UNL     1     -20.052  45.674  -7.560  1.00  0.00     0.075 C 
ATOM      8  O   UNL     1     -21.163  45.544  -8.140  1.00  0.00    -0.545 OA
ATOM      9  O   UNL     1     -19.769  46.867  -6.906  1.00  0.00    -0.545 OA
ENDBRANCH   1   7
BRANCH   2  10
ATOM     10  O   UNL     1     -18.042  45.125  -5.446  1.00  0.00    -0.507 OA
ATOM     11  H   UNL     1     -17.735  46.086  -5.382  1.00  0.00     0.293 HD
ENDBRANCH   2  10
TORSDOF 2
ENDMDL
MODEL 5
REMARK VINA RESULT:    -4.207      3.330      4.244
REMARK INTER + INTRA:          -4.826
REMARK INTER:                  -4.625
REMARK INTRA:                  -0.201
REMARK UNBOUND:                -0.250
REMARK SMILES O=C([O-])c1ccccc1O
REMARK SMILES IDX 4 1 9 2 5 3 8 4 6 5 7 6 2 7 1 8 3 9 10 10
REMARK H PARENT 10 11
REMARK Flexibility Score: inf
ROOT
ATOM      1  C   UNL     1     -19.407  44.060  -8.176  1.00  0.00     0.039 A 
ATOM      2  C   UNL     1     -18.073  43.591  -8.066  1.00  0.00     0.124 A 
ATOM      3  C   UNL     1     -20.055  44.542  -7.023  1.00  0.00     0.014 A 
ATOM      4  C   UNL     1     -17.451  43.558  -6.811  1.00  0.00     0.047 A 
ATOM      5  C   UNL     1     -19.413  44.523  -5.784  1.00  0.00     0.001 A 
ATOM      6  C   UNL     1     -18.116  44.021  -5.676  1.00  0.00     0.004 A 
ENDROOT
BRANCH   1   7
ATOM      7  C   UNL     1     -20.158  44.026  -9.450  1.00  0.00     0.075 C 
ATOM      8  O   UNL     1     -20.388  42.926 -10.019  1.00  0.00    -0.545 OA
ATOM      9  O   UNL     1     -20.560  45.202 -10.070  1.00  0.00    -0.545 OA
ENDBRANCH   1   7
BRANCH   2  10
ATOM     10  O   UNL     1     -17.324  43.186  -9.174  1.00  0.00    -0.507 OA
ATOM     11  H   UNL     1     -17.632  43.312 -10.128  1.00  0.00     0.293 HD
ENDBRANCH   2  10
TORSDOF 2
ENDMDL
MODEL 6
REMARK VINA RESULT:    -4.158      1.748      2.822
REMARK INTER + INTRA:          -4.772
REMARK INTER:                  -4.523
REMARK INTRA:                  -0.249
REMARK UNBOUND:                -0.250
REMARK SMILES O=C([O-])c1ccccc1O
REMARK SMILES IDX 4 1 9 2 5 3 8 4 6 5 7 6 2 7 1 8 3 9 10 10
REMARK H PARENT 10 11
REMARK Flexibility Score: inf
ROOT
ATOM      1  C   UNL     1     -17.119  45.919  -6.400  1.00  0.00     0.039 A 
ATOM      2  C   UNL     1     -18.137  46.787  -6.870  1.00  0.00     0.124 A 
ATOM      3  C   UNL     1     -17.474  44.629  -5.962  1.00  0.00     0.014 A 
ATOM      4  C   UNL     1     -19.475  46.372  -6.831  1.00  0.00     0.047 A 
ATOM      5  C   UNL     1     -18.810  44.223  -5.950  1.00  0.00     0.001 A 
ATOM      6  C   UNL     1     -19.810  45.097  -6.373  1.00  0.00     0.004 A 
ENDROOT
BRANCH   1   7
ATOM      7  C   UNL     1     -15.700  46.330  -6.317  1.00  0.00     0.075 C 
ATOM      8  O   UNL     1     -15.151  46.904  -7.294  1.00  0.00    -0.545 OA
ATOM      9  O   UNL     1     -14.938  46.032  -5.194  1.00  0.00    -0.545 OA
ENDBRANCH   1   7
BRANCH   2  10
ATOM     10  O   UNL     1     -17.863  48.045  -7.413  1.00  0.00    -0.507 OA
ATOM     11  H   UNL     1     -18.051  48.286  -8.376  1.00  0.00     0.293 HD
ENDBRANCH   2  10
TORSDOF 2
ENDMDL
MODEL 7
REMARK VINA RESULT:    -4.137      2.345      3.152
REMARK INTER + INTRA:          -4.749
REMARK INTER:                  -4.497
REMARK INTRA:                  -0.253
REMARK UNBOUND:                -0.250
REMARK SMILES O=C([O-])c1ccccc1O
REMARK SMILES IDX 4 1 9 2 5 3 8 4 6 5 7 6 2 7 1 8 3 9 10 10
REMARK H PARENT 10 11
REMARK Flexibility Score: inf
ROOT
ATOM      1  C   UNL     1     -17.557  45.117  -7.129  1.00  0.00     0.039 A 
ATOM      2  C   UNL     1     -18.749  45.615  -7.714  1.00  0.00     0.124 A 
ATOM      3  C   UNL     1     -17.652  44.282  -5.999  1.00  0.00     0.014 A 
ATOM      4  C   UNL     1     -19.986  45.322  -7.125  1.00  0.00     0.047 A 
ATOM      5  C   UNL     1     -18.894  43.981  -5.437  1.00  0.00     0.001 A 
ATOM      6  C   UNL     1     -20.059  44.510  -5.992  1.00  0.00     0.004 A 
ENDROOT
BRANCH   1   7
ATOM      7  C   UNL     1     -16.215  45.472  -7.638  1.00  0.00     0.075 C 
ATOM      8  O   UNL     1     -15.318  45.857  -6.840  1.00  0.00    -0.545 OA
ATOM      9  O   UNL     1     -15.942  45.453  -9.000  1.00  0.00    -0.545 OA
ENDBRANCH   1   7
BRANCH   2  10
ATOM     10  O   UNL     1     -18.753  46.369  -8.890  1.00  0.00    -0.507 OA
ATOM     11  H   UNL     1     -18.056  47.069  -9.102  1.00  0.00     0.293 HD
ENDBRANCH   2  10
TORSDOF 2
ENDMDL
MODEL 8
REMARK VINA RESULT:    -4.101      2.906      4.413
REMARK INTER + INTRA:          -4.711
REMARK INTER:                  -4.459
REMARK INTRA:                  -0.252
REMARK UNBOUND:                -0.250
REMARK SMILES O=C([O-])c1ccccc1O
REMARK SMILES IDX 4 1 9 2 5 3 8 4 6 5 7 6 2 7 1 8 3 9 10 10
REMARK H PARENT 10 11
REMARK Flexibility Score: inf
ROOT
ATOM      1  C   UNL     1     -19.110  44.346  -7.838  1.00  0.00     0.039 A 
ATOM      2  C   UNL     1     -19.846  45.557  -7.777  1.00  0.00     0.124 A 
ATOM      3  C   UNL     1     -18.105  44.112  -6.880  1.00  0.00     0.014 A 
ATOM      4  C   UNL     1     -19.522  46.518  -6.810  1.00  0.00     0.047 A 
ATOM      5  C   UNL     1     -17.809  45.071  -5.909  1.00  0.00     0.001 A 
ATOM      6  C   UNL     1     -18.509  46.277  -5.881  1.00  0.00     0.004 A 
ENDROOT
BRANCH   1   7
ATOM      7  C   UNL     1     -19.330  43.336  -8.895  1.00  0.00     0.075 C 
ATOM      8  O   UNL     1     -18.347  42.788  -9.461  1.00  0.00    -0.545 OA
ATOM      9  O   UNL     1     -20.614  43.025  -9.326  1.00  0.00    -0.545 OA
ENDBRANCH   1   7
BRANCH   2  10
ATOM     10  O   UNL     1     -20.922  45.827  -8.626  1.00  0.00    -0.507 OA
ATOM     11  H   UNL     1     -21.361  46.735  -8.693  1.00  0.00     0.293 HD
ENDBRANCH   2  10
TORSDOF 2
ENDMDL
MODEL 9
REMARK VINA RESULT:    -4.071      2.393      3.968
REMARK INTER + INTRA:          -4.678
REMARK INTER:                  -4.433
REMARK INTRA:                  -0.245
REMARK UNBOUND:                -0.250
REMARK SMILES O=C([O-])c1ccccc1O
REMARK SMILES IDX 4 1 9 2 5 3 8 4 6 5 7 6 2 7 1 8 3 9 10 10
REMARK H PARENT 10 11
REMARK Flexibility Score: inf
ROOT
ATOM      1  C   UNL     1     -19.040  44.312  -7.829  1.00  0.00     0.039 A 
ATOM      2  C   UNL     1     -18.081  44.124  -6.802  1.00  0.00     0.124 A 
ATOM      3  C   UNL     1     -19.754  45.525  -7.879  1.00  0.00     0.014 A 
ATOM      4  C   UNL     1     -17.906  45.114  -5.826  1.00  0.00     0.047 A 
ATOM      5  C   UNL     1     -19.553  46.510  -6.910  1.00  0.00     0.001 A 
ATOM      6  C   UNL     1     -18.639  46.300  -5.878  1.00  0.00     0.004 A 
ENDROOT
BRANCH   1   7
ATOM      7  C   UNL     1     -19.348  43.268  -8.830  1.00  0.00     0.075 C 
ATOM      8  O   UNL     1     -20.527  43.119  -9.246  1.00  0.00    -0.545 OA
ATOM      9  O   UNL     1     -18.361  42.396  -9.274  1.00  0.00    -0.545 OA
ENDBRANCH   1   7
BRANCH   2  10
ATOM     10  O   UNL     1     -17.261  42.995  -6.736  1.00  0.00    -0.507 OA
ATOM     11  H   UNL     1     -17.522  42.147  -6.253  1.00  0.00     0.293 HD
ENDBRANCH   2  10
TORSDOF 2
ENDMDL
