MODEL 1
REMARK VINA RESULT:    -4.108      0.000      0.000
REMARK INTER + INTRA:          -4.440
REMARK INTER:                  -4.348
REMARK INTRA:                  -0.091
REMARK UNBOUND:                -0.091
REMARK SMILES C=C(C)[C@@H]1CC=C(C)C(=O)C1
REMARK SMILES IDX 8 1 7 2 6 3 5 4 4 5 11 6 9 7 10 8 2 9 1 10 3 11
REMARK H PARENT
REMARK Flexibility Score: inf
ROOT
ATOM      1  C   UNL     1      11.785  84.125  18.340  1.00  0.00     0.048 C 
ATOM      2  C   UNL     1      11.683  82.629  18.443  1.00  0.00    -0.012 C 
ATOM      3  C   UNL     1      11.448  81.896  17.342  1.00  0.00    -0.019 C 
ATOM      4  C   UNL     1      11.355  80.394  17.386  1.00  0.00     0.036 C 
ATOM      5  C   UNL     1      10.764  79.915  18.725  1.00  0.00     0.025 C 
ATOM      6  C   UNL     1      11.576  80.483  19.903  1.00  0.00     0.089 C 
ATOM      7  C   UNL     1      11.717  81.976  19.776  1.00  0.00     0.158 C 
ATOM      8  O   UNL     1      11.901  82.665  20.815  1.00  0.00    -0.295 OA
ENDROOT
BRANCH   5   9
ATOM      9  C   UNL     1      10.683  78.396  18.787  1.00  0.00    -0.077 C 
ATOM     10  C   UNL     1       9.811  77.735  18.007  1.00  0.00     0.008 C 
ATOM     11  C   UNL     1      11.566  77.598  19.715  1.00  0.00     0.039 C 
ENDBRANCH   5   9
TORSDOF 1
ENDMDL
MODEL 2
REMARK VINA RESULT:    -3.172     16.494     17.688
REMARK INTER + INTRA:          -3.448
REMARK INTER:                  -3.355
REMARK INTRA:                  -0.093
REMARK UNBOUND:                -0.091
REMARK SMILES C=C(C)[C@@H]1CC=C(C)C(=O)C1
REMARK SMILES IDX 8 1 7 2 6 3 5 4 4 5 11 6 9 7 10 8 2 9 1 10 3 11
REMARK H PARENT
REMARK Flexibility Score: inf
ROOT
ATOM      1  C   UNL     1       5.856  63.875  26.145  1.00  0.00     0.048 C 
ATOM      2  C   UNL     1       7.038  64.246  25.294  1.00  0.00    -0.012 C 
ATOM      3  C   UNL     1       6.871  64.477  23.980  1.00  0.00    -0.019 C 
ATOM      4  C   UNL     1       8.018  64.869  23.087  1.00  0.00     0.036 C 
ATOM      5  C   UNL     1       9.334  64.222  23.556  1.00  0.00     0.025 C 
ATOM      6  C   UNL     1       9.602  64.565  25.033  1.00  0.00     0.089 C 
ATOM      7  C   UNL     1       8.403  64.235  25.879  1.00  0.00     0.158 C 
ATOM      8  O   UNL     1       8.565  63.984  27.103  1.00  0.00    -0.295 OA
ENDROOT
BRANCH   5   9
ATOM      9  C   UNL     1      10.503  64.628  22.669  1.00  0.00    -0.077 C 
ATOM     10  C   UNL     1      10.447  64.417  21.344  1.00  0.00     0.008 C 
ATOM     11  C   UNL     1      11.742  65.268  23.246  1.00  0.00     0.039 C 
ENDBRANCH   5   9
TORSDOF 1
ENDMDL
MODEL 3
REMARK VINA RESULT:    -3.000     16.388     17.280
REMARK INTER + INTRA:          -3.267
REMARK INTER:                  -3.173
REMARK INTRA:                  -0.094
REMARK UNBOUND:                -0.091
REMARK SMILES C=C(C)[C@@H]1CC=C(C)C(=O)C1
REMARK SMILES IDX 8 1 7 2 6 3 5 4 4 5 11 6 9 7 10 8 2 9 1 10 3 11
REMARK H PARENT
REMARK Flexibility Score: inf
ROOT
ATOM      1  C   UNL     1      11.340  64.602  20.836  1.00  0.00     0.048 C 
ATOM      2  C   UNL     1      10.403  64.406  21.994  1.00  0.00    -0.012 C 
ATOM      3  C   UNL     1       9.114  64.100  21.768  1.00  0.00    -0.019 C 
ATOM      4  C   UNL     1       8.137  63.875  22.892  1.00  0.00     0.036 C 
ATOM      5  C   UNL     1       8.479  64.757  24.108  1.00  0.00     0.025 C 
ATOM      6  C   UNL     1       9.936  64.522  24.546  1.00  0.00     0.089 C 
ATOM      7  C   UNL     1      10.871  64.674  23.377  1.00  0.00     0.158 C 
ATOM      8  O   UNL     1      12.071  64.997  23.589  1.00  0.00    -0.295 OA
ENDROOT
BRANCH   5   9
ATOM      9  C   UNL     1       7.508  64.523  25.256  1.00  0.00    -0.077 C 
ATOM     10  C   UNL     1       6.184  64.582  25.041  1.00  0.00     0.008 C 
ATOM     11  C   UNL     1       7.998  64.224  26.652  1.00  0.00     0.039 C 
ENDBRANCH   5   9
TORSDOF 1
ENDMDL
MODEL 4
REMARK VINA RESULT:    -2.929     16.599     17.758
REMARK INTER + INTRA:          -3.192
REMARK INTER:                  -3.094
REMARK INTRA:                  -0.097
REMARK UNBOUND:                -0.091
REMARK SMILES C=C(C)[C@@H]1CC=C(C)C(=O)C1
REMARK SMILES IDX 8 1 7 2 6 3 5 4 4 5 11 6 9 7 10 8 2 9 1 10 3 11
REMARK H PARENT
REMARK Flexibility Score: inf
ROOT
ATOM      1  C   UNL     1      11.821  64.726  22.631  1.00  0.00     0.048 C 
ATOM      2  C   UNL     1      10.649  64.699  23.572  1.00  0.00    -0.012 C 
ATOM      3  C   UNL     1      10.849  64.485  24.884  1.00  0.00    -0.019 C 
ATOM      4  C   UNL     1       9.714  64.466  25.872  1.00  0.00     0.036 C 
ATOM      5  C   UNL     1       8.427  63.917  25.228  1.00  0.00     0.025 C 
ATOM      6  C   UNL     1       8.081  64.717  23.958  1.00  0.00     0.089 C 
ATOM      7  C   UNL     1       9.268  64.783  23.035  1.00  0.00     0.158 C 
ATOM      8  O   UNL     1       9.077  64.947  21.800  1.00  0.00    -0.295 OA
ENDROOT
BRANCH   5   9
ATOM      9  C   UNL     1       7.268  63.912  26.215  1.00  0.00    -0.077 C 
ATOM     10  C   UNL     1       7.508  63.875  27.535  1.00  0.00     0.008 C 
ATOM     11  C   UNL     1       5.834  63.945  25.744  1.00  0.00     0.039 C 
ENDBRANCH   5   9
TORSDOF 1
ENDMDL
MODEL 5
REMARK VINA RESULT:    -2.756     16.330     17.082
REMARK INTER + INTRA:          -3.008
REMARK INTER:                  -2.909
REMARK INTRA:                  -0.099
REMARK UNBOUND:                -0.091
REMARK SMILES C=C(C)[C@@H]1CC=C(C)C(=O)C1
REMARK SMILES IDX 8 1 7 2 6 3 5 4 4 5 11 6 9 7 10 8 2 9 1 10 3 11
REMARK H PARENT
REMARK Flexibility Score: inf
ROOT
ATOM      1  C   UNL     1      10.563  63.919  20.552  1.00  0.00     0.048 C 
ATOM      2  C   UNL     1      10.719  64.457  21.947  1.00  0.00    -0.012 C 
ATOM      3  C   UNL     1      11.918  64.899  22.364  1.00  0.00    -0.019 C 
ATOM      4  C   UNL     1      12.125  65.463  23.745  1.00  0.00     0.036 C 
ATOM      5  C   UNL     1      11.199  64.779  24.768  1.00  0.00     0.025 C 
ATOM      6  C   UNL     1       9.732  64.879  24.311  1.00  0.00     0.089 C 
ATOM      7  C   UNL     1       9.582  64.382  22.899  1.00  0.00     0.158 C 
ATOM      8  O   UNL     1       8.467  63.935  22.520  1.00  0.00    -0.295 OA
ENDROOT
BRANCH   5   9
ATOM      9  C   UNL     1      11.387  65.357  26.164  1.00  0.00    -0.077 C 
ATOM     10  C   UNL     1      11.990  66.546  26.325  1.00  0.00     0.008 C 
ATOM     11  C   UNL     1      10.912  64.619  27.391  1.00  0.00     0.039 C 
ENDBRANCH   5   9
TORSDOF 1
ENDMDL
MODEL 6
REMARK VINA RESULT:    -2.718     16.813     17.770
REMARK INTER + INTRA:          -2.969
REMARK INTER:                  -2.870
REMARK INTRA:                  -0.098
REMARK UNBOUND:                -0.091
REMARK SMILES C=C(C)[C@@H]1CC=C(C)C(=O)C1
REMARK SMILES IDX 8 1 7 2 6 3 5 4 4 5 11 6 9 7 10 8 2 9 1 10 3 11
REMARK H PARENT
REMARK Flexibility Score: inf
ROOT
ATOM      1  C   UNL     1       5.624  64.257  25.094  1.00  0.00     0.048 C 
ATOM      2  C   UNL     1       7.125  64.302  25.140  1.00  0.00    -0.012 C 
ATOM      3  C   UNL     1       7.775  63.875  26.237  1.00  0.00    -0.019 C 
ATOM      4  C   UNL     1       9.277  63.882  26.328  1.00  0.00     0.036 C 
ATOM      5  C   UNL     1       9.876  65.056  25.532  1.00  0.00     0.025 C 
ATOM      6  C   UNL     1       9.381  65.021  24.074  1.00  0.00     0.089 C 
ATOM      7  C   UNL     1       7.880  64.932  24.027  1.00  0.00     0.158 C 
ATOM      8  O   UNL     1       7.270  65.365  23.013  1.00  0.00    -0.295 OA
ENDROOT
BRANCH   5   9
ATOM      9  C   UNL     1      11.397  65.060  25.603  1.00  0.00    -0.077 C 
ATOM     10  C   UNL     1      12.122  64.704  24.530  1.00  0.00     0.008 C 
ATOM     11  C   UNL     1      12.124  65.456  26.864  1.00  0.00     0.039 C 
ENDBRANCH   5   9
TORSDOF 1
ENDMDL
MODEL 7
REMARK VINA RESULT:    -2.712     16.936     18.319
REMARK INTER + INTRA:          -2.962
REMARK INTER:                  -2.868
REMARK INTRA:                  -0.095
REMARK UNBOUND:                -0.091
REMARK SMILES C=C(C)[C@@H]1CC=C(C)C(=O)C1
REMARK SMILES IDX 8 1 7 2 6 3 5 4 4 5 11 6 9 7 10 8 2 9 1 10 3 11
REMARK H PARENT
REMARK Flexibility Score: inf
ROOT
ATOM      1  C   UNL     1       6.023  63.875  27.690  1.00  0.00     0.048 C 
ATOM      2  C   UNL     1       7.031  63.890  26.575  1.00  0.00    -0.012 C 
ATOM      3  C   UNL     1       8.345  63.881  26.860  1.00  0.00    -0.019 C 
ATOM      4  C   UNL     1       9.396  63.877  25.782  1.00  0.00     0.036 C 
ATOM      5  C   UNL     1       8.919  64.654  24.540  1.00  0.00     0.025 C 
ATOM      6  C   UNL     1       7.573  64.096  24.044  1.00  0.00     0.089 C 
ATOM      7  C   UNL     1       6.577  64.040  25.170  1.00  0.00     0.158 C 
ATOM      8  O   UNL     1       5.345  64.084  24.903  1.00  0.00    -0.295 OA
ENDROOT
BRANCH   5   9
ATOM      9  C   UNL     1       9.968  64.639  23.437  1.00  0.00    -0.077 C 
ATOM     10  C   UNL     1      11.255  64.887  23.728  1.00  0.00     0.008 C 
ATOM     11  C   UNL     1       9.597  64.351  22.003  1.00  0.00     0.039 C 
ENDBRANCH   5   9
TORSDOF 1
ENDMDL
