MODEL 1
REMARK VINA RESULT:    -4.675      0.000      0.000
REMARK INTER + INTRA:         -10.515
REMARK INTER:                  -8.774
REMARK INTRA:                  -1.741
REMARK UNBOUND:                -1.741
REMARK SMILES O=C([O-])CCCCCCCCCCCCCCC(=O)[O-]
REMARK SMILES IDX 10 1 9 2 8 3 7 4 6 5 5 6 4 7 2 8 1 9 3 10 11 11 12 12 13 13
REMARK SMILES IDX 14 14 15 15 16 16 17 17 18 18 19 19 20 20
REMARK H PARENT
REMARK Flexibility Score: inf
ROOT
ATOM      1  C   UNL     1      14.350  52.662 157.380  1.00  0.00     0.000 C 
ENDROOT
BRANCH   1   2
ATOM      2  C   UNL     1      13.826  54.019 156.866  1.00  0.00     0.000 C 
BRANCH   2   3
ATOM      3  C   UNL     1      14.905  54.969 156.313  1.00  0.00     0.000 C 
BRANCH   3   4
ATOM      4  C   UNL     1      15.902  55.495 157.363  1.00  0.00     0.000 C 
BRANCH   4   5
ATOM      5  C   UNL     1      16.064  57.030 157.350  1.00  0.00     0.000 C 
BRANCH   5   6
ATOM      6  C   UNL     1      17.227  57.507 158.238  1.00  0.00     0.006 C 
BRANCH   6   7
ATOM      7  C   UNL     1      16.922  58.843 158.927  1.00  0.00     0.053 C 
BRANCH   7   8
ATOM      8  C   UNL     1      18.015  59.249 159.868  1.00  0.00     0.041 C 
ATOM      9  O   UNL     1      18.206  58.604 160.933  1.00  0.00    -0.550 OA
ATOM     10  O   UNL     1      18.845  60.317 159.552  1.00  0.00    -0.550 OA
ENDBRANCH   7   8
ENDBRANCH   6   7
ENDBRANCH   5   6
ENDBRANCH   4   5
ENDBRANCH   3   4
ENDBRANCH   2   3
ENDBRANCH   1   2
BRANCH   1  11
ATOM     11  C   UNL     1      14.036  52.357 158.856  1.00  0.00     0.000 C 
BRANCH  11  12
ATOM     12  C   UNL     1      15.260  51.856 159.637  1.00  0.00     0.000 C 
BRANCH  12  13
ATOM     13  C   UNL     1      16.459  51.646 158.706  1.00  0.00     0.000 C 
BRANCH  13  14
ATOM     14  C   UNL     1      17.564  52.673 158.992  1.00  0.00     0.000 C 
BRANCH  14  15
ATOM     15  C   UNL     1      17.365  53.401 160.330  1.00  0.00     0.000 C 
BRANCH  15  16
ATOM     16  C   UNL     1      18.116  54.743 160.393  1.00  0.00     0.006 C 
BRANCH  16  17
ATOM     17  C   UNL     1      19.496  54.665 159.727  1.00  0.00     0.053 C 
BRANCH  17  18
ATOM     18  C   UNL     1      20.533  54.118 160.660  1.00  0.00     0.041 C 
ATOM     19  O   UNL     1      20.406  54.266 161.905  1.00  0.00    -0.550 OA
ATOM     20  O   UNL     1      21.656  53.477 160.154  1.00  0.00    -0.550 OA
ENDBRANCH  17  18
ENDBRANCH  16  17
ENDBRANCH  15  16
ENDBRANCH  14  15
ENDBRANCH  13  14
ENDBRANCH  12  13
ENDBRANCH  11  12
ENDBRANCH   1  11
TORSDOF 15
ENDMDL
MODEL 2
REMARK VINA RESULT:    -4.653      0.991      4.640
REMARK INTER + INTRA:         -10.475
REMARK INTER:                  -8.193
REMARK INTRA:                  -2.282
REMARK UNBOUND:                -1.741
REMARK SMILES O=C([O-])CCCCCCCCCCCCCCC(=O)[O-]
REMARK SMILES IDX 10 1 9 2 8 3 7 4 6 5 5 6 4 7 2 8 1 9 3 10 11 11 12 12 13 13
REMARK SMILES IDX 14 14 15 15 16 16 17 17 18 18 19 19 20 20
REMARK H PARENT
REMARK Flexibility Score: inf
ROOT
ATOM      1  C   UNL     1      13.955  53.000 158.124  1.00  0.00     0.000 C 
ENDROOT
BRANCH   1   2
ATOM      2  C   UNL     1      14.946  51.997 158.750  1.00  0.00     0.000 C 
BRANCH   2   3
ATOM      3  C   UNL     1      16.275  51.831 157.990  1.00  0.00     0.000 C 
BRANCH   3   4
ATOM      4  C   UNL     1      17.490  52.502 158.657  1.00  0.00     0.000 C 
BRANCH   4   5
ATOM      5  C   UNL     1      17.162  53.184 160.002  1.00  0.00     0.000 C 
BRANCH   5   6
ATOM      6  C   UNL     1      18.193  54.261 160.383  1.00  0.00     0.006 C 
BRANCH   6   7
ATOM      7  C   UNL     1      19.383  54.294 159.416  1.00  0.00     0.053 C 
BRANCH   7   8
ATOM      8  C   UNL     1      20.691  54.162 160.134  1.00  0.00     0.041 C 
ATOM      9  O   UNL     1      21.172  53.023 160.369  1.00  0.00    -0.550 OA
ATOM     10  O   UNL     1      21.395  55.298 160.514  1.00  0.00    -0.550 OA
ENDBRANCH   7   8
ENDBRANCH   6   7
ENDBRANCH   5   6
ENDBRANCH   4   5
ENDBRANCH   3   4
ENDBRANCH   2   3
ENDBRANCH   1   2
BRANCH   1  11
ATOM     11  C   UNL     1      13.793  52.894 156.598  1.00  0.00     0.000 C 
BRANCH  11  12
ATOM     12  C   UNL     1      14.038  54.228 155.876  1.00  0.00     0.000 C 
BRANCH  12  13
ATOM     13  C   UNL     1      14.964  55.135 156.694  1.00  0.00     0.000 C 
BRANCH  13  14
ATOM     14  C   UNL     1      16.403  55.075 156.163  1.00  0.00     0.000 C 
BRANCH  14  15
ATOM     15  C   UNL     1      17.347  56.039 156.900  1.00  0.00     0.000 C 
BRANCH  15  16
ATOM     16  C   UNL     1      16.667  56.740 158.089  1.00  0.00     0.006 C 
BRANCH  16  17
ATOM     17  C   UNL     1      16.958  58.246 158.116  1.00  0.00     0.053 C 
BRANCH  17  18
ATOM     18  C   UNL     1      17.694  58.648 159.358  1.00  0.00     0.041 C 
ATOM     19  O   UNL     1      18.355  57.794 160.007  1.00  0.00    -0.550 OA
ATOM     20  O   UNL     1      17.622  59.957 159.817  1.00  0.00    -0.550 OA
ENDBRANCH  17  18
ENDBRANCH  16  17
ENDBRANCH  15  16
ENDBRANCH  14  15
ENDBRANCH  13  14
ENDBRANCH  12  13
ENDBRANCH  11  12
ENDBRANCH   1  11
TORSDOF 15
ENDMDL
MODEL 3
REMARK VINA RESULT:    -4.643      1.075      4.923
REMARK INTER + INTRA:         -10.456
REMARK INTER:                  -8.762
REMARK INTRA:                  -1.693
REMARK UNBOUND:                -1.741
REMARK SMILES O=C([O-])CCCCCCCCCCCCCCC(=O)[O-]
REMARK SMILES IDX 10 1 9 2 8 3 7 4 6 5 5 6 4 7 2 8 1 9 3 10 11 11 12 12 13 13
REMARK SMILES IDX 14 14 15 15 16 16 17 17 18 18 19 19 20 20
REMARK H PARENT
REMARK Flexibility Score: inf
ROOT
ATOM      1  C   UNL     1      15.501  51.911 157.487  1.00  0.00     0.000 C 
ENDROOT
BRANCH   1   2
ATOM      2  C   UNL     1      16.616  51.652 158.523  1.00  0.00     0.000 C 
BRANCH   2   3
ATOM      3  C   UNL     1      16.558  52.539 159.781  1.00  0.00     0.000 C 
BRANCH   3   4
ATOM      4  C   UNL     1      17.713  53.550 159.913  1.00  0.00     0.000 C 
BRANCH   4   5
ATOM      5  C   UNL     1      18.646  53.591 158.684  1.00  0.00     0.000 C 
BRANCH   5   6
ATOM      6  C   UNL     1      19.999  54.255 158.994  1.00  0.00     0.006 C 
BRANCH   6   7
ATOM      7  C   UNL     1      20.745  53.550 160.134  1.00  0.00     0.053 C 
BRANCH   7   8
ATOM      8  C   UNL     1      21.644  54.490 160.878  1.00  0.00     0.041 C 
ATOM      9  O   UNL     1      22.789  54.759 160.429  1.00  0.00    -0.550 OA
ATOM     10  O   UNL     1      21.205  55.093 162.050  1.00  0.00    -0.550 OA
ENDBRANCH   7   8
ENDBRANCH   6   7
ENDBRANCH   5   6
ENDBRANCH   4   5
ENDBRANCH   3   4
ENDBRANCH   2   3
ENDBRANCH   1   2
BRANCH   1  11
ATOM     11  C   UNL     1      14.277  52.676 158.022  1.00  0.00     0.000 C 
BRANCH  11  12
ATOM     12  C   UNL     1      13.690  53.657 156.996  1.00  0.00     0.000 C 
BRANCH  12  13
ATOM     13  C   UNL     1      14.774  54.168 156.040  1.00  0.00     0.000 C 
BRANCH  13  14
ATOM     14  C   UNL     1      15.074  55.653 156.291  1.00  0.00     0.000 C 
BRANCH  14  15
ATOM     15  C   UNL     1      16.221  55.866 157.291  1.00  0.00     0.000 C 
BRANCH  15  16
ATOM     16  C   UNL     1      16.419  57.347 157.659  1.00  0.00     0.006 C 
BRANCH  16  17
ATOM     17  C   UNL     1      17.367  57.524 158.853  1.00  0.00     0.053 C 
BRANCH  17  18
ATOM     18  C   UNL     1      17.629  58.971 159.144  1.00  0.00     0.041 C 
ATOM     19  O   UNL     1      18.762  59.468 158.911  1.00  0.00    -0.550 OA
ATOM     20  O   UNL     1      16.633  59.759 159.704  1.00  0.00    -0.550 OA
ENDBRANCH  17  18
ENDBRANCH  16  17
ENDBRANCH  15  16
ENDBRANCH  14  15
ENDBRANCH  13  14
ENDBRANCH  12  13
ENDBRANCH  11  12
ENDBRANCH   1  11
TORSDOF 15
ENDMDL
MODEL 4
REMARK VINA RESULT:    -4.639      1.539      2.204
REMARK INTER + INTRA:         -10.448
REMARK INTER:                  -8.692
REMARK INTRA:                  -1.756
REMARK UNBOUND:                -1.741
REMARK SMILES O=C([O-])CCCCCCCCCCCCCCC(=O)[O-]
REMARK SMILES IDX 10 1 9 2 8 3 7 4 6 5 5 6 4 7 2 8 1 9 3 10 11 11 12 12 13 13
REMARK SMILES IDX 14 14 15 15 16 16 17 17 18 18 19 19 20 20
REMARK H PARENT
REMARK Flexibility Score: inf
ROOT
ATOM      1  C   UNL     1      14.198  52.635 158.819  1.00  0.00     0.000 C 
ENDROOT
BRANCH   1   2
ATOM      2  C   UNL     1      14.232  52.667 157.277  1.00  0.00     0.000 C 
BRANCH   2   3
ATOM      3  C   UNL     1      13.298  53.703 156.624  1.00  0.00     0.000 C 
BRANCH   3   4
ATOM      4  C   UNL     1      14.015  54.896 155.965  1.00  0.00     0.000 C 
BRANCH   4   5
ATOM      5  C   UNL     1      15.553  54.765 155.951  1.00  0.00     0.000 C 
BRANCH   5   6
ATOM      6  C   UNL     1      16.258  56.065 156.378  1.00  0.00     0.006 C 
BRANCH   6   7
ATOM      7  C   UNL     1      16.459  56.145 157.897  1.00  0.00     0.053 C 
BRANCH   7   8
ATOM      8  C   UNL     1      17.285  57.333 158.289  1.00  0.00     0.041 C 
ATOM      9  O   UNL     1      18.534  57.227 158.399  1.00  0.00    -0.550 OA
ATOM     10  O   UNL     1      16.677  58.564 158.500  1.00  0.00    -0.550 OA
ENDBRANCH   7   8
ENDBRANCH   6   7
ENDBRANCH   5   6
ENDBRANCH   4   5
ENDBRANCH   3   4
ENDBRANCH   2   3
ENDBRANCH   1   2
BRANCH   1  11
ATOM     11  C   UNL     1      15.021  51.508 159.467  1.00  0.00     0.000 C 
BRANCH  11  12
ATOM     12  C   UNL     1      16.414  51.347 158.840  1.00  0.00     0.000 C 
BRANCH  12  13
ATOM     13  C   UNL     1      17.328  52.517 159.221  1.00  0.00     0.000 C 
BRANCH  13  14
ATOM     14  C   UNL     1      18.100  53.034 157.999  1.00  0.00     0.000 C 
BRANCH  14  15
ATOM     15  C   UNL     1      19.390  53.774 158.383  1.00  0.00     0.000 C 
BRANCH  15  16
ATOM     16  C   UNL     1      19.633  53.793 159.903  1.00  0.00     0.006 C 
BRANCH  16  17
ATOM     17  C   UNL     1      21.126  53.856 160.250  1.00  0.00     0.053 C 
BRANCH  17  18
ATOM     18  C   UNL     1      21.494  55.161 160.886  1.00  0.00     0.041 C 
ATOM     19  O   UNL     1      21.983  55.184 162.047  1.00  0.00    -0.550 OA
ATOM     20  O   UNL     1      21.266  56.354 160.212  1.00  0.00    -0.550 OA
ENDBRANCH  17  18
ENDBRANCH  16  17
ENDBRANCH  15  16
ENDBRANCH  14  15
ENDBRANCH  13  14
ENDBRANCH  12  13
ENDBRANCH  11  12
ENDBRANCH   1  11
TORSDOF 15
ENDMDL
MODEL 5
REMARK VINA RESULT:    -4.622      1.742      4.339
REMARK INTER + INTRA:         -10.415
REMARK INTER:                  -8.460
REMARK INTRA:                  -1.955
REMARK UNBOUND:                -1.741
REMARK SMILES O=C([O-])CCCCCCCCCCCCCCC(=O)[O-]
REMARK SMILES IDX 10 1 9 2 8 3 7 4 6 5 5 6 4 7 2 8 1 9 3 10 11 11 12 12 13 13
REMARK SMILES IDX 14 14 15 15 16 16 17 17 18 18 19 19 20 20
REMARK H PARENT
REMARK Flexibility Score: inf
ROOT
ATOM      1  C   UNL     1      16.301  51.736 158.624  1.00  0.00     0.000 C 
ENDROOT
BRANCH   1   2
ATOM      2  C   UNL     1      17.402  52.673 159.163  1.00  0.00     0.000 C 
BRANCH   2   3
ATOM      3  C   UNL     1      18.419  53.158 158.114  1.00  0.00     0.000 C 
BRANCH   3   4
ATOM      4  C   UNL     1      19.439  54.191 158.630  1.00  0.00     0.000 C 
BRANCH   4   5
ATOM      5  C   UNL     1      20.197  53.736 159.896  1.00  0.00     0.000 C 
BRANCH   5   6
ATOM      6  C   UNL     1      20.093  54.758 161.043  1.00  0.00     0.006 C 
BRANCH   6   7
ATOM      7  C   UNL     1      18.661  55.274 161.234  1.00  0.00     0.053 C 
BRANCH   7   8
ATOM      8  C   UNL     1      18.591  56.768 161.151  1.00  0.00     0.041 C 
ATOM      9  O   UNL     1      19.411  57.402 160.436  1.00  0.00    -0.550 OA
ATOM     10  O   UNL     1      17.599  57.458 161.836  1.00  0.00    -0.550 OA
ENDBRANCH   7   8
ENDBRANCH   6   7
ENDBRANCH   5   6
ENDBRANCH   4   5
ENDBRANCH   3   4
ENDBRANCH   2   3
ENDBRANCH   1   2
BRANCH   1  11
ATOM     11  C   UNL     1      14.928  51.881 159.304  1.00  0.00     0.000 C 
BRANCH  11  12
ATOM     12  C   UNL     1      13.931  52.700 158.471  1.00  0.00     0.000 C 
BRANCH  12  13
ATOM     13  C   UNL     1      14.319  52.696 156.988  1.00  0.00     0.000 C 
BRANCH  13  14
ATOM     14  C   UNL     1      14.222  54.106 156.388  1.00  0.00     0.000 C 
BRANCH  14  15
ATOM     15  C   UNL     1      15.595  54.778 156.230  1.00  0.00     0.000 C 
BRANCH  15  16
ATOM     16  C   UNL     1      15.957  55.676 157.427  1.00  0.00     0.006 C 
BRANCH  16  17
ATOM     17  C   UNL     1      15.964  57.164 157.052  1.00  0.00     0.053 C 
BRANCH  17  18
ATOM     18  C   UNL     1      17.081  57.901 157.727  1.00  0.00     0.041 C 
ATOM     19  O   UNL     1      16.837  58.679 158.687  1.00  0.00    -0.550 OA
ATOM     20  O   UNL     1      18.385  57.755 157.273  1.00  0.00    -0.550 OA
ENDBRANCH  17  18
ENDBRANCH  16  17
ENDBRANCH  15  16
ENDBRANCH  14  15
ENDBRANCH  13  14
ENDBRANCH  12  13
ENDBRANCH  11  12
ENDBRANCH   1  11
TORSDOF 15
ENDMDL
MODEL 6
REMARK VINA RESULT:    -4.589      1.604      5.015
REMARK INTER + INTRA:         -10.353
REMARK INTER:                  -8.622
REMARK INTRA:                  -1.731
REMARK UNBOUND:                -1.741
REMARK SMILES O=C([O-])CCCCCCCCCCCCCCC(=O)[O-]
REMARK SMILES IDX 10 1 9 2 8 3 7 4 6 5 5 6 4 7 2 8 1 9 3 10 11 11 12 12 13 13
REMARK SMILES IDX 14 14 15 15 16 16 17 17 18 18 19 19 20 20
REMARK H PARENT
REMARK Flexibility Score: inf
ROOT
ATOM      1  C   UNL     1      16.332  51.586 158.648  1.00  0.00     0.000 C 
ENDROOT
BRANCH   1   2
ATOM      2  C   UNL     1      17.533  52.474 159.038  1.00  0.00     0.000 C 
BRANCH   2   3
ATOM      3  C   UNL     1      17.301  53.390 160.254  1.00  0.00     0.000 C 
BRANCH   3   4
ATOM      4  C   UNL     1      18.414  54.425 160.506  1.00  0.00     0.000 C 
BRANCH   4   5
ATOM      5  C   UNL     1      19.715  54.140 159.725  1.00  0.00     0.000 C 
BRANCH   5   6
ATOM      6  C   UNL     1      20.859  53.665 160.639  1.00  0.00     0.006 C 
BRANCH   6   7
ATOM      7  C   UNL     1      22.232  53.802 159.971  1.00  0.00     0.053 C 
BRANCH   7   8
ATOM      8  C   UNL     1      23.079  54.841 160.641  1.00  0.00     0.041 C 
ATOM      9  O   UNL     1      24.110  54.502 161.279  1.00  0.00    -0.550 OA
ATOM     10  O   UNL     1      22.747  56.185 160.534  1.00  0.00    -0.550 OA
ENDBRANCH   7   8
ENDBRANCH   6   7
ENDBRANCH   5   6
ENDBRANCH   4   5
ENDBRANCH   3   4
ENDBRANCH   2   3
ENDBRANCH   1   2
BRANCH   1  11
ATOM     11  C   UNL     1      15.025  51.886 159.403  1.00  0.00     0.000 C 
BRANCH  11  12
ATOM     12  C   UNL     1      13.993  52.629 158.542  1.00  0.00     0.000 C 
BRANCH  12  13
ATOM     13  C   UNL     1      14.545  52.905 157.138  1.00  0.00     0.000 C 
BRANCH  13  14
ATOM     14  C   UNL     1      13.946  54.194 156.555  1.00  0.00     0.000 C 
BRANCH  14  15
ATOM     15  C   UNL     1      14.999  55.292 156.341  1.00  0.00     0.000 C 
BRANCH  15  16
ATOM     16  C   UNL     1      15.929  55.466 157.555  1.00  0.00     0.006 C 
BRANCH  16  17
ATOM     17  C   UNL     1      17.273  56.098 157.168  1.00  0.00     0.053 C 
BRANCH  17  18
ATOM     18  C   UNL     1      17.584  57.300 158.008  1.00  0.00     0.041 C 
ATOM     19  O   UNL     1      18.710  57.412 158.560  1.00  0.00    -0.550 OA
ATOM     20  O   UNL     1      16.618  58.277 158.208  1.00  0.00    -0.550 OA
ENDBRANCH  17  18
ENDBRANCH  16  17
ENDBRANCH  15  16
ENDBRANCH  14  15
ENDBRANCH  13  14
ENDBRANCH  12  13
ENDBRANCH  11  12
ENDBRANCH   1  11
TORSDOF 15
ENDMDL
MODEL 7
REMARK VINA RESULT:    -4.520      2.303      4.029
REMARK INTER + INTRA:         -10.224
REMARK INTER:                  -8.240
REMARK INTRA:                  -1.984
REMARK UNBOUND:                -1.741
REMARK SMILES O=C([O-])CCCCCCCCCCCCCCC(=O)[O-]
REMARK SMILES IDX 10 1 9 2 8 3 7 4 6 5 5 6 4 7 2 8 1 9 3 10 11 11 12 12 13 13
REMARK SMILES IDX 14 14 15 15 16 16 17 17 18 18 19 19 20 20
REMARK H PARENT
REMARK Flexibility Score: inf
ROOT
ATOM      1  C   UNL     1      16.626  52.562 160.021  1.00  0.00     0.000 C 
ENDROOT
BRANCH   1   2
ATOM      2  C   UNL     1      15.733  51.758 159.053  1.00  0.00     0.000 C 
BRANCH   2   3
ATOM      3  C   UNL     1      14.274  52.241 158.956  1.00  0.00     0.000 C 
BRANCH   3   4
ATOM      4  C   UNL     1      13.959  53.104 157.720  1.00  0.00     0.000 C 
BRANCH   4   5
ATOM      5  C   UNL     1      14.889  52.830 156.518  1.00  0.00     0.000 C 
BRANCH   5   6
ATOM      6  C   UNL     1      15.584  54.106 156.009  1.00  0.00     0.006 C 
BRANCH   6   7
ATOM      7  C   UNL     1      15.132  55.358 156.772  1.00  0.00     0.053 C 
BRANCH   7   8
ATOM      8  C   UNL     1      16.257  56.328 156.968  1.00  0.00     0.041 C 
ATOM      9  O   UNL     1      17.347  56.165 156.360  1.00  0.00    -0.550 OA
ATOM     10  O   UNL     1      16.088  57.431 157.795  1.00  0.00    -0.550 OA
ENDBRANCH   7   8
ENDBRANCH   6   7
ENDBRANCH   5   6
ENDBRANCH   4   5
ENDBRANCH   3   4
ENDBRANCH   2   3
ENDBRANCH   1   2
BRANCH   1  11
ATOM     11  C   UNL     1      17.296  53.806 159.412  1.00  0.00     0.000 C 
BRANCH  11  12
ATOM     12  C   UNL     1      18.416  53.458 158.420  1.00  0.00     0.000 C 
BRANCH  12  13
ATOM     13  C   UNL     1      19.715  54.190 158.776  1.00  0.00     0.000 C 
BRANCH  13  14
ATOM     14  C   UNL     1      20.520  53.406 159.821  1.00  0.00     0.000 C 
BRANCH  14  15
ATOM     15  C   UNL     1      20.974  54.282 161.000  1.00  0.00     0.000 C 
BRANCH  15  16
ATOM     16  C   UNL     1      19.791  54.877 161.785  1.00  0.00     0.006 C 
BRANCH  16  17
ATOM     17  C   UNL     1      19.731  56.406 161.669  1.00  0.00     0.053 C 
BRANCH  17  18
ATOM     18  C   UNL     1      18.486  56.961 162.290  1.00  0.00     0.041 C 
ATOM     19  O   UNL     1      17.460  57.157 161.585  1.00  0.00    -0.550 OA
ATOM     20  O   UNL     1      18.469  57.294 163.638  1.00  0.00    -0.550 OA
ENDBRANCH  17  18
ENDBRANCH  16  17
ENDBRANCH  15  16
ENDBRANCH  14  15
ENDBRANCH  13  14
ENDBRANCH  12  13
ENDBRANCH  11  12
ENDBRANCH   1  11
TORSDOF 15
ENDMDL
MODEL 8
REMARK VINA RESULT:    -4.494      2.694      5.061
REMARK INTER + INTRA:         -10.176
REMARK INTER:                  -8.069
REMARK INTRA:                  -2.107
REMARK UNBOUND:                -1.741
REMARK SMILES O=C([O-])CCCCCCCCCCCCCCC(=O)[O-]
REMARK SMILES IDX 10 1 9 2 8 3 7 4 6 5 5 6 4 7 2 8 1 9 3 10 11 11 12 12 13 13
REMARK SMILES IDX 14 14 15 15 16 16 17 17 18 18 19 19 20 20
REMARK H PARENT
REMARK Flexibility Score: inf
ROOT
ATOM      1  C   UNL     1      16.496  56.247 157.304  1.00  0.00     0.000 C 
ENDROOT
BRANCH   1   2
ATOM      2  C   UNL     1      15.157  56.481 156.573  1.00  0.00     0.000 C 
BRANCH   2   3
ATOM      3  C   UNL     1      14.451  55.205 156.079  1.00  0.00     0.000 C 
BRANCH   3   4
ATOM      4  C   UNL     1      14.404  54.054 157.102  1.00  0.00     0.000 C 
BRANCH   4   5
ATOM      5  C   UNL     1      14.813  52.686 156.516  1.00  0.00     0.000 C 
BRANCH   5   6
ATOM      6  C   UNL     1      15.744  51.898 157.456  1.00  0.00     0.006 C 
BRANCH   6   7
ATOM      7  C   UNL     1      15.635  52.369 158.911  1.00  0.00     0.053 C 
BRANCH   7   8
ATOM      8  C   UNL     1      14.908  51.377 159.767  1.00  0.00     0.041 C 
ATOM      9  O   UNL     1      13.709  51.579 160.092  1.00  0.00    -0.550 OA
ATOM     10  O   UNL     1      15.545  50.212 160.176  1.00  0.00    -0.550 OA
ENDBRANCH   7   8
ENDBRANCH   6   7
ENDBRANCH   5   6
ENDBRANCH   4   5
ENDBRANCH   3   4
ENDBRANCH   2   3
ENDBRANCH   1   2
BRANCH   1  11
ATOM     11  C   UNL     1      17.622  55.659 156.434  1.00  0.00     0.000 C 
BRANCH  11  12
ATOM     12  C   UNL     1      18.317  54.455 157.088  1.00  0.00     0.000 C 
BRANCH  12  13
ATOM     13  C   UNL     1      19.097  54.882 158.337  1.00  0.00     0.000 C 
BRANCH  13  14
ATOM     14  C   UNL     1      18.990  53.822 159.442  1.00  0.00     0.000 C 
BRANCH  14  15
ATOM     15  C   UNL     1      18.170  54.304 160.649  1.00  0.00     0.000 C 
BRANCH  15  16
ATOM     16  C   UNL     1      17.852  55.809 160.585  1.00  0.00     0.006 C 
BRANCH  16  17
ATOM     17  C   UNL     1      18.440  56.575 161.778  1.00  0.00     0.053 C 
BRANCH  17  18
ATOM     18  C   UNL     1      19.666  57.346 161.393  1.00  0.00     0.041 C 
ATOM     19  O   UNL     1      19.682  58.602 161.494  1.00  0.00    -0.550 OA
ATOM     20  O   UNL     1      20.777  56.682 160.890  1.00  0.00    -0.550 OA
ENDBRANCH  17  18
ENDBRANCH  16  17
ENDBRANCH  15  16
ENDBRANCH  14  15
ENDBRANCH  13  14
ENDBRANCH  12  13
ENDBRANCH  11  12
ENDBRANCH   1  11
TORSDOF 15
ENDMDL
MODEL 9
REMARK VINA RESULT:    -4.430      1.234      2.246
REMARK INTER + INTRA:         -10.055
REMARK INTER:                  -8.191
REMARK INTRA:                  -1.864
REMARK UNBOUND:                -1.741
REMARK SMILES O=C([O-])CCCCCCCCCCCCCCC(=O)[O-]
REMARK SMILES IDX 10 1 9 2 8 3 7 4 6 5 5 6 4 7 2 8 1 9 3 10 11 11 12 12 13 13
REMARK SMILES IDX 14 14 15 15 16 16 17 17 18 18 19 19 20 20
REMARK H PARENT
REMARK Flexibility Score: inf
ROOT
ATOM      1  C   UNL     1      15.566  54.892 157.304  1.00  0.00     0.000 C 
ENDROOT
BRANCH   1   2
ATOM      2  C   UNL     1      16.375  55.408 156.096  1.00  0.00     0.000 C 
BRANCH   2   3
ATOM      3  C   UNL     1      17.899  55.214 156.199  1.00  0.00     0.000 C 
BRANCH   3   4
ATOM      4  C   UNL     1      18.652  56.363 156.895  1.00  0.00     0.000 C 
BRANCH   4   5
ATOM      5  C   UNL     1      17.874  57.696 156.910  1.00  0.00     0.000 C 
BRANCH   5   6
ATOM      6  C   UNL     1      17.202  57.971 158.268  1.00  0.00     0.006 C 
BRANCH   6   7
ATOM      7  C   UNL     1      18.151  58.658 159.257  1.00  0.00     0.053 C 
BRANCH   7   8
ATOM      8  C   UNL     1      18.599  57.725 160.341  1.00  0.00     0.041 C 
ATOM      9  O   UNL     1      19.826  57.508 160.522  1.00  0.00    -0.550 OA
ATOM     10  O   UNL     1      17.664  57.123 161.172  1.00  0.00    -0.550 OA
ENDBRANCH   7   8
ENDBRANCH   6   7
ENDBRANCH   5   6
ENDBRANCH   4   5
ENDBRANCH   3   4
ENDBRANCH   2   3
ENDBRANCH   1   2
BRANCH   1  11
ATOM     11  C   UNL     1      14.451  53.887 156.963  1.00  0.00     0.000 C 
BRANCH  11  12
ATOM     12  C   UNL     1      14.768  52.459 157.433  1.00  0.00     0.000 C 
BRANCH  12  13
ATOM     13  C   UNL     1      14.384  52.266 158.904  1.00  0.00     0.000 C 
BRANCH  13  14
ATOM     14  C   UNL     1      15.537  51.633 159.696  1.00  0.00     0.000 C 
BRANCH  14  15
ATOM     15  C   UNL     1      16.908  52.206 159.306  1.00  0.00     0.000 C 
BRANCH  15  16
ATOM     16  C   UNL     1      17.367  53.336 160.245  1.00  0.00     0.006 C 
BRANCH  16  17
ATOM     17  C   UNL     1      18.648  54.018 159.746  1.00  0.00     0.053 C 
BRANCH  17  18
ATOM     18  C   UNL     1      19.751  53.934 160.756  1.00  0.00     0.041 C 
ATOM     19  O   UNL     1      20.835  53.362 160.464  1.00  0.00    -0.550 OA
ATOM     20  O   UNL     1      19.570  54.457 162.030  1.00  0.00    -0.550 OA
ENDBRANCH  17  18
ENDBRANCH  16  17
ENDBRANCH  15  16
ENDBRANCH  14  15
ENDBRANCH  13  14
ENDBRANCH  12  13
ENDBRANCH  11  12
ENDBRANCH   1  11
TORSDOF 15
ENDMDL
