MODEL 1
REMARK VINA RESULT:    -3.574      0.000      0.000
REMARK INTER + INTRA:         -12.786
REMARK INTER:                  -8.171
REMARK INTRA:                  -4.614
REMARK UNBOUND:                -4.614
REMARK SMILES CCCCCCCCCCCCCCCCCCCCCCCC(=O)[O-]
REMARK SMILES IDX 13 1 14 2 15 3 16 4 17 5 18 6 19 7 20 8 21 9 22 10 23 11
REMARK SMILES IDX 24 12 25 13 26 14 12 15 11 16 10 17 9 18 8 19 7 20 6 21 5 22
REMARK SMILES IDX 4 23 3 24 2 25 1 26
REMARK H PARENT
REMARK Flexibility Score: inf
ROOT
ATOM      1  C   UNL     1       0.258   1.448  -8.525  1.00  0.00     0.000 C 
ENDROOT
BRANCH   1   2
ATOM      2  C   UNL     1       0.108   1.436 -10.058  1.00  0.00     0.000 C 
BRANCH   2   3
ATOM      3  C   UNL     1       1.119   2.350 -10.768  1.00  0.00     0.000 C 
BRANCH   3   4
ATOM      4  C   UNL     1       0.557   2.971 -12.060  1.00  0.00     0.000 C 
BRANCH   4   5
ATOM      5  C   UNL     1      -0.311   4.229 -11.860  1.00  0.00     0.000 C 
BRANCH   5   6
ATOM      6  C   UNL     1      -1.803   4.057 -12.201  1.00  0.00     0.000 C 
BRANCH   6   7
ATOM      7  C   UNL     1      -2.141   2.789 -13.006  1.00  0.00     0.000 C 
BRANCH   7   8
ATOM      8  C   UNL     1      -3.563   2.273 -12.736  1.00  0.00     0.000 C 
BRANCH   8   9
ATOM      9  C   UNL     1      -3.658   1.620 -11.350  1.00  0.00     0.000 C 
BRANCH   9  10
ATOM     10  C   UNL     1      -5.078   1.667 -10.757  1.00  0.00     0.006 C 
BRANCH  10  11
ATOM     11  C   UNL     1      -5.127   2.135  -9.292  1.00  0.00     0.053 C 
BRANCH  11  12
ATOM     12  C   UNL     1      -6.438   2.765  -8.931  1.00  0.00     0.041 C 
ATOM     13  O   UNL     1      -7.401   2.738  -9.741  1.00  0.00    -0.550 OA
ATOM     14  O   UNL     1      -6.609   3.352  -7.684  1.00  0.00    -0.550 OA
ENDBRANCH  11  12
ENDBRANCH  10  11
ENDBRANCH   9  10
ENDBRANCH   8   9
ENDBRANCH   7   8
ENDBRANCH   6   7
ENDBRANCH   5   6
ENDBRANCH   4   5
ENDBRANCH   3   4
ENDBRANCH   2   3
ENDBRANCH   1   2
BRANCH   1  15
ATOM     15  C   UNL     1      -0.557   2.531  -7.793  1.00  0.00     0.000 C 
BRANCH  15  16
ATOM     16  C   UNL     1      -1.745   3.049  -8.616  1.00  0.00     0.000 C 
BRANCH  16  17
ATOM     17  C   UNL     1      -1.924   4.564  -8.435  1.00  0.00     0.000 C 
BRANCH  17  18
ATOM     18  C   UNL     1      -0.587   5.324  -8.475  1.00  0.00    -0.000 C 
BRANCH  18  19
ATOM     19  C   UNL     1      -0.743   6.764  -8.994  1.00  0.00    -0.000 C 
BRANCH  19  20
ATOM     20  C   UNL     1      -2.204   7.098  -9.365  1.00  0.00    -0.000 C 
BRANCH  20  21
ATOM     21  C   UNL     1      -2.391   7.515 -10.837  1.00  0.00    -0.000 C 
BRANCH  21  22
ATOM     22  C   UNL     1      -3.852   7.547 -11.316  1.00  0.00    -0.000 C 
BRANCH  22  23
ATOM     23  C   UNL     1      -4.760   6.594 -10.517  1.00  0.00    -0.000 C 
BRANCH  23  24
ATOM     24  C   UNL     1      -5.130   5.329 -11.320  1.00  0.00    -0.000 C 
BRANCH  24  25
ATOM     25  C   UNL     1      -6.492   5.427 -12.028  1.00  0.00    -0.003 C 
ATOM     26  C   UNL     1      -6.833   4.182 -12.845  1.00  0.00     0.004 C 
ENDBRANCH  24  25
ENDBRANCH  23  24
ENDBRANCH  22  23
ENDBRANCH  21  22
ENDBRANCH  20  21
ENDBRANCH  19  20
ENDBRANCH  18  19
ENDBRANCH  17  18
ENDBRANCH  16  17
ENDBRANCH  15  16
ENDBRANCH   1  15
TORSDOF 22
ENDMDL
MODEL 2
REMARK VINA RESULT:    -3.452      1.389      5.044
REMARK INTER + INTRA:         -12.506
REMARK INTER:                  -7.722
REMARK INTRA:                  -4.784
REMARK UNBOUND:                -4.614
REMARK SMILES CCCCCCCCCCCCCCCCCCCCCCCC(=O)[O-]
REMARK SMILES IDX 13 1 14 2 15 3 16 4 17 5 18 6 19 7 20 8 21 9 22 10 23 11
REMARK SMILES IDX 24 12 25 13 26 14 12 15 11 16 10 17 9 18 8 19 7 20 6 21 5 22
REMARK SMILES IDX 4 23 3 24 2 25 1 26
REMARK H PARENT
REMARK Flexibility Score: inf
ROOT
ATOM      1  C   UNL     1      -2.563   3.602  -8.904  1.00  0.00     0.000 C 
ENDROOT
BRANCH   1   2
ATOM      2  C   UNL     1      -1.083   3.875  -8.580  1.00  0.00     0.000 C 
BRANCH   2   3
ATOM      3  C   UNL     1      -0.761   5.373  -8.449  1.00  0.00     0.000 C 
BRANCH   3   4
ATOM      4  C   UNL     1      -2.017   6.261  -8.523  1.00  0.00     0.000 C 
BRANCH   4   5
ATOM      5  C   UNL     1      -2.027   7.288  -9.673  1.00  0.00     0.000 C 
BRANCH   5   6
ATOM      6  C   UNL     1      -2.917   6.918 -10.875  1.00  0.00     0.000 C 
BRANCH   6   7
ATOM      7  C   UNL     1      -4.393   7.331 -10.738  1.00  0.00     0.000 C 
BRANCH   7   8
ATOM      8  C   UNL     1      -5.322   6.139 -10.461  1.00  0.00     0.000 C 
BRANCH   8   9
ATOM      9  C   UNL     1      -5.369   5.186 -11.663  1.00  0.00     0.000 C 
BRANCH   9  10
ATOM     10  C   UNL     1      -6.300   3.980 -11.442  1.00  0.00     0.006 C 
BRANCH  10  11
ATOM     11  C   UNL     1      -6.478   3.592  -9.963  1.00  0.00     0.053 C 
BRANCH  11  12
ATOM     12  C   UNL     1      -6.304   2.123  -9.727  1.00  0.00     0.041 C 
ATOM     13  O   UNL     1      -5.738   1.710  -8.680  1.00  0.00    -0.550 OA
ATOM     14  O   UNL     1      -6.798   1.206 -10.646  1.00  0.00    -0.550 OA
ENDBRANCH  11  12
ENDBRANCH  10  11
ENDBRANCH   9  10
ENDBRANCH   8   9
ENDBRANCH   7   8
ENDBRANCH   6   7
ENDBRANCH   5   6
ENDBRANCH   4   5
ENDBRANCH   3   4
ENDBRANCH   2   3
ENDBRANCH   1   2
BRANCH   1  15
ATOM     15  C   UNL     1      -2.818   2.800 -10.195  1.00  0.00     0.000 C 
BRANCH  15  16
ATOM     16  C   UNL     1      -2.214   3.461 -11.442  1.00  0.00     0.000 C 
BRANCH  16  17
ATOM     17  C   UNL     1      -1.826   2.408 -12.491  1.00  0.00     0.000 C 
BRANCH  17  18
ATOM     18  C   UNL     1      -1.632   1.010 -11.880  1.00  0.00    -0.000 C 
BRANCH  18  19
ATOM     19  C   UNL     1      -0.148   0.617 -11.770  1.00  0.00    -0.000 C 
BRANCH  19  20
ATOM     20  C   UNL     1       0.505   1.151 -10.478  1.00  0.00    -0.000 C 
BRANCH  20  21
ATOM     21  C   UNL     1       1.667   2.133 -10.729  1.00  0.00    -0.000 C 
BRANCH  21  22
ATOM     22  C   UNL     1       1.953   2.425 -12.211  1.00  0.00    -0.000 C 
BRANCH  22  23
ATOM     23  C   UNL     1       1.915   3.929 -12.539  1.00  0.00    -0.000 C 
BRANCH  23  24
ATOM     24  C   UNL     1       1.109   4.733 -11.497  1.00  0.00    -0.000 C 
BRANCH  24  25
ATOM     25  C   UNL     1       0.467   6.009 -12.068  1.00  0.00    -0.003 C 
ATOM     26  C   UNL     1       0.041   5.864 -13.528  1.00  0.00     0.004 C 
ENDBRANCH  24  25
ENDBRANCH  23  24
ENDBRANCH  22  23
ENDBRANCH  21  22
ENDBRANCH  20  21
ENDBRANCH  19  20
ENDBRANCH  18  19
ENDBRANCH  17  18
ENDBRANCH  16  17
ENDBRANCH  15  16
ENDBRANCH   1  15
TORSDOF 22
ENDMDL
MODEL 3
REMARK VINA RESULT:    -3.416      1.358      4.533
REMARK INTER + INTRA:         -12.424
REMARK INTER:                  -7.689
REMARK INTRA:                  -4.735
REMARK UNBOUND:                -4.614
REMARK SMILES CCCCCCCCCCCCCCCCCCCCCCCC(=O)[O-]
REMARK SMILES IDX 13 1 14 2 15 3 16 4 17 5 18 6 19 7 20 8 21 9 22 10 23 11
REMARK SMILES IDX 24 12 25 13 26 14 12 15 11 16 10 17 9 18 8 19 7 20 6 21 5 22
REMARK SMILES IDX 4 23 3 24 2 25 1 26
REMARK H PARENT
REMARK Flexibility Score: inf
ROOT
ATOM      1  C   UNL     1      -2.103   4.368  -8.505  1.00  0.00     0.000 C 
ENDROOT
BRANCH   1   2
ATOM      2  C   UNL     1      -0.934   5.329  -8.221  1.00  0.00     0.000 C 
BRANCH   2   3
ATOM      3  C   UNL     1      -0.844   6.481  -9.235  1.00  0.00     0.000 C 
BRANCH   3   4
ATOM      4  C   UNL     1      -2.226   7.004  -9.669  1.00  0.00     0.000 C 
BRANCH   4   5
ATOM      5  C   UNL     1      -2.402   7.209 -11.186  1.00  0.00     0.000 C 
BRANCH   5   6
ATOM      6  C   UNL     1      -3.821   6.941 -11.723  1.00  0.00     0.000 C 
BRANCH   6   7
ATOM      7  C   UNL     1      -4.856   6.552 -10.651  1.00  0.00     0.000 C 
BRANCH   7   8
ATOM      8  C   UNL     1      -5.980   5.662 -11.203  1.00  0.00     0.000 C 
BRANCH   8   9
ATOM      9  C   UNL     1      -5.414   4.555 -12.103  1.00  0.00     0.000 C 
BRANCH   9  10
ATOM     10  C   UNL     1      -5.703   3.139 -11.574  1.00  0.00     0.006 C 
BRANCH  10  11
ATOM     11  C   UNL     1      -5.054   2.837 -10.211  1.00  0.00     0.053 C 
BRANCH  11  12
ATOM     12  C   UNL     1      -6.062   2.506  -9.152  1.00  0.00     0.041 C 
ATOM     13  O   UNL     1      -5.762   1.725  -8.211  1.00  0.00    -0.550 OA
ATOM     14  O   UNL     1      -7.323   3.088  -9.185  1.00  0.00    -0.550 OA
ENDBRANCH  11  12
ENDBRANCH  10  11
ENDBRANCH   9  10
ENDBRANCH   8   9
ENDBRANCH   7   8
ENDBRANCH   6   7
ENDBRANCH   5   6
ENDBRANCH   4   5
ENDBRANCH   3   4
ENDBRANCH   2   3
ENDBRANCH   1   2
BRANCH   1  15
ATOM     15  C   UNL     1      -1.738   2.871  -8.513  1.00  0.00     0.000 C 
BRANCH  15  16
ATOM     16  C   UNL     1      -0.227   2.621  -8.404  1.00  0.00     0.000 C 
BRANCH  16  17
ATOM     17  C   UNL     1       0.225   1.530  -9.386  1.00  0.00     0.000 C 
BRANCH  17  18
ATOM     18  C   UNL     1       1.135   2.077 -10.499  1.00  0.00    -0.000 C 
BRANCH  18  19
ATOM     19  C   UNL     1       0.780   3.522 -10.893  1.00  0.00    -0.000 C 
BRANCH  19  20
ATOM     20  C   UNL     1       0.025   3.595 -12.237  1.00  0.00    -0.000 C 
BRANCH  20  21
ATOM     21  C   UNL     1      -1.508   3.663 -12.086  1.00  0.00    -0.000 C 
BRANCH  21  22
ATOM     22  C   UNL     1      -2.272   2.501 -12.740  1.00  0.00    -0.000 C 
BRANCH  22  23
ATOM     23  C   UNL     1      -2.319   1.246 -11.851  1.00  0.00    -0.000 C 
BRANCH  23  24
ATOM     24  C   UNL     1      -1.902  -0.029 -12.615  1.00  0.00    -0.000 C 
BRANCH  24  25
ATOM     25  C   UNL     1      -0.519   0.078 -13.280  1.00  0.00    -0.003 C 
ATOM     26  C   UNL     1       0.517  -0.859 -12.663  1.00  0.00     0.004 C 
ENDBRANCH  24  25
ENDBRANCH  23  24
ENDBRANCH  22  23
ENDBRANCH  21  22
ENDBRANCH  20  21
ENDBRANCH  19  20
ENDBRANCH  18  19
ENDBRANCH  17  18
ENDBRANCH  16  17
ENDBRANCH  15  16
ENDBRANCH   1  15
TORSDOF 22
ENDMDL
MODEL 4
REMARK VINA RESULT:    -3.382      1.356      3.312
REMARK INTER + INTRA:         -12.347
REMARK INTER:                  -7.777
REMARK INTRA:                  -4.570
REMARK UNBOUND:                -4.614
REMARK SMILES CCCCCCCCCCCCCCCCCCCCCCCC(=O)[O-]
REMARK SMILES IDX 13 1 14 2 15 3 16 4 17 5 18 6 19 7 20 8 21 9 22 10 23 11
REMARK SMILES IDX 24 12 25 13 26 14 12 15 11 16 10 17 9 18 8 19 7 20 6 21 5 22
REMARK SMILES IDX 4 23 3 24 2 25 1 26
REMARK H PARENT
REMARK Flexibility Score: inf
ROOT
ATOM      1  C   UNL     1      -0.470   2.766  -8.463  1.00  0.00     0.000 C 
ENDROOT
BRANCH   1   2
ATOM      2  C   UNL     1       0.204   1.598  -9.207  1.00  0.00     0.000 C 
BRANCH   2   3
ATOM      3  C   UNL     1       1.008   2.052 -10.436  1.00  0.00     0.000 C 
BRANCH   3   4
ATOM      4  C   UNL     1       0.429   1.515 -11.758  1.00  0.00     0.000 C 
BRANCH   4   5
ATOM      5  C   UNL     1      -0.814   0.614 -11.612  1.00  0.00     0.000 C 
BRANCH   5   6
ATOM      6  C   UNL     1      -2.051   1.071 -12.409  1.00  0.00     0.000 C 
BRANCH   6   7
ATOM      7  C   UNL     1      -2.368   2.574 -12.306  1.00  0.00     0.000 C 
BRANCH   7   8
ATOM      8  C   UNL     1      -3.868   2.855 -12.123  1.00  0.00     0.000 C 
BRANCH   8   9
ATOM      9  C   UNL     1      -4.699   1.589 -12.365  1.00  0.00     0.000 C 
BRANCH   9  10
ATOM     10  C   UNL     1      -5.875   1.442 -11.382  1.00  0.00     0.006 C 
BRANCH  10  11
ATOM     11  C   UNL     1      -5.538   1.859  -9.939  1.00  0.00     0.053 C 
BRANCH  11  12
ATOM     12  C   UNL     1      -6.513   2.853  -9.383  1.00  0.00     0.041 C 
ATOM     13  O   UNL     1      -7.216   3.554 -10.156  1.00  0.00    -0.550 OA
ATOM     14  O   UNL     1      -6.671   2.979  -8.009  1.00  0.00    -0.550 OA
ENDBRANCH  11  12
ENDBRANCH  10  11
ENDBRANCH   9  10
ENDBRANCH   8   9
ENDBRANCH   7   8
ENDBRANCH   6   7
ENDBRANCH   5   6
ENDBRANCH   4   5
ENDBRANCH   3   4
ENDBRANCH   2   3
ENDBRANCH   1   2
BRANCH   1  15
ATOM     15  C   UNL     1      -1.886   3.126  -8.950  1.00  0.00     0.000 C 
BRANCH  15  16
ATOM     16  C   UNL     1      -2.262   4.590  -8.676  1.00  0.00     0.000 C 
BRANCH  16  17
ATOM     17  C   UNL     1      -3.768   4.819  -8.871  1.00  0.00     0.000 C 
BRANCH  17  18
ATOM     18  C   UNL     1      -4.070   5.877  -9.946  1.00  0.00    -0.000 C 
BRANCH  18  19
ATOM     19  C   UNL     1      -3.003   6.985  -9.997  1.00  0.00    -0.000 C 
BRANCH  19  20
ATOM     20  C   UNL     1      -2.729   7.468 -11.438  1.00  0.00    -0.000 C 
BRANCH  20  21
ATOM     21  C   UNL     1      -2.380   6.331 -12.418  1.00  0.00    -0.000 C 
BRANCH  21  22
ATOM     22  C   UNL     1      -0.876   6.139 -12.672  1.00  0.00    -0.000 C 
BRANCH  22  23
ATOM     23  C   UNL     1      -0.222   5.179 -11.663  1.00  0.00    -0.000 C 
BRANCH  23  24
ATOM     24  C   UNL     1       1.052   5.777 -11.028  1.00  0.00    -0.000 C 
BRANCH  24  25
ATOM     25  C   UNL     1       0.813   7.122 -10.321  1.00  0.00    -0.003 C 
ATOM     26  C   UNL     1       0.479   6.968  -8.838  1.00  0.00     0.004 C 
ENDBRANCH  24  25
ENDBRANCH  23  24
ENDBRANCH  22  23
ENDBRANCH  21  22
ENDBRANCH  20  21
ENDBRANCH  19  20
ENDBRANCH  18  19
ENDBRANCH  17  18
ENDBRANCH  16  17
ENDBRANCH  15  16
ENDBRANCH   1  15
TORSDOF 22
ENDMDL
MODEL 5
REMARK VINA RESULT:    -3.362      2.604      6.543
REMARK INTER + INTRA:         -12.300
REMARK INTER:                  -9.185
REMARK INTRA:                  -3.115
REMARK UNBOUND:                -4.614
REMARK SMILES CCCCCCCCCCCCCCCCCCCCCCCC(=O)[O-]
REMARK SMILES IDX 13 1 14 2 15 3 16 4 17 5 18 6 19 7 20 8 21 9 22 10 23 11
REMARK SMILES IDX 24 12 25 13 26 14 12 15 11 16 10 17 9 18 8 19 7 20 6 21 5 22
REMARK SMILES IDX 4 23 3 24 2 25 1 26
REMARK H PARENT
REMARK Flexibility Score: inf
ROOT
ATOM      1  C   UNL     1      -1.486   3.550  -8.462  1.00  0.00     0.000 C 
ENDROOT
BRANCH   1   2
ATOM      2  C   UNL     1      -0.981   5.005  -8.442  1.00  0.00     0.000 C 
BRANCH   2   3
ATOM      3  C   UNL     1      -2.040   6.015  -8.912  1.00  0.00     0.000 C 
BRANCH   3   4
ATOM      4  C   UNL     1      -3.443   5.392  -9.042  1.00  0.00     0.000 C 
BRANCH   4   5
ATOM      5  C   UNL     1      -4.039   5.409 -10.463  1.00  0.00     0.000 C 
BRANCH   5   6
ATOM      6  C   UNL     1      -3.007   5.361 -11.607  1.00  0.00     0.000 C 
BRANCH   6   7
ATOM      7  C   UNL     1      -2.511   3.950 -11.971  1.00  0.00     0.000 C 
BRANCH   7   8
ATOM      8  C   UNL     1      -3.651   3.002 -12.370  1.00  0.00     0.000 C 
BRANCH   8   9
ATOM      9  C   UNL     1      -3.758   1.826 -11.390  1.00  0.00     0.000 C 
BRANCH   9  10
ATOM     10  C   UNL     1      -5.145   1.712 -10.732  1.00  0.00     0.006 C 
BRANCH  10  11
ATOM     11  C   UNL     1      -5.169   2.125  -9.249  1.00  0.00     0.053 C 
BRANCH  11  12
ATOM     12  C   UNL     1      -6.410   2.880  -8.881  1.00  0.00     0.041 C 
ATOM     13  O   UNL     1      -6.587   3.274  -7.698  1.00  0.00    -0.550 OA
ATOM     14  O   UNL     1      -7.356   3.182  -9.852  1.00  0.00    -0.550 OA
ENDBRANCH  11  12
ENDBRANCH  10  11
ENDBRANCH   9  10
ENDBRANCH   8   9
ENDBRANCH   7   8
ENDBRANCH   6   7
ENDBRANCH   5   6
ENDBRANCH   4   5
ENDBRANCH   3   4
ENDBRANCH   2   3
ENDBRANCH   1   2
BRANCH   1  15
ATOM     15  C   UNL     1      -0.556   2.522  -7.789  1.00  0.00     0.000 C 
BRANCH  15  16
ATOM     16  C   UNL     1       0.284   1.722  -8.795  1.00  0.00     0.000 C 
BRANCH  16  17
ATOM     17  C   UNL     1      -0.484   1.507 -10.108  1.00  0.00     0.000 C 
BRANCH  17  18
ATOM     18  C   UNL     1       0.409   1.683 -11.349  1.00  0.00    -0.000 C 
BRANCH  18  19
ATOM     19  C   UNL     1       1.377   2.873 -11.214  1.00  0.00    -0.000 C 
BRANCH  19  20
ATOM     20  C   UNL     1       2.480   2.855 -12.293  1.00  0.00    -0.000 C 
BRANCH  20  21
ATOM     21  C   UNL     1       3.190   1.494 -12.433  1.00  0.00    -0.000 C 
BRANCH  21  22
ATOM     22  C   UNL     1       4.662   1.578 -12.871  1.00  0.00    -0.000 C 
BRANCH  22  23
ATOM     23  C   UNL     1       5.556   2.262 -11.821  1.00  0.00    -0.000 C 
BRANCH  23  24
ATOM     24  C   UNL     1       6.302   1.241 -10.935  1.00  0.00    -0.000 C 
BRANCH  24  25
ATOM     25  C   UNL     1       6.616  -0.083 -11.653  1.00  0.00    -0.003 C 
ATOM     26  C   UNL     1       6.947  -1.222 -10.692  1.00  0.00     0.004 C 
ENDBRANCH  24  25
ENDBRANCH  23  24
ENDBRANCH  22  23
ENDBRANCH  21  22
ENDBRANCH  20  21
ENDBRANCH  19  20
ENDBRANCH  18  19
ENDBRANCH  17  18
ENDBRANCH  16  17
ENDBRANCH  15  16
ENDBRANCH   1  15
TORSDOF 22
ENDMDL
MODEL 6
REMARK VINA RESULT:    -3.354      1.468      3.082
REMARK INTER + INTRA:         -12.282
REMARK INTER:                  -7.396
REMARK INTRA:                  -4.886
REMARK UNBOUND:                -4.614
REMARK SMILES CCCCCCCCCCCCCCCCCCCCCCCC(=O)[O-]
REMARK SMILES IDX 13 1 14 2 15 3 16 4 17 5 18 6 19 7 20 8 21 9 22 10 23 11
REMARK SMILES IDX 24 12 25 13 26 14 12 15 11 16 10 17 9 18 8 19 7 20 6 21 5 22
REMARK SMILES IDX 4 23 3 24 2 25 1 26
REMARK H PARENT
REMARK Flexibility Score: inf
ROOT
ATOM      1  C   UNL     1      -1.873   5.179  -8.507  1.00  0.00     0.000 C 
ENDROOT
BRANCH   1   2
ATOM      2  C   UNL     1      -0.638   4.280  -8.698  1.00  0.00     0.000 C 
BRANCH   2   3
ATOM      3  C   UNL     1      -0.808   2.884  -8.079  1.00  0.00     0.000 C 
BRANCH   3   4
ATOM      4  C   UNL     1       0.107   1.828  -8.728  1.00  0.00     0.000 C 
BRANCH   4   5
ATOM      5  C   UNL     1       0.434   2.069 -10.215  1.00  0.00     0.000 C 
BRANCH   5   6
ATOM      6  C   UNL     1      -0.263   1.113 -11.202  1.00  0.00     0.000 C 
BRANCH   6   7
ATOM      7  C   UNL     1      -1.347   1.766 -12.079  1.00  0.00     0.000 C 
BRANCH   7   8
ATOM      8  C   UNL     1      -2.769   1.504 -11.562  1.00  0.00     0.000 C 
BRANCH   8   9
ATOM      9  C   UNL     1      -3.336   2.745 -10.858  1.00  0.00     0.000 C 
BRANCH   9  10
ATOM     10  C   UNL     1      -4.172   2.403  -9.612  1.00  0.00     0.006 C 
BRANCH  10  11
ATOM     11  C   UNL     1      -5.588   3.007  -9.625  1.00  0.00     0.053 C 
BRANCH  11  12
ATOM     12  C   UNL     1      -6.459   2.415 -10.691  1.00  0.00     0.041 C 
ATOM     13  O   UNL     1      -6.945   1.262 -10.548  1.00  0.00    -0.550 OA
ATOM     14  O   UNL     1      -6.764   3.150 -11.829  1.00  0.00    -0.550 OA
ENDBRANCH  11  12
ENDBRANCH  10  11
ENDBRANCH   9  10
ENDBRANCH   8   9
ENDBRANCH   7   8
ENDBRANCH   6   7
ENDBRANCH   5   6
ENDBRANCH   4   5
ENDBRANCH   3   4
ENDBRANCH   2   3
ENDBRANCH   1   2
BRANCH   1  15
ATOM     15  C   UNL     1      -1.600   6.694  -8.558  1.00  0.00     0.000 C 
BRANCH  15  16
ATOM     16  C   UNL     1      -0.116   7.044  -8.368  1.00  0.00     0.000 C 
BRANCH  16  17
ATOM     17  C   UNL     1       0.394   7.926  -9.517  1.00  0.00     0.000 C 
BRANCH  17  18
ATOM     18  C   UNL     1       1.703   7.399 -10.129  1.00  0.00    -0.000 C 
BRANCH  18  19
ATOM     19  C   UNL     1       1.469   6.226 -11.098  1.00  0.00    -0.000 C 
BRANCH  19  20
ATOM     20  C   UNL     1       0.316   6.503 -12.086  1.00  0.00    -0.000 C 
BRANCH  20  21
ATOM     21  C   UNL     1      -0.713   5.359 -12.176  1.00  0.00    -0.000 C 
BRANCH  21  22
ATOM     22  C   UNL     1      -2.176   5.818 -12.294  1.00  0.00    -0.000 C 
BRANCH  22  23
ATOM     23  C   UNL     1      -2.347   7.328 -12.049  1.00  0.00    -0.000 C 
BRANCH  23  24
ATOM     24  C   UNL     1      -3.732   7.671 -11.462  1.00  0.00    -0.000 C 
BRANCH  24  25
ATOM     25  C   UNL     1      -4.430   6.475 -10.792  1.00  0.00    -0.003 C 
ATOM     26  C   UNL     1      -5.945   6.480 -10.984  1.00  0.00     0.004 C 
ENDBRANCH  24  25
ENDBRANCH  23  24
ENDBRANCH  22  23
ENDBRANCH  21  22
ENDBRANCH  20  21
ENDBRANCH  19  20
ENDBRANCH  18  19
ENDBRANCH  17  18
ENDBRANCH  16  17
ENDBRANCH  15  16
ENDBRANCH   1  15
TORSDOF 22
ENDMDL
MODEL 7
REMARK VINA RESULT:    -3.341      3.037      6.873
REMARK INTER + INTRA:         -12.252
REMARK INTER:                  -8.751
REMARK INTRA:                  -3.501
REMARK UNBOUND:                -4.614
REMARK SMILES CCCCCCCCCCCCCCCCCCCCCCCC(=O)[O-]
REMARK SMILES IDX 13 1 14 2 15 3 16 4 17 5 18 6 19 7 20 8 21 9 22 10 23 11
REMARK SMILES IDX 24 12 25 13 26 14 12 15 11 16 10 17 9 18 8 19 7 20 6 21 5 22
REMARK SMILES IDX 4 23 3 24 2 25 1 26
REMARK H PARENT
REMARK Flexibility Score: inf
ROOT
ATOM      1  C   UNL     1      -0.370   2.524  -8.039  1.00  0.00     0.000 C 
ENDROOT
BRANCH   1   2
ATOM      2  C   UNL     1      -1.641   3.228  -8.548  1.00  0.00     0.000 C 
BRANCH   2   3
ATOM      3  C   UNL     1      -1.530   4.761  -8.524  1.00  0.00     0.000 C 
BRANCH   3   4
ATOM      4  C   UNL     1      -0.167   5.268  -9.032  1.00  0.00     0.000 C 
BRANCH   4   5
ATOM      5  C   UNL     1       0.026   5.209 -10.561  1.00  0.00     0.000 C 
BRANCH   5   6
ATOM      6  C   UNL     1      -1.231   5.530 -11.392  1.00  0.00     0.000 C 
BRANCH   6   7
ATOM      7  C   UNL     1      -1.707   4.390 -12.311  1.00  0.00     0.000 C 
BRANCH   7   8
ATOM      8  C   UNL     1      -3.147   3.946 -12.012  1.00  0.00     0.000 C 
BRANCH   8   9
ATOM      9  C   UNL     1      -3.866   4.969 -11.124  1.00  0.00     0.000 C 
BRANCH   9  10
ATOM     10  C   UNL     1      -5.261   4.501 -10.670  1.00  0.00     0.006 C 
BRANCH  10  11
ATOM     11  C   UNL     1      -5.324   4.066  -9.194  1.00  0.00     0.053 C 
BRANCH  11  12
ATOM     12  C   UNL     1      -5.501   2.587  -9.036  1.00  0.00     0.041 C 
ATOM     13  O   UNL     1      -6.121   2.124  -8.042  1.00  0.00    -0.550 OA
ATOM     14  O   UNL     1      -5.013   1.719 -10.004  1.00  0.00    -0.550 OA
ENDBRANCH  11  12
ENDBRANCH  10  11
ENDBRANCH   9  10
ENDBRANCH   8   9
ENDBRANCH   7   8
ENDBRANCH   6   7
ENDBRANCH   5   6
ENDBRANCH   4   5
ENDBRANCH   3   4
ENDBRANCH   2   3
ENDBRANCH   1   2
BRANCH   1  15
ATOM     15  C   UNL     1       0.255   1.509  -9.015  1.00  0.00     0.000 C 
BRANCH  15  16
ATOM     16  C   UNL     1      -0.448   1.475 -10.380  1.00  0.00     0.000 C 
BRANCH  16  17
ATOM     17  C   UNL     1       0.572   1.496 -11.527  1.00  0.00     0.000 C 
BRANCH  17  18
ATOM     18  C   UNL     1       1.938   2.056 -11.093  1.00  0.00    -0.000 C 
BRANCH  18  19
ATOM     19  C   UNL     1       2.608   2.895 -12.195  1.00  0.00    -0.000 C 
BRANCH  19  20
ATOM     20  C   UNL     1       4.105   3.144 -11.912  1.00  0.00    -0.000 C 
BRANCH  20  21
ATOM     21  C   UNL     1       4.957   1.860 -11.898  1.00  0.00    -0.000 C 
BRANCH  21  22
ATOM     22  C   UNL     1       4.853   1.004 -13.171  1.00  0.00    -0.000 C 
BRANCH  22  23
ATOM     23  C   UNL     1       4.663  -0.493 -12.867  1.00  0.00    -0.000 C 
BRANCH  23  24
ATOM     24  C   UNL     1       6.009  -1.242 -12.760  1.00  0.00    -0.000 C 
BRANCH  24  25
ATOM     25  C   UNL     1       6.443  -1.520 -11.310  1.00  0.00    -0.003 C 
ATOM     26  C   UNL     1       7.604  -0.640 -10.853  1.00  0.00     0.004 C 
ENDBRANCH  24  25
ENDBRANCH  23  24
ENDBRANCH  22  23
ENDBRANCH  21  22
ENDBRANCH  20  21
ENDBRANCH  19  20
ENDBRANCH  18  19
ENDBRANCH  17  18
ENDBRANCH  16  17
ENDBRANCH  15  16
ENDBRANCH   1  15
TORSDOF 22
ENDMDL
MODEL 8
REMARK VINA RESULT:    -3.299      1.605      4.718
REMARK INTER + INTRA:         -12.157
REMARK INTER:                  -7.472
REMARK INTRA:                  -4.686
REMARK UNBOUND:                -4.614
REMARK SMILES CCCCCCCCCCCCCCCCCCCCCCCC(=O)[O-]
REMARK SMILES IDX 13 1 14 2 15 3 16 4 17 5 18 6 19 7 20 8 21 9 22 10 23 11
REMARK SMILES IDX 24 12 25 13 26 14 12 15 11 16 10 17 9 18 8 19 7 20 6 21 5 22
REMARK SMILES IDX 4 23 3 24 2 25 1 26
REMARK H PARENT
REMARK Flexibility Score: inf
ROOT
ATOM      1  C   UNL     1      -0.111   2.044  -8.806  1.00  0.00     0.000 C 
ENDROOT
BRANCH   1   2
ATOM      2  C   UNL     1      -1.408   2.874  -8.824  1.00  0.00     0.000 C 
BRANCH   2   3
ATOM      3  C   UNL     1      -1.248   4.253  -8.164  1.00  0.00     0.000 C 
BRANCH   3   4
ATOM      4  C   UNL     1      -0.464   5.247  -9.041  1.00  0.00     0.000 C 
BRANCH   4   5
ATOM      5  C   UNL     1      -1.315   6.041 -10.052  1.00  0.00     0.000 C 
BRANCH   5   6
ATOM      6  C   UNL     1      -2.433   6.902  -9.434  1.00  0.00     0.000 C 
BRANCH   6   7
ATOM      7  C   UNL     1      -3.838   6.649 -10.010  1.00  0.00     0.000 C 
BRANCH   7   8
ATOM      8  C   UNL     1      -3.804   6.066 -11.431  1.00  0.00     0.000 C 
BRANCH   8   9
ATOM      9  C   UNL     1      -4.986   5.116 -11.665  1.00  0.00     0.000 C 
BRANCH   9  10
ATOM     10  C   UNL     1      -5.426   4.375 -10.390  1.00  0.00     0.006 C 
BRANCH  10  11
ATOM     11  C   UNL     1      -4.799   2.977 -10.232  1.00  0.00     0.053 C 
BRANCH  11  12
ATOM     12  C   UNL     1      -5.745   1.984  -9.629  1.00  0.00     0.041 C 
ATOM     13  O   UNL     1      -6.543   1.341 -10.361  1.00  0.00    -0.550 OA
ATOM     14  O   UNL     1      -5.723   1.743  -8.262  1.00  0.00    -0.550 OA
ENDBRANCH  11  12
ENDBRANCH  10  11
ENDBRANCH   9  10
ENDBRANCH   8   9
ENDBRANCH   7   8
ENDBRANCH   6   7
ENDBRANCH   5   6
ENDBRANCH   4   5
ENDBRANCH   3   4
ENDBRANCH   2   3
ENDBRANCH   1   2
BRANCH   1  15
ATOM     15  C   UNL     1       0.304   1.441 -10.162  1.00  0.00     0.000 C 
BRANCH  15  16
ATOM     16  C   UNL     1       1.632   2.003 -10.689  1.00  0.00     0.000 C 
BRANCH  16  17
ATOM     17  C   UNL     1       1.396   3.228 -11.585  1.00  0.00     0.000 C 
BRANCH  17  18
ATOM     18  C   UNL     1       1.518   2.896 -13.082  1.00  0.00    -0.000 C 
BRANCH  18  19
ATOM     19  C   UNL     1       0.254   3.276 -13.874  1.00  0.00    -0.000 C 
BRANCH  19  20
ATOM     20  C   UNL     1      -0.760   4.062 -13.017  1.00  0.00    -0.000 C 
BRANCH  20  21
ATOM     21  C   UNL     1      -1.938   3.208 -12.508  1.00  0.00    -0.000 C 
BRANCH  21  22
ATOM     22  C   UNL     1      -2.191   1.919 -13.307  1.00  0.00    -0.000 C 
BRANCH  22  23
ATOM     23  C   UNL     1      -2.633   0.744 -12.416  1.00  0.00    -0.000 C 
BRANCH  23  24
ATOM     24  C   UNL     1      -1.755  -0.508 -12.623  1.00  0.00    -0.000 C 
BRANCH  24  25
ATOM     25  C   UNL     1      -0.552  -0.270 -13.551  1.00  0.00    -0.003 C 
ATOM     26  C   UNL     1       0.751  -0.852 -13.005  1.00  0.00     0.004 C 
ENDBRANCH  24  25
ENDBRANCH  23  24
ENDBRANCH  22  23
ENDBRANCH  21  22
ENDBRANCH  20  21
ENDBRANCH  19  20
ENDBRANCH  18  19
ENDBRANCH  17  18
ENDBRANCH  16  17
ENDBRANCH  15  16
ENDBRANCH   1  15
TORSDOF 22
ENDMDL
MODEL 9
REMARK VINA RESULT:    -3.268      1.289      2.238
REMARK INTER + INTRA:         -12.085
REMARK INTER:                  -7.503
REMARK INTRA:                  -4.582
REMARK UNBOUND:                -4.614
REMARK SMILES CCCCCCCCCCCCCCCCCCCCCCCC(=O)[O-]
REMARK SMILES IDX 13 1 14 2 15 3 16 4 17 5 18 6 19 7 20 8 21 9 22 10 23 11
REMARK SMILES IDX 24 12 25 13 26 14 12 15 11 16 10 17 9 18 8 19 7 20 6 21 5 22
REMARK SMILES IDX 4 23 3 24 2 25 1 26
REMARK H PARENT
REMARK Flexibility Score: inf
ROOT
ATOM      1  C   UNL     1      -1.656   2.982  -8.293  1.00  0.00     0.000 C 
ENDROOT
BRANCH   1   2
ATOM      2  C   UNL     1      -0.210   2.501  -8.075  1.00  0.00     0.000 C 
BRANCH   2   3
ATOM      3  C   UNL     1       0.240   1.458  -9.110  1.00  0.00     0.000 C 
BRANCH   3   4
ATOM      4  C   UNL     1       0.953   2.089 -10.321  1.00  0.00     0.000 C 
BRANCH   4   5
ATOM      5  C   UNL     1       0.182   2.002 -11.654  1.00  0.00     0.000 C 
BRANCH   5   6
ATOM      6  C   UNL     1      -1.274   1.512 -11.537  1.00  0.00     0.000 C 
BRANCH   6   7
ATOM      7  C   UNL     1      -2.274   2.231 -12.461  1.00  0.00     0.000 C 
BRANCH   7   8
ATOM      8  C   UNL     1      -3.338   3.023 -11.686  1.00  0.00     0.000 C 
BRANCH   8   9
ATOM      9  C   UNL     1      -4.748   2.502 -11.997  1.00  0.00     0.000 C 
BRANCH   9  10
ATOM     10  C   UNL     1      -5.292   1.552 -10.915  1.00  0.00     0.006 C 
BRANCH  10  11
ATOM     11  C   UNL     1      -5.199   2.114  -9.485  1.00  0.00     0.053 C 
BRANCH  11  12
ATOM     12  C   UNL     1      -6.443   2.837  -9.067  1.00  0.00     0.041 C 
ATOM     13  O   UNL     1      -7.386   3.004  -9.884  1.00  0.00    -0.550 OA
ATOM     14  O   UNL     1      -6.576   3.296  -7.763  1.00  0.00    -0.550 OA
ENDBRANCH  11  12
ENDBRANCH  10  11
ENDBRANCH   9  10
ENDBRANCH   8   9
ENDBRANCH   7   8
ENDBRANCH   6   7
ENDBRANCH   5   6
ENDBRANCH   4   5
ENDBRANCH   3   4
ENDBRANCH   2   3
ENDBRANCH   1   2
BRANCH   1  15
ATOM     15  C   UNL     1      -1.804   4.462  -8.694  1.00  0.00     0.000 C 
BRANCH  15  16
ATOM     16  C   UNL     1      -0.509   5.267  -8.512  1.00  0.00     0.000 C 
BRANCH  16  17
ATOM     17  C   UNL     1       0.056   5.719  -9.867  1.00  0.00     0.000 C 
BRANCH  17  18
ATOM     18  C   UNL     1      -0.961   5.566 -11.010  1.00  0.00    -0.000 C 
BRANCH  18  19
ATOM     19  C   UNL     1      -0.293   5.570 -12.397  1.00  0.00    -0.000 C 
BRANCH  19  20
ATOM     20  C   UNL     1      -0.674   6.814 -13.227  1.00  0.00    -0.000 C 
BRANCH  20  21
ATOM     21  C   UNL     1      -2.023   7.441 -12.823  1.00  0.00    -0.000 C 
BRANCH  21  22
ATOM     22  C   UNL     1      -3.252   6.814 -13.501  1.00  0.00    -0.000 C 
BRANCH  22  23
ATOM     23  C   UNL     1      -4.578   7.263 -12.860  1.00  0.00    -0.000 C 
BRANCH  23  24
ATOM     24  C   UNL     1      -5.464   6.068 -12.450  1.00  0.00    -0.000 C 
BRANCH  24  25
ATOM     25  C   UNL     1      -5.807   6.043 -10.951  1.00  0.00    -0.003 C 
ATOM     26  C   UNL     1      -4.572   6.101 -10.053  1.00  0.00     0.004 C 
ENDBRANCH  24  25
ENDBRANCH  23  24
ENDBRANCH  22  23
ENDBRANCH  21  22
ENDBRANCH  20  21
ENDBRANCH  19  20
ENDBRANCH  18  19
ENDBRANCH  17  18
ENDBRANCH  16  17
ENDBRANCH  15  16
ENDBRANCH   1  15
TORSDOF 22
ENDMDL
