MODEL 1
REMARK VINA RESULT:     2.977      0.000      0.000
REMARK INTER + INTRA:           3.917
REMARK INTER:                   4.021
REMARK INTRA:                  -0.104
REMARK UNBOUND:                -0.104
REMARK SMILES COc1ccc(-c2cc(=O)c3c(OC)c(OC)c(OC)c(OC)c3o2)cc1
REMARK SMILES IDX 7 1 8 2 9 3 10 4 11 5 24 6 25 7 21 8 18 9 15 10 12 11 6 12
REMARK SMILES IDX 3 13 4 14 27 15 5 16 26 17 2 18 1 19 22 20 23 21 13 22 14 23
REMARK SMILES IDX 19 24 20 25 16 26 17 27
REMARK H PARENT
REMARK Flexibility Score: inf
ROOT
ATOM      1  C   UNL     1       1.778  14.694  18.022  1.00  0.00     0.138 A 
ATOM      2  C   UNL     1       2.412  14.171  19.160  1.00  0.00     0.100 A 
ATOM      3  C   UNL     1       3.278  13.087  19.023  1.00  0.00     0.197 A 
ATOM      4  O   UNL     1       3.871  12.655  20.047  1.00  0.00    -0.289 OA
ATOM      5  C   UNL     1       3.495  12.519  17.748  1.00  0.00     0.115 A 
ATOM      6  C   UNL     1       2.872  13.142  16.642  1.00  0.00     0.188 A 
ATOM      7  O   UNL     1       2.048  14.170  16.828  1.00  0.00    -0.452 OA
ATOM      8  C   UNL     1       3.105  12.675  15.339  1.00  0.00     0.209 A 
ATOM      9  C   UNL     1       3.951  11.565  15.129  1.00  0.00     0.211 A 
ATOM     10  C   UNL     1       4.584  10.944  16.218  1.00  0.00     0.208 A 
ATOM     11  C   UNL     1       4.304  11.376  17.539  1.00  0.00     0.179 A 
ENDROOT
BRANCH   1  12
ATOM     12  C   UNL     1       0.826  15.834  18.108  1.00  0.00     0.018 A 
ATOM     13  C   UNL     1      -1.022  17.966  18.299  1.00  0.00     0.118 A 
ATOM     14  C   UNL     1      -1.469  16.634  18.291  1.00  0.00     0.047 A 
ATOM     15  C   UNL     1       0.350  18.222  18.220  1.00  0.00     0.047 A 
ATOM     16  C   UNL     1      -0.553  15.581  18.200  1.00  0.00     0.016 A 
ATOM     17  C   UNL     1       1.267  17.171  18.131  1.00  0.00     0.016 A 
BRANCH  13  18
ATOM     18  O   UNL     1      -1.900  19.056  18.389  1.00  0.00    -0.497 OA
ATOM     19  C   UNL     1      -2.082  20.028  17.367  1.00  0.00     0.278 C 
ENDBRANCH  13  18
ENDBRANCH   1  12
BRANCH   8  20
ATOM     20  O   UNL     1       2.496  13.318  14.257  1.00  0.00    -0.490 OA
ATOM     21  C   UNL     1       1.300  12.827  13.655  1.00  0.00     0.278 C 
ENDBRANCH   8  20
BRANCH  11  22
ATOM     22  O   UNL     1       4.786  10.649  18.631  1.00  0.00    -0.492 OA
ATOM     23  C   UNL     1       6.061  10.936  19.204  1.00  0.00     0.278 C 
ENDBRANCH  11  22
BRANCH   9  24
ATOM     24  O   UNL     1       4.215  11.031  13.855  1.00  0.00    -0.490 OA
ATOM     25  C   UNL     1       3.612   9.869  13.292  1.00  0.00     0.279 C 
ENDBRANCH   9  24
BRANCH  10  26
ATOM     26  O   UNL     1       5.473   9.895  15.912  1.00  0.00    -0.490 OA
ATOM     27  C   UNL     1       6.893   9.938  15.960  1.00  0.00     0.278 C 
ENDBRANCH  10  26
TORSDOF 6
ENDMDL
MODEL 2
REMARK VINA RESULT:     4.260      1.062      3.617
REMARK INTER + INTRA:           5.650
REMARK INTER:                   4.827
REMARK INTRA:                   0.822
REMARK UNBOUND:                -0.104
REMARK SMILES COc1ccc(-c2cc(=O)c3c(OC)c(OC)c(OC)c(OC)c3o2)cc1
REMARK SMILES IDX 7 1 8 2 9 3 10 4 11 5 24 6 25 7 21 8 18 9 15 10 12 11 6 12
REMARK SMILES IDX 3 13 4 14 27 15 5 16 26 17 2 18 1 19 22 20 23 21 13 22 14 23
REMARK SMILES IDX 19 24 20 25 16 26 17 27
REMARK H PARENT
REMARK Flexibility Score: inf
ROOT
ATOM      1  C   UNL     1       1.642  14.676  17.241  1.00  0.00     0.138 A 
ATOM      2  C   UNL     1       1.589  14.485  15.851  1.00  0.00     0.100 A 
ATOM      3  C   UNL     1       2.395  13.512  15.262  1.00  0.00     0.197 A 
ATOM      4  O   UNL     1       2.306  13.325  14.020  1.00  0.00    -0.289 OA
ATOM      5  C   UNL     1       3.266  12.743  16.066  1.00  0.00     0.115 A 
ATOM      6  C   UNL     1       3.215  12.948  17.463  1.00  0.00     0.188 A 
ATOM      7  O   UNL     1       2.432  13.895  17.974  1.00  0.00    -0.452 OA
ATOM      8  C   UNL     1       3.998  12.165  18.326  1.00  0.00     0.209 A 
ATOM      9  C   UNL     1       4.858  11.178  17.796  1.00  0.00     0.211 A 
ATOM     10  C   UNL     1       4.909  10.958  16.410  1.00  0.00     0.208 A 
ATOM     11  C   UNL     1       4.164  11.786  15.534  1.00  0.00     0.179 A 
ENDROOT
BRANCH   1  12
ATOM     12  C   UNL     1       0.823  15.714  17.923  1.00  0.00     0.018 A 
ATOM     13  C   UNL     1      -0.706  17.728  19.189  1.00  0.00     0.118 A 
ATOM     14  C   UNL     1       0.570  18.017  18.675  1.00  0.00     0.047 A 
ATOM     15  C   UNL     1      -1.212  16.431  19.057  1.00  0.00     0.047 A 
ATOM     16  C   UNL     1       1.322  17.021  18.046  1.00  0.00     0.016 A 
ATOM     17  C   UNL     1      -0.462  15.434  18.427  1.00  0.00     0.016 A 
BRANCH  13  18
ATOM     18  O   UNL     1      -1.500  18.692  19.827  1.00  0.00    -0.497 OA
ATOM     19  C   UNL     1      -1.157  20.067  19.942  1.00  0.00     0.278 C 
ENDBRANCH  13  18
ENDBRANCH   1  12
BRANCH   8  20
ATOM     20  O   UNL     1       3.918  12.369  19.707  1.00  0.00    -0.490 OA
ATOM     21  C   UNL     1       4.141  11.320  20.646  1.00  0.00     0.278 C 
ENDBRANCH   8  20
BRANCH  11  22
ATOM     22  O   UNL     1       4.350  11.691  14.153  1.00  0.00    -0.492 OA
ATOM     23  C   UNL     1       3.966  10.520  13.434  1.00  0.00     0.278 C 
ENDBRANCH  11  22
BRANCH   9  24
ATOM     24  O   UNL     1       5.684  10.370  18.597  1.00  0.00    -0.490 OA
ATOM     25  C   UNL     1       6.841  10.802  19.309  1.00  0.00     0.279 C 
ENDBRANCH   9  24
BRANCH  10  26
ATOM     26  O   UNL     1       5.733   9.901  15.973  1.00  0.00    -0.490 OA
ATOM     27  C   UNL     1       7.148   9.917  15.849  1.00  0.00     0.278 C 
ENDBRANCH  10  26
TORSDOF 6
ENDMDL
MODEL 3
REMARK VINA RESULT:     4.964      4.727      8.579
REMARK INTER + INTRA:           6.601
REMARK INTER:                   7.247
REMARK INTRA:                  -0.646
REMARK UNBOUND:                -0.104
REMARK SMILES COc1ccc(-c2cc(=O)c3c(OC)c(OC)c(OC)c(OC)c3o2)cc1
REMARK SMILES IDX 7 1 8 2 9 3 10 4 11 5 24 6 25 7 21 8 18 9 15 10 12 11 6 12
REMARK SMILES IDX 3 13 4 14 27 15 5 16 26 17 2 18 1 19 22 20 23 21 13 22 14 23
REMARK SMILES IDX 19 24 20 25 16 26 17 27
REMARK H PARENT
REMARK Flexibility Score: inf
ROOT
ATOM      1  C   UNL     1       2.195   7.233  16.826  1.00  0.00     0.138 A 
ATOM      2  C   UNL     1       2.526   6.944  15.493  1.00  0.00     0.100 A 
ATOM      3  C   UNL     1       3.008   7.961  14.671  1.00  0.00     0.197 A 
ATOM      4  O   UNL     1       3.339   7.677  13.490  1.00  0.00    -0.289 OA
ATOM      5  C   UNL     1       3.141   9.272  15.182  1.00  0.00     0.115 A 
ATOM      6  C   UNL     1       2.850   9.471  16.551  1.00  0.00     0.188 A 
ATOM      7  O   UNL     1       2.386   8.466  17.291  1.00  0.00    -0.452 OA
ATOM      8  C   UNL     1       3.032  10.731  17.141  1.00  0.00     0.209 A 
ATOM      9  C   UNL     1       3.492  11.814  16.361  1.00  0.00     0.211 A 
ATOM     10  C   UNL     1       3.796  11.626  15.003  1.00  0.00     0.208 A 
ATOM     11  C   UNL     1       3.555  10.370  14.391  1.00  0.00     0.179 A 
ENDROOT
BRANCH   1  12
ATOM     12  C   UNL     1       1.655   6.195  17.745  1.00  0.00     0.018 A 
ATOM     13  C   UNL     1       0.681   4.194  19.490  1.00  0.00     0.118 A 
ATOM     14  C   UNL     1       1.720   3.909  18.588  1.00  0.00     0.047 A 
ATOM     15  C   UNL     1       0.142   5.483  19.519  1.00  0.00     0.047 A 
ATOM     16  C   UNL     1       2.203   4.901  17.729  1.00  0.00     0.016 A 
ATOM     17  C   UNL     1       0.625   6.477  18.662  1.00  0.00     0.016 A 
BRANCH  13  18
ATOM     18  O   UNL     1       0.163   3.235  20.372  1.00  0.00    -0.497 OA
ATOM     19  C   UNL     1      -1.174   2.751  20.339  1.00  0.00     0.278 C 
ENDBRANCH  13  18
ENDBRANCH   1  12
BRANCH   8  20
ATOM     20  O   UNL     1       2.759  10.902  18.501  1.00  0.00    -0.490 OA
ATOM     21  C   UNL     1       3.773  10.813  19.499  1.00  0.00     0.278 C 
ENDBRANCH   8  20
BRANCH  11  22
ATOM     22  O   UNL     1       3.681  10.230  13.007  1.00  0.00    -0.492 OA
ATOM     23  C   UNL     1       2.615  10.584  12.128  1.00  0.00     0.278 C 
ENDBRANCH  11  22
BRANCH   9  24
ATOM     24  O   UNL     1       3.682  13.107  16.880  1.00  0.00    -0.490 OA
ATOM     25  C   UNL     1       2.652  14.036  17.208  1.00  0.00     0.279 C 
ENDBRANCH   9  24
BRANCH  10  26
ATOM     26  O   UNL     1       4.325  12.739  14.319  1.00  0.00    -0.490 OA
ATOM     27  C   UNL     1       5.693  13.109  14.221  1.00  0.00     0.278 C 
ENDBRANCH  10  26
TORSDOF 6
ENDMDL
