MODEL 1
REMARK VINA RESULT:     4.306      0.000      0.000
REMARK INTER + INTRA:           5.222
REMARK INTER:                   4.684
REMARK INTRA:                   0.539
REMARK UNBOUND:                 0.539
REMARK SMILES CC1(C)CC[C@@]2(C(=O)[O-])CC[C@]3(C)C(=CC[C@@H]4[C@@]5(C)CC[C@H](O)C(C)(C)[C@H]5CC[C@@]43C)[C@@H]2C1
REMARK SMILES IDX 6 1 5 2 10 3 32 4 4 5 11 6 14 7 33 8 2 9 12 10 15 11 1 12
REMARK SMILES IDX 3 13 13 14 30 15 16 16 17 17 29 18 31 19 18 20 28 21 27 22
REMARK SMILES IDX 20 23 19 24 24 25 21 26 22 27 25 28 26 29 7 30 8 31 9 32
REMARK SMILES IDX 23 33
REMARK H PARENT 23 34
REMARK Flexibility Score: inf
ROOT
ATOM      1  C   UNL     1     100.396 114.136 114.694  1.00  0.00     0.017 C 
ATOM      2  C   UNL     1      99.307 114.004 113.601  1.00  0.00     0.014 C 
ATOM      3  C   UNL     1     100.797 115.654 114.848  1.00  0.00     0.014 C 
ATOM      4  C   UNL     1      99.777 113.602 116.024  1.00  0.00     0.028 C 
ATOM      5  C   UNL     1      98.810 112.544 113.429  1.00  0.00     0.007 C 
ATOM      6  C   UNL     1     100.547 116.250 116.262  1.00  0.00     0.013 C 
ATOM      7  C   UNL     1     100.636 113.938 117.242  1.00  0.00    -0.064 C 
ATOM      8  C   UNL     1      99.297 112.133 115.909  1.00  0.00     0.015 C 
ATOM      9  C   UNL     1      98.273 111.916 114.752  1.00  0.00    -0.035 C 
ATOM     10  C   UNL     1     101.135 115.359 117.432  1.00  0.00    -0.006 C 
ATOM     11  C   UNL     1     101.017 113.031 118.141  1.00  0.00    -0.027 C 
ATOM     12  C   UNL     1      98.088 110.393 114.540  1.00  0.00     0.011 C 
ATOM     13  C   UNL     1      96.879 112.494 115.115  1.00  0.00     0.011 C 
ATOM     14  C   UNL     1     102.678 115.382 117.233  1.00  0.00     0.017 C 
ATOM     15  C   UNL     1     100.751 115.857 118.917  1.00  0.00    -0.020 C 
ATOM     16  C   UNL     1     100.856 113.338 119.593  1.00  0.00     0.032 C 
ATOM     17  C   UNL     1     101.198 114.811 120.043  1.00  0.00     0.006 C 
ATOM     18  C   UNL     1      99.217 116.033 119.060  1.00  0.00     0.008 C 
ATOM     19  C   UNL     1     101.459 117.231 119.167  1.00  0.00     0.012 C 
ATOM     20  C   UNL     1     100.712 115.150 121.570  1.00  0.00    -0.025 C 
ATOM     21  C   UNL     1      98.805 116.655 120.391  1.00  0.00     0.005 C 
ATOM     22  C   UNL     1      99.291 115.930 121.681  1.00  0.00     0.003 C 
ATOM     23  C   UNL     1     101.875 115.926 122.285  1.00  0.00     0.010 C 
ATOM     24  C   UNL     1     100.568 113.817 122.384  1.00  0.00     0.012 C 
ATOM     25  C   UNL     1      99.048 116.847 122.994  1.00  0.00    -0.006 C 
ATOM     26  C   UNL     1     101.520 116.529 123.638  1.00  0.00     0.033 C 
ATOM     27  C   UNL     1     100.380 117.523 123.476  1.00  0.00     0.120 C 
ATOM     28  C   UNL     1      98.415 115.983 124.140  1.00  0.00     0.014 C 
ATOM     29  C   UNL     1      98.027 118.009 122.761  1.00  0.00     0.014 C 
ENDROOT
BRANCH   1  30
ATOM     30  C   UNL     1     101.621 113.334 114.277  1.00  0.00     0.048 C 
ATOM     31  O   UNL     1     102.564 113.107 115.093  1.00  0.00    -0.550 OA
ATOM     32  O   UNL     1     101.739 112.869 112.967  1.00  0.00    -0.550 OA
ENDBRANCH   1  30
BRANCH  27  33
ATOM     33  O   UNL     1     100.215 118.195 124.717  1.00  0.00    -0.393 OA
ATOM     34  H   UNL     1     101.040 118.711 124.888  1.00  0.00     0.210 HD
ENDBRANCH  27  33
TORSDOF 2
ENDMDL
MODEL 2
REMARK VINA RESULT:     5.649      1.504      8.323
REMARK INTER + INTRA:           6.683
REMARK INTER:                   6.257
REMARK INTRA:                   0.426
REMARK UNBOUND:                 0.539
REMARK SMILES CC1(C)CC[C@@]2(C(=O)[O-])CC[C@]3(C)C(=CC[C@@H]4[C@@]5(C)CC[C@H](O)C(C)(C)[C@H]5CC[C@@]43C)[C@@H]2C1
REMARK SMILES IDX 6 1 5 2 10 3 32 4 4 5 11 6 14 7 33 8 2 9 12 10 15 11 1 12
REMARK SMILES IDX 3 13 13 14 30 15 16 16 17 17 29 18 31 19 18 20 28 21 27 22
REMARK SMILES IDX 20 23 19 24 24 25 21 26 22 27 25 28 26 29 7 30 8 31 9 32
REMARK SMILES IDX 23 33
REMARK H PARENT 23 34
REMARK Flexibility Score: inf
ROOT
ATOM      1  C   UNL     1      99.480 115.956 123.896  1.00  0.00     0.017 C 
ATOM      2  C   UNL     1      98.287 116.624 124.621  1.00  0.00     0.014 C 
ATOM      3  C   UNL     1      99.121 114.452 123.582  1.00  0.00     0.014 C 
ATOM      4  C   UNL     1      99.708 116.745 122.568  1.00  0.00     0.028 C 
ATOM      5  C   UNL     1      98.534 118.128 124.912  1.00  0.00     0.007 C 
ATOM      6  C   UNL     1      99.128 114.085 122.071  1.00  0.00     0.013 C 
ATOM      7  C   UNL     1     100.662 116.023 121.618  1.00  0.00    -0.064 C 
ATOM      8  C   UNL     1      99.994 118.248 122.813  1.00  0.00     0.015 C 
ATOM      9  C   UNL     1      98.871 118.956 123.634  1.00  0.00    -0.035 C 
ATOM     10  C   UNL     1     100.442 114.551 121.319  1.00  0.00    -0.006 C 
ATOM     11  C   UNL     1     101.722 116.608 121.061  1.00  0.00    -0.027 C 
ATOM     12  C   UNL     1      99.385 120.351 124.066  1.00  0.00     0.011 C 
ATOM     13  C   UNL     1      97.601 119.189 122.772  1.00  0.00     0.011 C 
ATOM     14  C   UNL     1     101.598 113.728 121.957  1.00  0.00     0.017 C 
ATOM     15  C   UNL     1     100.414 114.338 119.720  1.00  0.00    -0.020 C 
ATOM     16  C   UNL     1     101.954 116.442 119.596  1.00  0.00     0.032 C 
ATOM     17  C   UNL     1     101.674 115.009 118.997  1.00  0.00     0.006 C 
ATOM     18  C   UNL     1      99.149 114.985 119.100  1.00  0.00     0.008 C 
ATOM     19  C   UNL     1     100.405 112.799 119.435  1.00  0.00     0.012 C 
ATOM     20  C   UNL     1     101.656 114.986 117.359  1.00  0.00    -0.025 C 
ATOM     21  C   UNL     1      98.985 114.680 117.613  1.00  0.00     0.005 C 
ATOM     22  C   UNL     1     100.179 115.058 116.687  1.00  0.00     0.003 C 
ATOM     23  C   UNL     1     102.464 113.725 116.886  1.00  0.00     0.010 C 
ATOM     24  C   UNL     1     102.471 116.207 116.807  1.00  0.00     0.012 C 
ATOM     25  C   UNL     1     100.001 114.413 115.212  1.00  0.00    -0.006 C 
ATOM     26  C   UNL     1     102.363 113.406 115.400  1.00  0.00     0.033 C 
ATOM     27  C   UNL     1     100.912 113.148 115.026  1.00  0.00     0.120 C 
ATOM     28  C   UNL     1     100.314 115.490 114.116  1.00  0.00     0.014 C 
ATOM     29  C   UNL     1      98.539 113.947 114.908  1.00  0.00     0.014 C 
ENDROOT
BRANCH   1  30
ATOM     30  C   UNL     1     100.703 116.000 124.800  1.00  0.00     0.048 C 
ATOM     31  O   UNL     1     100.886 115.125 125.697  1.00  0.00    -0.550 OA
ATOM     32  O   UNL     1     101.626 117.039 124.675  1.00  0.00    -0.550 OA
ENDBRANCH   1  30
BRANCH  27  33
ATOM     33  O   UNL     1     100.890 112.670 113.688  1.00  0.00    -0.393 OA
ATOM     34  H   UNL     1     101.811 112.731 113.335  1.00  0.00     0.210 HD
ENDBRANCH  27  33
TORSDOF 2
ENDMDL
MODEL 3
REMARK VINA RESULT:     6.660      3.203      5.889
REMARK INTER + INTRA:           7.783
REMARK INTER:                   7.116
REMARK INTRA:                   0.667
REMARK UNBOUND:                 0.539
REMARK SMILES CC1(C)CC[C@@]2(C(=O)[O-])CC[C@]3(C)C(=CC[C@@H]4[C@@]5(C)CC[C@H](O)C(C)(C)[C@H]5CC[C@@]43C)[C@@H]2C1
REMARK SMILES IDX 6 1 5 2 10 3 32 4 4 5 11 6 14 7 33 8 2 9 12 10 15 11 1 12
REMARK SMILES IDX 3 13 13 14 30 15 16 16 17 17 29 18 31 19 18 20 28 21 27 22
REMARK SMILES IDX 20 23 19 24 24 25 21 26 22 27 25 28 26 29 7 30 8 31 9 32
REMARK SMILES IDX 23 33
REMARK H PARENT 23 34
REMARK Flexibility Score: inf
ROOT
ATOM      1  C   UNL     1      97.868 112.666 109.909  1.00  0.00     0.017 C 
ATOM      2  C   UNL     1      97.059 113.487 108.875  1.00  0.00     0.014 C 
ATOM      3  C   UNL     1      99.384 113.099 109.845  1.00  0.00     0.014 C 
ATOM      4  C   UNL     1      97.273 112.988 111.316  1.00  0.00     0.028 C 
ATOM      5  C   UNL     1      95.541 113.165 108.916  1.00  0.00     0.007 C 
ATOM      6  C   UNL     1      99.948 113.682 111.172  1.00  0.00     0.013 C 
ATOM      7  C   UNL     1      98.155 112.474 112.453  1.00  0.00    -0.064 C 
ATOM      8  C   UNL     1      95.764 112.649 111.414  1.00  0.00     0.015 C 
ATOM      9  C   UNL     1      94.906 113.367 110.326  1.00  0.00    -0.035 C 
ATOM     10  C   UNL     1      99.643 112.775 112.434  1.00  0.00    -0.006 C 
ATOM     11  C   UNL     1      97.694 111.726 113.455  1.00  0.00    -0.027 C 
ATOM     12  C   UNL     1      93.489 112.744 110.327  1.00  0.00     0.011 C 
ATOM     13  C   UNL     1      94.735 114.877 110.646  1.00  0.00     0.011 C 
ATOM     14  C   UNL     1     100.422 111.451 112.191  1.00  0.00     0.017 C 
ATOM     15  C   UNL     1     100.064 113.426 113.849  1.00  0.00    -0.020 C 
ATOM     16  C   UNL     1      98.064 112.086 114.856  1.00  0.00     0.032 C 
ATOM     17  C   UNL     1      99.550 112.561 115.092  1.00  0.00     0.006 C 
ATOM     18  C   UNL     1      99.452 114.841 114.009  1.00  0.00     0.008 C 
ATOM     19  C   UNL     1     101.626 113.526 113.891  1.00  0.00     0.012 C 
ATOM     20  C   UNL     1      99.790 113.220 116.573  1.00  0.00    -0.025 C 
ATOM     21  C   UNL     1      99.945 115.572 115.255  1.00  0.00     0.005 C 
ATOM     22  C   UNL     1      99.744 114.843 116.617  1.00  0.00     0.003 C 
ATOM     23  C   UNL     1     101.135 112.646 117.143  1.00  0.00     0.010 C 
ATOM     24  C   UNL     1      98.689 112.703 117.563  1.00  0.00     0.012 C 
ATOM     25  C   UNL     1     100.571 115.578 117.800  1.00  0.00    -0.006 C 
ATOM     26  C   UNL     1     101.644 113.319 118.412  1.00  0.00     0.033 C 
ATOM     27  C   UNL     1     101.888 114.796 118.149  1.00  0.00     0.120 C 
ATOM     28  C   UNL     1      99.664 115.734 119.070  1.00  0.00     0.014 C 
ATOM     29  C   UNL     1     101.010 117.035 117.441  1.00  0.00     0.014 C 
ENDROOT
BRANCH   1  30
ATOM     30  C   UNL     1      97.756 111.187 109.570  1.00  0.00     0.048 C 
ATOM     31  O   UNL     1      98.777 110.510 109.245  1.00  0.00    -0.550 OA
ATOM     32  O   UNL     1      96.509 110.562 109.575  1.00  0.00    -0.550 OA
ENDBRANCH   1  30
BRANCH  27  33
ATOM     33  O   UNL     1     102.537 115.336 119.292  1.00  0.00    -0.393 OA
ATOM     34  H   UNL     1     102.498 114.654 120.006  1.00  0.00     0.210 HD
ENDBRANCH  27  33
TORSDOF 2
ENDMDL
MODEL 4
REMARK VINA RESULT:     7.296      1.827      8.121
REMARK INTER + INTRA:           8.474
REMARK INTER:                   7.941
REMARK INTRA:                   0.533
REMARK UNBOUND:                 0.539
REMARK SMILES CC1(C)CC[C@@]2(C(=O)[O-])CC[C@]3(C)C(=CC[C@@H]4[C@@]5(C)CC[C@H](O)C(C)(C)[C@H]5CC[C@@]43C)[C@@H]2C1
REMARK SMILES IDX 6 1 5 2 10 3 32 4 4 5 11 6 14 7 33 8 2 9 12 10 15 11 1 12
REMARK SMILES IDX 3 13 13 14 30 15 16 16 17 17 29 18 31 19 18 20 28 21 27 22
REMARK SMILES IDX 20 23 19 24 24 25 21 26 22 27 25 28 26 29 7 30 8 31 9 32
REMARK SMILES IDX 23 33
REMARK H PARENT 23 34
REMARK Flexibility Score: inf
ROOT
ATOM      1  C   UNL     1     100.550 114.654 121.161  1.00  0.00     0.017 C 
ATOM      2  C   UNL     1      99.687 114.563 122.443  1.00  0.00     0.014 C 
ATOM      3  C   UNL     1     101.038 113.209 120.758  1.00  0.00     0.014 C 
ATOM      4  C   UNL     1      99.642 115.250 120.039  1.00  0.00     0.028 C 
ATOM      5  C   UNL     1      99.114 115.939 122.874  1.00  0.00     0.007 C 
ATOM      6  C   UNL     1     100.567 112.733 119.354  1.00  0.00     0.013 C 
ATOM      7  C   UNL     1     100.272 115.129 118.653  1.00  0.00    -0.064 C 
ATOM      8  C   UNL     1      99.074 116.643 120.413  1.00  0.00     0.015 C 
ATOM      9  C   UNL     1      98.280 116.637 121.756  1.00  0.00    -0.035 C 
ATOM     10  C   UNL     1     100.841 113.793 118.209  1.00  0.00    -0.006 C 
ATOM     11  C   UNL     1     100.395 116.155 117.812  1.00  0.00    -0.027 C 
ATOM     12  C   UNL     1      98.014 118.103 122.176  1.00  0.00     0.011 C 
ATOM     13  C   UNL     1      96.894 115.956 121.591  1.00  0.00     0.011 C 
ATOM     14  C   UNL     1     102.390 113.910 118.116  1.00  0.00     0.017 C 
ATOM     15  C   UNL     1     100.217 113.408 116.772  1.00  0.00    -0.020 C 
ATOM     16  C   UNL     1      99.981 115.979 116.389  1.00  0.00     0.032 C 
ATOM     17  C   UNL     1     100.349 114.601 115.714  1.00  0.00     0.006 C 
ATOM     18  C   UNL     1      98.706 113.089 116.894  1.00  0.00     0.008 C 
ATOM     19  C   UNL     1     100.974 112.147 116.236  1.00  0.00     0.012 C 
ATOM     20  C   UNL     1      99.605 114.367 114.273  1.00  0.00    -0.025 C 
ATOM     21  C   UNL     1      98.095 112.563 115.599  1.00  0.00     0.005 C 
ATOM     22  C   UNL     1      98.259 113.459 114.335  1.00  0.00     0.003 C 
ATOM     23  C   UNL     1     100.667 113.791 113.270  1.00  0.00     0.010 C 
ATOM     24  C   UNL     1      99.196 115.753 113.662  1.00  0.00     0.012 C 
ATOM     25  C   UNL     1      97.842 112.657 112.991  1.00  0.00    -0.006 C 
ATOM     26  C   UNL     1     100.106 113.292 111.944  1.00  0.00     0.033 C 
ATOM     27  C   UNL     1      99.106 112.175 112.196  1.00  0.00     0.120 C 
ATOM     28  C   UNL     1      96.929 113.562 112.091  1.00  0.00     0.014 C 
ATOM     29  C   UNL     1      96.986 111.378 113.270  1.00  0.00     0.014 C 
ENDROOT
BRANCH   1  30
ATOM     30  C   UNL     1     101.762 115.532 121.436  1.00  0.00     0.048 C 
ATOM     31  O   UNL     1     102.508 115.932 120.493  1.00  0.00    -0.550 OA
ATOM     32  O   UNL     1     102.091 115.878 122.747  1.00  0.00    -0.550 OA
ENDBRANCH   1  30
BRANCH  27  33
ATOM     33  O   UNL     1      98.759 111.616 110.937  1.00  0.00    -0.393 OA
ATOM     34  H   UNL     1      99.035 112.260 110.239  1.00  0.00     0.210 HD
ENDBRANCH  27  33
TORSDOF 2
ENDMDL
