MODEL 1
REMARK VINA RESULT:    -4.661      0.000      0.000
REMARK INTER + INTRA:          -8.981
REMARK INTER:                  -8.476
REMARK INTRA:                  -0.505
REMARK UNBOUND:                -0.505
REMARK SMILES CCCCCCCCCCCCCCCC(=O)[O-]
REMARK SMILES IDX 9 1 10 2 11 3 12 4 13 5 14 6 15 7 16 8 17 9 18 10 8 11 7 12
REMARK SMILES IDX 6 13 5 14 4 15 3 16 2 17 1 18
REMARK H PARENT
REMARK Flexibility Score: inf
ROOT
ATOM      1  C   UNL     1      30.009  -6.707 -15.742  1.00  0.00     0.000 C 
ENDROOT
BRANCH   1   2
ATOM      2  C   UNL     1      29.804  -7.912 -14.817  1.00  0.00     0.000 C 
BRANCH   2   3
ATOM      3  C   UNL     1      29.820  -7.483 -13.343  1.00  0.00     0.000 C 
BRANCH   3   4
ATOM      4  C   UNL     1      28.807  -6.368 -13.039  1.00  0.00     0.000 C 
BRANCH   4   5
ATOM      5  C   UNL     1      29.462  -5.130 -12.407  1.00  0.00     0.000 C 
BRANCH   5   6
ATOM      6  C   UNL     1      30.990  -5.257 -12.407  1.00  0.00     0.006 C 
BRANCH   6   7
ATOM      7  C   UNL     1      31.539  -5.278 -10.977  1.00  0.00     0.053 C 
BRANCH   7   8
ATOM      8  C   UNL     1      32.568  -6.354 -10.826  1.00  0.00     0.041 C 
ATOM      9  O   UNL     1      32.895  -7.062 -11.815  1.00  0.00    -0.550 OA
ATOM     10  O   UNL     1      33.199  -6.544  -9.604  1.00  0.00    -0.550 OA
ENDBRANCH   7   8
ENDBRANCH   6   7
ENDBRANCH   5   6
ENDBRANCH   4   5
ENDBRANCH   3   4
ENDBRANCH   2   3
ENDBRANCH   1   2
BRANCH   1  11
ATOM     11  C   UNL     1      31.265  -5.916 -15.344  1.00  0.00     0.000 C 
BRANCH  11  12
ATOM     12  C   UNL     1      31.932  -5.218 -16.539  1.00  0.00    -0.000 C 
BRANCH  12  13
ATOM     13  C   UNL     1      33.439  -5.505 -16.627  1.00  0.00    -0.000 C 
BRANCH  13  14
ATOM     14  C   UNL     1      33.988  -5.132 -18.010  1.00  0.00    -0.000 C 
BRANCH  14  15
ATOM     15  C   UNL     1      35.426  -5.638 -18.186  1.00  0.00    -0.000 C 
BRANCH  15  16
ATOM     16  C   UNL     1      36.441  -4.571 -17.750  1.00  0.00    -0.000 C 
BRANCH  16  17
ATOM     17  C   UNL     1      37.326  -5.040 -16.585  1.00  0.00    -0.003 C 
ATOM     18  C   UNL     1      37.587  -6.545 -16.610  1.00  0.00     0.004 C 
ENDBRANCH  16  17
ENDBRANCH  15  16
ENDBRANCH  14  15
ENDBRANCH  13  14
ENDBRANCH  12  13
ENDBRANCH  11  12
ENDBRANCH   1  11
TORSDOF 14
ENDMDL
MODEL 2
REMARK VINA RESULT:    -4.611      2.557      6.366
REMARK INTER + INTRA:          -8.891
REMARK INTER:                  -8.005
REMARK INTRA:                  -0.886
REMARK UNBOUND:                -0.505
REMARK SMILES CCCCCCCCCCCCCCCC(=O)[O-]
REMARK SMILES IDX 9 1 10 2 11 3 12 4 13 5 14 6 15 7 16 8 17 9 18 10 8 11 7 12
REMARK SMILES IDX 6 13 5 14 4 15 3 16 2 17 1 18
REMARK H PARENT
REMARK Flexibility Score: inf
ROOT
ATOM      1  C   UNL     1      29.495  -7.287 -15.320  1.00  0.00     0.000 C 
ENDROOT
BRANCH   1   2
ATOM      2  C   UNL     1      30.770  -6.996 -16.121  1.00  0.00     0.000 C 
BRANCH   2   3
ATOM      3  C   UNL     1      31.371  -5.640 -15.724  1.00  0.00     0.000 C 
BRANCH   3   4
ATOM      4  C   UNL     1      32.245  -5.031 -16.832  1.00  0.00     0.000 C 
BRANCH   4   5
ATOM      5  C   UNL     1      33.724  -5.423 -16.702  1.00  0.00     0.000 C 
BRANCH   5   6
ATOM      6  C   UNL     1      34.407  -5.455 -18.075  1.00  0.00     0.006 C 
BRANCH   6   7
ATOM      7  C   UNL     1      35.875  -5.873 -17.949  1.00  0.00     0.053 C 
BRANCH   7   8
ATOM      8  C   UNL     1      36.656  -4.833 -17.209  1.00  0.00     0.041 C 
ATOM      9  O   UNL     1      37.381  -5.159 -16.233  1.00  0.00    -0.550 OA
ATOM     10  O   UNL     1      36.618  -3.509 -17.628  1.00  0.00    -0.550 OA
ENDBRANCH   7   8
ENDBRANCH   6   7
ENDBRANCH   5   6
ENDBRANCH   4   5
ENDBRANCH   3   4
ENDBRANCH   2   3
ENDBRANCH   1   2
BRANCH   1  11
ATOM     11  C   UNL     1      29.815  -8.101 -14.057  1.00  0.00     0.000 C 
BRANCH  11  12
ATOM     12  C   UNL     1      29.318  -7.422 -12.771  1.00  0.00    -0.000 C 
BRANCH  12  13
ATOM     13  C   UNL     1      28.786  -6.002 -13.019  1.00  0.00    -0.000 C 
BRANCH  13  14
ATOM     14  C   UNL     1      29.913  -4.967 -12.911  1.00  0.00    -0.000 C 
BRANCH  14  15
ATOM     15  C   UNL     1      30.829  -5.273 -11.720  1.00  0.00    -0.000 C 
BRANCH  15  16
ATOM     16  C   UNL     1      32.170  -5.853 -12.193  1.00  0.00    -0.000 C 
BRANCH  16  17
ATOM     17  C   UNL     1      32.799  -6.802 -11.161  1.00  0.00    -0.003 C 
ATOM     18  C   UNL     1      32.789  -6.227  -9.746  1.00  0.00     0.004 C 
ENDBRANCH  16  17
ENDBRANCH  15  16
ENDBRANCH  14  15
ENDBRANCH  13  14
ENDBRANCH  12  13
ENDBRANCH  11  12
ENDBRANCH   1  11
TORSDOF 14
ENDMDL
MODEL 3
REMARK VINA RESULT:    -4.358      2.302      6.553
REMARK INTER + INTRA:          -8.430
REMARK INTER:                  -7.502
REMARK INTRA:                  -0.928
REMARK UNBOUND:                -0.505
REMARK SMILES CCCCCCCCCCCCCCCC(=O)[O-]
REMARK SMILES IDX 9 1 10 2 11 3 12 4 13 5 14 6 15 7 16 8 17 9 18 10 8 11 7 12
REMARK SMILES IDX 6 13 5 14 4 15 3 16 2 17 1 18
REMARK H PARENT
REMARK Flexibility Score: inf
ROOT
ATOM      1  C   UNL     1      30.792  -6.984 -16.121  1.00  0.00     0.000 C 
ENDROOT
BRANCH   1   2
ATOM      2  C   UNL     1      31.356  -5.612 -15.735  1.00  0.00     0.000 C 
BRANCH   2   3
ATOM      3  C   UNL     1      32.254  -5.053 -16.849  1.00  0.00     0.000 C 
BRANCH   3   4
ATOM      4  C   UNL     1      33.716  -5.510 -16.717  1.00  0.00     0.000 C 
BRANCH   4   5
ATOM      5  C   UNL     1      34.502  -5.360 -18.028  1.00  0.00     0.000 C 
BRANCH   5   6
ATOM      6  C   UNL     1      35.724  -4.453 -17.835  1.00  0.00     0.006 C 
BRANCH   6   7
ATOM      7  C   UNL     1      37.026  -5.247 -17.973  1.00  0.00     0.053 C 
BRANCH   7   8
ATOM      8  C   UNL     1      37.468  -5.763 -16.640  1.00  0.00     0.041 C 
ATOM      9  O   UNL     1      37.105  -5.183 -15.583  1.00  0.00    -0.550 OA
ATOM     10  O   UNL     1      38.244  -6.912 -16.563  1.00  0.00    -0.550 OA
ENDBRANCH   7   8
ENDBRANCH   6   7
ENDBRANCH   5   6
ENDBRANCH   4   5
ENDBRANCH   3   4
ENDBRANCH   2   3
ENDBRANCH   1   2
BRANCH   1  11
ATOM     11  C   UNL     1      29.478  -7.267 -15.377  1.00  0.00     0.000 C 
BRANCH  11  12
ATOM     12  C   UNL     1      29.678  -8.147 -14.133  1.00  0.00    -0.000 C 
BRANCH  12  13
ATOM     13  C   UNL     1      29.303  -7.425 -12.830  1.00  0.00    -0.000 C 
BRANCH  13  14
ATOM     14  C   UNL     1      28.981  -5.948 -13.094  1.00  0.00    -0.000 C 
BRANCH  14  15
ATOM     15  C   UNL     1      30.064  -5.034 -12.507  1.00  0.00    -0.000 C 
BRANCH  15  16
ATOM     16  C   UNL     1      31.389  -5.791 -12.338  1.00  0.00    -0.000 C 
BRANCH  16  17
ATOM     17  C   UNL     1      32.016  -5.580 -10.951  1.00  0.00    -0.003 C 
ATOM     18  C   UNL     1      33.012  -6.677 -10.580  1.00  0.00     0.004 C 
ENDBRANCH  16  17
ENDBRANCH  15  16
ENDBRANCH  14  15
ENDBRANCH  13  14
ENDBRANCH  12  13
ENDBRANCH  11  12
ENDBRANCH   1  11
TORSDOF 14
ENDMDL
MODEL 4
REMARK VINA RESULT:    -4.006      1.078      1.271
REMARK INTER + INTRA:          -7.790
REMARK INTER:                  -6.558
REMARK INTRA:                  -1.231
REMARK UNBOUND:                -0.505
REMARK SMILES CCCCCCCCCCCCCCCC(=O)[O-]
REMARK SMILES IDX 9 1 10 2 11 3 12 4 13 5 14 6 15 7 16 8 17 9 18 10 8 11 7 12
REMARK SMILES IDX 6 13 5 14 4 15 3 16 2 17 1 18
REMARK H PARENT
REMARK Flexibility Score: inf
ROOT
ATOM      1  C   UNL     1      30.668  -6.887 -16.195  1.00  0.00     0.000 C 
ENDROOT
BRANCH   1   2
ATOM      2  C   UNL     1      29.777  -7.345 -15.035  1.00  0.00     0.000 C 
BRANCH   2   3
ATOM      3  C   UNL     1      29.092  -6.146 -14.361  1.00  0.00     0.000 C 
BRANCH   3   4
ATOM      4  C   UNL     1      29.342  -6.096 -12.845  1.00  0.00     0.000 C 
BRANCH   4   5
ATOM      5  C   UNL     1      30.571  -6.913 -12.421  1.00  0.00     0.000 C 
BRANCH   5   6
ATOM      6  C   UNL     1      31.751  -5.995 -12.081  1.00  0.00     0.006 C 
BRANCH   6   7
ATOM      7  C   UNL     1      32.866  -6.771 -11.375  1.00  0.00     0.053 C 
BRANCH   7   8
ATOM      8  C   UNL     1      32.930  -6.396  -9.927  1.00  0.00     0.041 C 
ATOM      9  O   UNL     1      32.265  -5.418  -9.495  1.00  0.00    -0.550 OA
ATOM     10  O   UNL     1      33.689  -7.155  -9.047  1.00  0.00    -0.550 OA
ENDBRANCH   7   8
ENDBRANCH   6   7
ENDBRANCH   5   6
ENDBRANCH   4   5
ENDBRANCH   3   4
ENDBRANCH   2   3
ENDBRANCH   1   2
BRANCH   1  11
ATOM     11  C   UNL     1      31.281  -5.508 -15.906  1.00  0.00     0.000 C 
BRANCH  11  12
ATOM     12  C   UNL     1      32.812  -5.500 -16.037  1.00  0.00    -0.000 C 
BRANCH  12  13
ATOM     13  C   UNL     1      33.285  -5.016 -17.417  1.00  0.00    -0.000 C 
BRANCH  13  14
ATOM     14  C   UNL     1      34.266  -6.016 -18.042  1.00  0.00    -0.000 C 
BRANCH  14  15
ATOM     15  C   UNL     1      35.592  -5.335 -18.404  1.00  0.00    -0.000 C 
BRANCH  15  16
ATOM     16  C   UNL     1      36.067  -4.420 -17.267  1.00  0.00    -0.000 C 
BRANCH  16  17
ATOM     17  C   UNL     1      37.035  -5.127 -16.305  1.00  0.00    -0.003 C 
ATOM     18  C   UNL     1      37.569  -6.443 -16.867  1.00  0.00     0.004 C 
ENDBRANCH  16  17
ENDBRANCH  15  16
ENDBRANCH  14  15
ENDBRANCH  13  14
ENDBRANCH  12  13
ENDBRANCH  11  12
ENDBRANCH   1  11
TORSDOF 14
ENDMDL
MODEL 5
REMARK VINA RESULT:    -3.691      2.919      6.732
REMARK INTER + INTRA:          -7.216
REMARK INTER:                  -6.321
REMARK INTRA:                  -0.896
REMARK UNBOUND:                -0.505
REMARK SMILES CCCCCCCCCCCCCCCC(=O)[O-]
REMARK SMILES IDX 9 1 10 2 11 3 12 4 13 5 14 6 15 7 16 8 17 9 18 10 8 11 7 12
REMARK SMILES IDX 6 13 5 14 4 15 3 16 2 17 1 18
REMARK H PARENT
REMARK Flexibility Score: inf
ROOT
ATOM      1  C   UNL     1      31.299  -5.805 -12.907  1.00  0.00     0.000 C 
ENDROOT
BRANCH   1   2
ATOM      2  C   UNL     1      32.166  -5.873 -14.169  1.00  0.00     0.000 C 
BRANCH   2   3
ATOM      3  C   UNL     1      31.424  -5.284 -15.379  1.00  0.00     0.000 C 
BRANCH   3   4
ATOM      4  C   UNL     1      32.152  -5.550 -16.707  1.00  0.00     0.000 C 
BRANCH   4   5
ATOM      5  C   UNL     1      33.657  -5.257 -16.625  1.00  0.00     0.000 C 
BRANCH   5   6
ATOM      6  C   UNL     1      34.306  -5.327 -18.013  1.00  0.00     0.006 C 
BRANCH   6   7
ATOM      7  C   UNL     1      35.736  -5.870 -17.924  1.00  0.00     0.053 C 
BRANCH   7   8
ATOM      8  C   UNL     1      36.642  -4.858 -17.296  1.00  0.00     0.041 C 
ATOM      9  O   UNL     1      37.460  -5.207 -16.405  1.00  0.00    -0.550 OA
ATOM     10  O   UNL     1      36.616  -3.539 -17.728  1.00  0.00    -0.550 OA
ENDBRANCH   7   8
ENDBRANCH   6   7
ENDBRANCH   5   6
ENDBRANCH   4   5
ENDBRANCH   3   4
ENDBRANCH   2   3
ENDBRANCH   1   2
BRANCH   1  11
ATOM     11  C   UNL     1      29.879  -5.322 -13.242  1.00  0.00     0.000 C 
BRANCH  11  12
ATOM     12  C   UNL     1      28.930  -6.475 -13.606  1.00  0.00    -0.000 C 
BRANCH  12  13
ATOM     13  C   UNL     1      29.482  -7.849 -13.194  1.00  0.00    -0.000 C 
BRANCH  13  14
ATOM     14  C   UNL     1      29.642  -8.763 -14.415  1.00  0.00    -0.000 C 
BRANCH  14  15
ATOM     15  C   UNL     1      29.523  -7.966 -15.720  1.00  0.00    -0.000 C 
BRANCH  15  16
ATOM     16  C   UNL     1      29.490  -8.903 -16.936  1.00  0.00    -0.000 C 
BRANCH  16  17
ATOM     17  C   UNL     1      28.122  -8.915 -17.635  1.00  0.00    -0.003 C 
ATOM     18  C   UNL     1      28.195  -9.443 -19.067  1.00  0.00     0.004 C 
ENDBRANCH  16  17
ENDBRANCH  15  16
ENDBRANCH  14  15
ENDBRANCH  13  14
ENDBRANCH  12  13
ENDBRANCH  11  12
ENDBRANCH   1  11
TORSDOF 14
ENDMDL
MODEL 6
REMARK VINA RESULT:    -3.537      1.112      2.227
REMARK INTER + INTRA:          -6.937
REMARK INTER:                  -5.963
REMARK INTRA:                  -0.974
REMARK UNBOUND:                -0.505
REMARK SMILES CCCCCCCCCCCCCCCC(=O)[O-]
REMARK SMILES IDX 9 1 10 2 11 3 12 4 13 5 14 6 15 7 16 8 17 9 18 10 8 11 7 12
REMARK SMILES IDX 6 13 5 14 4 15 3 16 2 17 1 18
REMARK H PARENT
REMARK Flexibility Score: inf
ROOT
ATOM      1  C   UNL     1      31.830  -5.964 -16.201  1.00  0.00     0.000 C 
ENDROOT
BRANCH   1   2
ATOM      2  C   UNL     1      30.848  -5.147 -15.353  1.00  0.00     0.000 C 
BRANCH   2   3
ATOM      3  C   UNL     1      29.602  -5.974 -15.005  1.00  0.00     0.000 C 
BRANCH   3   4
ATOM      4  C   UNL     1      29.830  -7.486 -15.163  1.00  0.00     0.000 C 
BRANCH   4   5
ATOM      5  C   UNL     1      29.704  -8.245 -13.834  1.00  0.00     0.000 C 
BRANCH   5   6
ATOM      6  C   UNL     1      30.035  -7.333 -12.647  1.00  0.00     0.006 C 
BRANCH   6   7
ATOM      7  C   UNL     1      31.550  -7.214 -12.452  1.00  0.00     0.053 C 
BRANCH   7   8
ATOM      8  C   UNL     1      31.871  -6.101 -11.504  1.00  0.00     0.041 C 
ATOM      9  O   UNL     1      32.722  -6.270 -10.592  1.00  0.00    -0.550 OA
ATOM     10  O   UNL     1      31.263  -4.862 -11.658  1.00  0.00    -0.550 OA
ENDBRANCH   7   8
ENDBRANCH   6   7
ENDBRANCH   5   6
ENDBRANCH   4   5
ENDBRANCH   3   4
ENDBRANCH   2   3
ENDBRANCH   1   2
BRANCH   1  11
ATOM     11  C   UNL     1      33.100  -5.154 -16.504  1.00  0.00     0.000 C 
BRANCH  11  12
ATOM     12  C   UNL     1      33.557  -5.290 -17.964  1.00  0.00    -0.000 C 
BRANCH  12  13
ATOM     13  C   UNL     1      34.977  -5.866 -18.089  1.00  0.00    -0.000 C 
BRANCH  13  14
ATOM     14  C   UNL     1      35.952  -4.810 -18.624  1.00  0.00    -0.000 C 
BRANCH  14  15
ATOM     15  C   UNL     1      36.555  -3.987 -17.479  1.00  0.00    -0.000 C 
BRANCH  15  16
ATOM     16  C   UNL     1      36.645  -4.819 -16.192  1.00  0.00    -0.000 C 
BRANCH  16  17
ATOM     17  C   UNL     1      38.004  -5.518 -16.035  1.00  0.00    -0.003 C 
ATOM     18  C   UNL     1      37.995  -6.951 -16.566  1.00  0.00     0.004 C 
ENDBRANCH  16  17
ENDBRANCH  15  16
ENDBRANCH  14  15
ENDBRANCH  13  14
ENDBRANCH  12  13
ENDBRANCH  11  12
ENDBRANCH   1  11
TORSDOF 14
ENDMDL
MODEL 7
REMARK VINA RESULT:    -3.532      3.513      4.878
REMARK INTER + INTRA:          -6.928
REMARK INTER:                  -5.970
REMARK INTRA:                  -0.957
REMARK UNBOUND:                -0.505
REMARK SMILES CCCCCCCCCCCCCCCC(=O)[O-]
REMARK SMILES IDX 9 1 10 2 11 3 12 4 13 5 14 6 15 7 16 8 17 9 18 10 8 11 7 12
REMARK SMILES IDX 6 13 5 14 4 15 3 16 2 17 1 18
REMARK H PARENT
REMARK Flexibility Score: inf
ROOT
ATOM      1  C   UNL     1      31.150  -5.488 -14.046  1.00  0.00     0.000 C 
ENDROOT
BRANCH   1   2
ATOM      2  C   UNL     1      29.744  -5.655 -13.458  1.00  0.00     0.000 C 
BRANCH   2   3
ATOM      3  C   UNL     1      29.089  -6.951 -13.958  1.00  0.00     0.000 C 
BRANCH   3   4
ATOM      4  C   UNL     1      30.090  -8.112 -14.083  1.00  0.00     0.000 C 
BRANCH   4   5
ATOM      5  C   UNL     1      29.577  -9.239 -14.991  1.00  0.00     0.000 C 
BRANCH   5   6
ATOM      6  C   UNL     1      29.768  -8.883 -16.470  1.00  0.00     0.006 C 
BRANCH   6   7
ATOM      7  C   UNL     1      28.425  -8.579 -17.140  1.00  0.00     0.053 C 
BRANCH   7   8
ATOM      8  C   UNL     1      28.364  -9.200 -18.500  1.00  0.00     0.041 C 
ATOM      9  O   UNL     1      29.424  -9.538 -19.091  1.00  0.00    -0.550 OA
ATOM     10  O   UNL     1      27.135  -9.449 -19.095  1.00  0.00    -0.550 OA
ENDBRANCH   7   8
ENDBRANCH   6   7
ENDBRANCH   5   6
ENDBRANCH   4   5
ENDBRANCH   3   4
ENDBRANCH   2   3
ENDBRANCH   1   2
BRANCH   1  11
ATOM     11  C   UNL     1      31.082  -5.129 -15.538  1.00  0.00     0.000 C 
BRANCH  11  12
ATOM     12  C   UNL     1      32.098  -5.912 -16.384  1.00  0.00    -0.000 C 
BRANCH  12  13
ATOM     13  C   UNL     1      33.054  -4.993 -17.161  1.00  0.00    -0.000 C 
BRANCH  13  14
ATOM     14  C   UNL     1      34.391  -5.695 -17.432  1.00  0.00    -0.000 C 
BRANCH  14  15
ATOM     15  C   UNL     1      35.353  -4.773 -18.191  1.00  0.00    -0.000 C 
BRANCH  15  16
ATOM     16  C   UNL     1      36.427  -4.206 -17.251  1.00  0.00    -0.000 C 
BRANCH  16  17
ATOM     17  C   UNL     1      36.889  -5.226 -16.199  1.00  0.00    -0.003 C 
ATOM     18  C   UNL     1      37.735  -6.349 -16.796  1.00  0.00     0.004 C 
ENDBRANCH  16  17
ENDBRANCH  15  16
ENDBRANCH  14  15
ENDBRANCH  13  14
ENDBRANCH  12  13
ENDBRANCH  11  12
ENDBRANCH   1  11
TORSDOF 14
ENDMDL
MODEL 8
REMARK VINA RESULT:    -3.443      2.638      3.783
REMARK INTER + INTRA:          -6.767
REMARK INTER:                  -6.215
REMARK INTRA:                  -0.552
REMARK UNBOUND:                -0.505
REMARK SMILES CCCCCCCCCCCCCCCC(=O)[O-]
REMARK SMILES IDX 9 1 10 2 11 3 12 4 13 5 14 6 15 7 16 8 17 9 18 10 8 11 7 12
REMARK SMILES IDX 6 13 5 14 4 15 3 16 2 17 1 18
REMARK H PARENT
REMARK Flexibility Score: inf
ROOT
ATOM      1  C   UNL     1      32.086  -5.804 -14.170  1.00  0.00     0.000 C 
ENDROOT
BRANCH   1   2
ATOM      2  C   UNL     1      31.325  -5.773 -12.839  1.00  0.00     0.000 C 
BRANCH   2   3
ATOM      3  C   UNL     1      29.893  -5.253 -13.036  1.00  0.00     0.000 C 
BRANCH   3   4
ATOM      4  C   UNL     1      28.897  -6.375 -13.372  1.00  0.00     0.000 C 
BRANCH   4   5
ATOM      5  C   UNL     1      29.390  -7.758 -12.923  1.00  0.00     0.000 C 
BRANCH   5   6
ATOM      6  C   UNL     1      29.655  -8.665 -14.131  1.00  0.00     0.006 C 
BRANCH   6   7
ATOM      7  C   UNL     1      29.444  -7.906 -15.444  1.00  0.00     0.053 C 
BRANCH   7   8
ATOM      8  C   UNL     1      29.429  -8.855 -16.602  1.00  0.00     0.041 C 
ATOM      9  O   UNL     1      28.415  -8.933 -17.344  1.00  0.00    -0.550 OA
ATOM     10  O   UNL     1      30.551  -9.620 -16.887  1.00  0.00    -0.550 OA
ENDBRANCH   7   8
ENDBRANCH   6   7
ENDBRANCH   5   6
ENDBRANCH   4   5
ENDBRANCH   3   4
ENDBRANCH   2   3
ENDBRANCH   1   2
BRANCH   1  11
ATOM     11  C   UNL     1      31.192  -5.326 -15.324  1.00  0.00     0.000 C 
BRANCH  11  12
ATOM     12  C   UNL     1      31.988  -5.012 -16.601  1.00  0.00    -0.000 C 
BRANCH  12  13
ATOM     13  C   UNL     1      33.444  -5.499 -16.526  1.00  0.00    -0.000 C 
BRANCH  13  14
ATOM     14  C   UNL     1      34.099  -5.486 -17.912  1.00  0.00    -0.000 C 
BRANCH  14  15
ATOM     15  C   UNL     1      35.320  -4.557 -17.936  1.00  0.00    -0.000 C 
BRANCH  15  16
ATOM     16  C   UNL     1      36.605  -5.348 -18.221  1.00  0.00    -0.000 C 
BRANCH  16  17
ATOM     17  C   UNL     1      36.968  -6.315 -17.084  1.00  0.00    -0.003 C 
ATOM     18  C   UNL     1      37.603  -5.609 -15.887  1.00  0.00     0.004 C 
ENDBRANCH  16  17
ENDBRANCH  15  16
ENDBRANCH  14  15
ENDBRANCH  13  14
ENDBRANCH  12  13
ENDBRANCH  11  12
ENDBRANCH   1  11
TORSDOF 14
ENDMDL
