MODEL 1
REMARK VINA RESULT:    -0.077      0.000      0.000
REMARK INTER + INTRA:          -0.414
REMARK INTER:                  -0.090
REMARK INTRA:                  -0.324
REMARK UNBOUND:                -0.324
REMARK SMILES O=c1c(O)c(-c2ccc(O)c(O)c2)oc2cc(O)ccc12
REMARK SMILES IDX 5 1 3 2 2 3 1 4 21 5 15 6 14 7 16 8 17 9 19 10 20 11 6 12
REMARK SMILES IDX 7 13 8 14 9 15 13 16 11 17 10 18 12 20 4 22 18 24
REMARK H PARENT 10 19 12 21 4 23 18 25
REMARK Flexibility Score: inf
ROOT
ATOM      1  C   UNL     1     151.643 150.585 164.150  1.00  0.00     0.180 A 
ATOM      2  C   UNL     1     152.870 150.256 164.764  1.00  0.00     0.208 A 
ATOM      3  C   UNL     1     152.857 149.470 165.926  1.00  0.00     0.235 A 
ATOM      4  O   UNL     1     153.941 149.154 166.487  1.00  0.00    -0.285 OA
ATOM      5  C   UNL     1     151.628 149.049 166.459  1.00  0.00     0.069 A 
ATOM      6  C   UNL     1     150.442 149.439 165.800  1.00  0.00     0.142 A 
ATOM      7  O   UNL     1     150.500 150.177 164.696  1.00  0.00    -0.452 OA
ATOM      8  C   UNL     1     149.198 149.048 166.307  1.00  0.00     0.094 A 
ATOM      9  C   UNL     1     149.122 148.268 167.465  1.00  0.00     0.119 A 
ATOM     10  C   UNL     1     150.296 147.876 168.122  1.00  0.00     0.047 A 
ATOM     11  C   UNL     1     151.545 148.263 167.624  1.00  0.00     0.020 A 
ENDROOT
BRANCH   1  12
ATOM     12  C   UNL     1     151.575 151.394 162.912  1.00  0.00     0.025 A 
ATOM     13  C   UNL     1     151.420 152.785 163.005  1.00  0.00     0.016 A 
ATOM     14  C   UNL     1     151.333 153.566 161.849  1.00  0.00     0.051 A 
ATOM     15  C   UNL     1     151.383 152.969 160.586  1.00  0.00     0.157 A 
ATOM     16  C   UNL     1     151.603 150.792 161.641  1.00  0.00     0.062 A 
ATOM     17  C   UNL     1     151.514 151.574 160.480  1.00  0.00     0.158 A 
BRANCH  15  18
ATOM     18  O   UNL     1     151.296 153.774 159.451  1.00  0.00    -0.504 OA
ATOM     19  H   UNL     1     151.593 153.450 158.538  1.00  0.00     0.293 HD
ENDBRANCH  15  18
BRANCH  17  20
ATOM     20  O   UNL     1     151.549 150.970 159.224  1.00  0.00    -0.504 OA
ATOM     21  H   UNL     1     150.795 151.086 158.558  1.00  0.00     0.293 HD
ENDBRANCH  17  20
ENDBRANCH   1  12
BRANCH   2  22
ATOM     22  O   UNL     1     154.074 150.731 164.237  1.00  0.00    -0.502 OA
ATOM     23  H   UNL     1     154.444 151.645 164.472  1.00  0.00     0.293 HD
ENDBRANCH   2  22
BRANCH   9  24
ATOM     24  O   UNL     1     147.875 147.886 167.955  1.00  0.00    -0.508 OA
ATOM     25  H   UNL     1     147.769 147.090 168.572  1.00  0.00     0.293 HD
ENDBRANCH   9  24
TORSDOF 5
ENDMDL
MODEL 2
REMARK VINA RESULT:    -0.069     17.114     19.747
REMARK INTER + INTRA:          -0.405
REMARK INTER:                  -0.088
REMARK INTRA:                  -0.317
REMARK UNBOUND:                -0.324
REMARK SMILES O=c1c(O)c(-c2ccc(O)c(O)c2)oc2cc(O)ccc12
REMARK SMILES IDX 5 1 3 2 2 3 1 4 21 5 15 6 14 7 16 8 17 9 19 10 20 11 6 12
REMARK SMILES IDX 7 13 8 14 9 15 13 16 11 17 10 18 12 20 4 22 18 24
REMARK H PARENT 10 19 12 21 4 23 18 25
REMARK Flexibility Score: inf
ROOT
ATOM      1  C   UNL     1     163.550 151.718 150.230  1.00  0.00     0.180 A 
ATOM      2  C   UNL     1     162.460 150.910 149.842  1.00  0.00     0.208 A 
ATOM      3  C   UNL     1     162.715 149.714 149.155  1.00  0.00     0.235 A 
ATOM      4  O   UNL     1     161.758 148.969 148.807  1.00  0.00    -0.285 OA
ATOM      5  C   UNL     1     164.040 149.362 148.852  1.00  0.00     0.069 A 
ATOM      6  C   UNL     1     165.074 150.235 149.253  1.00  0.00     0.142 A 
ATOM      7  O   UNL     1     164.789 151.354 149.911  1.00  0.00    -0.452 OA
ATOM      8  C   UNL     1     166.407 149.924 148.962  1.00  0.00     0.094 A 
ATOM      9  C   UNL     1     166.722 148.747 148.274  1.00  0.00     0.119 A 
ATOM     10  C   UNL     1     165.699 147.876 147.875  1.00  0.00     0.047 A 
ATOM     11  C   UNL     1     164.364 148.179 148.161  1.00  0.00     0.020 A 
ENDROOT
BRANCH   1  12
ATOM     12  C   UNL     1     163.364 152.984 150.974  1.00  0.00     0.025 A 
ATOM     13  C   UNL     1     163.299 152.958 152.376  1.00  0.00     0.016 A 
ATOM     14  C   UNL     1     163.104 154.138 153.098  1.00  0.00     0.051 A 
ATOM     15  C   UNL     1     162.955 155.358 152.432  1.00  0.00     0.157 A 
ATOM     16  C   UNL     1     163.192 154.209 150.305  1.00  0.00     0.062 A 
ATOM     17  C   UNL     1     162.994 155.395 151.027  1.00  0.00     0.158 A 
BRANCH  15  18
ATOM     18  O   UNL     1     162.763 156.519 153.179  1.00  0.00    -0.504 OA
ATOM     19  H   UNL     1     162.221 157.301 152.830  1.00  0.00     0.293 HD
ENDBRANCH  15  18
BRANCH  17  20
ATOM     20  O   UNL     1     162.831 156.606 150.356  1.00  0.00    -0.504 OA
ATOM     21  H   UNL     1     162.003 157.175 150.484  1.00  0.00     0.293 HD
ENDBRANCH  17  20
ENDBRANCH   1  12
BRANCH   2  22
ATOM     22  O   UNL     1     161.149 151.312 150.114  1.00  0.00    -0.502 OA
ATOM     23  H   UNL     1     160.367 151.038 149.530  1.00  0.00     0.293 HD
ENDBRANCH   2  22
BRANCH   9  24
ATOM     24  O   UNL     1     168.054 148.452 147.992  1.00  0.00    -0.508 OA
ATOM     25  H   UNL     1     168.610 147.872 148.608  1.00  0.00     0.293 HD
ENDBRANCH   9  24
TORSDOF 5
ENDMDL
MODEL 3
REMARK VINA RESULT:    -0.066     17.175     19.638
REMARK INTER + INTRA:          -0.402
REMARK INTER:                  -0.085
REMARK INTRA:                  -0.317
REMARK UNBOUND:                -0.324
REMARK SMILES O=c1c(O)c(-c2ccc(O)c(O)c2)oc2cc(O)ccc12
REMARK SMILES IDX 5 1 3 2 2 3 1 4 21 5 15 6 14 7 16 8 17 9 19 10 20 11 6 12
REMARK SMILES IDX 7 13 8 14 9 15 13 16 11 17 10 18 12 20 4 22 18 24
REMARK H PARENT 10 19 12 21 4 23 18 25
REMARK Flexibility Score: inf
ROOT
ATOM      1  C   UNL     1     163.579 151.393 149.856  1.00  0.00     0.180 A 
ATOM      2  C   UNL     1     162.233 151.011 149.676  1.00  0.00     0.208 A 
ATOM      3  C   UNL     1     161.221 151.933 149.983  1.00  0.00     0.235 A 
ATOM      4  O   UNL     1     160.010 151.618 149.821  1.00  0.00    -0.285 OA
ATOM      5  C   UNL     1     161.569 153.200 150.477  1.00  0.00     0.069 A 
ATOM      6  C   UNL     1     162.937 153.498 150.651  1.00  0.00     0.142 A 
ATOM      7  O   UNL     1     163.865 152.599 150.340  1.00  0.00    -0.452 OA
ATOM      8  C   UNL     1     163.324 154.747 151.151  1.00  0.00     0.094 A 
ATOM      9  C   UNL     1     162.359 155.705 151.478  1.00  0.00     0.119 A 
ATOM     10  C   UNL     1     160.999 155.414 151.306  1.00  0.00     0.047 A 
ATOM     11  C   UNL     1     160.603 154.168 150.809  1.00  0.00     0.020 A 
ENDROOT
BRANCH   1  12
ATOM     12  C   UNL     1     164.704 150.485 149.538  1.00  0.00     0.025 A 
ATOM     13  C   UNL     1     165.218 150.454 148.232  1.00  0.00     0.016 A 
ATOM     14  C   UNL     1     166.266 149.589 147.904  1.00  0.00     0.051 A 
ATOM     15  C   UNL     1     166.804 148.733 148.869  1.00  0.00     0.157 A 
ATOM     16  C   UNL     1     165.232 149.608 150.502  1.00  0.00     0.062 A 
ATOM     17  C   UNL     1     166.283 148.738 150.174  1.00  0.00     0.158 A 
BRANCH  15  18
ATOM     18  O   UNL     1     167.851 147.883 148.513  1.00  0.00    -0.504 OA
ATOM     19  H   UNL     1     168.225 147.193 149.154  1.00  0.00     0.293 HD
ENDBRANCH  15  18
BRANCH  17  20
ATOM     20  O   UNL     1     166.805 147.875 151.137  1.00  0.00    -0.504 OA
ATOM     21  H   UNL     1     166.988 148.186 152.084  1.00  0.00     0.293 HD
ENDBRANCH  17  20
ENDBRANCH   1  12
BRANCH   2  22
ATOM     22  O   UNL     1     161.917 149.725 149.230  1.00  0.00    -0.502 OA
ATOM     23  H   UNL     1     162.015 149.450 148.259  1.00  0.00     0.293 HD
ENDBRANCH   2  22
BRANCH   9  24
ATOM     24  O   UNL     1     162.761 156.943 151.975  1.00  0.00    -0.508 OA
ATOM     25  H   UNL     1     163.370 157.019 152.780  1.00  0.00     0.293 HD
ENDBRANCH   9  24
TORSDOF 5
ENDMDL
MODEL 4
REMARK VINA RESULT:    -0.060      2.014      6.684
REMARK INTER + INTRA:          -0.394
REMARK INTER:                  -0.070
REMARK INTRA:                  -0.324
REMARK UNBOUND:                -0.324
REMARK SMILES O=c1c(O)c(-c2ccc(O)c(O)c2)oc2cc(O)ccc12
REMARK SMILES IDX 5 1 3 2 2 3 1 4 21 5 15 6 14 7 16 8 17 9 19 10 20 11 6 12
REMARK SMILES IDX 7 13 8 14 9 15 13 16 11 17 10 18 12 20 4 22 18 24
REMARK H PARENT 10 19 12 21 4 23 18 25
REMARK Flexibility Score: inf
ROOT
ATOM      1  C   UNL     1     151.147 150.981 163.957  1.00  0.00     0.180 A 
ATOM      2  C   UNL     1     151.894 150.407 162.907  1.00  0.00     0.208 A 
ATOM      3  C   UNL     1     152.663 151.247 162.087  1.00  0.00     0.235 A 
ATOM      4  O   UNL     1     153.349 150.757 161.148  1.00  0.00    -0.285 OA
ATOM      5  C   UNL     1     152.655 152.632 162.317  1.00  0.00     0.069 A 
ATOM      6  C   UNL     1     151.862 153.131 163.373  1.00  0.00     0.142 A 
ATOM      7  O   UNL     1     151.155 152.300 164.132  1.00  0.00    -0.452 OA
ATOM      8  C   UNL     1     151.819 154.506 163.627  1.00  0.00     0.094 A 
ATOM      9  C   UNL     1     152.561 155.392 162.840  1.00  0.00     0.119 A 
ATOM     10  C   UNL     1     153.351 154.901 161.791  1.00  0.00     0.047 A 
ATOM     11  C   UNL     1     153.400 153.529 161.528  1.00  0.00     0.020 A 
ENDROOT
BRANCH   1  12
ATOM     12  C   UNL     1     150.326 150.160 164.877  1.00  0.00     0.025 A 
ATOM     13  C   UNL     1     148.968 149.954 164.591  1.00  0.00     0.016 A 
ATOM     14  C   UNL     1     148.169 149.200 165.455  1.00  0.00     0.051 A 
ATOM     15  C   UNL     1     148.710 148.656 166.624  1.00  0.00     0.157 A 
ATOM     16  C   UNL     1     150.863 149.630 166.063  1.00  0.00     0.062 A 
ATOM     17  C   UNL     1     150.063 148.875 166.933  1.00  0.00     0.158 A 
BRANCH  15  18
ATOM     18  O   UNL     1     147.889 147.906 167.466  1.00  0.00    -0.504 OA
ATOM     19  H   UNL     1     148.218 147.067 167.930  1.00  0.00     0.293 HD
ENDBRANCH  15  18
BRANCH  17  20
ATOM     20  O   UNL     1     150.605 148.348 168.105  1.00  0.00    -0.504 OA
ATOM     21  H   UNL     1     150.023 147.911 168.809  1.00  0.00     0.293 HD
ENDBRANCH  17  20
ENDBRANCH   1  12
BRANCH   2  22
ATOM     22  O   UNL     1     151.844 149.030 162.672  1.00  0.00    -0.502 OA
ATOM     23  H   UNL     1     151.554 148.644 161.782  1.00  0.00     0.293 HD
ENDBRANCH   2  22
BRANCH   9  24
ATOM     24  O   UNL     1     152.508 156.758 163.107  1.00  0.00    -0.508 OA
ATOM     25  H   UNL     1     151.869 157.140 163.794  1.00  0.00     0.293 HD
ENDBRANCH   9  24
TORSDOF 5
ENDMDL
MODEL 5
REMARK VINA RESULT:    -0.056      2.095      6.786
REMARK INTER + INTRA:          -0.390
REMARK INTER:                  -0.073
REMARK INTRA:                  -0.317
REMARK UNBOUND:                -0.324
REMARK SMILES O=c1c(O)c(-c2ccc(O)c(O)c2)oc2cc(O)ccc12
REMARK SMILES IDX 5 1 3 2 2 3 1 4 21 5 15 6 14 7 16 8 17 9 19 10 20 11 6 12
REMARK SMILES IDX 7 13 8 14 9 15 13 16 11 17 10 18 12 20 4 22 18 24
REMARK H PARENT 10 19 12 21 4 23 18 25
REMARK Flexibility Score: inf
ROOT
ATOM      1  C   UNL     1     151.270 151.678 164.471  1.00  0.00     0.180 A 
ATOM      2  C   UNL     1     151.670 152.976 164.853  1.00  0.00     0.208 A 
ATOM      3  C   UNL     1     152.434 153.740 163.957  1.00  0.00     0.235 A 
ATOM      4  O   UNL     1     152.795 154.907 164.271  1.00  0.00    -0.285 OA
ATOM      5  C   UNL     1     152.798 153.189 162.718  1.00  0.00     0.069 A 
ATOM      6  C   UNL     1     152.378 151.875 162.420  1.00  0.00     0.142 A 
ATOM      7  O   UNL     1     151.648 151.189 163.293  1.00  0.00    -0.452 OA
ATOM      8  C   UNL     1     152.729 151.288 161.199  1.00  0.00     0.094 A 
ATOM      9  C   UNL     1     153.493 151.998 160.268  1.00  0.00     0.119 A 
ATOM     10  C   UNL     1     153.911 153.305 160.559  1.00  0.00     0.047 A 
ATOM     11  C   UNL     1     153.567 153.900 161.777  1.00  0.00     0.020 A 
ENDROOT
BRANCH   1  12
ATOM     12  C   UNL     1     150.448 150.819 165.352  1.00  0.00     0.025 A 
ATOM     13  C   UNL     1     149.049 150.901 165.285  1.00  0.00     0.016 A 
ATOM     14  C   UNL     1     148.252 150.113 166.122  1.00  0.00     0.051 A 
ATOM     15  C   UNL     1     148.841 149.246 167.047  1.00  0.00     0.157 A 
ATOM     16  C   UNL     1     151.038 149.961 166.298  1.00  0.00     0.062 A 
ATOM     17  C   UNL     1     150.241 149.172 167.140  1.00  0.00     0.158 A 
BRANCH  15  18
ATOM     18  O   UNL     1     148.021 148.471 167.866  1.00  0.00    -0.504 OA
ATOM     19  H   UNL     1     147.323 148.885 168.474  1.00  0.00     0.293 HD
ENDBRANCH  15  18
BRANCH  17  20
ATOM     20  O   UNL     1     150.834 148.320 168.070  1.00  0.00    -0.504 OA
ATOM     21  H   UNL     1     150.630 147.328 168.088  1.00  0.00     0.293 HD
ENDBRANCH  17  20
ENDBRANCH   1  12
BRANCH   2  22
ATOM     22  O   UNL     1     151.335 153.478 166.113  1.00  0.00    -0.502 OA
ATOM     23  H   UNL     1     151.294 154.472 166.307  1.00  0.00     0.293 HD
ENDBRANCH   2  22
BRANCH   9  24
ATOM     24  O   UNL     1     153.833 151.400 159.057  1.00  0.00    -0.508 OA
ATOM     25  H   UNL     1     153.209 150.751 158.593  1.00  0.00     0.293 HD
ENDBRANCH   9  24
TORSDOF 5
ENDMDL
MODEL 6
REMARK VINA RESULT:    -0.055     15.882     18.791
REMARK INTER + INTRA:          -0.388
REMARK INTER:                  -0.064
REMARK INTRA:                  -0.324
REMARK UNBOUND:                -0.324
REMARK SMILES O=c1c(O)c(-c2ccc(O)c(O)c2)oc2cc(O)ccc12
REMARK SMILES IDX 5 1 3 2 2 3 1 4 21 5 15 6 14 7 16 8 17 9 19 10 20 11 6 12
REMARK SMILES IDX 7 13 8 14 9 15 13 16 11 17 10 18 12 20 4 22 18 24
REMARK H PARENT 10 19 12 21 4 23 18 25
REMARK Flexibility Score: inf
ROOT
ATOM      1  C   UNL     1     164.939 151.449 152.511  1.00  0.00     0.180 A 
ATOM      2  C   UNL     1     163.705 151.058 153.073  1.00  0.00     0.208 A 
ATOM      3  C   UNL     1     162.992 151.984 153.850  1.00  0.00     0.235 A 
ATOM      4  O   UNL     1     161.882 151.662 154.355  1.00  0.00    -0.285 OA
ATOM      5  C   UNL     1     163.530 153.263 154.065  1.00  0.00     0.069 A 
ATOM      6  C   UNL     1     164.781 153.569 153.488  1.00  0.00     0.142 A 
ATOM      7  O   UNL     1     165.419 152.666 152.751  1.00  0.00    -0.452 OA
ATOM      8  C   UNL     1     165.355 154.830 153.688  1.00  0.00     0.094 A 
ATOM      9  C   UNL     1     164.693 155.792 154.457  1.00  0.00     0.119 A 
ATOM     10  C   UNL     1     163.450 155.493 155.031  1.00  0.00     0.047 A 
ATOM     11  C   UNL     1     162.869 154.235 154.839  1.00  0.00     0.020 A 
ENDROOT
BRANCH   1  12
ATOM     12  C   UNL     1     165.741 150.537 151.664  1.00  0.00     0.025 A 
ATOM     13  C   UNL     1     166.735 149.743 152.256  1.00  0.00     0.016 A 
ATOM     14  C   UNL     1     167.518 148.889 151.473  1.00  0.00     0.051 A 
ATOM     15  C   UNL     1     167.330 148.828 150.089  1.00  0.00     0.157 A 
ATOM     16  C   UNL     1     165.567 150.490 150.270  1.00  0.00     0.062 A 
ATOM     17  C   UNL     1     166.353 149.635 149.482  1.00  0.00     0.158 A 
BRANCH  15  18
ATOM     18  O   UNL     1     168.125 147.966 149.335  1.00  0.00    -0.504 OA
ATOM     19  H   UNL     1     167.727 147.236 148.755  1.00  0.00     0.293 HD
ENDBRANCH  15  18
BRANCH  17  20
ATOM     20  O   UNL     1     166.172 149.591 148.101  1.00  0.00    -0.504 OA
ATOM     21  H   UNL     1     165.324 149.935 147.666  1.00  0.00     0.293 HD
ENDBRANCH  17  20
ENDBRANCH   1  12
BRANCH   2  22
ATOM     22  O   UNL     1     163.219 149.762 152.882  1.00  0.00    -0.502 OA
ATOM     23  H   UNL     1     163.206 149.317 151.972  1.00  0.00     0.293 HD
ENDBRANCH   2  22
BRANCH   9  24
ATOM     24  O   UNL     1     165.278 157.042 154.646  1.00  0.00    -0.508 OA
ATOM     25  H   UNL     1     164.754 157.899 154.508  1.00  0.00     0.293 HD
ENDBRANCH   9  24
TORSDOF 5
ENDMDL
MODEL 7
REMARK VINA RESULT:    -0.053     15.680     18.210
REMARK INTER + INTRA:          -0.386
REMARK INTER:                  -0.070
REMARK INTRA:                  -0.315
REMARK UNBOUND:                -0.324
REMARK SMILES O=c1c(O)c(-c2ccc(O)c(O)c2)oc2cc(O)ccc12
REMARK SMILES IDX 5 1 3 2 2 3 1 4 21 5 15 6 14 7 16 8 17 9 19 10 20 11 6 12
REMARK SMILES IDX 7 13 8 14 9 15 13 16 11 17 10 18 12 20 4 22 18 24
REMARK H PARENT 10 19 12 21 4 23 18 25
REMARK Flexibility Score: inf
ROOT
ATOM      1  C   UNL     1     165.105 150.788 152.774  1.00  0.00     0.180 A 
ATOM      2  C   UNL     1     165.680 150.404 154.003  1.00  0.00     0.208 A 
ATOM      3  C   UNL     1     165.214 151.001 155.185  1.00  0.00     0.235 A 
ATOM      4  O   UNL     1     165.705 150.666 156.297  1.00  0.00    -0.285 OA
ATOM      5  C   UNL     1     164.206 151.975 155.114  1.00  0.00     0.069 A 
ATOM      6  C   UNL     1     163.698 152.322 153.843  1.00  0.00     0.142 A 
ATOM      7  O   UNL     1     164.161 151.726 152.750  1.00  0.00    -0.452 OA
ATOM      8  C   UNL     1     162.700 153.296 153.730  1.00  0.00     0.094 A 
ATOM      9  C   UNL     1     162.199 153.929 154.873  1.00  0.00     0.119 A 
ATOM     10  C   UNL     1     162.700 153.587 156.136  1.00  0.00     0.047 A 
ATOM     11  C   UNL     1     163.699 152.616 156.260  1.00  0.00     0.020 A 
ENDROOT
BRANCH   1  12
ATOM     12  C   UNL     1     165.529 150.191 151.487  1.00  0.00     0.025 A 
ATOM     13  C   UNL     1     164.879 149.042 151.012  1.00  0.00     0.016 A 
ATOM     14  C   UNL     1     165.276 148.450 149.810  1.00  0.00     0.051 A 
ATOM     15  C   UNL     1     166.337 148.987 149.074  1.00  0.00     0.157 A 
ATOM     16  C   UNL     1     166.609 150.718 150.756  1.00  0.00     0.062 A 
ATOM     17  C   UNL     1     167.011 150.124 149.550  1.00  0.00     0.158 A 
BRANCH  15  18
ATOM     18  O   UNL     1     166.709 148.376 147.877  1.00  0.00    -0.504 OA
ATOM     19  H   UNL     1     166.164 148.479 147.028  1.00  0.00     0.293 HD
ENDBRANCH  15  18
BRANCH  17  20
ATOM     20  O   UNL     1     168.079 150.655 148.829  1.00  0.00    -0.504 OA
ATOM     21  H   UNL     1     168.284 151.648 148.838  1.00  0.00     0.293 HD
ENDBRANCH  17  20
ENDBRANCH   1  12
BRANCH   2  22
ATOM     22  O   UNL     1     166.717 149.467 154.038  1.00  0.00    -0.502 OA
ATOM     23  H   UNL     1     167.037 148.983 153.207  1.00  0.00     0.293 HD
ENDBRANCH   2  22
BRANCH   9  24
ATOM     24  O   UNL     1     161.206 154.896 154.743  1.00  0.00    -0.508 OA
ATOM     25  H   UNL     1     161.313 155.823 155.137  1.00  0.00     0.293 HD
ENDBRANCH   9  24
TORSDOF 5
ENDMDL
MODEL 8
REMARK VINA RESULT:    -0.049     17.700     20.611
REMARK INTER + INTRA:          -0.382
REMARK INTER:                  -0.065
REMARK INTRA:                  -0.317
REMARK UNBOUND:                -0.324
REMARK SMILES O=c1c(O)c(-c2ccc(O)c(O)c2)oc2cc(O)ccc12
REMARK SMILES IDX 5 1 3 2 2 3 1 4 21 5 15 6 14 7 16 8 17 9 19 10 20 11 6 12
REMARK SMILES IDX 7 13 8 14 9 15 13 16 11 17 10 18 12 20 4 22 18 24
REMARK H PARENT 10 19 12 21 4 23 18 25
REMARK Flexibility Score: inf
ROOT
ATOM      1  C   UNL     1     165.799 153.109 150.469  1.00  0.00     0.180 A 
ATOM      2  C   UNL     1     166.585 154.245 150.186  1.00  0.00     0.208 A 
ATOM      3  C   UNL     1     165.991 155.514 150.255  1.00  0.00     0.235 A 
ATOM      4  O   UNL     1     166.676 156.546 150.016  1.00  0.00    -0.285 OA
ATOM      5  C   UNL     1     164.630 155.621 150.583  1.00  0.00     0.069 A 
ATOM      6  C   UNL     1     163.905 154.436 150.830  1.00  0.00     0.142 A 
ATOM      7  O   UNL     1     164.509 153.254 150.762  1.00  0.00    -0.452 OA
ATOM      8  C   UNL     1     162.544 154.500 151.150  1.00  0.00     0.094 A 
ATOM      9  C   UNL     1     161.897 155.737 151.230  1.00  0.00     0.119 A 
ATOM     10  C   UNL     1     162.613 156.917 150.987  1.00  0.00     0.047 A 
ATOM     11  C   UNL     1     163.973 156.863 150.665  1.00  0.00     0.020 A 
ENDROOT
BRANCH   1  12
ATOM     12  C   UNL     1     166.357 151.738 150.435  1.00  0.00     0.025 A 
ATOM     13  C   UNL     1     166.930 151.198 151.597  1.00  0.00     0.016 A 
ATOM     14  C   UNL     1     167.481 149.913 151.582  1.00  0.00     0.051 A 
ATOM     15  C   UNL     1     167.482 149.157 150.406  1.00  0.00     0.157 A 
ATOM     16  C   UNL     1     166.378 150.985 149.248  1.00  0.00     0.062 A 
ATOM     17  C   UNL     1     166.932 149.696 149.231  1.00  0.00     0.158 A 
BRANCH  15  18
ATOM     18  O   UNL     1     168.038 147.878 150.424  1.00  0.00    -0.504 OA
ATOM     19  H   UNL     1     167.966 147.272 151.233  1.00  0.00     0.293 HD
ENDBRANCH  15  18
BRANCH  17  20
ATOM     20  O   UNL     1     166.944 148.954 148.051  1.00  0.00    -0.504 OA
ATOM     21  H   UNL     1     166.351 149.195 147.267  1.00  0.00     0.293 HD
ENDBRANCH  17  20
ENDBRANCH   1  12
BRANCH   2  22
ATOM     22  O   UNL     1     167.925 154.103 149.813  1.00  0.00    -0.502 OA
ATOM     23  H   UNL     1     168.209 153.992 148.847  1.00  0.00     0.293 HD
ENDBRANCH   2  22
BRANCH   9  24
ATOM     24  O   UNL     1     160.542 155.784 151.550  1.00  0.00    -0.508 OA
ATOM     25  H   UNL     1     159.928 156.488 151.158  1.00  0.00     0.293 HD
ENDBRANCH   9  24
TORSDOF 5
ENDMDL
MODEL 9
REMARK VINA RESULT:    -0.047     15.184     18.138
REMARK INTER + INTRA:          -0.379
REMARK INTER:                  -0.054
REMARK INTRA:                  -0.324
REMARK UNBOUND:                -0.324
REMARK SMILES O=c1c(O)c(-c2ccc(O)c(O)c2)oc2cc(O)ccc12
REMARK SMILES IDX 5 1 3 2 2 3 1 4 21 5 15 6 14 7 16 8 17 9 19 10 20 11 6 12
REMARK SMILES IDX 7 13 8 14 9 15 13 16 11 17 10 18 12 20 4 22 18 24
REMARK H PARENT 10 19 12 21 4 23 18 25
REMARK Flexibility Score: inf
ROOT
ATOM      1  C   UNL     1     164.533 149.835 154.243  1.00  0.00     0.180 A 
ATOM      2  C   UNL     1     163.305 149.355 153.742  1.00  0.00     0.208 A 
ATOM      3  C   UNL     1     163.286 148.723 152.490  1.00  0.00     0.235 A 
ATOM      4  O   UNL     1     162.202 148.276 152.024  1.00  0.00    -0.285 OA
ATOM      5  C   UNL     1     164.480 148.601 151.761  1.00  0.00     0.069 A 
ATOM      6  C   UNL     1     165.663 149.129 152.320  1.00  0.00     0.142 A 
ATOM      7  O   UNL     1     165.639 149.712 153.514  1.00  0.00    -0.452 OA
ATOM      8  C   UNL     1     166.871 149.036 151.620  1.00  0.00     0.094 A 
ATOM      9  C   UNL     1     166.913 148.420 150.365  1.00  0.00     0.119 A 
ATOM     10  C   UNL     1     165.741 147.894 149.805  1.00  0.00     0.047 A 
ATOM     11  C   UNL     1     164.528 147.983 150.497  1.00  0.00     0.020 A 
ENDROOT
BRANCH   1  12
ATOM     12  C   UNL     1     164.638 150.497 155.564  1.00  0.00     0.025 A 
ATOM     13  C   UNL     1     164.546 151.895 155.644  1.00  0.00     0.016 A 
ATOM     14  C   UNL     1     164.663 152.542 156.878  1.00  0.00     0.051 A 
ATOM     15  C   UNL     1     164.888 151.805 158.044  1.00  0.00     0.157 A 
ATOM     16  C   UNL     1     164.886 149.759 156.735  1.00  0.00     0.062 A 
ATOM     17  C   UNL     1     165.005 150.406 157.974  1.00  0.00     0.158 A 
BRANCH  15  18
ATOM     18  O   UNL     1     164.998 152.478 159.260  1.00  0.00    -0.504 OA
ATOM     19  H   UNL     1     164.463 152.205 160.077  1.00  0.00     0.293 HD
ENDBRANCH  15  18
BRANCH  17  20
ATOM     20  O   UNL     1     165.246 149.667 159.131  1.00  0.00    -0.504 OA
ATOM     21  H   UNL     1     166.143 149.231 159.305  1.00  0.00     0.293 HD
ENDBRANCH  17  20
ENDBRANCH   1  12
BRANCH   2  22
ATOM     22  O   UNL     1     162.125 149.535 154.469  1.00  0.00    -0.502 OA
ATOM     23  H   UNL     1     162.030 149.230 155.430  1.00  0.00     0.293 HD
ENDBRANCH   2  22
BRANCH   9  24
ATOM     24  O   UNL     1     168.124 148.336 149.681  1.00  0.00    -0.508 OA
ATOM     25  H   UNL     1     168.384 149.017 148.977  1.00  0.00     0.293 HD
ENDBRANCH   9  24
TORSDOF 5
ENDMDL
