MODEL 1
REMARK VINA RESULT:    -4.391      0.000      0.000
REMARK INTER + INTRA:          -4.974
REMARK INTER:                  -4.776
REMARK INTRA:                  -0.198
REMARK UNBOUND:                -0.198
REMARK SMILES Cc1ccc(C(C)C)c(O)c1
REMARK SMILES IDX 1 1 2 2 11 3 9 4 5 5 4 6 3 7 10 8 6 10 7 11 8 12
REMARK H PARENT 10 9
REMARK Flexibility Score: inf
ROOT
ATOM      1  C   UNL     1      29.844  -7.978 -25.678  1.00  0.00     0.044 C 
ATOM      2  C   UNL     1      30.783  -7.371 -24.679  1.00  0.00    -0.047 A 
ATOM      3  C   UNL     1      32.023  -7.971 -24.420  1.00  0.00     0.049 A 
ATOM      4  C   UNL     1      32.892  -7.429 -23.461  1.00  0.00     0.119 A 
ATOM      5  C   UNL     1      32.517  -6.276 -22.736  1.00  0.00    -0.004 A 
ATOM      6  C   UNL     1      31.259  -5.694 -22.992  1.00  0.00     0.008 A 
ATOM      7  C   UNL     1      30.401  -6.240 -23.948  1.00  0.00     0.004 A 
ENDROOT
BRANCH   4   8
ATOM      8  O   UNL     1      34.125  -8.040 -23.229  1.00  0.00    -0.508 OA
ATOM      9  H   UNL     1      34.471  -8.204 -22.292  1.00  0.00     0.293 HD
ENDBRANCH   4   8
BRANCH   5  10
ATOM     10  C   UNL     1      33.441  -5.670 -21.690  1.00  0.00     0.017 C 
ATOM     11  C   UNL     1      34.051  -4.353 -22.188  1.00  0.00     0.012 C 
ATOM     12  C   UNL     1      32.711  -5.470 -20.357  1.00  0.00     0.012 C 
ENDBRANCH   5  10
TORSDOF 2
ENDMDL
MODEL 2
REMARK VINA RESULT:    -4.170      1.222      4.200
REMARK INTER + INTRA:          -4.734
REMARK INTER:                  -4.535
REMARK INTRA:                  -0.199
REMARK UNBOUND:                -0.198
REMARK SMILES Cc1ccc(C(C)C)c(O)c1
REMARK SMILES IDX 1 1 2 2 11 3 9 4 5 5 4 6 3 7 10 8 6 10 7 11 8 12
REMARK H PARENT 10 9
REMARK Flexibility Score: inf
ROOT
ATOM      1  C   UNL     1      34.124  -5.248 -21.507  1.00  0.00     0.044 C 
ATOM      2  C   UNL     1      33.164  -5.849 -22.491  1.00  0.00    -0.047 A 
ATOM      3  C   UNL     1      33.635  -6.661 -23.531  1.00  0.00     0.049 A 
ATOM      4  C   UNL     1      32.748  -7.197 -24.477  1.00  0.00     0.119 A 
ATOM      5  C   UNL     1      31.367  -6.910 -24.394  1.00  0.00    -0.004 A 
ATOM      6  C   UNL     1      30.909  -6.075 -23.355  1.00  0.00     0.008 A 
ATOM      7  C   UNL     1      31.799  -5.547 -22.419  1.00  0.00     0.004 A 
ENDROOT
BRANCH   4   8
ATOM      8  O   UNL     1      33.242  -8.011 -25.497  1.00  0.00    -0.508 OA
ATOM      9  H   UNL     1      33.606  -7.623 -26.359  1.00  0.00     0.293 HD
ENDBRANCH   4   8
BRANCH   5  10
ATOM     10  C   UNL     1      30.384  -7.478 -25.409  1.00  0.00     0.017 C 
ATOM     11  C   UNL     1      29.044  -7.822 -24.747  1.00  0.00     0.012 C 
ATOM     12  C   UNL     1      30.187  -6.515 -26.585  1.00  0.00     0.012 C 
ENDBRANCH   5  10
TORSDOF 2
ENDMDL
MODEL 3
REMARK VINA RESULT:    -4.126      2.322      3.412
REMARK INTER + INTRA:          -4.685
REMARK INTER:                  -4.489
REMARK INTRA:                  -0.196
REMARK UNBOUND:                -0.198
REMARK SMILES Cc1ccc(C(C)C)c(O)c1
REMARK SMILES IDX 1 1 2 2 11 3 9 4 5 5 4 6 3 7 10 8 6 10 7 11 8 12
REMARK H PARENT 10 9
REMARK Flexibility Score: inf
ROOT
ATOM      1  C   UNL     1      28.451  -3.898 -24.314  1.00  0.00     0.044 C 
ATOM      2  C   UNL     1      29.480  -4.989 -24.310  1.00  0.00    -0.047 A 
ATOM      3  C   UNL     1      29.444  -5.997 -25.283  1.00  0.00     0.049 A 
ATOM      4  C   UNL     1      30.382  -7.041 -25.265  1.00  0.00     0.119 A 
ATOM      5  C   UNL     1      31.366  -7.091 -24.253  1.00  0.00    -0.004 A 
ATOM      6  C   UNL     1      31.378  -6.083 -23.268  1.00  0.00     0.008 A 
ATOM      7  C   UNL     1      30.442  -5.048 -23.294  1.00  0.00     0.004 A 
ENDROOT
BRANCH   4   8
ATOM      8  O   UNL     1      30.330  -8.027 -26.251  1.00  0.00    -0.508 OA
ATOM      9  H   UNL     1      30.846  -8.894 -26.166  1.00  0.00     0.293 HD
ENDBRANCH   4   8
BRANCH   5  10
ATOM     10  C   UNL     1      32.393  -8.214 -24.211  1.00  0.00     0.017 C 
ATOM     11  C   UNL     1      33.816  -7.668 -24.382  1.00  0.00     0.012 C 
ATOM     12  C   UNL     1      32.267  -9.029 -22.918  1.00  0.00     0.012 C 
ENDBRANCH   5  10
TORSDOF 2
ENDMDL
MODEL 4
REMARK VINA RESULT:    -4.107      1.747      4.673
REMARK INTER + INTRA:          -4.665
REMARK INTER:                  -4.465
REMARK INTRA:                  -0.200
REMARK UNBOUND:                -0.198
REMARK SMILES Cc1ccc(C(C)C)c(O)c1
REMARK SMILES IDX 1 1 2 2 11 3 9 4 5 5 4 6 3 7 10 8 6 10 7 11 8 12
REMARK H PARENT 10 9
REMARK Flexibility Score: inf
ROOT
ATOM      1  C   UNL     1      34.121  -3.401 -19.092  1.00  0.00     0.044 C 
ATOM      2  C   UNL     1      33.759  -4.220 -20.295  1.00  0.00    -0.047 A 
ATOM      3  C   UNL     1      34.112  -3.783 -21.579  1.00  0.00     0.049 A 
ATOM      4  C   UNL     1      33.747  -4.525 -22.712  1.00  0.00     0.119 A 
ATOM      5  C   UNL     1      33.004  -5.719 -22.567  1.00  0.00    -0.004 A 
ATOM      6  C   UNL     1      32.638  -6.137 -21.272  1.00  0.00     0.008 A 
ATOM      7  C   UNL     1      33.007  -5.392 -20.151  1.00  0.00     0.004 A 
ENDROOT
BRANCH   4   8
ATOM      8  O   UNL     1      34.119  -4.073 -23.978  1.00  0.00    -0.508 OA
ATOM      9  H   UNL     1      34.152  -4.693 -24.778  1.00  0.00     0.293 HD
ENDBRANCH   4   8
BRANCH   5  10
ATOM     10  C   UNL     1      32.594  -6.541 -23.781  1.00  0.00     0.017 C 
ATOM     11  C   UNL     1      33.619  -7.645 -24.073  1.00  0.00     0.012 C 
ATOM     12  C   UNL     1      31.189  -7.127 -23.602  1.00  0.00     0.012 C 
ENDBRANCH   5  10
TORSDOF 2
ENDMDL
MODEL 5
REMARK VINA RESULT:    -4.093     18.114     19.284
REMARK INTER + INTRA:          -4.650
REMARK INTER:                  -4.450
REMARK INTRA:                  -0.200
REMARK UNBOUND:                -0.198
REMARK SMILES Cc1ccc(C(C)C)c(O)c1
REMARK SMILES IDX 1 1 2 2 11 3 9 4 5 5 4 6 3 7 10 8 6 10 7 11 8 12
REMARK H PARENT 10 9
REMARK Flexibility Score: inf
ROOT
ATOM      1  C   UNL     1      19.766   6.515 -35.499  1.00  0.00     0.044 C 
ATOM      2  C   UNL     1      20.594   6.478 -34.249  1.00  0.00    -0.047 A 
ATOM      3  C   UNL     1      20.541   7.538 -33.334  1.00  0.00     0.049 A 
ATOM      4  C   UNL     1      21.340   7.527 -32.181  1.00  0.00     0.119 A 
ATOM      5  C   UNL     1      22.218   6.447 -31.938  1.00  0.00    -0.004 A 
ATOM      6  C   UNL     1      22.277   5.397 -32.876  1.00  0.00     0.008 A 
ATOM      7  C   UNL     1      21.479   5.416 -34.020  1.00  0.00     0.004 A 
ENDROOT
BRANCH   4   8
ATOM      8  O   UNL     1      21.260   8.591 -31.282  1.00  0.00    -0.508 OA
ATOM      9  H   UNL     1      20.441   9.183 -31.228  1.00  0.00     0.293 HD
ENDBRANCH   4   8
BRANCH   5  10
ATOM     10  C   UNL     1      23.096   6.413 -30.695  1.00  0.00     0.017 C 
ATOM     11  C   UNL     1      22.464   5.549 -29.596  1.00  0.00     0.012 C 
ATOM     12  C   UNL     1      24.511   5.928 -31.032  1.00  0.00     0.012 C 
ENDBRANCH   5  10
TORSDOF 2
ENDMDL
MODEL 6
REMARK VINA RESULT:    -4.056     17.636     18.831
REMARK INTER + INTRA:          -4.609
REMARK INTER:                  -4.409
REMARK INTRA:                  -0.200
REMARK UNBOUND:                -0.198
REMARK SMILES Cc1ccc(C(C)C)c(O)c1
REMARK SMILES IDX 1 1 2 2 11 3 9 4 5 5 4 6 3 7 10 8 6 10 7 11 8 12
REMARK H PARENT 10 9
REMARK Flexibility Score: inf
ROOT
ATOM      1  C   UNL     1      19.271   6.684 -35.326  1.00  0.00     0.044 C 
ATOM      2  C   UNL     1      20.217   6.222 -34.258  1.00  0.00    -0.047 A 
ATOM      3  C   UNL     1      19.834   5.217 -33.361  1.00  0.00     0.049 A 
ATOM      4  C   UNL     1      20.700   4.805 -32.337  1.00  0.00     0.119 A 
ATOM      5  C   UNL     1      21.967   5.412 -32.195  1.00  0.00    -0.004 A 
ATOM      6  C   UNL     1      22.333   6.436 -33.091  1.00  0.00     0.008 A 
ATOM      7  C   UNL     1      21.465   6.840 -34.107  1.00  0.00     0.004 A 
ENDROOT
BRANCH   4   8
ATOM      8  O   UNL     1      20.297   3.795 -31.462  1.00  0.00    -0.508 OA
ATOM      9  H   UNL     1      20.170   2.840 -31.773  1.00  0.00     0.293 HD
ENDBRANCH   4   8
BRANCH   5  10
ATOM     10  C   UNL     1      22.925   4.984 -31.091  1.00  0.00     0.017 C 
ATOM     11  C   UNL     1      23.956   3.976 -31.615  1.00  0.00     0.012 C 
ATOM     12  C   UNL     1      23.613   6.197 -30.455  1.00  0.00     0.012 C 
ENDBRANCH   5  10
TORSDOF 2
ENDMDL
MODEL 7
REMARK VINA RESULT:    -3.948      2.210      4.776
REMARK INTER + INTRA:          -4.493
REMARK INTER:                  -4.293
REMARK INTRA:                  -0.200
REMARK UNBOUND:                -0.198
REMARK SMILES Cc1ccc(C(C)C)c(O)c1
REMARK SMILES IDX 1 1 2 2 11 3 9 4 5 5 4 6 3 7 10 8 6 10 7 11 8 12
REMARK H PARENT 10 9
REMARK Flexibility Score: inf
ROOT
ATOM      1  C   UNL     1      34.111  -4.332 -18.175  1.00  0.00     0.044 C 
ATOM      2  C   UNL     1      33.776  -4.559 -19.619  1.00  0.00    -0.047 A 
ATOM      3  C   UNL     1      33.172  -5.757 -20.024  1.00  0.00     0.049 A 
ATOM      4  C   UNL     1      32.887  -5.991 -21.378  1.00  0.00     0.119 A 
ATOM      5  C   UNL     1      33.221  -5.021 -22.350  1.00  0.00    -0.004 A 
ATOM      6  C   UNL     1      33.846  -3.829 -21.932  1.00  0.00     0.008 A 
ATOM      7  C   UNL     1      34.125  -3.605 -20.583  1.00  0.00     0.004 A 
ENDROOT
BRANCH   4   8
ATOM      8  O   UNL     1      32.277  -7.188 -21.753  1.00  0.00    -0.508 OA
ATOM      9  H   UNL     1      31.849  -7.306 -22.663  1.00  0.00     0.293 HD
ENDBRANCH   4   8
BRANCH   5  10
ATOM     10  C   UNL     1      32.924  -5.253 -23.825  1.00  0.00     0.017 C 
ATOM     11  C   UNL     1      31.558  -4.672 -24.211  1.00  0.00     0.012 C 
ATOM     12  C   UNL     1      34.037  -4.678 -24.708  1.00  0.00     0.012 C 
ENDBRANCH   5  10
TORSDOF 2
ENDMDL
MODEL 8
REMARK VINA RESULT:    -3.930      2.345      3.427
REMARK INTER + INTRA:          -4.473
REMARK INTER:                  -4.275
REMARK INTRA:                  -0.198
REMARK UNBOUND:                -0.198
REMARK SMILES Cc1ccc(C(C)C)c(O)c1
REMARK SMILES IDX 1 1 2 2 11 3 9 4 5 5 4 6 3 7 10 8 6 10 7 11 8 12
REMARK H PARENT 10 9
REMARK Flexibility Score: inf
ROOT
ATOM      1  C   UNL     1      27.323  -5.496 -25.503  1.00  0.00     0.044 C 
ATOM      2  C   UNL     1      28.528  -6.051 -24.804  1.00  0.00    -0.047 A 
ATOM      3  C   UNL     1      29.433  -5.192 -24.167  1.00  0.00     0.049 A 
ATOM      4  C   UNL     1      30.582  -5.700 -23.542  1.00  0.00     0.119 A 
ATOM      5  C   UNL     1      30.843  -7.088 -23.562  1.00  0.00    -0.004 A 
ATOM      6  C   UNL     1      29.936  -7.940 -24.224  1.00  0.00     0.008 A 
ATOM      7  C   UNL     1      28.796  -7.425 -24.842  1.00  0.00     0.004 A 
ENDROOT
BRANCH   4   8
ATOM      8  O   UNL     1      31.462  -4.824 -22.907  1.00  0.00    -0.508 OA
ATOM      9  H   UNL     1      31.205  -4.330 -22.061  1.00  0.00     0.293 HD
ENDBRANCH   4   8
BRANCH   5  10
ATOM     10  C   UNL     1      32.083  -7.664 -22.893  1.00  0.00     0.017 C 
ATOM     11  C   UNL     1      31.788  -9.033 -22.265  1.00  0.00     0.012 C 
ATOM     12  C   UNL     1      33.253  -7.751 -23.879  1.00  0.00     0.012 C 
ENDBRANCH   5  10
TORSDOF 2
ENDMDL
MODEL 9
REMARK VINA RESULT:    -3.915      2.675      3.878
REMARK INTER + INTRA:          -4.456
REMARK INTER:                  -4.256
REMARK INTRA:                  -0.200
REMARK UNBOUND:                -0.198
REMARK SMILES Cc1ccc(C(C)C)c(O)c1
REMARK SMILES IDX 1 1 2 2 11 3 9 4 5 5 4 6 3 7 10 8 6 10 7 11 8 12
REMARK H PARENT 10 9
REMARK Flexibility Score: inf
ROOT
ATOM      1  C   UNL     1      27.763  -4.042 -26.655  1.00  0.00     0.044 C 
ATOM      2  C   UNL     1      28.664  -4.996 -25.930  1.00  0.00    -0.047 A 
ATOM      3  C   UNL     1      28.179  -6.240 -25.504  1.00  0.00     0.049 A 
ATOM      4  C   UNL     1      29.006  -7.123 -24.793  1.00  0.00     0.119 A 
ATOM      5  C   UNL     1      30.336  -6.758 -24.489  1.00  0.00    -0.004 A 
ATOM      6  C   UNL     1      30.805  -5.496 -24.906  1.00  0.00     0.008 A 
ATOM      7  C   UNL     1      29.976  -4.624 -25.613  1.00  0.00     0.004 A 
ENDROOT
BRANCH   4   8
ATOM      8  O   UNL     1      28.501  -8.360 -24.389  1.00  0.00    -0.508 OA
ATOM      9  H   UNL     1      27.508  -8.517 -24.271  1.00  0.00     0.293 HD
ENDBRANCH   4   8
BRANCH   5  10
ATOM     10  C   UNL     1      31.252  -7.699 -23.718  1.00  0.00     0.017 C 
ATOM     11  C   UNL     1      32.247  -8.394 -24.656  1.00  0.00     0.012 C 
ATOM     12  C   UNL     1      31.982  -6.958 -22.592  1.00  0.00     0.012 C 
ENDBRANCH   5  10
TORSDOF 2
ENDMDL
