MODEL 1
REMARK VINA RESULT:    -4.168      0.000      0.000
REMARK INTER + INTRA:          -9.100
REMARK INTER:                  -7.091
REMARK INTRA:                  -2.008
REMARK UNBOUND:                -2.008
REMARK SMILES CCCCCCCCCCCCCC(=O)[O-]
REMARK SMILES IDX 8 1 9 2 10 3 11 4 12 5 13 6 14 7 15 8 16 9 7 10 6 11 5 12
REMARK SMILES IDX 4 13 3 14 2 15 1 16
REMARK H PARENT
REMARK Flexibility Score: inf
ROOT
ATOM      1  C   UNL     1      20.124  -5.677 -17.382  1.00  0.00     0.000 C 
ENDROOT
BRANCH   1   2
ATOM      2  C   UNL     1      19.214  -6.562 -18.249  1.00  0.00     0.000 C 
BRANCH   2   3
ATOM      3  C   UNL     1      17.722  -6.374 -17.920  1.00  0.00     0.000 C 
BRANCH   3   4
ATOM      4  C   UNL     1      17.486  -6.012 -16.444  1.00  0.00     0.000 C 
BRANCH   4   5
ATOM      5  C   UNL     1      16.760  -4.666 -16.272  1.00  0.00     0.006 C 
BRANCH   5   6
ATOM      6  C   UNL     1      15.998  -4.253 -17.538  1.00  0.00     0.053 C 
BRANCH   6   7
ATOM      7  C   UNL     1      16.225  -2.812 -17.876  1.00  0.00     0.041 C 
ATOM      8  O   UNL     1      15.964  -2.382 -19.031  1.00  0.00    -0.550 OA
ATOM      9  O   UNL     1      16.756  -1.950 -16.927  1.00  0.00    -0.550 OA
ENDBRANCH   6   7
ENDBRANCH   5   6
ENDBRANCH   4   5
ENDBRANCH   3   4
ENDBRANCH   2   3
ENDBRANCH   1   2
BRANCH   1  10
ATOM     10  C   UNL     1      21.297  -5.078 -18.172  1.00  0.00     0.000 C 
BRANCH  10  11
ATOM     11  C   UNL     1      21.238  -3.544 -18.157  1.00  0.00    -0.000 C 
BRANCH  11  12
ATOM     12  C   UNL     1      19.816  -2.999 -18.372  1.00  0.00    -0.000 C 
BRANCH  12  13
ATOM     13  C   UNL     1      19.494  -2.577 -19.818  1.00  0.00    -0.000 C 
BRANCH  13  14
ATOM     14  C   UNL     1      18.785  -3.670 -20.644  1.00  0.00    -0.000 C 
BRANCH  14  15
ATOM     15  C   UNL     1      19.761  -4.451 -21.539  1.00  0.00    -0.003 C 
ATOM     16  C   UNL     1      21.013  -3.630 -21.833  1.00  0.00     0.004 C 
ENDBRANCH  14  15
ENDBRANCH  13  14
ENDBRANCH  12  13
ENDBRANCH  11  12
ENDBRANCH  10  11
ENDBRANCH   1  10
TORSDOF 12
ENDMDL
MODEL 2
REMARK VINA RESULT:    -4.041      2.567      5.165
REMARK INTER + INTRA:          -8.884
REMARK INTER:                  -7.149
REMARK INTRA:                  -1.736
REMARK UNBOUND:                -2.008
REMARK SMILES CCCCCCCCCCCCCC(=O)[O-]
REMARK SMILES IDX 8 1 9 2 10 3 11 4 12 5 13 6 14 7 15 8 16 9 7 10 6 11 5 12
REMARK SMILES IDX 4 13 3 14 2 15 1 16
REMARK H PARENT
REMARK Flexibility Score: inf
ROOT
ATOM      1  C   UNL     1      21.367  -5.263 -17.416  1.00  0.00     0.000 C 
ENDROOT
BRANCH   1   2
ATOM      2  C   UNL     1      20.823  -3.831 -17.556  1.00  0.00     0.000 C 
BRANCH   2   3
ATOM      3  C   UNL     1      21.177  -3.197 -18.913  1.00  0.00     0.000 C 
BRANCH   3   4
ATOM      4  C   UNL     1      19.947  -2.617 -19.631  1.00  0.00     0.000 C 
BRANCH   4   5
ATOM      5  C   UNL     1      19.544  -3.433 -20.872  1.00  0.00     0.006 C 
BRANCH   5   6
ATOM      6  C   UNL     1      20.765  -3.921 -21.664  1.00  0.00     0.053 C 
BRANCH   6   7
ATOM      7  C   UNL     1      20.675  -5.384 -21.975  1.00  0.00     0.041 C 
ATOM      8  O   UNL     1      19.786  -5.812 -22.758  1.00  0.00    -0.550 OA
ATOM      9  O   UNL     1      21.550  -6.278 -21.374  1.00  0.00    -0.550 OA
ENDBRANCH   6   7
ENDBRANCH   5   6
ENDBRANCH   4   5
ENDBRANCH   3   4
ENDBRANCH   2   3
ENDBRANCH   1   2
BRANCH   1  10
ATOM     10  C   UNL     1      20.262  -6.294 -17.148  1.00  0.00     0.000 C 
BRANCH  10  11
ATOM     11  C   UNL     1      19.350  -6.449 -18.374  1.00  0.00    -0.000 C 
BRANCH  11  12
ATOM     12  C   UNL     1      17.866  -6.210 -18.048  1.00  0.00    -0.000 C 
BRANCH  12  13
ATOM     13  C   UNL     1      17.535  -6.132 -16.545  1.00  0.00    -0.000 C 
BRANCH  13  14
ATOM     14  C   UNL     1      16.901  -4.793 -16.115  1.00  0.00    -0.000 C 
BRANCH  14  15
ATOM     15  C   UNL     1      16.324  -4.011 -17.305  1.00  0.00    -0.003 C 
ATOM     16  C   UNL     1      17.002  -2.652 -17.452  1.00  0.00     0.004 C 
ENDBRANCH  14  15
ENDBRANCH  13  14
ENDBRANCH  12  13
ENDBRANCH  11  12
ENDBRANCH  10  11
ENDBRANCH   1  10
TORSDOF 12
ENDMDL
MODEL 3
REMARK VINA RESULT:    -3.999      1.792      2.498
REMARK INTER + INTRA:          -8.812
REMARK INTER:                  -7.017
REMARK INTRA:                  -1.795
REMARK UNBOUND:                -2.008
REMARK SMILES CCCCCCCCCCCCCC(=O)[O-]
REMARK SMILES IDX 8 1 9 2 10 3 11 4 12 5 13 6 14 7 15 8 16 9 7 10 6 11 5 12
REMARK SMILES IDX 4 13 3 14 2 15 1 16
REMARK H PARENT
REMARK Flexibility Score: inf
ROOT
ATOM      1  C   UNL     1      18.668  -6.169 -16.684  1.00  0.00     0.000 C 
ENDROOT
BRANCH   1   2
ATOM      2  C   UNL     1      17.142  -6.048 -16.544  1.00  0.00     0.000 C 
BRANCH   2   3
ATOM      3  C   UNL     1      16.709  -4.687 -15.970  1.00  0.00     0.000 C 
BRANCH   3   4
ATOM      4  C   UNL     1      15.892  -3.857 -16.974  1.00  0.00     0.000 C 
BRANCH   4   5
ATOM      5  C   UNL     1      15.643  -4.604 -18.297  1.00  0.00     0.006 C 
BRANCH   5   6
ATOM      6  C   UNL     1      15.349  -3.642 -19.456  1.00  0.00     0.053 C 
BRANCH   6   7
ATOM      7  C   UNL     1      13.959  -3.820 -19.985  1.00  0.00     0.041 C 
ATOM      8  O   UNL     1      13.664  -3.421 -21.142  1.00  0.00    -0.550 OA
ATOM      9  O   UNL     1      12.980  -4.397 -19.187  1.00  0.00    -0.550 OA
ENDBRANCH   6   7
ENDBRANCH   5   6
ENDBRANCH   4   5
ENDBRANCH   3   4
ENDBRANCH   2   3
ENDBRANCH   1   2
BRANCH   1  10
ATOM     10  C   UNL     1      19.191  -5.587 -18.005  1.00  0.00     0.000 C 
BRANCH  10  11
ATOM     11  C   UNL     1      20.181  -4.442 -17.744  1.00  0.00    -0.000 C 
BRANCH  11  12
ATOM     12  C   UNL     1      19.519  -3.055 -17.799  1.00  0.00    -0.000 C 
BRANCH  12  13
ATOM     13  C   UNL     1      18.873  -2.697 -19.152  1.00  0.00    -0.000 C 
BRANCH  13  14
ATOM     14  C   UNL     1      19.890  -2.312 -20.246  1.00  0.00    -0.000 C 
BRANCH  14  15
ATOM     15  C   UNL     1      20.112  -3.445 -21.261  1.00  0.00    -0.003 C 
ATOM     16  C   UNL     1      18.841  -4.267 -21.455  1.00  0.00     0.004 C 
ENDBRANCH  14  15
ENDBRANCH  13  14
ENDBRANCH  12  13
ENDBRANCH  11  12
ENDBRANCH  10  11
ENDBRANCH   1  10
TORSDOF 12
ENDMDL
MODEL 4
REMARK VINA RESULT:    -3.987     10.430     12.196
REMARK INTER + INTRA:          -8.793
REMARK INTER:                  -6.936
REMARK INTRA:                  -1.857
REMARK UNBOUND:                -2.008
REMARK SMILES CCCCCCCCCCCCCC(=O)[O-]
REMARK SMILES IDX 8 1 9 2 10 3 11 4 12 5 13 6 14 7 15 8 16 9 7 10 6 11 5 12
REMARK SMILES IDX 4 13 3 14 2 15 1 16
REMARK H PARENT
REMARK Flexibility Score: inf
ROOT
ATOM      1  C   UNL     1       9.722  -3.743 -24.526  1.00  0.00     0.000 C 
ENDROOT
BRANCH   1   2
ATOM      2  C   UNL     1       8.218  -3.738 -24.845  1.00  0.00     0.000 C 
BRANCH   2   3
ATOM      3  C   UNL     1       7.356  -4.105 -23.624  1.00  0.00     0.000 C 
BRANCH   3   4
ATOM      4  C   UNL     1       8.155  -4.849 -22.541  1.00  0.00     0.000 C 
BRANCH   4   5
ATOM      5  C   UNL     1       7.249  -5.550 -21.512  1.00  0.00     0.006 C 
BRANCH   5   6
ATOM      6  C   UNL     1       6.838  -6.956 -21.966  1.00  0.00     0.053 C 
BRANCH   6   7
ATOM      7  C   UNL     1       7.705  -8.012 -21.351  1.00  0.00     0.041 C 
ATOM      8  O   UNL     1       7.461  -9.231 -21.554  1.00  0.00    -0.550 OA
ATOM      9  O   UNL     1       8.762  -7.651 -20.526  1.00  0.00    -0.550 OA
ENDBRANCH   6   7
ENDBRANCH   5   6
ENDBRANCH   4   5
ENDBRANCH   3   4
ENDBRANCH   2   3
ENDBRANCH   1   2
BRANCH   1  10
ATOM     10  C   UNL     1      10.518  -4.694 -25.432  1.00  0.00     0.000 C 
BRANCH  10  11
ATOM     11  C   UNL     1      11.211  -5.786 -24.604  1.00  0.00    -0.000 C 
BRANCH  11  12
ATOM     12  C   UNL     1      10.274  -6.955 -24.255  1.00  0.00    -0.000 C 
BRANCH  12  13
ATOM     13  C   UNL     1       9.370  -7.429 -25.409  1.00  0.00    -0.000 C 
BRANCH  13  14
ATOM     14  C   UNL     1       8.360  -8.522 -25.002  1.00  0.00    -0.000 C 
BRANCH  14  15
ATOM     15  C   UNL     1       7.033  -8.406 -25.768  1.00  0.00    -0.003 C 
ATOM     16  C   UNL     1       6.557  -6.957 -25.825  1.00  0.00     0.004 C 
ENDBRANCH  14  15
ENDBRANCH  13  14
ENDBRANCH  12  13
ENDBRANCH  11  12
ENDBRANCH  10  11
ENDBRANCH   1  10
TORSDOF 12
ENDMDL
MODEL 5
REMARK VINA RESULT:    -3.922      9.896     12.019
REMARK INTER + INTRA:          -8.682
REMARK INTER:                  -6.660
REMARK INTRA:                  -2.022
REMARK UNBOUND:                -2.008
REMARK SMILES CCCCCCCCCCCCCC(=O)[O-]
REMARK SMILES IDX 8 1 9 2 10 3 11 4 12 5 13 6 14 7 15 8 16 9 7 10 6 11 5 12
REMARK SMILES IDX 4 13 3 14 2 15 1 16
REMARK H PARENT
REMARK Flexibility Score: inf
ROOT
ATOM      1  C   UNL     1       7.031  -5.764 -22.180  1.00  0.00     0.000 C 
ENDROOT
BRANCH   1   2
ATOM      2  C   UNL     1       7.751  -4.546 -22.783  1.00  0.00     0.000 C 
BRANCH   2   3
ATOM      3  C   UNL     1       7.406  -4.332 -24.267  1.00  0.00     0.000 C 
BRANCH   3   4
ATOM      4  C   UNL     1       8.526  -3.610 -25.035  1.00  0.00     0.000 C 
BRANCH   4   5
ATOM      5  C   UNL     1       9.907  -3.791 -24.379  1.00  0.00     0.006 C 
BRANCH   5   6
ATOM      6  C   UNL     1      11.051  -3.402 -25.325  1.00  0.00     0.053 C 
BRANCH   6   7
ATOM      7  C   UNL     1      11.905  -4.582 -25.674  1.00  0.00     0.041 C 
ATOM      8  O   UNL     1      12.921  -4.857 -24.983  1.00  0.00    -0.550 OA
ATOM      9  O   UNL     1      11.599  -5.358 -26.784  1.00  0.00    -0.550 OA
ENDBRANCH   6   7
ENDBRANCH   5   6
ENDBRANCH   4   5
ENDBRANCH   3   4
ENDBRANCH   2   3
ENDBRANCH   1   2
BRANCH   1  10
ATOM     10  C   UNL     1       7.939  -6.598 -21.265  1.00  0.00     0.000 C 
BRANCH  10  11
ATOM     11  C   UNL     1       9.347  -6.727 -21.864  1.00  0.00    -0.000 C 
BRANCH  11  12
ATOM     12  C   UNL     1       9.457  -7.867 -22.892  1.00  0.00    -0.000 C 
BRANCH  12  13
ATOM     13  C   UNL     1      10.027  -7.453 -24.262  1.00  0.00    -0.000 C 
BRANCH  13  14
ATOM     14  C   UNL     1       8.996  -7.510 -25.409  1.00  0.00    -0.000 C 
BRANCH  14  15
ATOM     15  C   UNL     1       7.640  -8.069 -24.948  1.00  0.00    -0.003 C 
ATOM     16  C   UNL     1       7.249  -9.302 -25.759  1.00  0.00     0.004 C 
ENDBRANCH  14  15
ENDBRANCH  13  14
ENDBRANCH  12  13
ENDBRANCH  11  12
ENDBRANCH  10  11
ENDBRANCH   1  10
TORSDOF 12
ENDMDL
MODEL 6
REMARK VINA RESULT:    -3.921      2.560      4.133
REMARK INTER + INTRA:          -8.679
REMARK INTER:                  -6.573
REMARK INTRA:                  -2.107
REMARK UNBOUND:                -2.008
REMARK SMILES CCCCCCCCCCCCCC(=O)[O-]
REMARK SMILES IDX 8 1 9 2 10 3 11 4 12 5 13 6 14 7 15 8 16 9 7 10 6 11 5 12
REMARK SMILES IDX 4 13 3 14 2 15 1 16
REMARK H PARENT
REMARK Flexibility Score: inf
ROOT
ATOM      1  C   UNL     1      15.736  -5.014 -18.503  1.00  0.00     0.000 C 
ENDROOT
BRANCH   1   2
ATOM      2  C   UNL     1      16.434  -6.244 -17.899  1.00  0.00     0.000 C 
BRANCH   2   3
ATOM      3  C   UNL     1      16.793  -6.048 -16.416  1.00  0.00     0.000 C 
BRANCH   3   4
ATOM      4  C   UNL     1      18.277  -6.328 -16.127  1.00  0.00     0.000 C 
BRANCH   4   5
ATOM      5  C   UNL     1      19.138  -6.346 -17.403  1.00  0.00     0.006 C 
BRANCH   5   6
ATOM      6  C   UNL     1      20.574  -6.808 -17.125  1.00  0.00     0.053 C 
BRANCH   6   7
ATOM      7  C   UNL     1      21.579  -5.789 -17.568  1.00  0.00     0.041 C 
ATOM      8  O   UNL     1      22.039  -4.953 -16.746  1.00  0.00    -0.550 OA
ATOM      9  O   UNL     1      21.983  -5.741 -18.895  1.00  0.00    -0.550 OA
ENDBRANCH   6   7
ENDBRANCH   5   6
ENDBRANCH   4   5
ENDBRANCH   3   4
ENDBRANCH   2   3
ENDBRANCH   1   2
BRANCH   1  10
ATOM     10  C   UNL     1      15.814  -3.780 -17.592  1.00  0.00     0.000 C 
BRANCH  10  11
ATOM     11  C   UNL     1      16.784  -2.738 -18.168  1.00  0.00    -0.000 C 
BRANCH  11  12
ATOM     12  C   UNL     1      18.173  -2.787 -17.507  1.00  0.00    -0.000 C 
BRANCH  12  13
ATOM     13  C   UNL     1      19.355  -2.906 -18.489  1.00  0.00    -0.000 C 
BRANCH  13  14
ATOM     14  C   UNL     1      18.931  -2.955 -19.972  1.00  0.00    -0.000 C 
BRANCH  14  15
ATOM     15  C   UNL     1      19.096  -4.358 -20.579  1.00  0.00    -0.003 C 
ATOM     16  C   UNL     1      17.939  -4.690 -21.517  1.00  0.00     0.004 C 
ENDBRANCH  14  15
ENDBRANCH  13  14
ENDBRANCH  12  13
ENDBRANCH  11  12
ENDBRANCH  10  11
ENDBRANCH   1  10
TORSDOF 12
ENDMDL
MODEL 7
REMARK VINA RESULT:    -3.910      2.887      5.624
REMARK INTER + INTRA:          -8.661
REMARK INTER:                  -7.103
REMARK INTRA:                  -1.558
REMARK UNBOUND:                -2.008
REMARK SMILES CCCCCCCCCCCCCC(=O)[O-]
REMARK SMILES IDX 8 1 9 2 10 3 11 4 12 5 13 6 14 7 15 8 16 9 7 10 6 11 5 12
REMARK SMILES IDX 4 13 3 14 2 15 1 16
REMARK H PARENT
REMARK Flexibility Score: inf
ROOT
ATOM      1  C   UNL     1      17.418  -3.297 -19.743  1.00  0.00     0.000 C 
ENDROOT
BRANCH   1   2
ATOM      2  C   UNL     1      18.687  -2.719 -19.094  1.00  0.00     0.000 C 
BRANCH   2   3
ATOM      3  C   UNL     1      19.729  -2.271 -20.133  1.00  0.00     0.000 C 
BRANCH   3   4
ATOM      4  C   UNL     1      20.841  -3.314 -20.340  1.00  0.00     0.000 C 
BRANCH   4   5
ATOM      5  C   UNL     1      20.922  -3.815 -21.793  1.00  0.00     0.006 C 
BRANCH   5   6
ATOM      6  C   UNL     1      19.827  -4.843 -22.111  1.00  0.00     0.053 C 
BRANCH   6   7
ATOM      7  C   UNL     1      20.365  -6.241 -22.117  1.00  0.00     0.041 C 
ATOM      8  O   UNL     1      21.538  -6.471 -21.722  1.00  0.00    -0.550 OA
ATOM      9  O   UNL     1      19.582  -7.286 -22.589  1.00  0.00    -0.550 OA
ENDBRANCH   6   7
ENDBRANCH   5   6
ENDBRANCH   4   5
ENDBRANCH   3   4
ENDBRANCH   2   3
ENDBRANCH   1   2
BRANCH   1  10
ATOM     10  C   UNL     1      16.239  -3.387 -18.765  1.00  0.00     0.000 C 
BRANCH  10  11
ATOM     11  C   UNL     1      16.676  -2.999 -17.344  1.00  0.00    -0.000 C 
BRANCH  11  12
ATOM     12  C   UNL     1      16.510  -4.147 -16.334  1.00  0.00    -0.000 C 
BRANCH  12  13
ATOM     13  C   UNL     1      16.753  -5.557 -16.907  1.00  0.00    -0.000 C 
BRANCH  13  14
ATOM     14  C   UNL     1      18.116  -6.163 -16.513  1.00  0.00    -0.000 C 
BRANCH  14  15
ATOM     15  C   UNL     1      19.048  -6.340 -17.722  1.00  0.00    -0.003 C 
ATOM     16  C   UNL     1      20.382  -5.634 -17.497  1.00  0.00     0.004 C 
ENDBRANCH  14  15
ENDBRANCH  13  14
ENDBRANCH  12  13
ENDBRANCH  11  12
ENDBRANCH  10  11
ENDBRANCH   1  10
TORSDOF 12
ENDMDL
MODEL 8
REMARK VINA RESULT:    -3.871      7.788      9.779
REMARK INTER + INTRA:          -8.594
REMARK INTER:                  -6.952
REMARK INTRA:                  -1.642
REMARK UNBOUND:                -2.008
REMARK SMILES CCCCCCCCCCCCCC(=O)[O-]
REMARK SMILES IDX 8 1 9 2 10 3 11 4 12 5 13 6 14 7 15 8 16 9 7 10 6 11 5 12
REMARK SMILES IDX 4 13 3 14 2 15 1 16
REMARK H PARENT
REMARK Flexibility Score: inf
ROOT
ATOM      1  C   UNL     1       7.694  -5.758 -22.304  1.00  0.00     0.000 C 
ENDROOT
BRANCH   1   2
ATOM      2  C   UNL     1       9.079  -6.292 -21.903  1.00  0.00     0.000 C 
BRANCH   2   3
ATOM      3  C   UNL     1      10.032  -5.173 -21.447  1.00  0.00     0.000 C 
BRANCH   3   4
ATOM      4  C   UNL     1      11.157  -5.693 -20.536  1.00  0.00     0.000 C 
BRANCH   4   5
ATOM      5  C   UNL     1      11.868  -4.564 -19.768  1.00  0.00     0.006 C 
BRANCH   5   6
ATOM      6  C   UNL     1      13.395  -4.667 -19.873  1.00  0.00     0.053 C 
BRANCH   6   7
ATOM      7  C   UNL     1      13.907  -4.049 -21.138  1.00  0.00     0.041 C 
ATOM      8  O   UNL     1      14.934  -4.512 -21.700  1.00  0.00    -0.550 OA
ATOM      9  O   UNL     1      13.269  -2.941 -21.679  1.00  0.00    -0.550 OA
ENDBRANCH   6   7
ENDBRANCH   5   6
ENDBRANCH   4   5
ENDBRANCH   3   4
ENDBRANCH   2   3
ENDBRANCH   1   2
BRANCH   1  10
ATOM     10  C   UNL     1       7.748  -4.330 -22.867  1.00  0.00     0.000 C 
BRANCH  10  11
ATOM     11  C   UNL     1       7.200  -4.287 -24.301  1.00  0.00    -0.000 C 
BRANCH  11  12
ATOM     12  C   UNL     1       8.173  -3.627 -25.293  1.00  0.00    -0.000 C 
BRANCH  12  13
ATOM     13  C   UNL     1       9.613  -3.454 -24.772  1.00  0.00    -0.000 C 
BRANCH  13  14
ATOM     14  C   UNL     1      10.588  -4.544 -25.264  1.00  0.00    -0.000 C 
BRANCH  14  15
ATOM     15  C   UNL     1      11.971  -4.431 -24.602  1.00  0.00    -0.003 C 
ATOM     16  C   UNL     1      12.494  -5.802 -24.182  1.00  0.00     0.004 C 
ENDBRANCH  14  15
ENDBRANCH  13  14
ENDBRANCH  12  13
ENDBRANCH  11  12
ENDBRANCH  10  11
ENDBRANCH   1  10
TORSDOF 12
ENDMDL
MODEL 9
REMARK VINA RESULT:    -3.846     10.532     12.447
REMARK INTER + INTRA:          -8.553
REMARK INTER:                  -6.780
REMARK INTRA:                  -1.773
REMARK UNBOUND:                -2.008
REMARK SMILES CCCCCCCCCCCCCC(=O)[O-]
REMARK SMILES IDX 8 1 9 2 10 3 11 4 12 5 13 6 14 7 15 8 16 9 7 10 6 11 5 12
REMARK SMILES IDX 4 13 3 14 2 15 1 16
REMARK H PARENT
REMARK Flexibility Score: inf
ROOT
ATOM      1  C   UNL     1       7.461  -9.052 -22.978  1.00  0.00     0.000 C 
ENDROOT
BRANCH   1   2
ATOM      2  C   UNL     1       7.005  -8.373 -21.675  1.00  0.00     0.000 C 
BRANCH   2   3
ATOM      3  C   UNL     1       7.810  -7.100 -21.361  1.00  0.00     0.000 C 
BRANCH   3   4
ATOM      4  C   UNL     1       7.009  -5.815 -21.631  1.00  0.00     0.000 C 
BRANCH   4   5
ATOM      5  C   UNL     1       7.863  -4.708 -22.275  1.00  0.00     0.006 C 
BRANCH   5   6
ATOM      6  C   UNL     1       9.366  -4.992 -22.153  1.00  0.00     0.053 C 
BRANCH   6   7
ATOM      7  C   UNL     1      10.155  -4.259 -23.194  1.00  0.00     0.041 C 
ATOM      8  O   UNL     1       9.602  -3.381 -23.908  1.00  0.00    -0.550 OA
ATOM      9  O   UNL     1      11.492  -4.570 -23.400  1.00  0.00    -0.550 OA
ENDBRANCH   6   7
ENDBRANCH   5   6
ENDBRANCH   4   5
ENDBRANCH   3   4
ENDBRANCH   2   3
ENDBRANCH   1   2
BRANCH   1  10
ATOM     10  C   UNL     1       8.741  -8.429 -23.555  1.00  0.00     0.000 C 
BRANCH  10  11
ATOM     11  C   UNL     1       8.573  -8.123 -25.050  1.00  0.00    -0.000 C 
BRANCH  11  12
ATOM     12  C   UNL     1       8.109  -6.681 -25.316  1.00  0.00    -0.000 C 
BRANCH  12  13
ATOM     13  C   UNL     1       6.581  -6.491 -25.382  1.00  0.00    -0.000 C 
BRANCH  13  14
ATOM     14  C   UNL     1       6.139  -5.280 -26.231  1.00  0.00    -0.000 C 
BRANCH  14  15
ATOM     15  C   UNL     1       6.665  -3.950 -25.667  1.00  0.00    -0.003 C 
ATOM     16  C   UNL     1       5.519  -2.984 -25.380  1.00  0.00     0.004 C 
ENDBRANCH  14  15
ENDBRANCH  13  14
ENDBRANCH  12  13
ENDBRANCH  11  12
ENDBRANCH  10  11
ENDBRANCH   1  10
TORSDOF 12
ENDMDL
