MODEL 1
REMARK VINA RESULT:    -3.191      0.000      0.000
REMARK INTER + INTRA:          -8.851
REMARK INTER:                  -6.177
REMARK INTRA:                  -2.674
REMARK UNBOUND:                -2.674
REMARK SMILES CCCCCCCCCCCCCCCCCC(=O)[O-]
REMARK SMILES IDX 10 1 11 2 12 3 13 4 14 5 15 6 16 7 17 8 18 9 19 10 20 11
REMARK SMILES IDX 9 12 8 13 7 14 6 15 5 16 4 17 3 18 2 19 1 20
REMARK H PARENT
REMARK Flexibility Score: inf
ROOT
ATOM      1  C   UNL     1      56.095  26.433  52.944  1.00  0.00     0.000 C 
ENDROOT
BRANCH   1   2
ATOM      2  C   UNL     1      56.612  25.940  51.580  1.00  0.00     0.000 C 
BRANCH   2   3
ATOM      3  C   UNL     1      55.731  26.419  50.406  1.00  0.00     0.000 C 
BRANCH   3   4
ATOM      4  C   UNL     1      54.224  26.174  50.619  1.00  0.00     0.000 C 
BRANCH   4   5
ATOM      5  C   UNL     1      53.326  27.410  50.422  1.00  0.00     0.000 C 
BRANCH   5   6
ATOM      6  C   UNL     1      54.079  28.750  50.320  1.00  0.00     0.000 C 
BRANCH   6   7
ATOM      7  C   UNL     1      53.244  29.945  50.813  1.00  0.00     0.006 C 
BRANCH   7   8
ATOM      8  C   UNL     1      53.961  30.733  51.917  1.00  0.00     0.053 C 
BRANCH   8   9
ATOM      9  C   UNL     1      53.320  30.523  53.254  1.00  0.00     0.041 C 
ATOM     10  O   UNL     1      52.961  29.369  53.610  1.00  0.00    -0.550 OA
ATOM     11  O   UNL     1      53.151  31.594  54.122  1.00  0.00    -0.550 OA
ENDBRANCH   8   9
ENDBRANCH   7   8
ENDBRANCH   6   7
ENDBRANCH   5   6
ENDBRANCH   4   5
ENDBRANCH   3   4
ENDBRANCH   2   3
ENDBRANCH   1   2
BRANCH   1  12
ATOM     12  C   UNL     1      56.274  27.952  53.127  1.00  0.00     0.000 C 
BRANCH  12  13
ATOM     13  C   UNL     1      57.661  28.475  52.709  1.00  0.00    -0.000 C 
BRANCH  13  14
ATOM     14  C   UNL     1      57.569  29.662  51.732  1.00  0.00    -0.000 C 
BRANCH  14  15
ATOM     15  C   UNL     1      57.712  29.236  50.262  1.00  0.00    -0.000 C 
BRANCH  15  16
ATOM     16  C   UNL     1      59.060  29.653  49.652  1.00  0.00    -0.000 C 
BRANCH  16  17
ATOM     17  C   UNL     1      60.098  28.516  49.663  1.00  0.00    -0.000 C 
BRANCH  17  18
ATOM     18  C   UNL     1      59.520  27.098  49.851  1.00  0.00    -0.000 C 
BRANCH  18  19
ATOM     19  C   UNL     1      60.195  26.259  50.950  1.00  0.00    -0.003 C 
ATOM     20  C   UNL     1      60.308  24.779  50.584  1.00  0.00     0.004 C 
ENDBRANCH  18  19
ENDBRANCH  17  18
ENDBRANCH  16  17
ENDBRANCH  15  16
ENDBRANCH  14  15
ENDBRANCH  13  14
ENDBRANCH  12  13
ENDBRANCH   1  12
TORSDOF 16
ENDMDL
MODEL 2
REMARK VINA RESULT:    -3.131      1.446      2.696
REMARK INTER + INTRA:          -8.733
REMARK INTER:                  -5.864
REMARK INTRA:                  -2.868
REMARK UNBOUND:                -2.674
REMARK SMILES CCCCCCCCCCCCCCCCCC(=O)[O-]
REMARK SMILES IDX 10 1 11 2 12 3 13 4 14 5 15 6 16 7 17 8 18 9 19 10 20 11
REMARK SMILES IDX 9 12 8 13 7 14 6 15 5 16 4 17 3 18 2 19 1 20
REMARK H PARENT
REMARK Flexibility Score: inf
ROOT
ATOM      1  C   UNL     1      58.675  28.508  53.448  1.00  0.00     0.000 C 
ENDROOT
BRANCH   1   2
ATOM      2  C   UNL     1      57.636  27.466  53.902  1.00  0.00     0.000 C 
BRANCH   2   3
ATOM      3  C   UNL     1      57.835  26.096  53.216  1.00  0.00     0.000 C 
BRANCH   3   4
ATOM      4  C   UNL     1      56.660  25.676  52.312  1.00  0.00     0.000 C 
BRANCH   4   5
ATOM      5  C   UNL     1      55.589  26.759  52.086  1.00  0.00     0.000 C 
BRANCH   5   6
ATOM      6  C   UNL     1      55.379  27.169  50.616  1.00  0.00     0.000 C 
BRANCH   6   7
ATOM      7  C   UNL     1      54.185  28.120  50.424  1.00  0.00     0.006 C 
BRANCH   7   8
ATOM      8  C   UNL     1      54.561  29.581  50.706  1.00  0.00     0.053 C 
BRANCH   8   9
ATOM      9  C   UNL     1      53.702  30.177  51.780  1.00  0.00     0.041 C 
ATOM     10  O   UNL     1      53.671  31.425  51.945  1.00  0.00    -0.550 OA
ATOM     11  O   UNL     1      52.909  29.358  52.572  1.00  0.00    -0.550 OA
ENDBRANCH   8   9
ENDBRANCH   7   8
ENDBRANCH   6   7
ENDBRANCH   5   6
ENDBRANCH   4   5
ENDBRANCH   3   4
ENDBRANCH   2   3
ENDBRANCH   1   2
BRANCH   1  12
ATOM     12  C   UNL     1      58.030  29.710  52.735  1.00  0.00     0.000 C 
BRANCH  12  13
ATOM     13  C   UNL     1      58.755  30.137  51.444  1.00  0.00    -0.000 C 
BRANCH  13  14
ATOM     14  C   UNL     1      58.200  29.423  50.198  1.00  0.00    -0.000 C 
BRANCH  14  15
ATOM     15  C   UNL     1      59.252  28.550  49.494  1.00  0.00    -0.000 C 
BRANCH  15  16
ATOM     16  C   UNL     1      59.072  27.052  49.788  1.00  0.00    -0.000 C 
BRANCH  16  17
ATOM     17  C   UNL     1      60.255  26.449  50.568  1.00  0.00    -0.000 C 
BRANCH  17  18
ATOM     18  C   UNL     1      61.373  27.445  50.942  1.00  0.00    -0.000 C 
BRANCH  18  19
ATOM     19  C   UNL     1      62.673  27.298  50.133  1.00  0.00    -0.003 C 
ATOM     20  C   UNL     1      63.113  28.603  49.471  1.00  0.00     0.004 C 
ENDBRANCH  18  19
ENDBRANCH  17  18
ENDBRANCH  16  17
ENDBRANCH  15  16
ENDBRANCH  14  15
ENDBRANCH  13  14
ENDBRANCH  12  13
ENDBRANCH   1  12
TORSDOF 16
ENDMDL
MODEL 3
REMARK VINA RESULT:    -3.085      3.568      6.971
REMARK INTER + INTRA:          -8.644
REMARK INTER:                  -6.296
REMARK INTRA:                  -2.348
REMARK UNBOUND:                -2.674
REMARK SMILES CCCCCCCCCCCCCCCCCC(=O)[O-]
REMARK SMILES IDX 10 1 11 2 12 3 13 4 14 5 15 6 16 7 17 8 18 9 19 10 20 11
REMARK SMILES IDX 9 12 8 13 7 14 6 15 5 16 4 17 3 18 2 19 1 20
REMARK H PARENT
REMARK Flexibility Score: inf
ROOT
ATOM      1  C   UNL     1      58.264  29.725  52.039  1.00  0.00     0.000 C 
ENDROOT
BRANCH   1   2
ATOM      2  C   UNL     1      57.819  29.563  50.574  1.00  0.00     0.000 C 
BRANCH   2   3
ATOM      3  C   UNL     1      59.013  29.530  49.594  1.00  0.00     0.000 C 
BRANCH   3   4
ATOM      4  C   UNL     1      59.814  28.213  49.634  1.00  0.00     0.000 C 
BRANCH   4   5
ATOM      5  C   UNL     1      58.962  26.932  49.709  1.00  0.00     0.000 C 
BRANCH   5   6
ATOM      6  C   UNL     1      59.461  25.879  50.717  1.00  0.00     0.000 C 
BRANCH   6   7
ATOM      7  C   UNL     1      60.875  26.178  51.244  1.00  0.00     0.006 C 
BRANCH   7   8
ATOM      8  C   UNL     1      61.901  25.145  50.761  1.00  0.00     0.053 C 
BRANCH   8   9
ATOM      9  C   UNL     1      61.329  23.761  50.745  1.00  0.00     0.041 C 
ATOM     10  O   UNL     1      61.171  23.153  49.654  1.00  0.00    -0.550 OA
ATOM     11  O   UNL     1      61.004  23.128  51.938  1.00  0.00    -0.550 OA
ENDBRANCH   8   9
ENDBRANCH   7   8
ENDBRANCH   6   7
ENDBRANCH   5   6
ENDBRANCH   4   5
ENDBRANCH   3   4
ENDBRANCH   2   3
ENDBRANCH   1   2
BRANCH   1  12
ATOM     12  C   UNL     1      57.248  29.130  53.031  1.00  0.00     0.000 C 
BRANCH  12  13
ATOM     13  C   UNL     1      57.300  27.594  53.138  1.00  0.00    -0.000 C 
BRANCH  13  14
ATOM     14  C   UNL     1      55.946  26.938  52.812  1.00  0.00    -0.000 C 
BRANCH  14  15
ATOM     15  C   UNL     1      55.805  26.570  51.326  1.00  0.00    -0.000 C 
BRANCH  15  16
ATOM     16  C   UNL     1      54.358  26.225  50.935  1.00  0.00    -0.000 C 
BRANCH  16  17
ATOM     17  C   UNL     1      53.598  27.424  50.340  1.00  0.00    -0.000 C 
BRANCH  17  18
ATOM     18  C   UNL     1      54.376  28.756  50.327  1.00  0.00    -0.000 C 
BRANCH  18  19
ATOM     19  C   UNL     1      53.571  29.986  50.781  1.00  0.00    -0.003 C 
ATOM     20  C   UNL     1      53.949  30.459  52.185  1.00  0.00     0.004 C 
ENDBRANCH  18  19
ENDBRANCH  17  18
ENDBRANCH  16  17
ENDBRANCH  15  16
ENDBRANCH  14  15
ENDBRANCH  13  14
ENDBRANCH  12  13
ENDBRANCH   1  12
TORSDOF 16
ENDMDL
MODEL 4
REMARK VINA RESULT:    -3.080      1.341      2.092
REMARK INTER + INTRA:          -8.636
REMARK INTER:                  -6.059
REMARK INTRA:                  -2.576
REMARK UNBOUND:                -2.674
REMARK SMILES CCCCCCCCCCCCCCCCCC(=O)[O-]
REMARK SMILES IDX 10 1 11 2 12 3 13 4 14 5 15 6 16 7 17 8 18 9 19 10 20 11
REMARK SMILES IDX 9 12 8 13 7 14 6 15 5 16 4 17 3 18 2 19 1 20
REMARK H PARENT
REMARK Flexibility Score: inf
ROOT
ATOM      1  C   UNL     1      56.736  26.852  50.670  1.00  0.00     0.000 C 
ENDROOT
BRANCH   1   2
ATOM      2  C   UNL     1      55.928  26.174  51.792  1.00  0.00     0.000 C 
BRANCH   2   3
ATOM      3  C   UNL     1      54.430  26.035  51.439  1.00  0.00     0.000 C 
BRANCH   3   4
ATOM      4  C   UNL     1      54.043  26.692  50.100  1.00  0.00     0.000 C 
BRANCH   4   5
ATOM      5  C   UNL     1      53.135  27.930  50.217  1.00  0.00     0.000 C 
BRANCH   5   6
ATOM      6  C   UNL     1      53.873  29.252  50.503  1.00  0.00     0.000 C 
BRANCH   6   7
ATOM      7  C   UNL     1      53.584  29.805  51.910  1.00  0.00     0.006 C 
BRANCH   7   8
ATOM      8  C   UNL     1      54.871  30.167  52.662  1.00  0.00     0.053 C 
BRANCH   8   9
ATOM      9  C   UNL     1      55.158  29.198  53.768  1.00  0.00     0.041 C 
ATOM     10  O   UNL     1      56.282  29.201  54.336  1.00  0.00    -0.550 OA
ATOM     11  O   UNL     1      54.174  28.316  54.194  1.00  0.00    -0.550 OA
ENDBRANCH   8   9
ENDBRANCH   7   8
ENDBRANCH   6   7
ENDBRANCH   5   6
ENDBRANCH   4   5
ENDBRANCH   3   4
ENDBRANCH   2   3
ENDBRANCH   1   2
BRANCH   1  12
ATOM     12  C   UNL     1      57.600  28.017  51.189  1.00  0.00     0.000 C 
BRANCH  12  13
ATOM     13  C   UNL     1      57.552  29.275  50.303  1.00  0.00    -0.000 C 
BRANCH  13  14
ATOM     14  C   UNL     1      58.913  29.587  49.654  1.00  0.00    -0.000 C 
BRANCH  14  15
ATOM     15  C   UNL     1      59.774  28.329  49.445  1.00  0.00    -0.000 C 
BRANCH  15  16
ATOM     16  C   UNL     1      61.138  28.422  50.149  1.00  0.00    -0.000 C 
BRANCH  16  17
ATOM     17  C   UNL     1      61.826  27.053  50.301  1.00  0.00    -0.000 C 
BRANCH  17  18
ATOM     18  C   UNL     1      61.647  26.376  51.677  1.00  0.00    -0.000 C 
BRANCH  18  19
ATOM     19  C   UNL     1      60.276  25.717  51.904  1.00  0.00    -0.003 C 
ATOM     20  C   UNL     1      59.886  24.752  50.785  1.00  0.00     0.004 C 
ENDBRANCH  18  19
ENDBRANCH  17  18
ENDBRANCH  16  17
ENDBRANCH  15  16
ENDBRANCH  14  15
ENDBRANCH  13  14
ENDBRANCH  12  13
ENDBRANCH   1  12
TORSDOF 16
ENDMDL
MODEL 5
REMARK VINA RESULT:    -3.080      1.892      2.651
REMARK INTER + INTRA:          -8.636
REMARK INTER:                  -6.421
REMARK INTRA:                  -2.215
REMARK UNBOUND:                -2.674
REMARK SMILES CCCCCCCCCCCCCCCCCC(=O)[O-]
REMARK SMILES IDX 10 1 11 2 12 3 13 4 14 5 15 6 16 7 17 8 18 9 19 10 20 11
REMARK SMILES IDX 9 12 8 13 7 14 6 15 5 16 4 17 3 18 2 19 1 20
REMARK H PARENT
REMARK Flexibility Score: inf
ROOT
ATOM      1  C   UNL     1      56.228  26.640  50.401  1.00  0.00     0.000 C 
ENDROOT
BRANCH   1   2
ATOM      2  C   UNL     1      54.711  26.587  50.145  1.00  0.00     0.000 C 
BRANCH   2   3
ATOM      3  C   UNL     1      53.930  27.598  51.013  1.00  0.00     0.000 C 
BRANCH   3   4
ATOM      4  C   UNL     1      53.607  28.920  50.290  1.00  0.00     0.000 C 
BRANCH   4   5
ATOM      5  C   UNL     1      53.935  30.197  51.085  1.00  0.00     0.000 C 
BRANCH   5   6
ATOM      6  C   UNL     1      54.171  29.982  52.592  1.00  0.00     0.000 C 
BRANCH   6   7
ATOM      7  C   UNL     1      54.710  31.238  53.299  1.00  0.00     0.006 C 
BRANCH   7   8
ATOM      8  C   UNL     1      56.242  31.232  53.395  1.00  0.00     0.053 C 
BRANCH   8   9
ATOM      9  C   UNL     1      56.773  32.555  53.857  1.00  0.00     0.041 C 
ATOM     10  O   UNL     1      57.831  33.021  53.358  1.00  0.00    -0.550 OA
ATOM     11  O   UNL     1      56.081  33.288  54.812  1.00  0.00    -0.550 OA
ENDBRANCH   8   9
ENDBRANCH   7   8
ENDBRANCH   6   7
ENDBRANCH   5   6
ENDBRANCH   4   5
ENDBRANCH   3   4
ENDBRANCH   2   3
ENDBRANCH   1   2
BRANCH   1  12
ATOM     12  C   UNL     1      56.577  27.344  51.725  1.00  0.00     0.000 C 
BRANCH  12  13
ATOM     13  C   UNL     1      57.820  28.251  51.644  1.00  0.00    -0.000 C 
BRANCH  13  14
ATOM     14  C   UNL     1      57.668  29.359  50.586  1.00  0.00    -0.000 C 
BRANCH  14  15
ATOM     15  C   UNL     1      58.757  29.300  49.502  1.00  0.00    -0.000 C 
BRANCH  15  16
ATOM     16  C   UNL     1      59.529  27.970  49.509  1.00  0.00    -0.000 C 
BRANCH  16  17
ATOM     17  C   UNL     1      61.014  28.143  49.876  1.00  0.00    -0.000 C 
BRANCH  17  18
ATOM     18  C   UNL     1      61.645  26.960  50.641  1.00  0.00    -0.000 C 
BRANCH  18  19
ATOM     19  C   UNL     1      60.646  25.908  51.153  1.00  0.00    -0.003 C 
ATOM     20  C   UNL     1      60.730  24.587  50.389  1.00  0.00     0.004 C 
ENDBRANCH  18  19
ENDBRANCH  17  18
ENDBRANCH  16  17
ENDBRANCH  15  16
ENDBRANCH  14  15
ENDBRANCH  13  14
ENDBRANCH  12  13
ENDBRANCH   1  12
TORSDOF 16
ENDMDL
MODEL 6
REMARK VINA RESULT:    -3.069      3.251      6.259
REMARK INTER + INTRA:          -8.613
REMARK INTER:                  -6.160
REMARK INTRA:                  -2.453
REMARK UNBOUND:                -2.674
REMARK SMILES CCCCCCCCCCCCCCCCCC(=O)[O-]
REMARK SMILES IDX 10 1 11 2 12 3 13 4 14 5 15 6 16 7 17 8 18 9 19 10 20 11
REMARK SMILES IDX 9 12 8 13 7 14 6 15 5 16 4 17 3 18 2 19 1 20
REMARK H PARENT
REMARK Flexibility Score: inf
ROOT
ATOM      1  C   UNL     1      57.652  28.740  53.144  1.00  0.00     0.000 C 
ENDROOT
BRANCH   1   2
ATOM      2  C   UNL     1      57.742  30.069  52.371  1.00  0.00     0.000 C 
BRANCH   2   3
ATOM      3  C   UNL     1      58.931  30.098  51.385  1.00  0.00     0.000 C 
BRANCH   3   4
ATOM      4  C   UNL     1      58.553  29.707  49.943  1.00  0.00     0.000 C 
BRANCH   4   5
ATOM      5  C   UNL     1      59.197  28.406  49.428  1.00  0.00     0.000 C 
BRANCH   5   6
ATOM      6  C   UNL     1      60.588  28.095  50.013  1.00  0.00     0.000 C 
BRANCH   6   7
ATOM      7  C   UNL     1      60.573  26.909  50.993  1.00  0.00     0.006 C 
BRANCH   7   8
ATOM      8  C   UNL     1      59.494  25.878  50.635  1.00  0.00     0.053 C 
BRANCH   8   9
ATOM      9  C   UNL     1      59.952  24.479  50.910  1.00  0.00     0.041 C 
ATOM     10  O   UNL     1      59.495  23.845  51.898  1.00  0.00    -0.550 OA
ATOM     11  O   UNL     1      60.856  23.861  50.056  1.00  0.00    -0.550 OA
ENDBRANCH   8   9
ENDBRANCH   7   8
ENDBRANCH   6   7
ENDBRANCH   5   6
ENDBRANCH   4   5
ENDBRANCH   3   4
ENDBRANCH   2   3
ENDBRANCH   1   2
BRANCH   1  12
ATOM     12  C   UNL     1      56.763  28.848  54.397  1.00  0.00     0.000 C 
BRANCH  12  13
ATOM     13  C   UNL     1      55.378  29.468  54.131  1.00  0.00    -0.000 C 
BRANCH  13  14
ATOM     14  C   UNL     1      54.265  28.407  54.059  1.00  0.00    -0.000 C 
BRANCH  14  15
ATOM     15  C   UNL     1      53.373  28.563  52.816  1.00  0.00    -0.000 C 
BRANCH  15  16
ATOM     16  C   UNL     1      54.004  29.466  51.743  1.00  0.00    -0.000 C 
BRANCH  16  17
ATOM     17  C   UNL     1      54.300  28.718  50.430  1.00  0.00    -0.000 C 
BRANCH  17  18
ATOM     18  C   UNL     1      55.523  27.779  50.469  1.00  0.00    -0.000 C 
BRANCH  18  19
ATOM     19  C   UNL     1      55.194  26.277  50.425  1.00  0.00    -0.003 C 
ATOM     20  C   UNL     1      53.893  25.975  49.681  1.00  0.00     0.004 C 
ENDBRANCH  18  19
ENDBRANCH  17  18
ENDBRANCH  16  17
ENDBRANCH  15  16
ENDBRANCH  14  15
ENDBRANCH  13  14
ENDBRANCH  12  13
ENDBRANCH   1  12
TORSDOF 16
ENDMDL
MODEL 7
REMARK VINA RESULT:    -3.053      2.226      4.216
REMARK INTER + INTRA:          -8.583
REMARK INTER:                  -5.951
REMARK INTRA:                  -2.632
REMARK UNBOUND:                -2.674
REMARK SMILES CCCCCCCCCCCCCCCCCC(=O)[O-]
REMARK SMILES IDX 10 1 11 2 12 3 13 4 14 5 15 6 16 7 17 8 18 9 19 10 20 11
REMARK SMILES IDX 9 12 8 13 7 14 6 15 5 16 4 17 3 18 2 19 1 20
REMARK H PARENT
REMARK Flexibility Score: inf
ROOT
ATOM      1  C   UNL     1      59.009  29.774  51.933  1.00  0.00     0.000 C 
ENDROOT
BRANCH   1   2
ATOM      2  C   UNL     1      58.480  30.976  52.737  1.00  0.00     0.000 C 
BRANCH   2   3
ATOM      3  C   UNL     1      57.187  30.643  53.513  1.00  0.00     0.000 C 
BRANCH   3   4
ATOM      4  C   UNL     1      56.428  29.421  52.962  1.00  0.00     0.000 C 
BRANCH   4   5
ATOM      5  C   UNL     1      55.162  29.749  52.149  1.00  0.00     0.000 C 
BRANCH   5   6
ATOM      6  C   UNL     1      55.180  29.254  50.690  1.00  0.00     0.000 C 
BRANCH   6   7
ATOM      7  C   UNL     1      54.158  28.135  50.425  1.00  0.00     0.006 C 
BRANCH   7   8
ATOM      8  C   UNL     1      54.832  26.770  50.236  1.00  0.00     0.053 C 
BRANCH   8   9
ATOM      9  C   UNL     1      54.826  25.968  51.501  1.00  0.00     0.041 C 
ATOM     10  O   UNL     1      55.862  25.902  52.214  1.00  0.00    -0.550 OA
ATOM     11  O   UNL     1      53.666  25.323  51.912  1.00  0.00    -0.550 OA
ENDBRANCH   8   9
ENDBRANCH   7   8
ENDBRANCH   6   7
ENDBRANCH   5   6
ENDBRANCH   4   5
ENDBRANCH   3   4
ENDBRANCH   2   3
ENDBRANCH   1   2
BRANCH   1  12
ATOM     12  C   UNL     1      58.928  30.003  50.412  1.00  0.00     0.000 C 
BRANCH  12  13
ATOM     13  C   UNL     1      58.912  28.705  49.583  1.00  0.00    -0.000 C 
BRANCH  13  14
ATOM     14  C   UNL     1      58.456  27.489  50.409  1.00  0.00    -0.000 C 
BRANCH  14  15
ATOM     15  C   UNL     1      59.157  26.186  49.988  1.00  0.00    -0.000 C 
BRANCH  15  16
ATOM     16  C   UNL     1      60.044  25.604  51.101  1.00  0.00    -0.000 C 
BRANCH  16  17
ATOM     17  C   UNL     1      61.545  25.677  50.769  1.00  0.00    -0.000 C 
BRANCH  17  18
ATOM     18  C   UNL     1      62.219  27.034  51.059  1.00  0.00    -0.000 C 
BRANCH  18  19
ATOM     19  C   UNL     1      62.544  27.879  49.815  1.00  0.00    -0.003 C 
ATOM     20  C   UNL     1      62.578  29.380  50.108  1.00  0.00     0.004 C 
ENDBRANCH  18  19
ENDBRANCH  17  18
ENDBRANCH  16  17
ENDBRANCH  15  16
ENDBRANCH  14  15
ENDBRANCH  13  14
ENDBRANCH  12  13
ENDBRANCH   1  12
TORSDOF 16
ENDMDL
MODEL 8
REMARK VINA RESULT:    -3.004      3.686      6.757
REMARK INTER + INTRA:          -8.487
REMARK INTER:                  -5.581
REMARK INTRA:                  -2.906
REMARK UNBOUND:                -2.674
REMARK SMILES CCCCCCCCCCCCCCCCCC(=O)[O-]
REMARK SMILES IDX 10 1 11 2 12 3 13 4 14 5 15 6 16 7 17 8 18 9 19 10 20 11
REMARK SMILES IDX 9 12 8 13 7 14 6 15 5 16 4 17 3 18 2 19 1 20
REMARK H PARENT
REMARK Flexibility Score: inf
ROOT
ATOM      1  C   UNL     1      58.006  30.339  52.266  1.00  0.00     0.000 C 
ENDROOT
BRANCH   1   2
ATOM      2  C   UNL     1      59.499  30.422  51.896  1.00  0.00     0.000 C 
BRANCH   2   3
ATOM      3  C   UNL     1      59.739  30.279  50.377  1.00  0.00     0.000 C 
BRANCH   3   4
ATOM      4  C   UNL     1      58.877  29.191  49.710  1.00  0.00     0.000 C 
BRANCH   4   5
ATOM      5  C   UNL     1      59.535  27.802  49.614  1.00  0.00     0.000 C 
BRANCH   5   6
ATOM      6  C   UNL     1      61.066  27.796  49.788  1.00  0.00     0.000 C 
BRANCH   6   7
ATOM      7  C   UNL     1      61.520  27.062  51.062  1.00  0.00     0.006 C 
BRANCH   7   8
ATOM      8  C   UNL     1      63.001  27.312  51.375  1.00  0.00     0.053 C 
BRANCH   8   9
ATOM      9  C   UNL     1      63.250  28.733  51.778  1.00  0.00     0.041 C 
ATOM     10  O   UNL     1      62.658  29.220  52.777  1.00  0.00    -0.550 OA
ATOM     11  O   UNL     1      64.162  29.507  51.074  1.00  0.00    -0.550 OA
ENDBRANCH   8   9
ENDBRANCH   7   8
ENDBRANCH   6   7
ENDBRANCH   5   6
ENDBRANCH   4   5
ENDBRANCH   3   4
ENDBRANCH   2   3
ENDBRANCH   1   2
BRANCH   1  12
ATOM     12  C   UNL     1      57.718  29.242  53.307  1.00  0.00     0.000 C 
BRANCH  12  13
ATOM     13  C   UNL     1      58.851  28.210  53.462  1.00  0.00    -0.000 C 
BRANCH  13  14
ATOM     14  C   UNL     1      58.415  26.794  53.046  1.00  0.00    -0.000 C 
BRANCH  14  15
ATOM     15  C   UNL     1      56.942  26.730  52.605  1.00  0.00    -0.000 C 
BRANCH  15  16
ATOM     16  C   UNL     1      56.769  26.111  51.209  1.00  0.00    -0.000 C 
BRANCH  16  17
ATOM     17  C   UNL     1      55.596  26.726  50.424  1.00  0.00    -0.000 C 
BRANCH  17  18
ATOM     18  C   UNL     1      55.417  28.249  50.594  1.00  0.00    -0.000 C 
BRANCH  18  19
ATOM     19  C   UNL     1      53.987  28.767  50.362  1.00  0.00    -0.003 C 
ATOM     20  C   UNL     1      53.780  30.193  50.872  1.00  0.00     0.004 C 
ENDBRANCH  18  19
ENDBRANCH  17  18
ENDBRANCH  16  17
ENDBRANCH  15  16
ENDBRANCH  14  15
ENDBRANCH  13  14
ENDBRANCH  12  13
ENDBRANCH   1  12
TORSDOF 16
ENDMDL
MODEL 9
REMARK VINA RESULT:    -2.989      3.941      6.868
REMARK INTER + INTRA:          -8.458
REMARK INTER:                  -6.451
REMARK INTRA:                  -2.008
REMARK UNBOUND:                -2.674
REMARK SMILES CCCCCCCCCCCCCCCCCC(=O)[O-]
REMARK SMILES IDX 10 1 11 2 12 3 13 4 14 5 15 6 16 7 17 8 18 9 19 10 20 11
REMARK SMILES IDX 9 12 8 13 7 14 6 15 5 16 4 17 3 18 2 19 1 20
REMARK H PARENT
REMARK Flexibility Score: inf
ROOT
ATOM      1  C   UNL     1      59.791  26.215  52.026  1.00  0.00     0.000 C 
ENDROOT
BRANCH   1   2
ATOM      2  C   UNL     1      61.292  26.491  51.827  1.00  0.00     0.000 C 
BRANCH   2   3
ATOM      3  C   UNL     1      61.634  26.872  50.369  1.00  0.00     0.000 C 
BRANCH   3   4
ATOM      4  C   UNL     1      61.905  28.375  50.166  1.00  0.00     0.000 C 
BRANCH   4   5
ATOM      5  C   UNL     1      61.400  29.289  51.297  1.00  0.00     0.000 C 
BRANCH   5   6
ATOM      6  C   UNL     1      61.130  30.748  50.882  1.00  0.00     0.000 C 
BRANCH   6   7
ATOM      7  C   UNL     1      62.390  31.629  50.938  1.00  0.00     0.006 C 
BRANCH   7   8
ATOM      8  C   UNL     1      62.674  32.315  49.595  1.00  0.00     0.053 C 
BRANCH   8   9
ATOM      9  C   UNL     1      62.190  33.732  49.582  1.00  0.00     0.041 C 
ATOM     10  O   UNL     1      61.924  34.300  48.490  1.00  0.00    -0.550 OA
ATOM     11  O   UNL     1      61.996  34.413  50.777  1.00  0.00    -0.550 OA
ENDBRANCH   8   9
ENDBRANCH   7   8
ENDBRANCH   6   7
ENDBRANCH   5   6
ENDBRANCH   4   5
ENDBRANCH   3   4
ENDBRANCH   2   3
ENDBRANCH   1   2
BRANCH   1  12
ATOM     12  C   UNL     1      59.075  25.876  50.706  1.00  0.00     0.000 C 
BRANCH  12  13
ATOM     13  C   UNL     1      57.826  26.734  50.431  1.00  0.00    -0.000 C 
BRANCH  13  14
ATOM     14  C   UNL     1      58.183  28.140  49.915  1.00  0.00    -0.000 C 
BRANCH  14  15
ATOM     15  C   UNL     1      57.547  29.262  50.753  1.00  0.00    -0.000 C 
BRANCH  15  16
ATOM     16  C   UNL     1      56.260  28.812  51.465  1.00  0.00    -0.000 C 
BRANCH  16  17
ATOM     17  C   UNL     1      54.994  29.467  50.882  1.00  0.00    -0.000 C 
BRANCH  17  18
ATOM     18  C   UNL     1      53.937  28.484  50.337  1.00  0.00    -0.000 C 
BRANCH  18  19
ATOM     19  C   UNL     1      54.068  27.038  50.846  1.00  0.00    -0.003 C 
ATOM     20  C   UNL     1      54.274  26.027  49.718  1.00  0.00     0.004 C 
ENDBRANCH  18  19
ENDBRANCH  17  18
ENDBRANCH  16  17
ENDBRANCH  15  16
ENDBRANCH  14  15
ENDBRANCH  13  14
ENDBRANCH  12  13
ENDBRANCH   1  12
TORSDOF 16
ENDMDL
