MODEL 1
REMARK VINA RESULT:    -4.074      0.000      0.000
REMARK INTER + INTRA:          -5.179
REMARK INTER:                  -4.907
REMARK INTRA:                  -0.271
REMARK UNBOUND:                -0.271
REMARK SMILES NC(=O)C[C@H]([NH3+])C(=O)[O-]
REMARK SMILES IDX 4 1 5 2 6 3 7 7 8 8 9 9 2 10 3 11 1 12
REMARK H PARENT 6 4 6 5 6 6 1 13 1 14
REMARK Flexibility Score: inf
ROOT
ATOM      1  C   UNL     1       3.165  27.812  11.650  1.00  0.00     0.171 C 
ENDROOT
BRANCH   1   2
ATOM      2  C   UNL     1       2.826  28.342  13.057  1.00  0.00     0.237 C 
BRANCH   2   3
ATOM      3  N   UNL     1       2.514  27.230  13.962  1.00  0.00    -0.350 N 
ATOM      4  H   UNL     1       2.225  26.392  13.407  1.00  0.00     0.345 HD
ATOM      5  H   UNL     1       1.739  27.491  14.615  1.00  0.00     0.345 HD
ATOM      6  H   UNL     1       3.362  26.976  14.519  1.00  0.00     0.345 HD
ENDBRANCH   2   3
BRANCH   2   7
ATOM      7  C   UNL     1       1.668  29.306  13.006  1.00  0.00     0.100 C 
ATOM      8  O   UNL     1       0.770  29.264  13.889  1.00  0.00    -0.544 OA
ATOM      9  O   UNL     1       1.590  30.256  11.994  1.00  0.00    -0.544 OA
ENDBRANCH   2   7
ENDBRANCH   1   2
BRANCH   1  10
ATOM     10  C   UNL     1       2.958  26.328  11.552  1.00  0.00     0.223 C 
ATOM     11  O   UNL     1       1.793  25.852  11.629  1.00  0.00    -0.275 OA
ATOM     12  N   UNL     1       4.074  25.447  11.414  1.00  0.00    -0.369 N 
ATOM     13  H   UNL     1       3.926  24.415  11.361  1.00  0.00     0.159 HD
ATOM     14  H   UNL     1       5.047  25.823  11.367  1.00  0.00     0.159 HD
ENDBRANCH   1  10
TORSDOF 4
ENDMDL
MODEL 2
REMARK VINA RESULT:    -3.764      3.210      4.037
REMARK INTER + INTRA:          -4.806
REMARK INTER:                  -4.688
REMARK INTRA:                  -0.117
REMARK UNBOUND:                -0.271
REMARK SMILES NC(=O)C[C@H]([NH3+])C(=O)[O-]
REMARK SMILES IDX 4 1 5 2 6 3 7 7 8 8 9 9 2 10 3 11 1 12
REMARK H PARENT 6 4 6 5 6 6 1 13 1 14
REMARK Flexibility Score: inf
ROOT
ATOM      1  C   UNL     1       2.585  25.399  11.570  1.00  0.00     0.171 C 
ENDROOT
BRANCH   1   2
ATOM      2  C   UNL     1       3.746  25.291  10.562  1.00  0.00     0.237 C 
BRANCH   2   3
ATOM      3  N   UNL     1       4.913  24.657  11.188  1.00  0.00    -0.350 N 
ATOM      4  H   UNL     1       5.270  23.890  10.573  1.00  0.00     0.345 HD
ATOM      5  H   UNL     1       4.660  24.258  12.121  1.00  0.00     0.345 HD
ATOM      6  H   UNL     1       5.676  25.361  11.309  1.00  0.00     0.345 HD
ENDBRANCH   2   3
BRANCH   2   7
ATOM      7  C   UNL     1       4.122  26.648  10.026  1.00  0.00     0.100 C 
ATOM      8  O   UNL     1       3.581  27.686  10.492  1.00  0.00    -0.544 OA
ATOM      9  O   UNL     1       5.079  26.767   9.024  1.00  0.00    -0.544 OA
ENDBRANCH   2   7
ENDBRANCH   1   2
BRANCH   1  10
ATOM     10  C   UNL     1       1.297  24.893  10.986  1.00  0.00     0.223 C 
ATOM     11  O   UNL     1       1.284  24.416   9.819  1.00  0.00    -0.275 OA
ATOM     12  N   UNL     1       0.079  24.984  11.726  1.00  0.00    -0.369 N 
ATOM     13  H   UNL     1      -0.816  24.644  11.311  1.00  0.00     0.159 HD
ATOM     14  H   UNL     1       0.069  25.393  12.687  1.00  0.00     0.159 HD
ENDBRANCH   1  10
TORSDOF 4
ENDMDL
MODEL 3
REMARK VINA RESULT:    -3.736      1.717      2.160
REMARK INTER + INTRA:          -4.772
REMARK INTER:                  -4.529
REMARK INTRA:                  -0.243
REMARK UNBOUND:                -0.271
REMARK SMILES NC(=O)C[C@H]([NH3+])C(=O)[O-]
REMARK SMILES IDX 4 1 5 2 6 3 7 7 8 8 9 9 2 10 3 11 1 12
REMARK H PARENT 6 4 6 5 6 6 1 13 1 14
REMARK Flexibility Score: inf
ROOT
ATOM      1  C   UNL     1       3.508  26.592  11.024  1.00  0.00     0.171 C 
ENDROOT
BRANCH   1   2
ATOM      2  C   UNL     1       2.616  26.611  12.280  1.00  0.00     0.237 C 
BRANCH   2   3
ATOM      3  N   UNL     1       1.297  26.041  11.981  1.00  0.00    -0.350 N 
ATOM      4  H   UNL     1       0.854  25.694  12.863  1.00  0.00     0.345 HD
ATOM      5  H   UNL     1       1.382  25.247  11.306  1.00  0.00     0.345 HD
ATOM      6  H   UNL     1       0.676  26.777  11.572  1.00  0.00     0.345 HD
ENDBRANCH   2   3
BRANCH   2   7
ATOM      7  C   UNL     1       2.463  28.014  12.811  1.00  0.00     0.100 C 
ATOM      8  O   UNL     1       2.380  28.987  12.016  1.00  0.00    -0.544 OA
ATOM      9  O   UNL     1       2.398  28.242  14.181  1.00  0.00    -0.544 OA
ENDBRANCH   2   7
ENDBRANCH   1   2
BRANCH   1  10
ATOM     10  C   UNL     1       3.911  25.194  10.652  1.00  0.00     0.223 C 
ATOM     11  O   UNL     1       3.173  24.512   9.892  1.00  0.00    -0.275 OA
ATOM     12  N   UNL     1       5.104  24.616  11.184  1.00  0.00    -0.369 N 
ATOM     13  H   UNL     1       5.372  23.639  10.934  1.00  0.00     0.159 HD
ATOM     14  H   UNL     1       5.717  25.160  11.830  1.00  0.00     0.159 HD
ENDBRANCH   1  10
TORSDOF 4
ENDMDL
MODEL 4
REMARK VINA RESULT:    -3.712      1.332      3.968
REMARK INTER + INTRA:          -4.743
REMARK INTER:                  -4.615
REMARK INTRA:                  -0.128
REMARK UNBOUND:                -0.271
REMARK SMILES NC(=O)C[C@H]([NH3+])C(=O)[O-]
REMARK SMILES IDX 4 1 5 2 6 3 7 7 8 8 9 9 2 10 3 11 1 12
REMARK H PARENT 6 4 6 5 6 6 1 13 1 14
REMARK Flexibility Score: inf
ROOT
ATOM      1  C   UNL     1       3.082  27.200  11.431  1.00  0.00     0.171 C 
ENDROOT
BRANCH   1   2
ATOM      2  C   UNL     1       3.111  25.663  11.546  1.00  0.00     0.237 C 
BRANCH   2   3
ATOM      3  N   UNL     1       4.433  25.145  11.173  1.00  0.00    -0.350 N 
ATOM      4  H   UNL     1       4.890  25.797  10.495  1.00  0.00     0.345 HD
ATOM      5  H   UNL     1       4.349  24.199  10.734  1.00  0.00     0.345 HD
ATOM      6  H   UNL     1       5.041  25.078  12.021  1.00  0.00     0.345 HD
ENDBRANCH   2   3
BRANCH   2   7
ATOM      7  C   UNL     1       2.049  25.038  10.678  1.00  0.00     0.100 C 
ATOM      8  O   UNL     1       0.861  24.957  11.091  1.00  0.00    -0.544 OA
ATOM      9  O   UNL     1       2.368  24.559   9.413  1.00  0.00    -0.544 OA
ENDBRANCH   2   7
ENDBRANCH   1   2
BRANCH   1  10
ATOM     10  C   UNL     1       2.494  27.835  12.658  1.00  0.00     0.223 C 
ATOM     11  O   UNL     1       1.988  28.987  12.585  1.00  0.00    -0.275 OA
ATOM     12  N   UNL     1       2.538  27.162  13.917  1.00  0.00    -0.369 N 
ATOM     13  H   UNL     1       2.141  27.614  14.770  1.00  0.00     0.159 HD
ATOM     14  H   UNL     1       2.970  26.215  14.000  1.00  0.00     0.159 HD
ENDBRANCH   1  10
TORSDOF 4
ENDMDL
MODEL 5
REMARK VINA RESULT:    -3.624      4.326      5.014
REMARK INTER + INTRA:          -4.636
REMARK INTER:                  -4.522
REMARK INTRA:                  -0.114
REMARK UNBOUND:                -0.271
REMARK SMILES NC(=O)C[C@H]([NH3+])C(=O)[O-]
REMARK SMILES IDX 4 1 5 2 6 3 7 7 8 8 9 9 2 10 3 11 1 12
REMARK H PARENT 6 4 6 5 6 6 1 13 1 14
REMARK Flexibility Score: inf
ROOT
ATOM      1  C   UNL     1       2.229  25.311  10.075  1.00  0.00     0.171 C 
ENDROOT
BRANCH   1   2
ATOM      2  C   UNL     1       3.453  25.094  10.985  1.00  0.00     0.237 C 
BRANCH   2   3
ATOM      3  N   UNL     1       3.939  26.377  11.507  1.00  0.00    -0.350 N 
ATOM      4  H   UNL     1       4.930  26.527  11.207  1.00  0.00     0.345 HD
ATOM      5  H   UNL     1       3.892  26.393  12.552  1.00  0.00     0.345 HD
ATOM      6  H   UNL     1       3.360  27.158  11.123  1.00  0.00     0.345 HD
ENDBRANCH   2   3
BRANCH   2   7
ATOM      7  C   UNL     1       4.558  24.387  10.243  1.00  0.00     0.100 C 
ATOM      8  O   UNL     1       4.391  24.032   9.046  1.00  0.00    -0.544 OA
ATOM      9  O   UNL     1       5.774  24.134  10.868  1.00  0.00    -0.544 OA
ENDBRANCH   2   7
ENDBRANCH   1   2
BRANCH   1  10
ATOM     10  C   UNL     1       1.028  24.558  10.573  1.00  0.00     0.223 C 
ATOM     11  O   UNL     1       0.705  23.467  10.032  1.00  0.00    -0.275 OA
ATOM     12  N   UNL     1       0.226  25.088  11.629  1.00  0.00    -0.369 N 
ATOM     13  H   UNL     1      -0.616  24.568  11.962  1.00  0.00     0.159 HD
ATOM     14  H   UNL     1       0.467  26.000  12.076  1.00  0.00     0.159 HD
ENDBRANCH   1  10
TORSDOF 4
ENDMDL
MODEL 6
REMARK VINA RESULT:    -3.598      2.243      2.958
REMARK INTER + INTRA:          -4.605
REMARK INTER:                  -4.087
REMARK INTRA:                  -0.518
REMARK UNBOUND:                -0.271
REMARK SMILES NC(=O)C[C@H]([NH3+])C(=O)[O-]
REMARK SMILES IDX 4 1 5 2 6 3 7 7 8 8 9 9 2 10 3 11 1 12
REMARK H PARENT 6 4 6 5 6 6 1 13 1 14
REMARK Flexibility Score: inf
ROOT
ATOM      1  C   UNL     1       3.428  29.195  13.119  1.00  0.00     0.171 C 
ENDROOT
BRANCH   1   2
ATOM      2  C   UNL     1       2.637  28.073  13.819  1.00  0.00     0.237 C 
BRANCH   2   3
ATOM      3  N   UNL     1       1.944  27.239  12.829  1.00  0.00    -0.350 N 
ATOM      4  H   UNL     1       1.089  26.817  13.258  1.00  0.00     0.345 HD
ATOM      5  H   UNL     1       2.570  26.474  12.487  1.00  0.00     0.345 HD
ATOM      6  H   UNL     1       1.644  27.827  12.017  1.00  0.00     0.345 HD
ENDBRANCH   2   3
BRANCH   2   7
ATOM      7  C   UNL     1       1.643  28.643  14.798  1.00  0.00     0.100 C 
ATOM      8  O   UNL     1       1.833  28.520  16.037  1.00  0.00    -0.544 OA
ATOM      9  O   UNL     1       0.518  29.321  14.342  1.00  0.00    -0.544 OA
ENDBRANCH   2   7
ENDBRANCH   1   2
BRANCH   1  10
ATOM     10  C   UNL     1       2.816  29.563  11.798  1.00  0.00     0.223 C 
ATOM     11  O   UNL     1       3.227  29.009  10.743  1.00  0.00    -0.275 OA
ATOM     12  N   UNL     1       1.800  30.564  11.721  1.00  0.00    -0.369 N 
ATOM     13  H   UNL     1       1.388  30.826  10.799  1.00  0.00     0.159 HD
ATOM     14  H   UNL     1       1.461  31.046  12.583  1.00  0.00     0.159 HD
ENDBRANCH   1  10
TORSDOF 4
ENDMDL
MODEL 7
REMARK VINA RESULT:    -3.573      2.010      3.713
REMARK INTER + INTRA:          -4.576
REMARK INTER:                  -4.474
REMARK INTRA:                  -0.101
REMARK UNBOUND:                -0.271
REMARK SMILES NC(=O)C[C@H]([NH3+])C(=O)[O-]
REMARK SMILES IDX 4 1 5 2 6 3 7 7 8 8 9 9 2 10 3 11 1 12
REMARK H PARENT 6 4 6 5 6 6 1 13 1 14
REMARK Flexibility Score: inf
ROOT
ATOM      1  C   UNL     1       2.903  28.336  13.995  1.00  0.00     0.171 C 
ENDROOT
BRANCH   1   2
ATOM      2  C   UNL     1       2.541  27.744  12.619  1.00  0.00     0.237 C 
BRANCH   2   3
ATOM      3  N   UNL     1       2.588  26.277  12.662  1.00  0.00    -0.350 N 
ATOM      4  H   UNL     1       2.456  25.948  13.646  1.00  0.00     0.345 HD
ATOM      5  H   UNL     1       3.507  25.927  12.305  1.00  0.00     0.345 HD
ATOM      6  H   UNL     1       1.817  25.880  12.078  1.00  0.00     0.345 HD
ENDBRANCH   2   3
BRANCH   2   7
ATOM      7  C   UNL     1       3.470  28.259  11.549  1.00  0.00     0.100 C 
ATOM      8  O   UNL     1       3.617  27.617  10.475  1.00  0.00    -0.544 OA
ATOM      9  O   UNL     1       4.159  29.452  11.733  1.00  0.00    -0.544 OA
ENDBRANCH   2   7
ENDBRANCH   1   2
BRANCH   1  10
ATOM     10  C   UNL     1       1.678  28.743  14.762  1.00  0.00     0.223 C 
ATOM     11  O   UNL     1       1.690  28.710  16.022  1.00  0.00    -0.275 OA
ATOM     12  N   UNL     1       0.487  29.130  14.076  1.00  0.00    -0.369 N 
ATOM     13  H   UNL     1      -0.367  29.399  14.614  1.00  0.00     0.159 HD
ATOM     14  H   UNL     1       0.454  29.145  13.033  1.00  0.00     0.159 HD
ENDBRANCH   1  10
TORSDOF 4
ENDMDL
MODEL 8
REMARK VINA RESULT:    -3.548      2.347      2.959
REMARK INTER + INTRA:          -4.545
REMARK INTER:                  -4.289
REMARK INTRA:                  -0.257
REMARK UNBOUND:                -0.271
REMARK SMILES NC(=O)C[C@H]([NH3+])C(=O)[O-]
REMARK SMILES IDX 4 1 5 2 6 3 7 7 8 8 9 9 2 10 3 11 1 12
REMARK H PARENT 6 4 6 5 6 6 1 13 1 14
REMARK Flexibility Score: inf
ROOT
ATOM      1  C   UNL     1       3.555  25.401  11.140  1.00  0.00     0.171 C 
ENDROOT
BRANCH   1   2
ATOM      2  C   UNL     1       3.530  26.872  10.680  1.00  0.00     0.237 C 
BRANCH   2   3
ATOM      3  N   UNL     1       4.868  27.299  10.253  1.00  0.00    -0.350 N 
ATOM      4  H   UNL     1       4.870  28.330  10.077  1.00  0.00     0.345 HD
ATOM      5  H   UNL     1       5.153  26.802   9.378  1.00  0.00     0.345 HD
ATOM      6  H   UNL     1       5.563  27.096  11.007  1.00  0.00     0.345 HD
ENDBRANCH   2   3
BRANCH   2   7
ATOM      7  C   UNL     1       3.027  27.772  11.779  1.00  0.00     0.100 C 
ATOM      8  O   UNL     1       2.788  27.302  12.923  1.00  0.00    -0.544 OA
ATOM      9  O   UNL     1       2.838  29.129  11.543  1.00  0.00    -0.544 OA
ENDBRANCH   2   7
ENDBRANCH   1   2
BRANCH   1  10
ATOM     10  C   UNL     1       4.708  24.652  10.537  1.00  0.00     0.223 C 
ATOM     11  O   UNL     1       4.693  24.364   9.310  1.00  0.00    -0.275 OA
ATOM     12  N   UNL     1       5.804  24.229  11.349  1.00  0.00    -0.369 N 
ATOM     13  H   UNL     1       6.597  23.696  10.928  1.00  0.00     0.159 HD
ATOM     14  H   UNL     1       5.824  24.443  12.371  1.00  0.00     0.159 HD
ENDBRANCH   1  10
TORSDOF 4
ENDMDL
MODEL 9
REMARK VINA RESULT:    -3.503      2.125      2.832
REMARK INTER + INTRA:          -4.491
REMARK INTER:                  -4.223
REMARK INTRA:                  -0.268
REMARK UNBOUND:                -0.271
REMARK SMILES NC(=O)C[C@H]([NH3+])C(=O)[O-]
REMARK SMILES IDX 4 1 5 2 6 3 7 7 8 8 9 9 2 10 3 11 1 12
REMARK H PARENT 6 4 6 5 6 6 1 13 1 14
REMARK Flexibility Score: inf
ROOT
ATOM      1  C   UNL     1       2.006  29.125  12.627  1.00  0.00     0.171 C 
ENDROOT
BRANCH   1   2
ATOM      2  C   UNL     1       2.878  29.704  11.496  1.00  0.00     0.237 C 
BRANCH   2   3
ATOM      3  N   UNL     1       4.290  29.723  11.896  1.00  0.00    -0.350 N 
ATOM      4  H   UNL     1       4.792  30.487  11.386  1.00  0.00     0.345 HD
ATOM      5  H   UNL     1       4.749  28.809  11.678  1.00  0.00     0.345 HD
ATOM      6  H   UNL     1       4.367  29.912  12.921  1.00  0.00     0.345 HD
ENDBRANCH   2   3
BRANCH   2   7
ATOM      7  C   UNL     1       2.428  31.094  11.126  1.00  0.00     0.100 C 
ATOM      8  O   UNL     1       1.207  31.334  10.933  1.00  0.00    -0.544 OA
ATOM      9  O   UNL     1       3.355  32.124  11.008  1.00  0.00    -0.544 OA
ENDBRANCH   2   7
ENDBRANCH   1   2
BRANCH   1  10
ATOM     10  C   UNL     1       2.458  27.750  13.025  1.00  0.00     0.223 C 
ATOM     11  O   UNL     1       2.826  26.931  12.140  1.00  0.00    -0.275 OA
ATOM     12  N   UNL     1       2.437  27.347  14.395  1.00  0.00    -0.369 N 
ATOM     13  H   UNL     1       2.738  26.385  14.666  1.00  0.00     0.159 HD
ATOM     14  H   UNL     1       2.117  28.005  15.140  1.00  0.00     0.159 HD
ENDBRANCH   1  10
TORSDOF 4
ENDMDL
