MODEL 1
REMARK VINA RESULT:    -5.399      0.000      0.000
REMARK INTER + INTRA:          -8.430
REMARK INTER:                  -7.293
REMARK INTRA:                  -1.137
REMARK UNBOUND:                -1.137
REMARK SMILES O=c1c(-c2ccc(O)cc2)coc2c([C@H]3O[C@@H](CO)[C@H](O)[C@@H](O)[C@@H]3O)c(O)ccc12
REMARK SMILES IDX 3 1 11 2 12 3 13 4 30 5 2 6 1 7 29 8 28 9 26 10 14 11 4 12
REMARK SMILES IDX 5 13 6 14 7 15 10 16 9 17 8 18 15 20 24 21 16 22 22 23 17 24
REMARK SMILES IDX 20 25 25 26 23 28 18 30 19 31 21 33 27 35
REMARK H PARENT 8 19 25 27 23 29 19 32 21 34 27 36
REMARK Flexibility Score: inf
ROOT
ATOM      1  C   UNL     1     -58.431  22.898  -9.695  1.00  0.00     0.065 A 
ATOM      2  C   UNL     1     -58.268  22.598 -11.052  1.00  0.00     0.208 A 
ATOM      3  O   UNL     1     -58.185  23.570 -11.953  1.00  0.00    -0.463 OA
ATOM      4  C   UNL     1     -58.254  24.863 -11.645  1.00  0.00     0.147 A 
ATOM      5  C   UNL     1     -58.386  25.249 -10.290  1.00  0.00     0.066 A 
ATOM      6  C   UNL     1     -58.473  24.246  -9.307  1.00  0.00     0.200 A 
ATOM      7  O   UNL     1     -58.617  24.544  -8.089  1.00  0.00    -0.288 OA
ATOM      8  C   UNL     1     -58.463  26.610  -9.962  1.00  0.00     0.020 A 
ATOM      9  C   UNL     1     -58.465  27.575 -10.967  1.00  0.00     0.047 A 
ATOM     10  C   UNL     1     -58.371  27.211 -12.313  1.00  0.00     0.125 A 
ATOM     11  C   UNL     1     -58.212  25.844 -12.671  1.00  0.00     0.069 A 
ENDROOT
BRANCH   1  12
ATOM     12  C   UNL     1     -58.610  21.808  -8.721  1.00  0.00    -0.011 A 
ATOM     13  C   UNL     1     -59.882  21.550  -8.191  1.00  0.00     0.013 A 
ATOM     14  C   UNL     1     -60.065  20.518  -7.268  1.00  0.00     0.047 A 
ATOM     15  C   UNL     1     -58.979  19.725  -6.878  1.00  0.00     0.115 A 
ATOM     16  C   UNL     1     -57.522  21.019  -8.319  1.00  0.00     0.013 A 
ATOM     17  C   UNL     1     -57.705  19.983  -7.400  1.00  0.00     0.047 A 
BRANCH  15  18
ATOM     18  O   UNL     1     -59.175  18.690  -5.966  1.00  0.00    -0.508 OA
ATOM     19  H   UNL     1     -60.060  18.210  -5.886  1.00  0.00     0.293 HD
ENDBRANCH  15  18
ENDBRANCH   1  12
BRANCH  11  20
ATOM     20  C   UNL     1     -58.026  25.442 -14.134  1.00  0.00     0.188 C 
ATOM     21  C   UNL     1     -56.509  25.222 -14.460  1.00  0.00     0.179 C 
ATOM     22  O   UNL     1     -58.682  26.392 -14.966  1.00  0.00    -0.362 OA
ATOM     23  C   UNL     1     -55.884  26.477 -15.105  1.00  0.00     0.177 C 
ATOM     24  C   UNL     1     -58.168  26.405 -16.277  1.00  0.00     0.176 C 
ATOM     25  C   UNL     1     -56.753  27.037 -16.266  1.00  0.00     0.177 C 
BRANCH  21  26
ATOM     26  O   UNL     1     -56.363  24.147 -15.355  1.00  0.00    -0.387 OA
ATOM     27  H   UNL     1     -56.080  23.362 -14.821  1.00  0.00     0.211 HD
ENDBRANCH  21  26
BRANCH  23  28
ATOM     28  O   UNL     1     -55.700  27.474 -14.127  1.00  0.00    -0.387 OA
ATOM     29  H   UNL     1     -54.739  27.463 -13.876  1.00  0.00     0.211 HD
ENDBRANCH  23  28
BRANCH  24  30
ATOM     30  C   UNL     1     -59.135  27.208 -17.156  1.00  0.00     0.191 C 
BRANCH  30  31
ATOM     31  O   UNL     1     -58.491  28.327 -17.702  1.00  0.00    -0.394 OA
ATOM     32  H   UNL     1     -58.624  29.067 -17.052  1.00  0.00     0.210 HD
ENDBRANCH  30  31
ENDBRANCH  24  30
BRANCH  25  33
ATOM     33  O   UNL     1     -56.134  26.794 -17.505  1.00  0.00    -0.388 OA
ATOM     34  H   UNL     1     -55.307  27.341 -17.525  1.00  0.00     0.211 HD
ENDBRANCH  25  33
ENDBRANCH  11  20
BRANCH  10  35
ATOM     35  O   UNL     1     -58.441  28.237 -13.259  1.00  0.00    -0.507 OA
ATOM     36  H   UNL     1     -57.641  28.582 -13.762  1.00  0.00     0.293 HD
ENDBRANCH  10  35
TORSDOF 9
ENDMDL
MODEL 2
REMARK VINA RESULT:    -5.385      0.543      1.053
REMARK INTER + INTRA:          -8.411
REMARK INTER:                  -7.262
REMARK INTRA:                  -1.148
REMARK UNBOUND:                -1.137
REMARK SMILES O=c1c(-c2ccc(O)cc2)coc2c([C@H]3O[C@@H](CO)[C@H](O)[C@@H](O)[C@@H]3O)c(O)ccc12
REMARK SMILES IDX 3 1 11 2 12 3 13 4 30 5 2 6 1 7 29 8 28 9 26 10 14 11 4 12
REMARK SMILES IDX 5 13 6 14 7 15 10 16 9 17 8 18 15 20 24 21 16 22 22 23 17 24
REMARK SMILES IDX 20 25 25 26 23 28 18 30 19 31 21 33 27 35
REMARK H PARENT 8 19 25 27 23 29 19 32 21 34 27 36
REMARK Flexibility Score: inf
ROOT
ATOM      1  C   UNL     1     -58.995  23.268  -9.602  1.00  0.00     0.065 A 
ATOM      2  C   UNL     1     -58.796  22.917 -10.941  1.00  0.00     0.208 A 
ATOM      3  O   UNL     1     -58.591  23.852 -11.861  1.00  0.00    -0.463 OA
ATOM      4  C   UNL     1     -58.567  25.155 -11.590  1.00  0.00     0.147 A 
ATOM      5  C   UNL     1     -58.729  25.590 -10.253  1.00  0.00     0.066 A 
ATOM      6  C   UNL     1     -58.943  24.626  -9.250  1.00  0.00     0.200 A 
ATOM      7  O   UNL     1     -59.118  24.970  -8.048  1.00  0.00    -0.288 OA
ATOM      8  C   UNL     1     -58.708  26.961  -9.963  1.00  0.00     0.020 A 
ATOM      9  C   UNL     1     -58.585  27.893 -10.991  1.00  0.00     0.047 A 
ATOM     10  C   UNL     1     -58.460  27.484 -12.321  1.00  0.00     0.125 A 
ATOM     11  C   UNL     1     -58.397  26.098 -12.637  1.00  0.00     0.069 A 
ENDROOT
BRANCH   1  12
ATOM     12  C   UNL     1     -59.308  22.226  -8.609  1.00  0.00    -0.011 A 
ATOM     13  C   UNL     1     -58.290  21.384  -8.139  1.00  0.00     0.013 A 
ATOM     14  C   UNL     1     -58.574  20.393  -7.197  1.00  0.00     0.047 A 
ATOM     15  C   UNL     1     -59.876  20.245  -6.705  1.00  0.00     0.115 A 
ATOM     16  C   UNL     1     -60.614  22.066  -8.123  1.00  0.00     0.013 A 
ATOM     17  C   UNL     1     -60.898  21.079  -7.177  1.00  0.00     0.047 A 
BRANCH  15  18
ATOM     18  O   UNL     1     -60.146  19.261  -5.756  1.00  0.00    -0.508 OA
ATOM     19  H   UNL     1     -61.063  19.152  -5.346  1.00  0.00     0.293 HD
ENDBRANCH  15  18
ENDBRANCH   1  12
BRANCH  11  20
ATOM     20  C   UNL     1     -58.178  25.640 -14.078  1.00  0.00     0.188 C 
ATOM     21  C   UNL     1     -56.657  25.378 -14.352  1.00  0.00     0.179 C 
ATOM     22  O   UNL     1     -58.789  26.572 -14.962  1.00  0.00    -0.362 OA
ATOM     23  C   UNL     1     -55.988  26.596 -15.022  1.00  0.00     0.177 C 
ATOM     24  C   UNL     1     -58.238  26.528 -16.257  1.00  0.00     0.176 C 
ATOM     25  C   UNL     1     -56.810  27.131 -16.227  1.00  0.00     0.177 C 
BRANCH  21  26
ATOM     26  O   UNL     1     -56.509  24.268 -15.203  1.00  0.00    -0.387 OA
ATOM     27  H   UNL     1     -57.293  24.261 -15.808  1.00  0.00     0.211 HD
ENDBRANCH  21  26
BRANCH  23  28
ATOM     28  O   UNL     1     -55.811  27.624 -14.075  1.00  0.00    -0.387 OA
ATOM     29  H   UNL     1     -55.474  27.198 -13.242  1.00  0.00     0.211 HD
ENDBRANCH  23  28
BRANCH  24  30
ATOM     30  C   UNL     1     -59.162  27.318 -17.192  1.00  0.00     0.191 C 
BRANCH  30  31
ATOM     31  O   UNL     1     -58.462  28.365 -17.808  1.00  0.00    -0.394 OA
ATOM     32  H   UNL     1     -57.987  27.961 -18.582  1.00  0.00     0.210 HD
ENDBRANCH  30  31
ENDBRANCH  24  30
BRANCH  25  33
ATOM     33  O   UNL     1     -56.161  26.830 -17.438  1.00  0.00    -0.388 OA
ATOM     34  H   UNL     1     -55.934  27.696 -17.864  1.00  0.00     0.211 HD
ENDBRANCH  25  33
ENDBRANCH  11  20
BRANCH  10  35
ATOM     35  O   UNL     1     -58.401  28.484 -13.296  1.00  0.00    -0.507 OA
ATOM     36  H   UNL     1     -59.196  29.036 -13.571  1.00  0.00     0.293 HD
ENDBRANCH  10  35
TORSDOF 9
ENDMDL
MODEL 3
REMARK VINA RESULT:    -5.279      2.398      2.779
REMARK INTER + INTRA:          -8.268
REMARK INTER:                  -7.068
REMARK INTRA:                  -1.200
REMARK UNBOUND:                -1.137
REMARK SMILES O=c1c(-c2ccc(O)cc2)coc2c([C@H]3O[C@@H](CO)[C@H](O)[C@@H](O)[C@@H]3O)c(O)ccc12
REMARK SMILES IDX 3 1 11 2 12 3 13 4 30 5 2 6 1 7 29 8 28 9 26 10 14 11 4 12
REMARK SMILES IDX 5 13 6 14 7 15 10 16 9 17 8 18 15 20 24 21 16 22 22 23 17 24
REMARK SMILES IDX 20 25 25 26 23 28 18 30 19 31 21 33 27 35
REMARK H PARENT 8 19 25 27 23 29 19 32 21 34 27 36
REMARK Flexibility Score: inf
ROOT
ATOM      1  C   UNL     1     -60.969  24.299  -9.204  1.00  0.00     0.065 A 
ATOM      2  C   UNL     1     -60.008  23.970 -10.166  1.00  0.00     0.208 A 
ATOM      3  O   UNL     1     -59.793  24.767 -11.205  1.00  0.00    -0.463 OA
ATOM      4  C   UNL     1     -60.458  25.902 -11.409  1.00  0.00     0.147 A 
ATOM      5  C   UNL     1     -61.425  26.321 -10.463  1.00  0.00     0.066 A 
ATOM      6  C   UNL     1     -61.676  25.503  -9.346  1.00  0.00     0.200 A 
ATOM      7  O   UNL     1     -62.547  25.825  -8.491  1.00  0.00    -0.288 OA
ATOM      8  C   UNL     1     -62.129  27.514 -10.676  1.00  0.00     0.020 A 
ATOM      9  C   UNL     1     -61.921  28.255 -11.837  1.00  0.00     0.047 A 
ATOM     10  C   UNL     1     -60.998  27.839 -12.800  1.00  0.00     0.125 A 
ATOM     11  C   UNL     1     -60.210  26.675 -12.574  1.00  0.00     0.069 A 
ENDROOT
BRANCH   1  12
ATOM     12  C   UNL     1     -61.257  23.361  -8.106  1.00  0.00    -0.011 A 
ATOM     13  C   UNL     1     -62.288  22.421  -8.245  1.00  0.00     0.013 A 
ATOM     14  C   UNL     1     -62.569  21.525  -7.212  1.00  0.00     0.047 A 
ATOM     15  C   UNL     1     -61.811  21.550  -6.035  1.00  0.00     0.115 A 
ATOM     16  C   UNL     1     -60.507  23.391  -6.920  1.00  0.00     0.013 A 
ATOM     17  C   UNL     1     -60.784  22.491  -5.889  1.00  0.00     0.047 A 
BRANCH  15  18
ATOM     18  O   UNL     1     -62.091  20.643  -5.015  1.00  0.00    -0.508 OA
ATOM     19  H   UNL     1     -62.479  19.729  -5.206  1.00  0.00     0.293 HD
ENDBRANCH  15  18
ENDBRANCH   1  12
BRANCH  11  20
ATOM     20  C   UNL     1     -59.139  26.257 -13.580  1.00  0.00     0.188 C 
ATOM     21  C   UNL     1     -57.718  26.708 -13.098  1.00  0.00     0.179 C 
ATOM     22  O   UNL     1     -59.505  26.725 -14.873  1.00  0.00    -0.362 OA
ATOM     23  C   UNL     1     -57.297  28.039 -13.755  1.00  0.00     0.177 C 
ATOM     24  C   UNL     1     -58.399  26.837 -15.738  1.00  0.00     0.176 C 
ATOM     25  C   UNL     1     -57.520  28.033 -15.294  1.00  0.00     0.177 C 
BRANCH  21  26
ATOM     26  O   UNL     1     -56.766  25.728 -13.435  1.00  0.00    -0.387 OA
ATOM     27  H   UNL     1     -55.940  25.944 -12.932  1.00  0.00     0.211 HD
ENDBRANCH  21  26
BRANCH  23  28
ATOM     28  O   UNL     1     -58.014  29.104 -13.176  1.00  0.00    -0.387 OA
ATOM     29  H   UNL     1     -58.923  28.763 -12.966  1.00  0.00     0.211 HD
ENDBRANCH  23  28
BRANCH  24  30
ATOM     30  C   UNL     1     -58.932  27.031 -17.164  1.00  0.00     0.191 C 
BRANCH  30  31
ATOM     31  O   UNL     1     -58.554  28.284 -17.665  1.00  0.00    -0.394 OA
ATOM     32  H   UNL     1     -58.948  28.348 -18.575  1.00  0.00     0.210 HD
ENDBRANCH  30  31
ENDBRANCH  24  30
BRANCH  25  33
ATOM     33  O   UNL     1     -56.288  27.971 -15.969  1.00  0.00    -0.388 OA
ATOM     34  H   UNL     1     -56.252  27.087 -16.417  1.00  0.00     0.211 HD
ENDBRANCH  25  33
ENDBRANCH  11  20
BRANCH  10  35
ATOM     35  O   UNL     1     -60.894  28.607 -13.962  1.00  0.00    -0.507 OA
ATOM     36  H   UNL     1     -60.130  29.236 -14.143  1.00  0.00     0.293 HD
ENDBRANCH  10  35
TORSDOF 9
ENDMDL
MODEL 4
REMARK VINA RESULT:    -4.922      2.026      2.514
REMARK INTER + INTRA:          -7.786
REMARK INTER:                  -6.599
REMARK INTRA:                  -1.187
REMARK UNBOUND:                -1.137
REMARK SMILES O=c1c(-c2ccc(O)cc2)coc2c([C@H]3O[C@@H](CO)[C@H](O)[C@@H](O)[C@@H]3O)c(O)ccc12
REMARK SMILES IDX 3 1 11 2 12 3 13 4 30 5 2 6 1 7 29 8 28 9 26 10 14 11 4 12
REMARK SMILES IDX 5 13 6 14 7 15 10 16 9 17 8 18 15 20 24 21 16 22 22 23 17 24
REMARK SMILES IDX 20 25 25 26 23 28 18 30 19 31 21 33 27 35
REMARK H PARENT 8 19 25 27 23 29 19 32 21 34 27 36
REMARK Flexibility Score: inf
ROOT
ATOM      1  C   UNL     1     -57.024  21.311 -10.286  1.00  0.00     0.065 A 
ATOM      2  C   UNL     1     -56.386  21.736 -11.457  1.00  0.00     0.208 A 
ATOM      3  O   UNL     1     -56.806  22.818 -12.100  1.00  0.00    -0.463 OA
ATOM      4  C   UNL     1     -57.839  23.556 -11.698  1.00  0.00     0.147 A 
ATOM      5  C   UNL     1     -58.517  23.211 -10.505  1.00  0.00     0.066 A 
ATOM      6  C   UNL     1     -58.096  22.072  -9.793  1.00  0.00     0.200 A 
ATOM      7  O   UNL     1     -58.688  21.712  -8.739  1.00  0.00    -0.288 OA
ATOM      8  C   UNL     1     -59.607  23.983 -10.080  1.00  0.00     0.020 A 
ATOM      9  C   UNL     1     -60.055  25.051 -10.855  1.00  0.00     0.047 A 
ATOM     10  C   UNL     1     -59.420  25.385 -12.054  1.00  0.00     0.125 A 
ATOM     11  C   UNL     1     -58.263  24.670 -12.470  1.00  0.00     0.069 A 
ENDROOT
BRANCH   1  12
ATOM     12  C   UNL     1     -56.602  20.060  -9.634  1.00  0.00    -0.011 A 
ATOM     13  C   UNL     1     -57.188  18.845 -10.013  1.00  0.00     0.013 A 
ATOM     14  C   UNL     1     -56.794  17.652  -9.404  1.00  0.00     0.047 A 
ATOM     15  C   UNL     1     -55.799  17.662  -8.420  1.00  0.00     0.115 A 
ATOM     16  C   UNL     1     -55.612  20.068  -8.639  1.00  0.00     0.013 A 
ATOM     17  C   UNL     1     -55.214  18.874  -8.033  1.00  0.00     0.047 A 
BRANCH  15  18
ATOM     18  O   UNL     1     -55.405  16.464  -7.827  1.00  0.00    -0.508 OA
ATOM     19  H   UNL     1     -56.043  15.689  -7.715  1.00  0.00     0.293 HD
ENDBRANCH  15  18
ENDBRANCH   1  12
BRANCH  11  20
ATOM     20  C   UNL     1     -57.512  25.079 -13.736  1.00  0.00     0.188 C 
ATOM     21  C   UNL     1     -56.269  25.965 -13.383  1.00  0.00     0.179 C 
ATOM     22  O   UNL     1     -58.427  25.674 -14.649  1.00  0.00    -0.362 OA
ATOM     23  C   UNL     1     -56.589  27.467 -13.525  1.00  0.00     0.177 C 
ATOM     24  C   UNL     1     -57.786  26.510 -15.585  1.00  0.00     0.176 C 
ATOM     25  C   UNL     1     -57.293  27.794 -14.872  1.00  0.00     0.177 C 
BRANCH  21  26
ATOM     26  O   UNL     1     -55.201  25.657 -14.245  1.00  0.00    -0.387 OA
ATOM     27  H   UNL     1     -54.942  26.500 -14.696  1.00  0.00     0.211 HD
ENDBRANCH  21  26
BRANCH  23  28
ATOM     28  O   UNL     1     -57.402  27.886 -12.453  1.00  0.00    -0.387 OA
ATOM     29  H   UNL     1     -56.802  28.037 -11.675  1.00  0.00     0.211 HD
ENDBRANCH  23  28
BRANCH  24  30
ATOM     30  C   UNL     1     -58.794  26.835 -16.695  1.00  0.00     0.191 C 
BRANCH  30  31
ATOM     31  O   UNL     1     -58.263  27.785 -17.579  1.00  0.00    -0.394 OA
ATOM     32  H   UNL     1     -57.276  27.732 -17.482  1.00  0.00     0.210 HD
ENDBRANCH  30  31
ENDBRANCH  24  30
BRANCH  25  33
ATOM     33  O   UNL     1     -56.418  28.485 -15.730  1.00  0.00    -0.388 OA
ATOM     34  H   UNL     1     -55.602  28.687 -15.203  1.00  0.00     0.211 HD
ENDBRANCH  25  33
ENDBRANCH  11  20
BRANCH  10  35
ATOM     35  O   UNL     1     -59.970  26.431 -12.799  1.00  0.00    -0.507 OA
ATOM     36  H   UNL     1     -59.427  27.194 -13.166  1.00  0.00     0.293 HD
ENDBRANCH  10  35
TORSDOF 9
ENDMDL
MODEL 5
REMARK VINA RESULT:    -4.869      2.113      3.358
REMARK INTER + INTRA:          -7.714
REMARK INTER:                  -6.680
REMARK INTRA:                  -1.035
REMARK UNBOUND:                -1.137
REMARK SMILES O=c1c(-c2ccc(O)cc2)coc2c([C@H]3O[C@@H](CO)[C@H](O)[C@@H](O)[C@@H]3O)c(O)ccc12
REMARK SMILES IDX 3 1 11 2 12 3 13 4 30 5 2 6 1 7 29 8 28 9 26 10 14 11 4 12
REMARK SMILES IDX 5 13 6 14 7 15 10 16 9 17 8 18 15 20 24 21 16 22 22 23 17 24
REMARK SMILES IDX 20 25 25 26 23 28 18 30 19 31 21 33 27 35
REMARK H PARENT 8 19 25 27 23 29 19 32 21 34 27 36
REMARK Flexibility Score: inf
ROOT
ATOM      1  C   UNL     1     -60.023  23.256  -9.638  1.00  0.00     0.065 A 
ATOM      2  C   UNL     1     -60.284  24.560 -10.073  1.00  0.00     0.208 A 
ATOM      3  O   UNL     1     -59.589  25.091 -11.071  1.00  0.00    -0.463 OA
ATOM      4  C   UNL     1     -58.617  24.446 -11.712  1.00  0.00     0.147 A 
ATOM      5  C   UNL     1     -58.314  23.111 -11.354  1.00  0.00     0.066 A 
ATOM      6  C   UNL     1     -59.033  22.514 -10.302  1.00  0.00     0.200 A 
ATOM      7  O   UNL     1     -58.779  21.334  -9.932  1.00  0.00    -0.288 OA
ATOM      8  C   UNL     1     -57.288  22.430 -12.024  1.00  0.00     0.020 A 
ATOM      9  C   UNL     1     -56.534  23.080 -12.999  1.00  0.00     0.047 A 
ATOM     10  C   UNL     1     -56.795  24.409 -13.341  1.00  0.00     0.125 A 
ATOM     11  C   UNL     1     -57.881  25.101 -12.735  1.00  0.00     0.069 A 
ENDROOT
BRANCH   1  12
ATOM     12  C   UNL     1     -60.742  22.714  -8.473  1.00  0.00    -0.011 A 
ATOM     13  C   UNL     1     -62.043  22.215  -8.627  1.00  0.00     0.013 A 
ATOM     14  C   UNL     1     -62.734  21.697  -7.531  1.00  0.00     0.047 A 
ATOM     15  C   UNL     1     -62.124  21.659  -6.271  1.00  0.00     0.115 A 
ATOM     16  C   UNL     1     -60.138  22.684  -7.207  1.00  0.00     0.013 A 
ATOM     17  C   UNL     1     -60.827  22.161  -6.110  1.00  0.00     0.047 A 
BRANCH  15  18
ATOM     18  O   UNL     1     -62.818  21.128  -5.186  1.00  0.00    -0.508 OA
ATOM     19  H   UNL     1     -63.358  21.711  -4.561  1.00  0.00     0.293 HD
ENDBRANCH  15  18
ENDBRANCH   1  12
BRANCH  11  20
ATOM     20  C   UNL     1     -58.227  26.527 -13.162  1.00  0.00     0.188 C 
ATOM     21  C   UNL     1     -59.360  26.523 -14.245  1.00  0.00     0.179 C 
ATOM     22  O   UNL     1     -57.035  27.200 -13.549  1.00  0.00    -0.362 OA
ATOM     23  C   UNL     1     -58.776  26.628 -15.669  1.00  0.00     0.177 C 
ATOM     24  C   UNL     1     -57.287  28.292 -14.402  1.00  0.00     0.176 C 
ATOM     25  C   UNL     1     -57.724  27.766 -15.793  1.00  0.00     0.177 C 
BRANCH  21  26
ATOM     26  O   UNL     1     -60.222  27.615 -14.039  1.00  0.00    -0.387 OA
ATOM     27  H   UNL     1     -61.001  27.484 -14.636  1.00  0.00     0.211 HD
ENDBRANCH  21  26
BRANCH  23  28
ATOM     28  O   UNL     1     -58.191  25.400 -16.037  1.00  0.00    -0.387 OA
ATOM     29  H   UNL     1     -58.656  25.090 -16.859  1.00  0.00     0.211 HD
ENDBRANCH  23  28
BRANCH  24  30
ATOM     30  C   UNL     1     -56.002  29.125 -14.495  1.00  0.00     0.191 C 
BRANCH  30  31
ATOM     31  O   UNL     1     -54.979  28.539 -13.737  1.00  0.00    -0.394 OA
ATOM     32  H   UNL     1     -54.915  29.072 -12.900  1.00  0.00     0.210 HD
ENDBRANCH  30  31
ENDBRANCH  24  30
BRANCH  25  33
ATOM     33  O   UNL     1     -58.243  28.836 -16.544  1.00  0.00    -0.388 OA
ATOM     34  H   UNL     1     -59.015  28.479 -17.054  1.00  0.00     0.211 HD
ENDBRANCH  25  33
ENDBRANCH  11  20
BRANCH  10  35
ATOM     35  O   UNL     1     -55.954  25.004 -14.285  1.00  0.00    -0.507 OA
ATOM     36  H   UNL     1     -55.244  24.500 -14.789  1.00  0.00     0.293 HD
ENDBRANCH  10  35
TORSDOF 9
ENDMDL
MODEL 6
REMARK VINA RESULT:    -4.834      3.979      4.780
REMARK INTER + INTRA:          -7.667
REMARK INTER:                  -6.466
REMARK INTRA:                  -1.201
REMARK UNBOUND:                -1.137
REMARK SMILES O=c1c(-c2ccc(O)cc2)coc2c([C@H]3O[C@@H](CO)[C@H](O)[C@@H](O)[C@@H]3O)c(O)ccc12
REMARK SMILES IDX 3 1 11 2 12 3 13 4 30 5 2 6 1 7 29 8 28 9 26 10 14 11 4 12
REMARK SMILES IDX 5 13 6 14 7 15 10 16 9 17 8 18 15 20 24 21 16 22 22 23 17 24
REMARK SMILES IDX 20 25 25 26 23 28 18 30 19 31 21 33 27 35
REMARK H PARENT 8 19 25 27 23 29 19 32 21 34 27 36
REMARK Flexibility Score: inf
ROOT
ATOM      1  C   UNL     1     -54.836  20.373 -12.522  1.00  0.00     0.065 A 
ATOM      2  C   UNL     1     -54.521  21.208 -13.599  1.00  0.00     0.208 A 
ATOM      3  O   UNL     1     -55.218  22.316 -13.820  1.00  0.00    -0.463 OA
ATOM      4  C   UNL     1     -56.243  22.702 -13.062  1.00  0.00     0.147 A 
ATOM      5  C   UNL     1     -56.603  21.927 -11.934  1.00  0.00     0.066 A 
ATOM      6  C   UNL     1     -55.883  20.748 -11.665  1.00  0.00     0.200 A 
ATOM      7  O   UNL     1     -56.186  20.013 -10.685  1.00  0.00    -0.288 OA
ATOM      8  C   UNL     1     -57.683  22.328 -11.136  1.00  0.00     0.020 A 
ATOM      9  C   UNL     1     -58.432  23.451 -11.481  1.00  0.00     0.047 A 
ATOM     10  C   UNL     1     -58.114  24.208 -12.611  1.00  0.00     0.125 A 
ATOM     11  C   UNL     1     -56.975  23.871 -13.395  1.00  0.00     0.069 A 
ENDROOT
BRANCH   1  12
ATOM     12  C   UNL     1     -54.110  19.104 -12.342  1.00  0.00    -0.011 A 
ATOM     13  C   UNL     1     -54.477  17.979 -13.094  1.00  0.00     0.013 A 
ATOM     14  C   UNL     1     -53.795  16.771 -12.935  1.00  0.00     0.047 A 
ATOM     15  C   UNL     1     -52.729  16.681 -12.032  1.00  0.00     0.115 A 
ATOM     16  C   UNL     1     -53.048  19.006 -11.430  1.00  0.00     0.013 A 
ATOM     17  C   UNL     1     -52.362  17.800 -11.274  1.00  0.00     0.047 A 
BRANCH  15  18
ATOM     18  O   UNL     1     -52.047  15.474 -11.890  1.00  0.00    -0.508 OA
ATOM     19  H   UNL     1     -51.038  15.427 -11.908  1.00  0.00     0.293 HD
ENDBRANCH  15  18
ENDBRANCH   1  12
BRANCH  11  20
ATOM     20  C   UNL     1     -56.569  24.740 -14.585  1.00  0.00     0.188 C 
ATOM     21  C   UNL     1     -55.434  25.742 -14.179  1.00  0.00     0.179 C 
ATOM     22  O   UNL     1     -57.731  25.349 -15.137  1.00  0.00    -0.362 OA
ATOM     23  C   UNL     1     -56.008  27.130 -13.828  1.00  0.00     0.177 C 
ATOM     24  C   UNL     1     -57.431  26.511 -15.874  1.00  0.00     0.176 C 
ATOM     25  C   UNL     1     -57.012  27.641 -14.900  1.00  0.00     0.177 C 
BRANCH  21  26
ATOM     26  O   UNL     1     -54.528  25.895 -15.244  1.00  0.00    -0.387 OA
ATOM     27  H   UNL     1     -53.743  25.327 -15.039  1.00  0.00     0.211 HD
ENDBRANCH  21  26
BRANCH  23  28
ATOM     28  O   UNL     1     -56.642  27.080 -12.571  1.00  0.00    -0.387 OA
ATOM     29  H   UNL     1     -57.365  26.401 -12.636  1.00  0.00     0.211 HD
ENDBRANCH  23  28
BRANCH  24  30
ATOM     30  C   UNL     1     -58.680  26.896 -16.677  1.00  0.00     0.191 C 
BRANCH  30  31
ATOM     31  O   UNL     1     -58.399  27.961 -17.544  1.00  0.00    -0.394 OA
ATOM     32  H   UNL     1     -57.532  27.743 -17.977  1.00  0.00     0.210 HD
ENDBRANCH  30  31
ENDBRANCH  24  30
BRANCH  25  33
ATOM     33  O   UNL     1     -56.447  28.696 -15.640  1.00  0.00    -0.388 OA
ATOM     34  H   UNL     1     -56.421  28.400 -16.585  1.00  0.00     0.211 HD
ENDBRANCH  25  33
ENDBRANCH  11  20
BRANCH  10  35
ATOM     35  O   UNL     1     -58.952  25.282 -12.919  1.00  0.00    -0.507 OA
ATOM     36  H   UNL     1     -59.496  25.336 -13.763  1.00  0.00     0.293 HD
ENDBRANCH  10  35
TORSDOF 9
ENDMDL
MODEL 7
REMARK VINA RESULT:    -4.822      2.801      8.873
REMARK INTER + INTRA:          -7.650
REMARK INTER:                  -6.491
REMARK INTRA:                  -1.159
REMARK UNBOUND:                -1.137
REMARK SMILES O=c1c(-c2ccc(O)cc2)coc2c([C@H]3O[C@@H](CO)[C@H](O)[C@@H](O)[C@@H]3O)c(O)ccc12
REMARK SMILES IDX 3 1 11 2 12 3 13 4 30 5 2 6 1 7 29 8 28 9 26 10 14 11 4 12
REMARK SMILES IDX 5 13 6 14 7 15 10 16 9 17 8 18 15 20 24 21 16 22 22 23 17 24
REMARK SMILES IDX 20 25 25 26 23 28 18 30 19 31 21 33 27 35
REMARK H PARENT 8 19 25 27 23 29 19 32 21 34 27 36
REMARK Flexibility Score: inf
ROOT
ATOM      1  C   UNL     1     -57.178  24.765 -13.584  1.00  0.00     0.065 A 
ATOM      2  C   UNL     1     -57.889  23.572 -13.415  1.00  0.00     0.208 A 
ATOM      3  O   UNL     1     -57.515  22.687 -12.500  1.00  0.00    -0.463 OA
ATOM      4  C   UNL     1     -56.464  22.857 -11.702  1.00  0.00     0.147 A 
ATOM      5  C   UNL     1     -55.711  24.052 -11.789  1.00  0.00     0.066 A 
ATOM      6  C   UNL     1     -56.082  25.016 -12.745  1.00  0.00     0.200 A 
ATOM      7  O   UNL     1     -55.424  26.086 -12.874  1.00  0.00    -0.288 OA
ATOM      8  C   UNL     1     -54.601  24.234 -10.953  1.00  0.00     0.020 A 
ATOM      9  C   UNL     1     -54.207  23.221 -10.080  1.00  0.00     0.047 A 
ATOM     10  C   UNL     1     -54.916  22.020 -10.006  1.00  0.00     0.125 A 
ATOM     11  C   UNL     1     -56.093  21.839 -10.784  1.00  0.00     0.069 A 
ENDROOT
BRANCH   1  12
ATOM     12  C   UNL     1     -57.553  25.696 -14.662  1.00  0.00    -0.011 A 
ATOM     13  C   UNL     1     -56.801  25.731 -15.845  1.00  0.00     0.013 A 
ATOM     14  C   UNL     1     -57.148  26.607 -16.875  1.00  0.00     0.047 A 
ATOM     15  C   UNL     1     -58.261  27.446 -16.738  1.00  0.00     0.115 A 
ATOM     16  C   UNL     1     -58.661  26.546 -14.524  1.00  0.00     0.013 A 
ATOM     17  C   UNL     1     -59.012  27.419 -15.556  1.00  0.00     0.047 A 
BRANCH  15  18
ATOM     18  O   UNL     1     -58.606  28.308 -17.777  1.00  0.00    -0.508 OA
ATOM     19  H   UNL     1     -58.077  29.147 -17.972  1.00  0.00     0.293 HD
ENDBRANCH  15  18
ENDBRANCH   1  12
BRANCH  11  20
ATOM     20  C   UNL     1     -56.923  20.563 -10.650  1.00  0.00     0.188 C 
ATOM     21  C   UNL     1     -58.084  20.762  -9.617  1.00  0.00     0.179 C 
ATOM     22  O   UNL     1     -56.056  19.470 -10.368  1.00  0.00    -0.362 OA
ATOM     23  C   UNL     1     -57.697  20.222  -8.224  1.00  0.00     0.177 C 
ATOM     24  C   UNL     1     -56.726  18.398  -9.748  1.00  0.00     0.176 C 
ATOM     25  C   UNL     1     -57.091  18.792  -8.294  1.00  0.00     0.177 C 
BRANCH  21  26
ATOM     26  O   UNL     1     -59.234  20.078 -10.052  1.00  0.00    -0.387 OA
ATOM     27  H   UNL     1     -59.425  19.377  -9.379  1.00  0.00     0.211 HD
ENDBRANCH  21  26
BRANCH  23  28
ATOM     28  O   UNL     1     -56.779  21.097  -7.612  1.00  0.00    -0.387 OA
ATOM     29  H   UNL     1     -56.924  21.996  -8.009  1.00  0.00     0.211 HD
ENDBRANCH  23  28
BRANCH  24  30
ATOM     30  C   UNL     1     -55.797  17.177  -9.783  1.00  0.00     0.191 C 
BRANCH  30  31
ATOM     31  O   UNL     1     -56.539  15.991  -9.681  1.00  0.00    -0.394 OA
ATOM     32  H   UNL     1     -57.425  16.184 -10.086  1.00  0.00     0.210 HD
ENDBRANCH  30  31
ENDBRANCH  24  30
BRANCH  25  33
ATOM     33  O   UNL     1     -57.996  17.848  -7.777  1.00  0.00    -0.388 OA
ATOM     34  H   UNL     1     -58.693  17.711  -8.469  1.00  0.00     0.211 HD
ENDBRANCH  25  33
ENDBRANCH  11  20
BRANCH  10  35
ATOM     35  O   UNL     1     -54.418  21.035  -9.149  1.00  0.00    -0.507 OA
ATOM     36  H   UNL     1     -55.003  20.466  -8.560  1.00  0.00     0.293 HD
ENDBRANCH  10  35
TORSDOF 9
ENDMDL
MODEL 8
REMARK VINA RESULT:    -4.799     11.859     14.490
REMARK INTER + INTRA:          -7.620
REMARK INTER:                  -6.436
REMARK INTRA:                  -1.184
REMARK UNBOUND:                -1.137
REMARK SMILES O=c1c(-c2ccc(O)cc2)coc2c([C@H]3O[C@@H](CO)[C@H](O)[C@@H](O)[C@@H]3O)c(O)ccc12
REMARK SMILES IDX 3 1 11 2 12 3 13 4 30 5 2 6 1 7 29 8 28 9 26 10 14 11 4 12
REMARK SMILES IDX 5 13 6 14 7 15 10 16 9 17 8 18 15 20 24 21 16 22 22 23 17 24
REMARK SMILES IDX 20 25 25 26 23 28 18 30 19 31 21 33 27 35
REMARK H PARENT 8 19 25 27 23 29 19 32 21 34 27 36
REMARK Flexibility Score: inf
ROOT
ATOM      1  C   UNL     1     -53.674  14.156 -11.871  1.00  0.00     0.065 A 
ATOM      2  C   UNL     1     -52.344  14.588 -11.907  1.00  0.00     0.208 A 
ATOM      3  O   UNL     1     -51.436  13.920 -12.608  1.00  0.00    -0.463 OA
ATOM      4  C   UNL     1     -51.711  12.818 -13.302  1.00  0.00     0.147 A 
ATOM      5  C   UNL     1     -53.040  12.334 -13.342  1.00  0.00     0.066 A 
ATOM      6  C   UNL     1     -54.031  13.020 -12.615  1.00  0.00     0.200 A 
ATOM      7  O   UNL     1     -55.224  12.610 -12.601  1.00  0.00    -0.288 OA
ATOM      8  C   UNL     1     -53.333  11.172 -14.069  1.00  0.00     0.020 A 
ATOM      9  C   UNL     1     -52.313  10.466 -14.704  1.00  0.00     0.047 A 
ATOM     10  C   UNL     1     -50.989  10.908 -14.646  1.00  0.00     0.125 A 
ATOM     11  C   UNL     1     -50.674  12.127 -13.983  1.00  0.00     0.069 A 
ENDROOT
BRANCH   1  12
ATOM     12  C   UNL     1     -54.650  14.857 -11.019  1.00  0.00    -0.011 A 
ATOM     13  C   UNL     1     -55.588  15.722 -11.601  1.00  0.00     0.013 A 
ATOM     14  C   UNL     1     -56.519  16.391 -10.804  1.00  0.00     0.047 A 
ATOM     15  C   UNL     1     -56.530  16.190  -9.419  1.00  0.00     0.115 A 
ATOM     16  C   UNL     1     -54.657  14.668  -9.629  1.00  0.00     0.013 A 
ATOM     17  C   UNL     1     -55.591  15.333  -8.832  1.00  0.00     0.047 A 
BRANCH  15  18
ATOM     18  O   UNL     1     -57.471  16.854  -8.635  1.00  0.00    -0.508 OA
ATOM     19  H   UNL     1     -57.652  17.842  -8.740  1.00  0.00     0.293 HD
ENDBRANCH  15  18
ENDBRANCH   1  12
BRANCH  11  20
ATOM     20  C   UNL     1     -49.242  12.662 -13.984  1.00  0.00     0.188 C 
ATOM     21  C   UNL     1     -49.035  13.689 -15.150  1.00  0.00     0.179 C 
ATOM     22  O   UNL     1     -48.334  11.567 -13.986  1.00  0.00    -0.362 OA
ATOM     23  C   UNL     1     -48.397  13.017 -16.383  1.00  0.00     0.177 C 
ATOM     24  C   UNL     1     -47.064  11.922 -14.481  1.00  0.00     0.176 C 
ATOM     25  C   UNL     1     -47.157  12.156 -16.011  1.00  0.00     0.177 C 
BRANCH  21  26
ATOM     26  O   UNL     1     -48.189  14.729 -14.726  1.00  0.00    -0.387 OA
ATOM     27  H   UNL     1     -47.389  14.305 -14.324  1.00  0.00     0.211 HD
ENDBRANCH  21  26
BRANCH  23  28
ATOM     28  O   UNL     1     -49.352  12.215 -17.037  1.00  0.00    -0.387 OA
ATOM     29  H   UNL     1     -50.137  12.793 -17.229  1.00  0.00     0.211 HD
ENDBRANCH  23  28
BRANCH  24  30
ATOM     30  C   UNL     1     -46.092  10.784 -14.145  1.00  0.00     0.191 C 
BRANCH  30  31
ATOM     31  O   UNL     1     -45.778  10.048 -15.296  1.00  0.00    -0.394 OA
ATOM     32  H   UNL     1     -44.786  10.001 -15.332  1.00  0.00     0.210 HD
ENDBRANCH  30  31
ENDBRANCH  24  30
BRANCH  25  33
ATOM     33  O   UNL     1     -45.975  12.778 -16.451  1.00  0.00    -0.388 OA
ATOM     34  H   UNL     1     -46.239  13.650 -16.840  1.00  0.00     0.211 HD
ENDBRANCH  25  33
ENDBRANCH  11  20
BRANCH  10  35
ATOM     35  O   UNL     1     -50.020  10.109 -15.258  1.00  0.00    -0.507 OA
ATOM     36  H   UNL     1     -50.076   9.105 -15.300  1.00  0.00     0.293 HD
ENDBRANCH  10  35
TORSDOF 9
ENDMDL
MODEL 9
REMARK VINA RESULT:    -4.763      2.136      3.175
REMARK INTER + INTRA:          -7.572
REMARK INTER:                  -6.837
REMARK INTRA:                  -0.735
REMARK UNBOUND:                -1.137
REMARK SMILES O=c1c(-c2ccc(O)cc2)coc2c([C@H]3O[C@@H](CO)[C@H](O)[C@@H](O)[C@@H]3O)c(O)ccc12
REMARK SMILES IDX 3 1 11 2 12 3 13 4 30 5 2 6 1 7 29 8 28 9 26 10 14 11 4 12
REMARK SMILES IDX 5 13 6 14 7 15 10 16 9 17 8 18 15 20 24 21 16 22 22 23 17 24
REMARK SMILES IDX 20 25 25 26 23 28 18 30 19 31 21 33 27 35
REMARK H PARENT 8 19 25 27 23 29 19 32 21 34 27 36
REMARK Flexibility Score: inf
ROOT
ATOM      1  C   UNL     1     -59.110  23.977 -10.696  1.00  0.00     0.065 A 
ATOM      2  C   UNL     1     -58.215  24.681 -11.510  1.00  0.00     0.208 A 
ATOM      3  O   UNL     1     -58.585  25.812 -12.098  1.00  0.00    -0.463 OA
ATOM      4  C   UNL     1     -59.798  26.345 -11.968  1.00  0.00     0.147 A 
ATOM      5  C   UNL     1     -60.750  25.710 -11.136  1.00  0.00     0.066 A 
ATOM      6  C   UNL     1     -60.392  24.510 -10.492  1.00  0.00     0.200 A 
ATOM      7  O   UNL     1     -61.218  23.897  -9.760  1.00  0.00    -0.288 OA
ATOM      8  C   UNL     1     -62.029  26.265 -10.998  1.00  0.00     0.020 A 
ATOM      9  C   UNL     1     -62.381  27.404 -11.720  1.00  0.00     0.047 A 
ATOM     10  C   UNL     1     -61.467  28.024 -12.575  1.00  0.00     0.125 A 
ATOM     11  C   UNL     1     -60.136  27.530 -12.673  1.00  0.00     0.069 A 
ENDROOT
BRANCH   1  12
ATOM     12  C   UNL     1     -58.713  22.680 -10.123  1.00  0.00    -0.011 A 
ATOM     13  C   UNL     1     -58.746  21.527 -10.920  1.00  0.00     0.013 A 
ATOM     14  C   UNL     1     -58.370  20.292 -10.389  1.00  0.00     0.047 A 
ATOM     15  C   UNL     1     -57.943  20.201  -9.059  1.00  0.00     0.115 A 
ATOM     16  C   UNL     1     -58.296  22.582  -8.787  1.00  0.00     0.013 A 
ATOM     17  C   UNL     1     -57.915  21.348  -8.257  1.00  0.00     0.047 A 
BRANCH  15  18
ATOM     18  O   UNL     1     -57.559  18.965  -8.542  1.00  0.00    -0.508 OA
ATOM     19  H   UNL     1     -56.820  18.879  -7.858  1.00  0.00     0.293 HD
ENDBRANCH  15  18
ENDBRANCH   1  12
BRANCH  11  20
ATOM     20  C   UNL     1     -59.104  28.249 -13.541  1.00  0.00     0.188 C 
ATOM     21  C   UNL     1     -59.304  27.891 -15.053  1.00  0.00     0.179 C 
ATOM     22  O   UNL     1     -57.801  27.984 -13.034  1.00  0.00    -0.362 OA
ATOM     23  C   UNL     1     -58.351  26.762 -15.495  1.00  0.00     0.177 C 
ATOM     24  C   UNL     1     -56.798  28.164 -14.006  1.00  0.00     0.176 C 
ATOM     25  C   UNL     1     -56.884  27.020 -15.049  1.00  0.00     0.177 C 
BRANCH  21  26
ATOM     26  O   UNL     1     -59.050  29.021 -15.850  1.00  0.00    -0.387 OA
ATOM     27  H   UNL     1     -59.386  29.808 -15.351  1.00  0.00     0.211 HD
ENDBRANCH  21  26
BRANCH  23  28
ATOM     28  O   UNL     1     -58.794  25.531 -14.973  1.00  0.00    -0.387 OA
ATOM     29  H   UNL     1     -58.253  24.818 -15.406  1.00  0.00     0.211 HD
ENDBRANCH  23  28
BRANCH  24  30
ATOM     30  C   UNL     1     -55.442  28.171 -13.290  1.00  0.00     0.191 C 
BRANCH  30  31
ATOM     31  O   UNL     1     -54.653  27.094 -13.719  1.00  0.00    -0.394 OA
ATOM     32  H   UNL     1     -54.207  26.738 -12.906  1.00  0.00     0.210 HD
ENDBRANCH  30  31
ENDBRANCH  24  30
BRANCH  25  33
ATOM     33  O   UNL     1     -56.084  27.351 -16.157  1.00  0.00    -0.388 OA
ATOM     34  H   UNL     1     -55.223  27.686 -15.797  1.00  0.00     0.211 HD
ENDBRANCH  25  33
ENDBRANCH  11  20
BRANCH  10  35
ATOM     35  O   UNL     1     -61.919  29.125 -13.307  1.00  0.00    -0.507 OA
ATOM     36  H   UNL     1     -62.835  29.176 -13.720  1.00  0.00     0.293 HD
ENDBRANCH  10  35
TORSDOF 9
ENDMDL
