MODEL 1
REMARK VINA RESULT:    -4.749      0.000      0.000
REMARK INTER + INTRA:          -5.764
REMARK INTER:                  -5.443
REMARK INTRA:                  -0.321
REMARK UNBOUND:                -0.321
REMARK SMILES O=C1C[C@@H](c2ccc(O)cc2)Oc2cc(O)cc(O)c21
REMARK SMILES IDX 3 1 4 2 12 3 13 4 14 5 15 6 17 7 18 8 20 9 2 10 1 11 5 12
REMARK SMILES IDX 6 13 11 14 7 15 10 16 8 17 9 18 19 20 16 22
REMARK H PARENT 9 19 19 21 16 23
REMARK Flexibility Score: inf
ROOT
ATOM      1  C   UNL     1      -4.197  -3.412  -9.074  1.00  0.00     0.131 C 
ATOM      2  C   UNL     1      -5.315  -3.459 -10.125  1.00  0.00     0.211 C 
ATOM      3  O   UNL     1      -6.265  -2.415  -9.896  1.00  0.00    -0.484 OA
ATOM      4  C   UNL     1      -5.890  -1.127  -9.489  1.00  0.00     0.138 A 
ATOM      5  C   UNL     1      -6.831  -0.096  -9.555  1.00  0.00     0.093 A 
ATOM      6  C   UNL     1      -6.481   1.202  -9.169  1.00  0.00     0.123 A 
ATOM      7  C   UNL     1      -5.196   1.462  -8.691  1.00  0.00     0.093 A 
ATOM      8  C   UNL     1      -4.249   0.435  -8.580  1.00  0.00     0.133 A 
ATOM      9  C   UNL     1      -4.584  -0.874  -9.014  1.00  0.00     0.102 A 
ATOM     10  C   UNL     1      -3.642  -2.021  -9.008  1.00  0.00     0.174 C 
ATOM     11  O   UNL     1      -2.394  -1.853  -9.004  1.00  0.00    -0.294 OA
ENDROOT
BRANCH   2  12
ATOM     12  C   UNL     1      -6.006  -4.800 -10.111  1.00  0.00    -0.007 A 
ATOM     13  C   UNL     1      -7.410  -4.881 -10.124  1.00  0.00     0.011 A 
ATOM     14  C   UNL     1      -5.253  -5.983 -10.027  1.00  0.00     0.011 A 
ATOM     15  C   UNL     1      -8.046  -6.125 -10.080  1.00  0.00     0.046 A 
ATOM     16  C   UNL     1      -5.892  -7.226  -9.983  1.00  0.00     0.046 A 
ATOM     17  C   UNL     1      -7.289  -7.302 -10.011  1.00  0.00     0.115 A 
BRANCH  17  18
ATOM     18  O   UNL     1      -7.912  -8.546  -9.967  1.00  0.00    -0.508 OA
ATOM     19  H   UNL     1      -8.473  -8.829  -9.172  1.00  0.00     0.293 HD
ENDBRANCH  17  18
ENDBRANCH   2  12
BRANCH   8  20
ATOM     20  O   UNL     1      -3.019   0.757  -8.005  1.00  0.00    -0.507 OA
ATOM     21  H   UNL     1      -2.194   1.003  -8.534  1.00  0.00     0.293 HD
ENDBRANCH   8  20
BRANCH   6  22
ATOM     22  O   UNL     1      -7.407   2.240  -9.252  1.00  0.00    -0.508 OA
ATOM     23  H   UNL     1      -8.298   2.120  -9.719  1.00  0.00     0.293 HD
ENDBRANCH   6  22
TORSDOF 4
ENDMDL
MODEL 2
REMARK VINA RESULT:    -4.378      1.459      2.115
REMARK INTER + INTRA:          -5.339
REMARK INTER:                  -5.037
REMARK INTRA:                  -0.303
REMARK UNBOUND:                -0.321
REMARK SMILES O=C1C[C@@H](c2ccc(O)cc2)Oc2cc(O)cc(O)c21
REMARK SMILES IDX 3 1 4 2 12 3 13 4 14 5 15 6 17 7 18 8 20 9 2 10 1 11 5 12
REMARK SMILES IDX 6 13 11 14 7 15 10 16 8 17 9 18 19 20 16 22
REMARK H PARENT 9 19 19 21 16 23
REMARK Flexibility Score: inf
ROOT
ATOM      1  C   UNL     1      -4.234  -1.403  -8.660  1.00  0.00     0.131 C 
ATOM      2  C   UNL     1      -5.141  -2.090  -9.691  1.00  0.00     0.211 C 
ATOM      3  O   UNL     1      -6.434  -1.481  -9.710  1.00  0.00    -0.484 OA
ATOM      4  C   UNL     1      -6.620  -0.096  -9.590  1.00  0.00     0.138 A 
ATOM      5  C   UNL     1      -7.870   0.448  -9.894  1.00  0.00     0.093 A 
ATOM      6  C   UNL     1      -8.082   1.827  -9.798  1.00  0.00     0.123 A 
ATOM      7  C   UNL     1      -7.046   2.658  -9.370  1.00  0.00     0.093 A 
ATOM      8  C   UNL     1      -5.796   2.130  -9.023  1.00  0.00     0.133 A 
ATOM      9  C   UNL     1      -5.562   0.737  -9.164  1.00  0.00     0.102 A 
ATOM     10  C   UNL     1      -4.260   0.078  -8.893  1.00  0.00     0.174 C 
ATOM     11  O   UNL     1      -3.177   0.721  -8.908  1.00  0.00    -0.294 OA
ENDROOT
BRANCH   2  12
ATOM     12  C   UNL     1      -5.267  -3.564  -9.393  1.00  0.00    -0.007 A 
ATOM     13  C   UNL     1      -6.159  -4.367 -10.125  1.00  0.00     0.011 A 
ATOM     14  C   UNL     1      -4.534  -4.139  -8.341  1.00  0.00     0.011 A 
ATOM     15  C   UNL     1      -6.295  -5.726  -9.825  1.00  0.00     0.046 A 
ATOM     16  C   UNL     1      -4.672  -5.497  -8.044  1.00  0.00     0.046 A 
ATOM     17  C   UNL     1      -5.551  -6.296  -8.784  1.00  0.00     0.115 A 
BRANCH  17  18
ATOM     18  O   UNL     1      -5.678  -7.648  -8.476  1.00  0.00    -0.508 OA
ATOM     19  H   UNL     1      -5.060  -8.100  -7.813  1.00  0.00     0.293 HD
ENDBRANCH  17  18
ENDBRANCH   2  12
BRANCH   8  20
ATOM     20  O   UNL     1      -4.844   3.016  -8.514  1.00  0.00    -0.507 OA
ATOM     21  H   UNL     1      -4.997   3.614  -7.716  1.00  0.00     0.293 HD
ENDBRANCH   8  20
BRANCH   6  22
ATOM     22  O   UNL     1      -9.319   2.379 -10.119  1.00  0.00    -0.508 OA
ATOM     23  H   UNL     1     -10.169   2.081  -9.655  1.00  0.00     0.293 HD
ENDBRANCH   6  22
TORSDOF 4
ENDMDL
MODEL 3
REMARK VINA RESULT:    -3.205      2.114      7.263
REMARK INTER + INTRA:          -3.995
REMARK INTER:                  -3.696
REMARK INTRA:                  -0.299
REMARK UNBOUND:                -0.321
REMARK SMILES O=C1C[C@@H](c2ccc(O)cc2)Oc2cc(O)cc(O)c21
REMARK SMILES IDX 3 1 4 2 12 3 13 4 14 5 15 6 17 7 18 8 20 9 2 10 1 11 5 12
REMARK SMILES IDX 6 13 11 14 7 15 10 16 8 17 9 18 19 20 16 22
REMARK H PARENT 9 19 19 21 16 23
REMARK Flexibility Score: inf
ROOT
ATOM      1  C   UNL     1      -4.457  -5.985 -10.124  1.00  0.00     0.131 C 
ATOM      2  C   UNL     1      -4.832  -5.139  -8.898  1.00  0.00     0.211 C 
ATOM      3  O   UNL     1      -6.169  -5.425  -8.479  1.00  0.00    -0.484 OA
ATOM      4  C   UNL     1      -6.704  -6.721  -8.488  1.00  0.00     0.138 A 
ATOM      5  C   UNL     1      -7.902  -6.964  -7.812  1.00  0.00     0.093 A 
ATOM      6  C   UNL     1      -8.452  -8.249  -7.792  1.00  0.00     0.123 A 
ATOM      7  C   UNL     1      -7.815  -9.287  -8.473  1.00  0.00     0.093 A 
ATOM      8  C   UNL     1      -6.634  -9.058  -9.191  1.00  0.00     0.133 A 
ATOM      9  C   UNL     1      -6.046  -7.765  -9.175  1.00  0.00     0.102 A 
ATOM     10  C   UNL     1      -4.763  -7.425  -9.839  1.00  0.00     0.174 C 
ATOM     11  O   UNL     1      -3.908  -8.305 -10.119  1.00  0.00    -0.294 OA
ENDROOT
BRANCH   2  12
ATOM     12  C   UNL     1      -4.687  -3.668  -9.200  1.00  0.00    -0.007 A 
ATOM     13  C   UNL     1      -3.548  -2.960  -8.777  1.00  0.00     0.011 A 
ATOM     14  C   UNL     1      -5.717  -2.976  -9.859  1.00  0.00     0.011 A 
ATOM     15  C   UNL     1      -3.432  -1.591  -9.032  1.00  0.00     0.046 A 
ATOM     16  C   UNL     1      -5.599  -1.606 -10.112  1.00  0.00     0.046 A 
ATOM     17  C   UNL     1      -4.457  -0.910  -9.702  1.00  0.00     0.115 A 
BRANCH  17  18
ATOM     18  O   UNL     1      -4.353   0.455  -9.962  1.00  0.00    -0.508 OA
ATOM     19  H   UNL     1      -3.527   0.849 -10.395  1.00  0.00     0.293 HD
ENDBRANCH  17  18
ENDBRANCH   2  12
BRANCH   8  20
ATOM     20  O   UNL     1      -6.110 -10.125  -9.923  1.00  0.00    -0.507 OA
ATOM     21  H   UNL     1      -5.873 -11.022  -9.524  1.00  0.00     0.293 HD
ENDBRANCH   8  20
BRANCH   6  22
ATOM     22  O   UNL     1      -9.635  -8.504  -7.102  1.00  0.00    -0.508 OA
ATOM     23  H   UNL     1     -10.377  -7.816  -7.050  1.00  0.00     0.293 HD
ENDBRANCH   6  22
TORSDOF 4
ENDMDL
MODEL 4
REMARK VINA RESULT:    -3.017      1.697      2.100
REMARK INTER + INTRA:          -3.780
REMARK INTER:                  -3.464
REMARK INTRA:                  -0.315
REMARK UNBOUND:                -0.321
REMARK SMILES O=C1C[C@@H](c2ccc(O)cc2)Oc2cc(O)cc(O)c21
REMARK SMILES IDX 3 1 4 2 12 3 13 4 14 5 15 6 17 7 18 8 20 9 2 10 1 11 5 12
REMARK SMILES IDX 6 13 11 14 7 15 10 16 8 17 9 18 19 20 16 22
REMARK H PARENT 9 19 19 21 16 23
REMARK Flexibility Score: inf
ROOT
ATOM      1  C   UNL     1      -5.826  -3.929  -9.398  1.00  0.00     0.131 C 
ATOM      2  C   UNL     1      -7.149  -4.239 -10.110  1.00  0.00     0.211 C 
ATOM      3  O   UNL     1      -8.089  -3.180  -9.909  1.00  0.00    -0.484 OA
ATOM      4  C   UNL     1      -7.718  -1.828  -9.915  1.00  0.00     0.138 A 
ATOM      5  C   UNL     1      -8.715  -0.853  -9.991  1.00  0.00     0.093 A 
ATOM      6  C   UNL     1      -8.375   0.503 -10.013  1.00  0.00     0.123 A 
ATOM      7  C   UNL     1      -7.034   0.883  -9.930  1.00  0.00     0.093 A 
ATOM      8  C   UNL     1      -6.021  -0.077  -9.813  1.00  0.00     0.133 A 
ATOM      9  C   UNL     1      -6.358  -1.456  -9.838  1.00  0.00     0.102 A 
ATOM     10  C   UNL     1      -5.365  -2.557  -9.791  1.00  0.00     0.174 C 
ATOM     11  O   UNL     1      -4.164  -2.381 -10.125  1.00  0.00    -0.294 OA
ENDROOT
BRANCH   2  12
ATOM     12  C   UNL     1      -7.727  -5.544  -9.620  1.00  0.00    -0.007 A 
ATOM     13  C   UNL     1      -9.113  -5.776  -9.671  1.00  0.00     0.011 A 
ATOM     14  C   UNL     1      -6.891  -6.520  -9.054  1.00  0.00     0.011 A 
ATOM     15  C   UNL     1      -9.647  -6.974  -9.188  1.00  0.00     0.046 A 
ATOM     16  C   UNL     1      -7.427  -7.717  -8.571  1.00  0.00     0.046 A 
ATOM     17  C   UNL     1      -8.805  -7.949  -8.638  1.00  0.00     0.115 A 
BRANCH  17  18
ATOM     18  O   UNL     1      -9.326  -9.146  -8.153  1.00  0.00    -0.508 OA
ATOM     19  H   UNL     1      -9.226  -9.411  -7.181  1.00  0.00     0.293 HD
ENDBRANCH  17  18
ENDBRANCH   2  12
BRANCH   8  20
ATOM     20  O   UNL     1      -4.715   0.386  -9.639  1.00  0.00    -0.507 OA
ATOM     21  H   UNL     1      -4.358   1.237 -10.050  1.00  0.00     0.293 HD
ENDBRANCH   8  20
BRANCH   6  22
ATOM     22  O   UNL     1      -9.362   1.482 -10.111  1.00  0.00    -0.508 OA
ATOM     23  H   UNL     1     -10.103   1.556  -9.424  1.00  0.00     0.293 HD
ENDBRANCH   6  22
TORSDOF 4
ENDMDL
MODEL 5
REMARK VINA RESULT:    -2.858      1.850      7.516
REMARK INTER + INTRA:          -3.597
REMARK INTER:                  -3.276
REMARK INTRA:                  -0.321
REMARK UNBOUND:                -0.321
REMARK SMILES O=C1C[C@@H](c2ccc(O)cc2)Oc2cc(O)cc(O)c21
REMARK SMILES IDX 3 1 4 2 12 3 13 4 14 5 15 6 17 7 18 8 20 9 2 10 1 11 5 12
REMARK SMILES IDX 6 13 11 14 7 15 10 16 8 17 9 18 19 20 16 22
REMARK H PARENT 9 19 19 21 16 23
REMARK Flexibility Score: inf
ROOT
ATOM      1  C   UNL     1      -6.880  -4.182  -9.419  1.00  0.00     0.131 C 
ATOM      2  C   UNL     1      -5.518  -4.134 -10.125  1.00  0.00     0.211 C 
ATOM      3  O   UNL     1      -4.763  -5.316  -9.843  1.00  0.00    -0.484 OA
ATOM      4  C   UNL     1      -5.348  -6.588  -9.773  1.00  0.00     0.138 A 
ATOM      5  C   UNL     1      -4.521  -7.714  -9.772  1.00  0.00     0.093 A 
ATOM      6  C   UNL     1      -5.076  -8.996  -9.717  1.00  0.00     0.123 A 
ATOM      7  C   UNL     1      -6.461  -9.149  -9.635  1.00  0.00     0.093 A 
ATOM      8  C   UNL     1      -7.307  -8.034  -9.594  1.00  0.00     0.133 A 
ATOM      9  C   UNL     1      -6.751  -6.731  -9.697  1.00  0.00     0.102 A 
ATOM     10  C   UNL     1      -7.553  -5.483  -9.736  1.00  0.00     0.174 C 
ATOM     11  O   UNL     1      -8.765  -5.485 -10.079  1.00  0.00    -0.294 OA
ENDROOT
BRANCH   2  12
ATOM     12  C   UNL     1      -4.740  -2.911  -9.705  1.00  0.00    -0.007 A 
ATOM     13  C   UNL     1      -3.362  -2.997  -9.440  1.00  0.00     0.011 A 
ATOM     14  C   UNL     1      -5.398  -1.684  -9.520  1.00  0.00     0.011 A 
ATOM     15  C   UNL     1      -2.652  -1.868  -9.022  1.00  0.00     0.046 A 
ATOM     16  C   UNL     1      -4.685  -0.556  -9.102  1.00  0.00     0.046 A 
ATOM     17  C   UNL     1      -3.311  -0.643  -8.853  1.00  0.00     0.115 A 
BRANCH  17  18
ATOM     18  O   UNL     1      -2.614   0.488  -8.437  1.00  0.00    -0.508 OA
ATOM     19  H   UNL     1      -3.074   1.238  -7.935  1.00  0.00     0.293 HD
ENDBRANCH  17  18
ENDBRANCH   2  12
BRANCH   8  20
ATOM     20  O   UNL     1      -8.671  -8.269  -9.416  1.00  0.00    -0.507 OA
ATOM     21  H   UNL     1      -9.401  -7.742  -9.876  1.00  0.00     0.293 HD
ENDBRANCH   8  20
BRANCH   6  22
ATOM     22  O   UNL     1      -4.260 -10.125  -9.737  1.00  0.00    -0.508 OA
ATOM     23  H   UNL     1      -3.250 -10.049  -9.699  1.00  0.00     0.293 HD
ENDBRANCH   6  22
TORSDOF 4
ENDMDL
MODEL 6
REMARK VINA RESULT:    -2.047      1.828      7.322
REMARK INTER + INTRA:          -2.668
REMARK INTER:                  -2.352
REMARK INTRA:                  -0.316
REMARK UNBOUND:                -0.321
REMARK SMILES O=C1C[C@@H](c2ccc(O)cc2)Oc2cc(O)cc(O)c21
REMARK SMILES IDX 3 1 4 2 12 3 13 4 14 5 15 6 17 7 18 8 20 9 2 10 1 11 5 12
REMARK SMILES IDX 6 13 11 14 7 15 10 16 8 17 9 18 19 20 16 22
REMARK H PARENT 9 19 19 21 16 23
REMARK Flexibility Score: inf
ROOT
ATOM      1  C   UNL     1      -8.640  -3.155  -9.523  1.00  0.00     0.131 C 
ATOM      2  C   UNL     1      -7.251  -2.894 -10.123  1.00  0.00     0.211 C 
ATOM      3  O   UNL     1      -6.298  -3.830  -9.613  1.00  0.00    -0.484 OA
ATOM      4  C   UNL     1      -6.605  -5.182  -9.401  1.00  0.00     0.138 A 
ATOM      5  C   UNL     1      -5.563  -6.084  -9.171  1.00  0.00     0.093 A 
ATOM      6  C   UNL     1      -5.837  -7.440  -8.970  1.00  0.00     0.123 A 
ATOM      7  C   UNL     1      -7.159  -7.888  -8.971  1.00  0.00     0.093 A 
ATOM      8  C   UNL     1      -8.221  -6.995  -9.160  1.00  0.00     0.133 A 
ATOM      9  C   UNL     1      -7.945  -5.625  -9.412  1.00  0.00     0.102 A 
ATOM     10  C   UNL     1      -8.985  -4.604  -9.695  1.00  0.00     0.174 C 
ATOM     11  O   UNL     1     -10.125  -4.921 -10.125  1.00  0.00    -0.294 OA
ENDROOT
BRANCH   2  12
ATOM     12  C   UNL     1      -6.799  -1.484  -9.830  1.00  0.00    -0.007 A 
ATOM     13  C   UNL     1      -5.430  -1.177  -9.741  1.00  0.00     0.011 A 
ATOM     14  C   UNL     1      -7.745  -0.474  -9.588  1.00  0.00     0.011 A 
ATOM     15  C   UNL     1      -5.016   0.124  -9.440  1.00  0.00     0.046 A 
ATOM     16  C   UNL     1      -7.328   0.826  -9.286  1.00  0.00     0.046 A 
ATOM     17  C   UNL     1      -5.964   1.130  -9.213  1.00  0.00     0.115 A 
BRANCH  17  18
ATOM     18  O   UNL     1      -5.564   2.430  -8.912  1.00  0.00    -0.508 OA
ATOM     19  H   UNL     1      -6.152   3.227  -9.124  1.00  0.00     0.293 HD
ENDBRANCH  17  18
ENDBRANCH   2  12
BRANCH   8  20
ATOM     20  O   UNL     1      -9.516  -7.505  -9.053  1.00  0.00    -0.507 OA
ATOM     21  H   UNL     1      -9.975  -7.705  -8.176  1.00  0.00     0.293 HD
ENDBRANCH   8  20
BRANCH   6  22
ATOM     22  O   UNL     1      -4.803  -8.350  -8.761  1.00  0.00    -0.508 OA
ATOM     23  H   UNL     1      -4.764  -9.232  -9.260  1.00  0.00     0.293 HD
ENDBRANCH   6  22
TORSDOF 4
ENDMDL
