MODEL 1
REMARK VINA RESULT:    -6.521      0.000      0.000
REMARK INTER + INTRA:          -8.828
REMARK INTER:                  -8.237
REMARK INTRA:                  -0.591
REMARK UNBOUND:                -0.591
REMARK SMILES O=C(C=Cc1ccc(O)cc1)c1ccc(O)cc1O
REMARK SMILES IDX 4 1 3 2 5 3 6 4 7 5 8 6 11 7 10 8 9 9 2 11 1 12 12 13 18 14
REMARK SMILES IDX 13 15 17 16 14 17 15 18 19 19 16 21
REMARK H PARENT 9 10 19 20 16 22
REMARK Flexibility Score: inf
ROOT
ATOM      1  C   UNL     1      -7.530  -6.966  66.241  1.00  0.00     0.012 C 
ATOM      2  C   UNL     1      -6.969  -8.177  66.101  1.00  0.00     0.053 C 
ENDROOT
BRANCH   1   3
ATOM      3  C   UNL     1      -7.655  -6.260  67.539  1.00  0.00    -0.025 A 
ATOM      4  C   UNL     1      -7.671  -4.855  67.542  1.00  0.00     0.012 A 
ATOM      5  C   UNL     1      -7.795  -4.146  68.740  1.00  0.00     0.047 A 
ATOM      6  C   UNL     1      -7.918  -4.830  69.953  1.00  0.00     0.115 A 
ATOM      7  C   UNL     1      -7.794  -6.943  68.766  1.00  0.00     0.012 A 
ATOM      8  C   UNL     1      -7.919  -6.230  69.963  1.00  0.00     0.047 A 
BRANCH   6   9
ATOM      9  O   UNL     1      -8.041  -4.110  71.139  1.00  0.00    -0.508 OA
ATOM     10  H   UNL     1      -7.542  -3.240  71.283  1.00  0.00     0.293 HD
ENDBRANCH   6   9
ENDBRANCH   1   3
BRANCH   2  11
ATOM     11  C   UNL     1      -6.847  -8.860  64.796  1.00  0.00     0.189 C 
ATOM     12  O   UNL     1      -6.529 -10.080  64.784  1.00  0.00    -0.289 OA
BRANCH  11  13
ATOM     13  C   UNL     1      -7.110  -8.184  63.508  1.00  0.00     0.064 A 
ATOM     14  C   UNL     1      -8.410  -8.097  62.957  1.00  0.00     0.130 A 
ATOM     15  C   UNL     1      -6.032  -7.601  62.822  1.00  0.00     0.020 A 
ATOM     16  C   UNL     1      -8.596  -7.478  61.715  1.00  0.00     0.093 A 
ATOM     17  C   UNL     1      -6.232  -6.978  61.588  1.00  0.00     0.047 A 
ATOM     18  C   UNL     1      -7.513  -6.919  61.029  1.00  0.00     0.119 A 
BRANCH  14  19
ATOM     19  O   UNL     1      -9.533  -8.593  63.623  1.00  0.00    -0.507 OA
ATOM     20  H   UNL     1      -9.758  -9.578  63.663  1.00  0.00     0.293 HD
ENDBRANCH  14  19
BRANCH  18  21
ATOM     21  O   UNL     1      -7.723  -6.305  59.796  1.00  0.00    -0.508 OA
ATOM     22  H   UNL     1      -7.885  -6.847  58.955  1.00  0.00     0.293 HD
ENDBRANCH  18  21
ENDBRANCH  11  13
ENDBRANCH   2  11
TORSDOF 6
ENDMDL
MODEL 2
REMARK VINA RESULT:    -6.473      3.413      6.843
REMARK INTER + INTRA:          -8.767
REMARK INTER:                  -8.037
REMARK INTRA:                  -0.730
REMARK UNBOUND:                -0.591
REMARK SMILES O=C(C=Cc1ccc(O)cc1)c1ccc(O)cc1O
REMARK SMILES IDX 4 1 3 2 5 3 6 4 7 5 8 6 11 7 10 8 9 9 2 11 1 12 12 13 18 14
REMARK SMILES IDX 13 15 17 16 14 17 15 18 19 19 16 21
REMARK H PARENT 9 10 19 20 16 22
REMARK Flexibility Score: inf
ROOT
ATOM      1  C   UNL     1      -6.689  -9.005  63.959  1.00  0.00     0.012 C 
ATOM      2  C   UNL     1      -7.997  -8.722  64.048  1.00  0.00     0.053 C 
ENDROOT
BRANCH   1   3
ATOM      3  C   UNL     1      -6.135 -10.089  63.111  1.00  0.00    -0.025 A 
ATOM      4  C   UNL     1      -6.839 -10.463  61.953  1.00  0.00     0.012 A 
ATOM      5  C   UNL     1      -6.354 -11.473  61.119  1.00  0.00     0.047 A 
ATOM      6  C   UNL     1      -5.151 -12.118  61.421  1.00  0.00     0.115 A 
ATOM      7  C   UNL     1      -4.915 -10.734  63.401  1.00  0.00     0.012 A 
ATOM      8  C   UNL     1      -4.432 -11.744  62.564  1.00  0.00     0.047 A 
BRANCH   6   9
ATOM      9  O   UNL     1      -4.680 -13.123  60.581  1.00  0.00    -0.508 OA
ATOM     10  H   UNL     1      -4.536 -14.069  60.917  1.00  0.00     0.293 HD
ENDBRANCH   6   9
ENDBRANCH   1   3
BRANCH   2  11
ATOM     11  C   UNL     1      -8.528  -7.632  64.894  1.00  0.00     0.189 C 
ATOM     12  O   UNL     1      -9.346  -7.924  65.807  1.00  0.00    -0.289 OA
BRANCH  11  13
ATOM     13  C   UNL     1      -8.118  -6.220  64.734  1.00  0.00     0.064 A 
ATOM     14  C   UNL     1      -7.512  -5.491  65.784  1.00  0.00     0.130 A 
ATOM     15  C   UNL     1      -8.330  -5.594  63.496  1.00  0.00     0.020 A 
ATOM     16  C   UNL     1      -7.179  -4.145  65.590  1.00  0.00     0.093 A 
ATOM     17  C   UNL     1      -7.984  -4.254  63.311  1.00  0.00     0.047 A 
ATOM     18  C   UNL     1      -7.413  -3.524  64.360  1.00  0.00     0.119 A 
BRANCH  14  19
ATOM     19  O   UNL     1      -7.210  -6.076  67.016  1.00  0.00    -0.507 OA
ATOM     20  H   UNL     1      -6.580  -5.654  67.686  1.00  0.00     0.293 HD
ENDBRANCH  14  19
BRANCH  18  21
ATOM     21  O   UNL     1      -7.070  -2.184  64.189  1.00  0.00    -0.508 OA
ATOM     22  H   UNL     1      -6.925  -1.570  64.982  1.00  0.00     0.293 HD
ENDBRANCH  18  21
ENDBRANCH  11  13
ENDBRANCH   2  11
TORSDOF 6
ENDMDL
MODEL 3
REMARK VINA RESULT:    -6.466      1.534      2.489
REMARK INTER + INTRA:          -8.758
REMARK INTER:                  -8.182
REMARK INTRA:                  -0.576
REMARK UNBOUND:                -0.591
REMARK SMILES O=C(C=Cc1ccc(O)cc1)c1ccc(O)cc1O
REMARK SMILES IDX 4 1 3 2 5 3 6 4 7 5 8 6 11 7 10 8 9 9 2 11 1 12 12 13 18 14
REMARK SMILES IDX 13 15 17 16 14 17 15 18 19 19 16 21
REMARK H PARENT 9 10 19 20 16 22
REMARK Flexibility Score: inf
ROOT
ATOM      1  C   UNL     1      -7.617  -6.040  65.471  1.00  0.00     0.012 C 
ATOM      2  C   UNL     1      -8.345  -5.552  64.455  1.00  0.00     0.053 C 
ENDROOT
BRANCH   1   3
ATOM      3  C   UNL     1      -7.720  -5.553  66.868  1.00  0.00    -0.025 A 
ATOM      4  C   UNL     1      -7.515  -4.185  67.121  1.00  0.00     0.012 A 
ATOM      5  C   UNL     1      -7.610  -3.678  68.419  1.00  0.00     0.047 A 
ATOM      6  C   UNL     1      -7.922  -4.527  69.485  1.00  0.00     0.115 A 
ATOM      7  C   UNL     1      -8.049  -6.400  67.947  1.00  0.00     0.012 A 
ATOM      8  C   UNL     1      -8.144  -5.889  69.245  1.00  0.00     0.047 A 
BRANCH   6   9
ATOM      9  O   UNL     1      -8.013  -4.008  70.774  1.00  0.00    -0.508 OA
ATOM     10  H   UNL     1      -7.435  -3.231  71.073  1.00  0.00     0.293 HD
ENDBRANCH   6   9
ENDBRANCH   1   3
BRANCH   2  11
ATOM     11  C   UNL     1      -8.232  -6.056  63.070  1.00  0.00     0.189 C 
ATOM     12  O   UNL     1      -8.637  -5.322  62.129  1.00  0.00    -0.289 OA
BRANCH  11  13
ATOM     13  C   UNL     1      -7.638  -7.369  62.740  1.00  0.00     0.064 A 
ATOM     14  C   UNL     1      -8.326  -8.584  62.971  1.00  0.00     0.130 A 
ATOM     15  C   UNL     1      -6.356  -7.403  62.170  1.00  0.00     0.020 A 
ATOM     16  C   UNL     1      -7.700  -9.801  62.676  1.00  0.00     0.093 A 
ATOM     17  C   UNL     1      -5.746  -8.623  61.869  1.00  0.00     0.047 A 
ATOM     18  C   UNL     1      -6.415  -9.825  62.127  1.00  0.00     0.119 A 
BRANCH  14  19
ATOM     19  O   UNL     1      -9.630  -8.614  63.470  1.00  0.00    -0.507 OA
ATOM     20  H   UNL     1     -10.448  -8.584  62.875  1.00  0.00     0.293 HD
ENDBRANCH  14  19
BRANCH  18  21
ATOM     21  O   UNL     1      -5.814 -11.049  61.837  1.00  0.00    -0.508 OA
ATOM     22  H   UNL     1      -5.026 -11.115  61.203  1.00  0.00     0.293 HD
ENDBRANCH  18  21
ENDBRANCH  11  13
ENDBRANCH   2  11
TORSDOF 6
ENDMDL
MODEL 4
REMARK VINA RESULT:    -6.458      1.975      7.103
REMARK INTER + INTRA:          -8.748
REMARK INTER:                  -8.148
REMARK INTRA:                  -0.599
REMARK UNBOUND:                -0.591
REMARK SMILES O=C(C=Cc1ccc(O)cc1)c1ccc(O)cc1O
REMARK SMILES IDX 4 1 3 2 5 3 6 4 7 5 8 6 11 7 10 8 9 9 2 11 1 12 12 13 18 14
REMARK SMILES IDX 13 15 17 16 14 17 15 18 19 19 16 21
REMARK H PARENT 9 10 19 20 16 22
REMARK Flexibility Score: inf
ROOT
ATOM      1  C   UNL     1      -8.445  -7.097  65.368  1.00  0.00     0.012 C 
ATOM      2  C   UNL     1      -9.048  -8.152  65.939  1.00  0.00     0.053 C 
ENDROOT
BRANCH   1   3
ATOM      3  C   UNL     1      -8.326  -6.911  63.901  1.00  0.00    -0.025 A 
ATOM      4  C   UNL     1      -8.425  -5.609  63.379  1.00  0.00     0.012 A 
ATOM      5  C   UNL     1      -8.311  -5.382  62.005  1.00  0.00     0.047 A 
ATOM      6  C   UNL     1      -8.085  -6.450  61.132  1.00  0.00     0.115 A 
ATOM      7  C   UNL     1      -8.083  -7.981  63.015  1.00  0.00     0.012 A 
ATOM      8  C   UNL     1      -7.969  -7.750  61.640  1.00  0.00     0.047 A 
BRANCH   6   9
ATOM      9  O   UNL     1      -7.974  -6.209  59.764  1.00  0.00    -0.508 OA
ATOM     10  H   UNL     1      -7.945  -6.969  59.094  1.00  0.00     0.293 HD
ENDBRANCH   6   9
ENDBRANCH   1   3
BRANCH   2  11
ATOM     11  C   UNL     1      -9.163  -8.316  67.403  1.00  0.00     0.189 C 
ATOM     12  O   UNL     1      -9.467  -9.451  67.858  1.00  0.00    -0.289 OA
BRANCH  11  13
ATOM     13  C   UNL     1      -8.907  -7.215  68.356  1.00  0.00     0.064 A 
ATOM     14  C   UNL     1      -7.618  -6.956  68.878  1.00  0.00     0.130 A 
ATOM     15  C   UNL     1      -9.981  -6.397  68.743  1.00  0.00     0.020 A 
ATOM     16  C   UNL     1      -7.440  -5.925  69.807  1.00  0.00     0.093 A 
ATOM     17  C   UNL     1      -9.790  -5.365  69.663  1.00  0.00     0.047 A 
ATOM     18  C   UNL     1      -8.520  -5.129  70.202  1.00  0.00     0.119 A 
BRANCH  14  19
ATOM     19  O   UNL     1      -6.496  -7.688  68.479  1.00  0.00    -0.507 OA
ATOM     20  H   UNL     1      -6.476  -8.699  68.466  1.00  0.00     0.293 HD
ENDBRANCH  14  19
BRANCH  18  21
ATOM     21  O   UNL     1      -8.318  -4.106  71.126  1.00  0.00    -0.508 OA
ATOM     22  H   UNL     1      -7.520  -4.107  71.752  1.00  0.00     0.293 HD
ENDBRANCH  18  21
ENDBRANCH  11  13
ENDBRANCH   2  11
TORSDOF 6
ENDMDL
MODEL 5
REMARK VINA RESULT:    -6.403      2.756      7.359
REMARK INTER + INTRA:          -8.678
REMARK INTER:                  -7.988
REMARK INTRA:                  -0.690
REMARK UNBOUND:                -0.591
REMARK SMILES O=C(C=Cc1ccc(O)cc1)c1ccc(O)cc1O
REMARK SMILES IDX 4 1 3 2 5 3 6 4 7 5 8 6 11 7 10 8 9 9 2 11 1 12 12 13 18 14
REMARK SMILES IDX 13 15 17 16 14 17 15 18 19 19 16 21
REMARK H PARENT 9 10 19 20 16 22
REMARK Flexibility Score: inf
ROOT
ATOM      1  C   UNL     1      -6.575  -5.829  64.549  1.00  0.00     0.012 C 
ATOM      2  C   UNL     1      -7.282  -4.723  64.274  1.00  0.00     0.053 C 
ENDROOT
BRANCH   1   3
ATOM      3  C   UNL     1      -5.927  -6.673  63.515  1.00  0.00    -0.025 A 
ATOM      4  C   UNL     1      -6.534  -6.770  62.251  1.00  0.00     0.012 A 
ATOM      5  C   UNL     1      -5.958  -7.547  61.242  1.00  0.00     0.047 A 
ATOM      6  C   UNL     1      -4.760  -8.228  61.476  1.00  0.00     0.115 A 
ATOM      7  C   UNL     1      -4.712  -7.352  63.738  1.00  0.00     0.012 A 
ATOM      8  C   UNL     1      -4.137  -8.128  62.726  1.00  0.00     0.047 A 
BRANCH   6   9
ATOM      9  O   UNL     1      -4.198  -8.999  60.461  1.00  0.00    -0.508 OA
ATOM     10  H   UNL     1      -4.238  -8.707  59.491  1.00  0.00     0.293 HD
ENDBRANCH   6   9
ENDBRANCH   1   3
BRANCH   2  11
ATOM     11  C   UNL     1      -7.913  -3.891  65.320  1.00  0.00     0.189 C 
ATOM     12  O   UNL     1      -8.107  -2.669  65.081  1.00  0.00    -0.289 OA
BRANCH  11  13
ATOM     13  C   UNL     1      -8.354  -4.437  66.622  1.00  0.00     0.064 A 
ATOM     14  C   UNL     1      -7.679  -4.139  67.829  1.00  0.00     0.130 A 
ATOM     15  C   UNL     1      -9.485  -5.268  66.654  1.00  0.00     0.020 A 
ATOM     16  C   UNL     1      -8.116  -4.715  69.028  1.00  0.00     0.093 A 
ATOM     17  C   UNL     1      -9.918  -5.828  67.858  1.00  0.00     0.047 A 
ATOM     18  C   UNL     1      -9.231  -5.558  69.047  1.00  0.00     0.119 A 
BRANCH  14  19
ATOM     19  O   UNL     1      -6.591  -3.264  67.874  1.00  0.00    -0.507 OA
ATOM     20  H   UNL     1      -5.677  -3.504  67.513  1.00  0.00     0.293 HD
ENDBRANCH  14  19
BRANCH  18  21
ATOM     21  O   UNL     1      -9.650  -6.116  70.253  1.00  0.00    -0.508 OA
ATOM     22  H   UNL     1     -10.583  -5.953  70.616  1.00  0.00     0.293 HD
ENDBRANCH  18  21
ENDBRANCH  11  13
ENDBRANCH   2  11
TORSDOF 6
ENDMDL
MODEL 6
REMARK VINA RESULT:    -6.392      2.402      7.324
REMARK INTER + INTRA:          -8.664
REMARK INTER:                  -8.071
REMARK INTRA:                  -0.593
REMARK UNBOUND:                -0.591
REMARK SMILES O=C(C=Cc1ccc(O)cc1)c1ccc(O)cc1O
REMARK SMILES IDX 4 1 3 2 5 3 6 4 7 5 8 6 11 7 10 8 9 9 2 11 1 12 12 13 18 14
REMARK SMILES IDX 13 15 17 16 14 17 15 18 19 19 16 21
REMARK H PARENT 9 10 19 20 16 22
REMARK Flexibility Score: inf
ROOT
ATOM      1  C   UNL     1      -8.513  -5.911  66.009  1.00  0.00     0.012 C 
ATOM      2  C   UNL     1      -7.732  -5.121  66.763  1.00  0.00     0.053 C 
ENDROOT
BRANCH   1   3
ATOM      3  C   UNL     1      -8.411  -6.005  64.533  1.00  0.00    -0.025 A 
ATOM      4  C   UNL     1      -8.621  -4.844  63.769  1.00  0.00     0.012 A 
ATOM      5  C   UNL     1      -8.528  -4.881  62.375  1.00  0.00     0.047 A 
ATOM      6  C   UNL     1      -8.211  -6.077  61.723  1.00  0.00     0.115 A 
ATOM      7  C   UNL     1      -8.077  -7.204  63.868  1.00  0.00     0.012 A 
ATOM      8  C   UNL     1      -7.984  -7.238  62.473  1.00  0.00     0.047 A 
BRANCH   6   9
ATOM      9  O   UNL     1      -8.122  -6.099  60.333  1.00  0.00    -0.508 OA
ATOM     10  H   UNL     1      -8.714  -6.704  59.775  1.00  0.00     0.293 HD
ENDBRANCH   6   9
ENDBRANCH   1   3
BRANCH   2  11
ATOM     11  C   UNL     1      -7.845  -5.047  68.234  1.00  0.00     0.189 C 
ATOM     12  O   UNL     1      -7.419  -4.015  68.819  1.00  0.00    -0.289 OA
BRANCH  11  13
ATOM     13  C   UNL     1      -8.463  -6.117  69.046  1.00  0.00     0.064 A 
ATOM     14  C   UNL     1      -7.779  -7.317  69.354  1.00  0.00     0.130 A 
ATOM     15  C   UNL     1      -9.766  -5.924  69.534  1.00  0.00     0.020 A 
ATOM     16  C   UNL     1      -8.427  -8.313  70.095  1.00  0.00     0.093 A 
ATOM     17  C   UNL     1     -10.398  -6.921  70.280  1.00  0.00     0.047 A 
ATOM     18  C   UNL     1      -9.732  -8.121  70.558  1.00  0.00     0.119 A 
BRANCH  14  19
ATOM     19  O   UNL     1      -6.458  -7.539  68.959  1.00  0.00    -0.507 OA
ATOM     20  H   UNL     1      -5.966  -8.403  69.147  1.00  0.00     0.293 HD
ENDBRANCH  14  19
BRANCH  18  21
ATOM     21  O   UNL     1     -10.354  -9.125  71.296  1.00  0.00    -0.508 OA
ATOM     22  H   UNL     1     -11.260  -9.494  71.030  1.00  0.00     0.293 HD
ENDBRANCH  18  21
ENDBRANCH  11  13
ENDBRANCH   2  11
TORSDOF 6
ENDMDL
MODEL 7
REMARK VINA RESULT:    -6.305      2.855      7.453
REMARK INTER + INTRA:          -8.555
REMARK INTER:                  -7.842
REMARK INTRA:                  -0.712
REMARK UNBOUND:                -0.591
REMARK SMILES O=C(C=Cc1ccc(O)cc1)c1ccc(O)cc1O
REMARK SMILES IDX 4 1 3 2 5 3 6 4 7 5 8 6 11 7 10 8 9 9 2 11 1 12 12 13 18 14
REMARK SMILES IDX 13 15 17 16 14 17 15 18 19 19 16 21
REMARK H PARENT 9 10 19 20 16 22
REMARK Flexibility Score: inf
ROOT
ATOM      1  C   UNL     1      -6.356  -7.346  62.539  1.00  0.00     0.012 C 
ATOM      2  C   UNL     1      -7.633  -6.946  62.440  1.00  0.00     0.053 C 
ENDROOT
BRANCH   1   3
ATOM      3  C   UNL     1      -5.843  -8.615  61.969  1.00  0.00    -0.025 A 
ATOM      4  C   UNL     1      -6.625  -9.776  62.100  1.00  0.00     0.012 A 
ATOM      5  C   UNL     1      -6.187 -10.994  61.573  1.00  0.00     0.047 A 
ATOM      6  C   UNL     1      -4.966 -11.069  60.896  1.00  0.00     0.115 A 
ATOM      7  C   UNL     1      -4.619  -8.697  61.272  1.00  0.00     0.012 A 
ATOM      8  C   UNL     1      -4.184  -9.917  60.745  1.00  0.00     0.047 A 
BRANCH   6   9
ATOM      9  O   UNL     1      -4.542 -12.289  60.376  1.00  0.00    -0.508 OA
ATOM     10  H   UNL     1      -3.575 -12.584  60.441  1.00  0.00     0.293 HD
ENDBRANCH   6   9
ENDBRANCH   1   3
BRANCH   2  11
ATOM     11  C   UNL     1      -8.124  -5.673  63.009  1.00  0.00     0.189 C 
ATOM     12  O   UNL     1      -8.751  -4.881  62.256  1.00  0.00    -0.289 OA
BRANCH  11  13
ATOM     13  C   UNL     1      -7.936  -5.304  64.428  1.00  0.00     0.064 A 
ATOM     14  C   UNL     1      -7.469  -4.026  64.816  1.00  0.00     0.130 A 
ATOM     15  C   UNL     1      -8.243  -6.252  65.417  1.00  0.00     0.020 A 
ATOM     16  C   UNL     1      -7.273  -3.743  66.173  1.00  0.00     0.093 A 
ATOM     17  C   UNL     1      -8.053  -5.955  66.768  1.00  0.00     0.047 A 
ATOM     18  C   UNL     1      -7.561  -4.701  67.150  1.00  0.00     0.119 A 
BRANCH  14  19
ATOM     19  O   UNL     1      -7.213  -3.016  63.886  1.00  0.00    -0.507 OA
ATOM     20  H   UNL     1      -7.441  -2.044  64.053  1.00  0.00     0.293 HD
ENDBRANCH  14  19
BRANCH  18  21
ATOM     21  O   UNL     1      -7.362  -4.395  68.494  1.00  0.00    -0.508 OA
ATOM     22  H   UNL     1      -6.506  -4.650  68.974  1.00  0.00     0.293 HD
ENDBRANCH  18  21
ENDBRANCH  11  13
ENDBRANCH   2  11
TORSDOF 6
ENDMDL
MODEL 8
REMARK VINA RESULT:    -6.292      3.133      3.755
REMARK INTER + INTRA:          -8.538
REMARK INTER:                  -7.837
REMARK INTRA:                  -0.701
REMARK UNBOUND:                -0.591
REMARK SMILES O=C(C=Cc1ccc(O)cc1)c1ccc(O)cc1O
REMARK SMILES IDX 4 1 3 2 5 3 6 4 7 5 8 6 11 7 10 8 9 9 2 11 1 12 12 13 18 14
REMARK SMILES IDX 13 15 17 16 14 17 15 18 19 19 16 21
REMARK H PARENT 9 10 19 20 16 22
REMARK Flexibility Score: inf
ROOT
ATOM      1  C   UNL     1      -9.634  -5.471  66.671  1.00  0.00     0.012 C 
ATOM      2  C   UNL     1      -8.799  -4.424  66.595  1.00  0.00     0.053 C 
ENDROOT
BRANCH   1   3
ATOM      3  C   UNL     1     -10.278  -5.924  67.929  1.00  0.00    -0.025 A 
ATOM      4  C   UNL     1      -9.677  -5.580  69.152  1.00  0.00     0.012 A 
ATOM      5  C   UNL     1     -10.250  -5.977  70.363  1.00  0.00     0.047 A 
ATOM      6  C   UNL     1     -11.439  -6.713  70.372  1.00  0.00     0.115 A 
ATOM      7  C   UNL     1     -11.485  -6.654  67.946  1.00  0.00     0.012 A 
ATOM      8  C   UNL     1     -12.056  -7.048  69.160  1.00  0.00     0.047 A 
BRANCH   6   9
ATOM      9  O   UNL     1     -11.998  -7.101  71.586  1.00  0.00    -0.508 OA
ATOM     10  H   UNL     1     -12.165  -8.077  71.803  1.00  0.00     0.293 HD
ENDBRANCH   6   9
ENDBRANCH   1   3
BRANCH   2  11
ATOM     11  C   UNL     1      -8.173  -3.985  65.330  1.00  0.00     0.189 C 
ATOM     12  O   UNL     1      -7.977  -2.753  65.153  1.00  0.00    -0.289 OA
BRANCH  11  13
ATOM     13  C   UNL     1      -7.742  -4.930  64.278  1.00  0.00     0.064 A 
ATOM     14  C   UNL     1      -8.447  -5.072  63.060  1.00  0.00     0.130 A 
ATOM     15  C   UNL     1      -6.588  -5.700  64.497  1.00  0.00     0.020 A 
ATOM     16  C   UNL     1      -8.016  -6.010  62.114  1.00  0.00     0.093 A 
ATOM     17  C   UNL     1      -6.161  -6.625  63.542  1.00  0.00     0.047 A 
ATOM     18  C   UNL     1      -6.878  -6.787  62.351  1.00  0.00     0.119 A 
BRANCH  14  19
ATOM     19  O   UNL     1      -9.560  -4.286  62.752  1.00  0.00    -0.507 OA
ATOM     20  H   UNL     1     -10.453  -4.391  63.216  1.00  0.00     0.293 HD
ENDBRANCH  14  19
BRANCH  18  21
ATOM     21  O   UNL     1      -6.465  -7.711  61.393  1.00  0.00    -0.508 OA
ATOM     22  H   UNL     1      -5.485  -7.936  61.262  1.00  0.00     0.293 HD
ENDBRANCH  18  21
ENDBRANCH  11  13
ENDBRANCH   2  11
TORSDOF 6
ENDMDL
MODEL 9
REMARK VINA RESULT:    -6.287      3.338      5.059
REMARK INTER + INTRA:          -8.532
REMARK INTER:                  -7.814
REMARK INTRA:                  -0.718
REMARK UNBOUND:                -0.591
REMARK SMILES O=C(C=Cc1ccc(O)cc1)c1ccc(O)cc1O
REMARK SMILES IDX 4 1 3 2 5 3 6 4 7 5 8 6 11 7 10 8 9 9 2 11 1 12 12 13 18 14
REMARK SMILES IDX 13 15 17 16 14 17 15 18 19 19 16 21
REMARK H PARENT 9 10 19 20 16 22
REMARK Flexibility Score: inf
ROOT
ATOM      1  C   UNL     1      -9.700  -5.923  69.303  1.00  0.00     0.012 C 
ATOM      2  C   UNL     1      -8.399  -5.660  69.104  1.00  0.00     0.053 C 
ENDROOT
BRANCH   1   3
ATOM      3  C   UNL     1     -10.199  -6.930  70.270  1.00  0.00    -0.025 A 
ATOM      4  C   UNL     1      -9.379  -8.028  70.582  1.00  0.00     0.012 A 
ATOM      5  C   UNL     1      -9.803  -8.998  71.493  1.00  0.00     0.047 A 
ATOM      6  C   UNL     1     -11.048  -8.881  72.118  1.00  0.00     0.115 A 
ATOM      7  C   UNL     1     -11.448  -6.811  70.915  1.00  0.00     0.012 A 
ATOM      8  C   UNL     1     -11.869  -7.784  71.828  1.00  0.00     0.047 A 
BRANCH   6   9
ATOM      9  O   UNL     1     -11.458  -9.856  73.024  1.00  0.00    -0.508 OA
ATOM     10  H   UNL     1     -12.076  -9.634  73.796  1.00  0.00     0.293 HD
ENDBRANCH   6   9
ENDBRANCH   1   3
BRANCH   2  11
ATOM     11  C   UNL     1      -7.922  -4.647  68.139  1.00  0.00     0.189 C 
ATOM     12  O   UNL     1      -7.242  -3.678  68.573  1.00  0.00    -0.289 OA
BRANCH  11  13
ATOM     13  C   UNL     1      -8.182  -4.737  66.687  1.00  0.00     0.064 A 
ATOM     14  C   UNL     1      -8.601  -3.618  65.928  1.00  0.00     0.130 A 
ATOM     15  C   UNL     1      -7.995  -5.972  66.045  1.00  0.00     0.020 A 
ATOM     16  C   UNL     1      -8.870  -3.770  64.562  1.00  0.00     0.093 A 
ATOM     17  C   UNL     1      -8.257  -6.108  64.680  1.00  0.00     0.047 A 
ATOM     18  C   UNL     1      -8.701  -5.008  63.936  1.00  0.00     0.119 A 
BRANCH  14  19
ATOM     19  O   UNL     1      -8.737  -2.348  66.493  1.00  0.00    -0.507 OA
ATOM     20  H   UNL     1      -9.626  -1.871  66.564  1.00  0.00     0.293 HD
ENDBRANCH  14  19
BRANCH  18  21
ATOM     21  O   UNL     1      -8.972  -5.133  62.575  1.00  0.00    -0.508 OA
ATOM     22  H   UNL     1      -9.922  -5.124  62.222  1.00  0.00     0.293 HD
ENDBRANCH  18  21
ENDBRANCH  11  13
ENDBRANCH   2  11
TORSDOF 6
ENDMDL
