MODEL 1
REMARK VINA RESULT:    -3.980      0.000      0.000
REMARK INTER + INTRA:          -6.282
REMARK INTER:                  -6.073
REMARK INTRA:                  -0.209
REMARK UNBOUND:                -0.209
REMARK SMILES CC1=CCC[C@@H](C)C(=O)C[C@H](C(C)C)C(=O)C1
REMARK SMILES IDX 8 1 9 2 6 3 7 4 5 5 4 6 3 7 2 8 1 9 10 11 11 12 15 13 16 14
REMARK SMILES IDX 17 15 12 17 13 18 14 19
REMARK H PARENT
REMARK Flexibility Score: 70.00
ROOT
ATOM      1  C   UNL     1      13.023 -11.460  62.828  1.00  0.00     0.136 C 
ATOM      2  O   UNL     1      11.804 -11.393  62.875  1.00  0.00    -0.299 OA
ENDROOT
BRANCH   1   3
ATOM      3  C   UNL     1      13.657 -12.330  61.755  1.00  0.00     0.053 C 
ATOM      4  C   UNL     1      12.650 -12.609  60.632  1.00  0.00     0.016 C 
BRANCH   3   5
ATOM      5  C   UNL     1      14.228 -13.645  62.320  1.00  0.00     0.015 C 
BRANCH   5   6
ATOM      6  C   UNL     1      15.762 -13.687  62.240  1.00  0.00     0.028 C 
BRANCH   6   7
ATOM      7  C   UNL     1      16.374 -13.597  63.615  1.00  0.00    -0.028 C 
ATOM      8  C   UNL     1      16.943 -12.481  64.129  1.00  0.00    -0.070 CG0
ATOM      9  C   UNL     1      17.462 -12.535  65.543  1.00  0.00     0.039 C 
ATOM     10  G   UNL     1      17.089 -11.193  63.334  1.00  0.00     0.000 G0
ENDBRANCH   6   7
ENDBRANCH   5   6
ENDBRANCH   3   5
ENDBRANCH   1   3
BRANCH   1  11
ATOM     11  C   UNL     1      13.827 -10.855  63.960  1.00  0.00     0.087 C 
BRANCH  11  12
ATOM     12  C   UNL     1      14.826  -9.722  63.589  1.00  0.00     0.066 C 
BRANCH  12  13
ATOM     13  C   UNL     1      16.278 -10.070  63.927  1.00  0.00     0.140 C 
ATOM     14  O   UNL     1      16.865  -9.322  64.696  1.00  0.00    -0.299 OA
BRANCH  13  15
ATOM     15  C   UNL     1      17.073 -11.206  63.323  1.00  0.00     0.106 CG0
ATOM     16  G   UNL     1      16.935 -12.486  64.133  1.00  0.00     0.000 G0
ENDBRANCH  13  15
ENDBRANCH  12  13
BRANCH  12  17
ATOM     17  C   UNL     1      14.506  -8.942  62.266  1.00  0.00    -0.006 C 
ATOM     18  C   UNL     1      15.683  -8.248  61.550  1.00  0.00     0.008 C 
ATOM     19  C   UNL     1      13.358  -7.940  62.474  1.00  0.00     0.008 C 
ENDBRANCH  12  17
ENDBRANCH  11  12
ENDBRANCH   1  11
TORSDOF 1
ENDMDL
MODEL 2
REMARK VINA RESULT:    -3.921      2.954      6.507
REMARK INTER + INTRA:          -6.193
REMARK INTER:                  -5.954
REMARK INTRA:                  -0.239
REMARK UNBOUND:                -0.209
REMARK SMILES CC1=CCC[C@@H](C)C(=O)C[C@H](C(C)C)C(=O)C1
REMARK SMILES IDX 8 1 9 2 6 3 7 4 5 5 4 6 3 7 2 8 1 9 10 11 11 12 15 13 16 14
REMARK SMILES IDX 17 15 12 17 13 18 14 19
REMARK H PARENT
REMARK Flexibility Score: 70.00
ROOT
ATOM      1  C   UNL     1      19.725 -10.607  67.548  1.00  0.00     0.136 C 
ATOM      2  O   UNL     1      20.320 -10.537  68.613  1.00  0.00    -0.299 OA
ENDROOT
BRANCH   1   3
ATOM      3  C   UNL     1      20.542 -10.738  66.273  1.00  0.00     0.053 C 
ATOM      4  C   UNL     1      22.040 -10.635  66.586  1.00  0.00     0.016 C 
BRANCH   3   5
ATOM      5  C   UNL     1      20.133  -9.709  65.200  1.00  0.00     0.015 C 
BRANCH   5   6
ATOM      6  C   UNL     1      19.451 -10.375  63.996  1.00  0.00     0.028 C 
BRANCH   6   7
ATOM      7  C   UNL     1      18.080  -9.791  63.764  1.00  0.00    -0.028 C 
ATOM      8  C   UNL     1      16.923 -10.368  64.166  1.00  0.00    -0.070 CG0
ATOM      9  C   UNL     1      15.634  -9.631  63.909  1.00  0.00     0.039 C 
ATOM     10  G   UNL     1      16.877 -11.727  64.848  1.00  0.00     0.000 G0
ENDBRANCH   6   7
ENDBRANCH   5   6
ENDBRANCH   3   5
ENDBRANCH   1   3
BRANCH   1  11
ATOM     11  C   UNL     1      18.234 -10.347  67.532  1.00  0.00     0.087 C 
BRANCH  11  12
ATOM     12  C   UNL     1      17.299 -11.590  67.531  1.00  0.00     0.066 C 
BRANCH  12  13
ATOM     13  C   UNL     1      16.399 -11.661  66.296  1.00  0.00     0.140 C 
ATOM     14  O   UNL     1      15.192 -11.725  66.489  1.00  0.00    -0.299 OA
BRANCH  13  15
ATOM     15  C   UNL     1      16.876 -11.747  64.863  1.00  0.00     0.106 CG0
ATOM     16  G   UNL     1      16.919 -10.380  64.198  1.00  0.00     0.000 G0
ENDBRANCH  13  15
ENDBRANCH  12  13
BRANCH  12  17
ATOM     17  C   UNL     1      17.925 -12.908  68.108  1.00  0.00    -0.006 C 
ATOM     18  C   UNL     1      18.318 -14.007  67.099  1.00  0.00     0.008 C 
ATOM     19  C   UNL     1      17.039 -13.508  69.213  1.00  0.00     0.008 C 
ENDBRANCH  12  17
ENDBRANCH  11  12
ENDBRANCH   1  11
TORSDOF 1
ENDMDL
MODEL 3
REMARK VINA RESULT:    -3.741      2.117      4.005
REMARK INTER + INTRA:          -5.919
REMARK INTER:                  -5.895
REMARK INTRA:                  -0.024
REMARK UNBOUND:                -0.209
REMARK SMILES CC1=CCC[C@@H](C)C(=O)C[C@H](C(C)C)C(=O)C1
REMARK SMILES IDX 8 1 9 2 6 3 7 4 5 5 4 6 3 7 2 8 1 9 10 11 11 12 15 13 16 14
REMARK SMILES IDX 17 15 12 17 13 18 14 19
REMARK H PARENT
REMARK Flexibility Score: 70.00
ROOT
ATOM      1  C   UNL     1      12.837 -12.055  63.409  1.00  0.00     0.136 C 
ATOM      2  O   UNL     1      11.631 -11.864  63.427  1.00  0.00    -0.299 OA
ENDROOT
BRANCH   1   3
ATOM      3  C   UNL     1      13.361 -13.295  62.703  1.00  0.00     0.053 C 
ATOM      4  C   UNL     1      14.846 -13.503  63.025  1.00  0.00     0.016 C 
BRANCH   3   5
ATOM      5  C   UNL     1      13.130 -13.251  61.180  1.00  0.00     0.015 C 
BRANCH   5   6
ATOM      6  C   UNL     1      13.933 -12.125  60.510  1.00  0.00     0.028 C 
BRANCH   6   7
ATOM      7  C   UNL     1      13.020 -11.023  60.035  1.00  0.00    -0.028 C 
ATOM      8  C   UNL     1      13.231  -9.704  60.255  1.00  0.00    -0.070 CG0
ATOM      9  C   UNL     1      12.254  -8.719  59.667  1.00  0.00     0.039 C 
ATOM     10  G   UNL     1      14.400  -9.187  61.080  1.00  0.00     0.000 G0
ENDBRANCH   6   7
ENDBRANCH   5   6
ENDBRANCH   3   5
ENDBRANCH   1   3
BRANCH   1  11
ATOM     11  C   UNL     1      13.724 -11.174  64.265  1.00  0.00     0.087 C 
BRANCH  11  12
ATOM     12  C   UNL     1      14.776 -10.301  63.525  1.00  0.00     0.066 C 
BRANCH  12  13
ATOM     13  C   UNL     1      14.146  -9.278  62.577  1.00  0.00     0.140 C 
ATOM     14  O   UNL     1      13.307  -8.523  63.050  1.00  0.00    -0.299 OA
BRANCH  13  15
ATOM     15  C   UNL     1      14.406  -9.180  61.091  1.00  0.00     0.106 CG0
ATOM     16  G   UNL     1      13.235  -9.706  60.275  1.00  0.00     0.000 G0
ENDBRANCH  13  15
ENDBRANCH  12  13
BRANCH  12  17
ATOM     17  C   UNL     1      16.035  -9.897  64.370  1.00  0.00    -0.006 C 
ATOM     18  C   UNL     1      17.268  -9.377  63.601  1.00  0.00     0.008 C 
ATOM     19  C   UNL     1      16.455 -11.031  65.321  1.00  0.00     0.008 C 
ENDBRANCH  12  17
ENDBRANCH  11  12
ENDBRANCH   1  11
TORSDOF 1
ENDMDL
MODEL 4
REMARK VINA RESULT:    -3.703      3.362      5.868
REMARK INTER + INTRA:          -5.860
REMARK INTER:                  -6.211
REMARK INTRA:                   0.352
REMARK UNBOUND:                -0.209
REMARK SMILES CC1=CCC[C@@H](C)C(=O)C[C@H](C(C)C)C(=O)C1
REMARK SMILES IDX 8 1 9 2 6 3 7 4 5 5 4 6 3 7 2 8 1 9 10 11 11 12 15 13 16 14
REMARK SMILES IDX 17 15 12 17 13 18 14 19
REMARK H PARENT
REMARK Flexibility Score: 70.00
ROOT
ATOM      1  C   UNL     1      18.986  -9.619  66.690  1.00  0.00     0.136 C 
ATOM      2  O   UNL     1      19.098  -9.342  67.874  1.00  0.00    -0.299 OA
ENDROOT
BRANCH   1   3
ATOM      3  C   UNL     1      20.224  -9.545  65.811  1.00  0.00     0.053 C 
ATOM      4  C   UNL     1      19.858  -9.832  64.350  1.00  0.00     0.016 C 
BRANCH   3   5
ATOM      5  C   UNL     1      21.348 -10.485  66.291  1.00  0.00     0.015 C 
BRANCH   5   6
ATOM      6  C   UNL     1      20.899 -11.954  66.308  1.00  0.00     0.028 C 
BRANCH   6   7
ATOM      7  C   UNL     1      20.554 -12.394  67.709  1.00  0.00    -0.028 C 
ATOM      8  C   UNL     1      19.420 -13.051  68.048  1.00  0.00    -0.070 CG0
ATOM      9  C   UNL     1      19.246 -13.474  69.484  1.00  0.00     0.039 C 
ATOM     10  G   UNL     1      18.319 -13.361  67.045  1.00  0.00     0.000 G0
ENDBRANCH   6   7
ENDBRANCH   5   6
ENDBRANCH   3   5
ENDBRANCH   1   3
BRANCH   1  11
ATOM     11  C   UNL     1      17.597  -9.810  66.118  1.00  0.00     0.087 C 
BRANCH  11  12
ATOM     12  C   UNL     1      17.171 -11.264  65.767  1.00  0.00     0.066 C 
BRANCH  12  13
ATOM     13  C   UNL     1      17.305 -12.228  66.948  1.00  0.00     0.140 C 
ATOM     14  O   UNL     1      16.584 -12.026  67.916  1.00  0.00    -0.299 OA
BRANCH  13  15
ATOM     15  C   UNL     1      18.310 -13.353  67.056  1.00  0.00     0.106 CG0
ATOM     16  G   UNL     1      19.408 -13.037  68.061  1.00  0.00     0.000 G0
ENDBRANCH  13  15
ENDBRANCH  12  13
BRANCH  12  17
ATOM     17  C   UNL     1      15.945 -11.396  64.798  1.00  0.00    -0.006 C 
ATOM     18  C   UNL     1      15.600 -10.175  63.920  1.00  0.00     0.008 C 
ATOM     19  C   UNL     1      14.689 -11.869  65.550  1.00  0.00     0.008 C 
ENDBRANCH  12  17
ENDBRANCH  11  12
ENDBRANCH   1  11
TORSDOF 1
ENDMDL
MODEL 5
REMARK VINA RESULT:    -3.653      3.738      6.806
REMARK INTER + INTRA:          -5.783
REMARK INTER:                  -5.461
REMARK INTRA:                  -0.323
REMARK UNBOUND:                -0.209
REMARK SMILES CC1=CCC[C@@H](C)C(=O)C[C@H](C(C)C)C(=O)C1
REMARK SMILES IDX 8 1 9 2 6 3 7 4 5 5 4 6 3 7 2 8 1 9 10 11 11 12 15 13 16 14
REMARK SMILES IDX 17 15 12 17 13 18 14 19
REMARK H PARENT
REMARK Flexibility Score: 70.00
ROOT
ATOM      1  C   UNL     1      12.291  -6.438  62.997  1.00  0.00     0.136 C 
ATOM      2  O   UNL     1      11.431  -7.003  63.655  1.00  0.00    -0.299 OA
ENDROOT
BRANCH   1   3
ATOM      3  C   UNL     1      11.898  -5.204  62.202  1.00  0.00     0.053 C 
ATOM      4  C   UNL     1      11.318  -4.132  63.135  1.00  0.00     0.016 C 
BRANCH   3   5
ATOM      5  C   UNL     1      10.917  -5.524  61.057  1.00  0.00     0.015 C 
BRANCH   5   6
ATOM      6  C   UNL     1      11.648  -5.778  59.730  1.00  0.00     0.028 C 
BRANCH   6   7
ATOM      7  C   UNL     1      12.907  -4.954  59.643  1.00  0.00    -0.028 C 
ATOM      8  C   UNL     1      14.139  -5.460  59.401  1.00  0.00    -0.070 CG0
ATOM      9  C   UNL     1      15.293  -4.498  59.288  1.00  0.00     0.039 C 
ATOM     10  G   UNL     1      14.400  -6.952  59.255  1.00  0.00     0.000 G0
ENDBRANCH   6   7
ENDBRANCH   5   6
ENDBRANCH   3   5
ENDBRANCH   1   3
BRANCH   1  11
ATOM     11  C   UNL     1      13.638  -7.111  62.833  1.00  0.00     0.087 C 
BRANCH  11  12
ATOM     12  C   UNL     1      13.796  -8.096  61.640  1.00  0.00     0.066 C 
BRANCH  12  13
ATOM     13  C   UNL     1      14.788  -7.602  60.584  1.00  0.00     0.140 C 
ATOM     14  O   UNL     1      15.978  -7.664  60.865  1.00  0.00    -0.299 OA
BRANCH  13  15
ATOM     15  C   UNL     1      14.422  -6.965  59.263  1.00  0.00     0.106 CG0
ATOM     16  G   UNL     1      14.144  -5.476  59.410  1.00  0.00     0.000 G0
ENDBRANCH  13  15
ENDBRANCH  12  13
BRANCH  12  17
ATOM     17  C   UNL     1      13.756  -9.620  62.009  1.00  0.00    -0.006 C 
ATOM     18  C   UNL     1      12.373 -10.302  62.057  1.00  0.00     0.008 C 
ATOM     19  C   UNL     1      14.520  -9.897  63.315  1.00  0.00     0.008 C 
ENDBRANCH  12  17
ENDBRANCH  11  12
ENDBRANCH   1  11
TORSDOF 1
ENDMDL
MODEL 6
REMARK VINA RESULT:    -3.573     12.578     15.636
REMARK INTER + INTRA:          -5.662
REMARK INTER:                  -5.782
REMARK INTRA:                   0.119
REMARK UNBOUND:                -0.209
REMARK SMILES CC1=CCC[C@@H](C)C(=O)C[C@H](C(C)C)C(=O)C1
REMARK SMILES IDX 8 1 9 2 6 3 7 4 5 5 4 6 3 7 2 8 1 9 10 11 11 12 15 13 16 14
REMARK SMILES IDX 17 15 12 17 13 18 14 19
REMARK H PARENT
REMARK Flexibility Score: 70.00
ROOT
ATOM      1  C   UNL     1       7.131   0.646  63.708  1.00  0.00     0.136 C 
ATOM      2  O   UNL     1       6.283   0.033  63.078  1.00  0.00    -0.299 OA
ENDROOT
BRANCH   1   3
ATOM      3  C   UNL     1       6.681   1.792  64.599  1.00  0.00     0.053 C 
ATOM      4  C   UNL     1       5.954   1.252  65.837  1.00  0.00     0.016 C 
BRANCH   3   5
ATOM      5  C   UNL     1       5.805   2.815  63.849  1.00  0.00     0.015 C 
BRANCH   5   6
ATOM      6  C   UNL     1       6.642   3.945  63.231  1.00  0.00     0.028 C 
BRANCH   6   7
ATOM      7  C   UNL     1       6.718   3.799  61.733  1.00  0.00    -0.028 C 
ATOM      8  C   UNL     1       7.871   3.701  61.030  1.00  0.00    -0.070 CG0
ATOM      9  C   UNL     1       7.780   3.503  59.539  1.00  0.00     0.039 C 
ATOM     10  G   UNL     1       9.241   3.797  61.683  1.00  0.00     0.000 G0
ENDBRANCH   6   7
ENDBRANCH   5   6
ENDBRANCH   3   5
ENDBRANCH   1   3
BRANCH   1  11
ATOM     11  C   UNL     1       8.592   0.377  63.410  1.00  0.00     0.087 C 
BRANCH  11  12
ATOM     12  C   UNL     1       9.219   1.138  62.208  1.00  0.00     0.066 C 
BRANCH  12  13
ATOM     13  C   UNL     1       9.565   2.592  62.536  1.00  0.00     0.140 C 
ATOM     14  O   UNL     1      10.063   2.813  63.632  1.00  0.00    -0.299 OA
BRANCH  13  15
ATOM     15  C   UNL     1       9.265   3.787  61.658  1.00  0.00     0.106 CG0
ATOM     16  G   UNL     1       7.881   3.697  61.034  1.00  0.00     0.000 G0
ENDBRANCH  13  15
ENDBRANCH  12  13
BRANCH  12  17
ATOM     17  C   UNL     1      10.189   0.298  61.306  1.00  0.00    -0.006 C 
ATOM     18  C   UNL     1      10.075  -1.239  61.381  1.00  0.00     0.008 C 
ATOM     19  C   UNL     1      11.652   0.723  61.514  1.00  0.00     0.008 C 
ENDBRANCH  12  17
ENDBRANCH  11  12
ENDBRANCH   1  11
TORSDOF 1
ENDMDL
MODEL 7
REMARK VINA RESULT:    -3.558      1.603      2.456
REMARK INTER + INTRA:          -5.639
REMARK INTER:                  -5.806
REMARK INTRA:                   0.167
REMARK UNBOUND:                -0.209
REMARK SMILES CC1=CCC[C@@H](C)C(=O)C[C@H](C(C)C)C(=O)C1
REMARK SMILES IDX 8 1 9 2 6 3 7 4 5 5 4 6 3 7 2 8 1 9 10 11 11 12 15 13 16 14
REMARK SMILES IDX 17 15 12 17 13 18 14 19
REMARK H PARENT
REMARK Flexibility Score: 70.00
ROOT
ATOM      1  C   UNL     1      12.761 -11.160  62.643  1.00  0.00     0.136 C 
ATOM      2  O   UNL     1      11.655 -11.272  63.150  1.00  0.00    -0.299 OA
ENDROOT
BRANCH   1   3
ATOM      3  C   UNL     1      13.804 -12.224  62.944  1.00  0.00     0.053 C 
ATOM      4  C   UNL     1      13.525 -13.490  62.123  1.00  0.00     0.016 C 
BRANCH   3   5
ATOM      5  C   UNL     1      13.897 -12.553  64.447  1.00  0.00     0.015 C 
BRANCH   5   6
ATOM      6  C   UNL     1      14.807 -11.566  65.195  1.00  0.00     0.028 C 
BRANCH   6   7
ATOM      7  C   UNL     1      16.152 -11.460  64.522  1.00  0.00    -0.028 C 
ATOM      8  C   UNL     1      16.698 -10.303  64.078  1.00  0.00    -0.070 CG0
ATOM      9  C   UNL     1      18.079 -10.354  63.477  1.00  0.00     0.039 C 
ATOM     10  G   UNL     1      15.968  -8.971  64.150  1.00  0.00     0.000 G0
ENDBRANCH   6   7
ENDBRANCH   5   6
ENDBRANCH   3   5
ENDBRANCH   1   3
BRANCH   1  11
ATOM     11  C   UNL     1      13.102  -9.871  61.925  1.00  0.00     0.087 C 
BRANCH  11  12
ATOM     12  C   UNL     1      13.639  -8.699  62.793  1.00  0.00     0.066 C 
BRANCH  12  13
ATOM     13  C   UNL     1      15.167  -8.678  62.892  1.00  0.00     0.140 C 
ATOM     14  O   UNL     1      15.790  -8.496  61.855  1.00  0.00    -0.299 OA
BRANCH  13  15
ATOM     15  C   UNL     1      15.970  -8.950  64.144  1.00  0.00     0.106 CG0
ATOM     16  G   UNL     1      16.685 -10.291  64.078  1.00  0.00     0.000 G0
ENDBRANCH  13  15
ENDBRANCH  12  13
BRANCH  12  17
ATOM     17  C   UNL     1      12.855  -7.346  62.665  1.00  0.00    -0.006 C 
ATOM     18  C   UNL     1      11.409  -7.412  62.132  1.00  0.00     0.008 C 
ATOM     19  C   UNL     1      13.660  -6.310  61.862  1.00  0.00     0.008 C 
ENDBRANCH  12  17
ENDBRANCH  11  12
ENDBRANCH   1  11
TORSDOF 1
ENDMDL
MODEL 8
REMARK VINA RESULT:    -3.520      1.949      4.121
REMARK INTER + INTRA:          -5.581
REMARK INTER:                  -5.874
REMARK INTRA:                   0.293
REMARK UNBOUND:                -0.209
REMARK SMILES CC1=CCC[C@@H](C)C(=O)C[C@H](C(C)C)C(=O)C1
REMARK SMILES IDX 8 1 9 2 6 3 7 4 5 5 4 6 3 7 2 8 1 9 10 11 11 12 15 13 16 14
REMARK SMILES IDX 17 15 12 17 13 18 14 19
REMARK H PARENT
REMARK Flexibility Score: 70.00
ROOT
ATOM      1  C   UNL     1      17.525  -9.636  63.899  1.00  0.00     0.136 C 
ATOM      2  O   UNL     1      18.022 -10.309  63.009  1.00  0.00    -0.299 OA
ENDROOT
BRANCH   1   3
ATOM      3  C   UNL     1      18.070  -9.790  65.310  1.00  0.00     0.053 C 
ATOM      4  C   UNL     1      19.603  -9.726  65.298  1.00  0.00     0.016 C 
BRANCH   3   5
ATOM      5  C   UNL     1      17.579 -11.079  65.996  1.00  0.00     0.015 C 
BRANCH   5   6
ATOM      6  C   UNL     1      16.050 -11.213  65.941  1.00  0.00     0.028 C 
BRANCH   6   7
ATOM      7  C   UNL     1      15.644 -12.413  65.125  1.00  0.00    -0.028 C 
ATOM      8  C   UNL     1      14.806 -12.370  64.063  1.00  0.00    -0.070 CG0
ATOM      9  C   UNL     1      14.541 -13.651  63.314  1.00  0.00     0.039 C 
ATOM     10  G   UNL     1      14.116 -11.091  63.613  1.00  0.00     0.000 G0
ENDBRANCH   6   7
ENDBRANCH   5   6
ENDBRANCH   3   5
ENDBRANCH   1   3
BRANCH   1  11
ATOM     11  C   UNL     1      16.265  -8.851  63.599  1.00  0.00     0.087 C 
BRANCH  11  12
ATOM     12  C   UNL     1      15.516  -9.194  62.280  1.00  0.00     0.066 C 
BRANCH  12  13
ATOM     13  C   UNL     1      14.746 -10.515  62.355  1.00  0.00     0.140 C 
ATOM     14  O   UNL     1      14.572 -11.119  61.305  1.00  0.00    -0.299 OA
BRANCH  13  15
ATOM     15  C   UNL     1      14.107 -11.090  63.599  1.00  0.00     0.106 CG0
ATOM     16  G   UNL     1      14.805 -12.362  64.058  1.00  0.00     0.000 G0
ENDBRANCH  13  15
ENDBRANCH  12  13
BRANCH  12  17
ATOM     17  C   UNL     1      14.885  -7.974  61.522  1.00  0.00    -0.006 C 
ATOM     18  C   UNL     1      15.669  -7.401  60.323  1.00  0.00     0.008 C 
ATOM     19  C   UNL     1      14.521  -6.841  62.497  1.00  0.00     0.008 C 
ENDBRANCH  12  17
ENDBRANCH  11  12
ENDBRANCH   1  11
TORSDOF 1
ENDMDL
MODEL 9
REMARK VINA RESULT:    -3.400     13.314     15.532
REMARK INTER + INTRA:          -5.398
REMARK INTER:                  -5.356
REMARK INTRA:                  -0.043
REMARK UNBOUND:                -0.209
REMARK SMILES CC1=CCC[C@@H](C)C(=O)C[C@H](C(C)C)C(=O)C1
REMARK SMILES IDX 8 1 9 2 6 3 7 4 5 5 4 6 3 7 2 8 1 9 10 11 11 12 15 13 16 14
REMARK SMILES IDX 17 15 12 17 13 18 14 19
REMARK H PARENT
REMARK Flexibility Score: 70.00
ROOT
ATOM      1  C   UNL     1       8.905   0.477  62.604  1.00  0.00     0.136 C 
ATOM      2  O   UNL     1       8.946  -0.738  62.723  1.00  0.00    -0.299 OA
ENDROOT
BRANCH   1   3
ATOM      3  C   UNL     1       7.545   1.148  62.513  1.00  0.00     0.053 C 
ATOM      4  C   UNL     1       6.610   0.609  63.603  1.00  0.00     0.016 C 
BRANCH   3   5
ATOM      5  C   UNL     1       6.904   1.001  61.118  1.00  0.00     0.015 C 
BRANCH   5   6
ATOM      6  C   UNL     1       6.538   2.362  60.508  1.00  0.00     0.028 C 
BRANCH   6   7
ATOM      7  C   UNL     1       6.856   3.483  61.465  1.00  0.00    -0.028 C 
ATOM      8  C   UNL     1       7.947   4.279  61.378  1.00  0.00    -0.070 CG0
ATOM      9  C   UNL     1       8.095   5.395  62.381  1.00  0.00     0.039 C 
ATOM     10  G   UNL     1       9.027   4.080  60.326  1.00  0.00     0.000 G0
ENDBRANCH   6   7
ENDBRANCH   5   6
ENDBRANCH   3   5
ENDBRANCH   1   3
BRANCH   1  11
ATOM     11  C   UNL     1      10.196   1.224  62.338  1.00  0.00     0.087 C 
BRANCH  11  12
ATOM     12  C   UNL     1      10.391   1.814  60.913  1.00  0.00     0.066 C 
BRANCH  12  13
ATOM     13  C   UNL     1      10.232   3.336  60.868  1.00  0.00     0.140 C 
ATOM     14  O   UNL     1      11.119   4.004  61.382  1.00  0.00    -0.299 OA
BRANCH  13  15
ATOM     15  C   UNL     1       9.033   4.079  60.323  1.00  0.00     0.106 CG0
ATOM     16  G   UNL     1       7.954   4.265  61.379  1.00  0.00     0.000 G0
ENDBRANCH  13  15
ENDBRANCH  12  13
BRANCH  12  17
ATOM     17  C   UNL     1      11.499   1.128  60.041  1.00  0.00    -0.006 C 
ATOM     18  C   UNL     1      12.841   0.800  60.728  1.00  0.00     0.008 C 
ATOM     19  C   UNL     1      11.755   1.915  58.744  1.00  0.00     0.008 C 
ENDBRANCH  12  17
ENDBRANCH  11  12
ENDBRANCH   1  11
TORSDOF 1
ENDMDL
