MODEL 1
REMARK VINA RESULT:    -3.926      0.000      0.000
REMARK INTER + INTRA:          -6.780
REMARK INTER:                  -6.221
REMARK INTRA:                  -0.560
REMARK UNBOUND:                -0.560
REMARK SMILES CCCCCCCCCCCC(=O)[O-]
REMARK SMILES IDX 7 1 8 2 9 3 10 4 11 5 12 6 13 7 14 8 6 9 5 10 4 11 3 12 2 13
REMARK SMILES IDX 1 14
REMARK H PARENT
REMARK Flexibility Score: inf
ROOT
ATOM      1  C   UNL     1      33.083  -0.114  43.131  1.00  0.00     0.000 C 
ENDROOT
BRANCH   1   2
ATOM      2  C   UNL     1      31.733  -0.820  42.919  1.00  0.00     0.000 C 
BRANCH   2   3
ATOM      3  C   UNL     1      31.239  -1.548  44.179  1.00  0.00     0.000 C 
BRANCH   3   4
ATOM      4  C   UNL     1      29.705  -1.607  44.212  1.00  0.00     0.006 C 
BRANCH   4   5
ATOM      5  C   UNL     1      29.159  -1.709  45.642  1.00  0.00     0.053 C 
BRANCH   5   6
ATOM      6  C   UNL     1      28.613  -3.073  45.933  1.00  0.00     0.041 C 
ATOM      7  O   UNL     1      27.718  -3.226  46.807  1.00  0.00    -0.550 OA
ATOM      8  O   UNL     1      29.115  -4.182  45.263  1.00  0.00    -0.550 OA
ENDBRANCH   5   6
ENDBRANCH   4   5
ENDBRANCH   3   4
ENDBRANCH   2   3
ENDBRANCH   1   2
BRANCH   1   9
ATOM      9  C   UNL     1      34.217  -0.750  42.310  1.00  0.00     0.000 C 
BRANCH   9  10
ATOM     10  C   UNL     1      35.589  -0.128  42.617  1.00  0.00    -0.000 C 
BRANCH  10  11
ATOM     11  C   UNL     1      36.501  -1.068  43.421  1.00  0.00    -0.000 C 
BRANCH  11  12
ATOM     12  C   UNL     1      36.700  -2.399  42.687  1.00  0.00    -0.000 C 
BRANCH  12  13
ATOM     13  C   UNL     1      36.554  -3.584  43.648  1.00  0.00    -0.003 C 
ATOM     14  C   UNL     1      35.113  -4.084  43.693  1.00  0.00     0.004 C 
ENDBRANCH  12  13
ENDBRANCH  11  12
ENDBRANCH  10  11
ENDBRANCH   9  10
ENDBRANCH   1   9
TORSDOF 10
ENDMDL
MODEL 2
REMARK VINA RESULT:    -3.860      2.672      6.124
REMARK INTER + INTRA:          -6.676
REMARK INTER:                  -6.061
REMARK INTRA:                  -0.616
REMARK UNBOUND:                -0.560
REMARK SMILES CCCCCCCCCCCC(=O)[O-]
REMARK SMILES IDX 7 1 8 2 9 3 10 4 11 5 12 6 13 7 14 8 6 9 5 10 4 11 3 12 2 13
REMARK SMILES IDX 1 14
REMARK H PARENT
REMARK Flexibility Score: inf
ROOT
ATOM      1  C   UNL     1      32.802  -0.137  42.958  1.00  0.00     0.000 C 
ENDROOT
BRANCH   1   2
ATOM      2  C   UNL     1      34.092  -0.395  42.162  1.00  0.00     0.000 C 
BRANCH   2   3
ATOM      3  C   UNL     1      35.352  -0.345  43.040  1.00  0.00     0.000 C 
BRANCH   3   4
ATOM      4  C   UNL     1      36.270  -1.541  42.750  1.00  0.00     0.006 C 
BRANCH   4   5
ATOM      5  C   UNL     1      35.480  -2.832  42.494  1.00  0.00     0.053 C 
BRANCH   5   6
ATOM      6  C   UNL     1      35.665  -3.825  43.600  1.00  0.00     0.041 C 
ATOM      7  O   UNL     1      36.818  -4.074  44.043  1.00  0.00    -0.550 OA
ATOM      8  O   UNL     1      34.568  -4.501  44.120  1.00  0.00    -0.550 OA
ENDBRANCH   5   6
ENDBRANCH   4   5
ENDBRANCH   3   4
ENDBRANCH   2   3
ENDBRANCH   1   2
BRANCH   1   9
ATOM      9  C   UNL     1      31.547  -0.646  42.229  1.00  0.00     0.000 C 
BRANCH   9  10
ATOM     10  C   UNL     1      30.496  -1.220  43.194  1.00  0.00    -0.000 C 
BRANCH  10  11
ATOM     11  C   UNL     1      31.108  -1.709  44.516  1.00  0.00    -0.000 C 
BRANCH  11  12
ATOM     12  C   UNL     1      30.115  -1.544  45.673  1.00  0.00    -0.000 C 
BRANCH  12  13
ATOM     13  C   UNL     1      28.787  -2.243  45.362  1.00  0.00    -0.003 C 
ATOM     14  C   UNL     1      28.940  -3.761  45.404  1.00  0.00     0.004 C 
ENDBRANCH  12  13
ENDBRANCH  11  12
ENDBRANCH  10  11
ENDBRANCH   9  10
ENDBRANCH   1   9
TORSDOF 10
ENDMDL
MODEL 3
REMARK VINA RESULT:    -3.762      3.330      7.043
REMARK INTER + INTRA:          -6.521
REMARK INTER:                  -5.857
REMARK INTRA:                  -0.664
REMARK UNBOUND:                -0.560
REMARK SMILES CCCCCCCCCCCC(=O)[O-]
REMARK SMILES IDX 7 1 8 2 9 3 10 4 11 5 12 6 13 7 14 8 6 9 5 10 4 11 3 12 2 13
REMARK SMILES IDX 1 14
REMARK H PARENT
REMARK Flexibility Score: inf
ROOT
ATOM      1  C   UNL     1      31.153  -1.898  44.478  1.00  0.00     0.000 C 
ENDROOT
BRANCH   1   2
ATOM      2  C   UNL     1      30.391  -1.348  43.261  1.00  0.00     0.000 C 
BRANCH   2   3
ATOM      3  C   UNL     1      31.280  -0.501  42.338  1.00  0.00     0.000 C 
BRANCH   3   4
ATOM      4  C   UNL     1      32.691  -0.347  42.924  1.00  0.00     0.006 C 
BRANCH   4   5
ATOM      5  C   UNL     1      33.785  -0.585  41.875  1.00  0.00     0.053 C 
BRANCH   5   6
ATOM      6  C   UNL     1      35.060  -1.062  42.500  1.00  0.00     0.041 C 
ATOM      7  O   UNL     1      35.952  -0.236  42.831  1.00  0.00    -0.550 OA
ATOM      8  O   UNL     1      35.278  -2.421  42.688  1.00  0.00    -0.550 OA
ENDBRANCH   5   6
ENDBRANCH   4   5
ENDBRANCH   3   4
ENDBRANCH   2   3
ENDBRANCH   1   2
BRANCH   1   9
ATOM      9  C   UNL     1      30.383  -1.702  45.795  1.00  0.00     0.000 C 
BRANCH   9  10
ATOM     10  C   UNL     1      28.983  -1.105  45.576  1.00  0.00    -0.000 C 
BRANCH  10  11
ATOM     11  C   UNL     1      27.862  -2.141  45.747  1.00  0.00    -0.000 C 
BRANCH  11  12
ATOM     12  C   UNL     1      28.428  -3.491  46.203  1.00  0.00    -0.000 C 
BRANCH  12  13
ATOM     13  C   UNL     1      27.502  -4.157  47.228  1.00  0.00    -0.003 C 
ATOM     14  C   UNL     1      26.310  -3.263  47.557  1.00  0.00     0.004 C 
ENDBRANCH  12  13
ENDBRANCH  11  12
ENDBRANCH  10  11
ENDBRANCH   9  10
ENDBRANCH   1   9
TORSDOF 10
ENDMDL
MODEL 4
REMARK VINA RESULT:    -3.755      0.792      1.364
REMARK INTER + INTRA:          -6.509
REMARK INTER:                  -5.760
REMARK INTRA:                  -0.749
REMARK UNBOUND:                -0.560
REMARK SMILES CCCCCCCCCCCC(=O)[O-]
REMARK SMILES IDX 7 1 8 2 9 3 10 4 11 5 12 6 13 7 14 8 6 9 5 10 4 11 3 12 2 13
REMARK SMILES IDX 1 14
REMARK H PARENT
REMARK Flexibility Score: inf
ROOT
ATOM      1  C   UNL     1      31.880  -0.414  42.196  1.00  0.00     0.000 C 
ENDROOT
BRANCH   1   2
ATOM      2  C   UNL     1      30.855  -1.143  43.080  1.00  0.00     0.000 C 
BRANCH   2   3
ATOM      3  C   UNL     1      31.454  -1.622  44.412  1.00  0.00     0.000 C 
BRANCH   3   4
ATOM      4  C   UNL     1      30.443  -1.459  45.557  1.00  0.00     0.006 C 
BRANCH   4   5
ATOM      5  C   UNL     1      28.992  -1.533  45.067  1.00  0.00     0.053 C 
BRANCH   5   6
ATOM      6  C   UNL     1      28.229  -2.626  45.750  1.00  0.00     0.041 C 
ATOM      7  O   UNL     1      28.607  -3.823  45.649  1.00  0.00    -0.550 OA
ATOM      8  O   UNL     1      27.080  -2.327  46.472  1.00  0.00    -0.550 OA
ENDBRANCH   5   6
ENDBRANCH   4   5
ENDBRANCH   3   4
ENDBRANCH   2   3
ENDBRANCH   1   2
BRANCH   1   9
ATOM      9  C   UNL     1      33.169  -0.058  42.957  1.00  0.00     0.000 C 
BRANCH   9  10
ATOM     10  C   UNL     1      34.435  -0.537  42.229  1.00  0.00    -0.000 C 
BRANCH  10  11
ATOM     11  C   UNL     1      35.687  -0.489  43.119  1.00  0.00    -0.000 C 
BRANCH  11  12
ATOM     12  C   UNL     1      36.459  -1.812  43.050  1.00  0.00    -0.000 C 
BRANCH  12  13
ATOM     13  C   UNL     1      35.567  -2.943  42.527  1.00  0.00    -0.003 C 
ATOM     14  C   UNL     1      35.215  -3.928  43.639  1.00  0.00     0.004 C 
ENDBRANCH  12  13
ENDBRANCH  11  12
ENDBRANCH  10  11
ENDBRANCH   9  10
ENDBRANCH   1   9
TORSDOF 10
ENDMDL
MODEL 5
REMARK VINA RESULT:    -3.726     13.068     15.571
REMARK INTER + INTRA:          -6.465
REMARK INTER:                  -5.260
REMARK INTRA:                  -1.205
REMARK UNBOUND:                -0.560
REMARK SMILES CCCCCCCCCCCC(=O)[O-]
REMARK SMILES IDX 7 1 8 2 9 3 10 4 11 5 12 6 13 7 14 8 6 9 5 10 4 11 3 12 2 13
REMARK SMILES IDX 1 14
REMARK H PARENT
REMARK Flexibility Score: inf
ROOT
ATOM      1  C   UNL     1      21.927 -11.611  45.697  1.00  0.00     0.000 C 
ENDROOT
BRANCH   1   2
ATOM      2  C   UNL     1      22.144 -10.676  44.496  1.00  0.00     0.000 C 
BRANCH   2   3
ATOM      3  C   UNL     1      20.967  -9.715  44.272  1.00  0.00     0.000 C 
BRANCH   3   4
ATOM      4  C   UNL     1      20.651  -9.574  42.775  1.00  0.00     0.006 C 
BRANCH   4   5
ATOM      5  C   UNL     1      20.075  -8.195  42.430  1.00  0.00     0.053 C 
BRANCH   5   6
ATOM      6  C   UNL     1      21.015  -7.090  42.803  1.00  0.00     0.041 C 
ATOM      7  O   UNL     1      20.622  -6.142  43.534  1.00  0.00    -0.550 OA
ATOM      8  O   UNL     1      22.317  -7.089  42.318  1.00  0.00    -0.550 OA
ENDBRANCH   5   6
ENDBRANCH   4   5
ENDBRANCH   3   4
ENDBRANCH   2   3
ENDBRANCH   1   2
BRANCH   1   9
ATOM      9  C   UNL     1      20.498 -11.527  46.260  1.00  0.00     0.000 C 
BRANCH   9  10
ATOM     10  C   UNL     1      19.680 -12.800  45.988  1.00  0.00    -0.000 C 
BRANCH  10  11
ATOM     11  C   UNL     1      20.552 -14.063  45.920  1.00  0.00    -0.000 C 
BRANCH  11  12
ATOM     12  C   UNL     1      20.257 -14.866  44.648  1.00  0.00    -0.000 C 
BRANCH  12  13
ATOM     13  C   UNL     1      20.049 -13.937  43.447  1.00  0.00    -0.003 C 
ATOM     14  C   UNL     1      21.340 -13.766  42.652  1.00  0.00     0.004 C 
ENDBRANCH  12  13
ENDBRANCH  11  12
ENDBRANCH  10  11
ENDBRANCH   9  10
ENDBRANCH   1   9
TORSDOF 10
ENDMDL
MODEL 6
REMARK VINA RESULT:    -3.633      2.762      6.309
REMARK INTER + INTRA:          -6.317
REMARK INTER:                  -5.706
REMARK INTRA:                  -0.611
REMARK UNBOUND:                -0.560
REMARK SMILES CCCCCCCCCCCC(=O)[O-]
REMARK SMILES IDX 7 1 8 2 9 3 10 4 11 5 12 6 13 7 14 8 6 9 5 10 4 11 3 12 2 13
REMARK SMILES IDX 1 14
REMARK H PARENT
REMARK Flexibility Score: inf
ROOT
ATOM      1  C   UNL     1      32.119  -0.744  43.077  1.00  0.00     0.000 C 
ENDROOT
BRANCH   1   2
ATOM      2  C   UNL     1      33.461  -0.022  42.870  1.00  0.00     0.000 C 
BRANCH   2   3
ATOM      3  C   UNL     1      34.379  -0.749  41.876  1.00  0.00     0.000 C 
BRANCH   3   4
ATOM      4  C   UNL     1      35.466  -1.545  42.614  1.00  0.00     0.006 C 
BRANCH   4   5
ATOM      5  C   UNL     1      35.449  -3.033  42.242  1.00  0.00     0.053 C 
BRANCH   5   6
ATOM      6  C   UNL     1      35.577  -3.910  43.451  1.00  0.00     0.041 C 
ATOM      7  O   UNL     1      34.547  -4.339  44.035  1.00  0.00    -0.550 OA
ATOM      8  O   UNL     1      36.833  -4.226  43.952  1.00  0.00    -0.550 OA
ENDBRANCH   5   6
ENDBRANCH   4   5
ENDBRANCH   3   4
ENDBRANCH   2   3
ENDBRANCH   1   2
BRANCH   1   9
ATOM      9  C   UNL     1      31.122  -0.473  41.938  1.00  0.00     0.000 C 
BRANCH   9  10
ATOM     10  C   UNL     1      29.728  -1.056  42.223  1.00  0.00    -0.000 C 
BRANCH  10  11
ATOM     11  C   UNL     1      29.659  -1.804  43.563  1.00  0.00    -0.000 C 
BRANCH  11  12
ATOM     12  C   UNL     1      28.466  -1.325  44.398  1.00  0.00    -0.000 C 
BRANCH  12  13
ATOM     13  C   UNL     1      28.514  -1.913  45.814  1.00  0.00    -0.003 C 
ATOM     14  C   UNL     1      29.928  -1.859  46.384  1.00  0.00     0.004 C 
ENDBRANCH  12  13
ENDBRANCH  11  12
ENDBRANCH  10  11
ENDBRANCH   9  10
ENDBRANCH   1   9
TORSDOF 10
ENDMDL
MODEL 7
REMARK VINA RESULT:    -3.507     13.214     15.899
REMARK INTER + INTRA:          -6.116
REMARK INTER:                  -5.171
REMARK INTRA:                  -0.945
REMARK UNBOUND:                -0.560
REMARK SMILES CCCCCCCCCCCC(=O)[O-]
REMARK SMILES IDX 7 1 8 2 9 3 10 4 11 5 12 6 13 7 14 8 6 9 5 10 4 11 3 12 2 13
REMARK SMILES IDX 1 14
REMARK H PARENT
REMARK Flexibility Score: inf
ROOT
ATOM      1  C   UNL     1      21.822 -12.271  45.404  1.00  0.00     0.000 C 
ENDROOT
BRANCH   1   2
ATOM      2  C   UNL     1      21.549 -10.758  45.398  1.00  0.00     0.000 C 
BRANCH   2   3
ATOM      3  C   UNL     1      20.242 -10.394  44.678  1.00  0.00     0.000 C 
BRANCH   3   4
ATOM      4  C   UNL     1      20.528  -9.755  43.311  1.00  0.00     0.006 C 
BRANCH   4   5
ATOM      5  C   UNL     1      19.898  -8.363  43.176  1.00  0.00     0.053 C 
BRANCH   5   6
ATOM      6  C   UNL     1      20.938  -7.294  43.035  1.00  0.00     0.041 C 
ATOM      7  O   UNL     1      22.085  -7.577  42.599  1.00  0.00    -0.550 OA
ATOM      8  O   UNL     1      20.652  -5.988  43.417  1.00  0.00    -0.550 OA
ENDBRANCH   5   6
ENDBRANCH   4   5
ENDBRANCH   3   4
ENDBRANCH   2   3
ENDBRANCH   1   2
BRANCH   1   9
ATOM      9  C   UNL     1      22.488 -12.756  44.106  1.00  0.00     0.000 C 
BRANCH   9  10
ATOM     10  C   UNL     1      21.710 -13.900  43.435  1.00  0.00    -0.000 C 
BRANCH  10  11
ATOM     11  C   UNL     1      20.216 -13.584  43.267  1.00  0.00    -0.000 C 
BRANCH  11  12
ATOM     12  C   UNL     1      19.349 -14.723  43.816  1.00  0.00    -0.000 C 
BRANCH  12  13
ATOM     13  C   UNL     1      20.034 -15.412  45.002  1.00  0.00    -0.003 C 
ATOM     14  C   UNL     1      19.394 -14.997  46.324  1.00  0.00     0.004 C 
ENDBRANCH  12  13
ENDBRANCH  11  12
ENDBRANCH  10  11
ENDBRANCH   9  10
ENDBRANCH   1   9
TORSDOF 10
ENDMDL
MODEL 8
REMARK VINA RESULT:    -3.415     12.739     15.754
REMARK INTER + INTRA:          -5.970
REMARK INTER:                  -4.913
REMARK INTRA:                  -1.058
REMARK UNBOUND:                -0.560
REMARK SMILES CCCCCCCCCCCC(=O)[O-]
REMARK SMILES IDX 7 1 8 2 9 3 10 4 11 5 12 6 13 7 14 8 6 9 5 10 4 11 3 12 2 13
REMARK SMILES IDX 1 14
REMARK H PARENT
REMARK Flexibility Score: inf
ROOT
ATOM      1  C   UNL     1      21.811 -11.452  45.891  1.00  0.00     0.000 C 
ENDROOT
BRANCH   1   2
ATOM      2  C   UNL     1      20.362 -11.473  46.406  1.00  0.00     0.000 C 
BRANCH   2   3
ATOM      3  C   UNL     1      19.842 -12.896  46.658  1.00  0.00     0.000 C 
BRANCH   3   4
ATOM      4  C   UNL     1      20.822 -13.944  46.109  1.00  0.00     0.006 C 
BRANCH   4   5
ATOM      5  C   UNL     1      20.225 -14.744  44.944  1.00  0.00     0.053 C 
BRANCH   5   6
ATOM      6  C   UNL     1      20.449 -14.063  43.629  1.00  0.00     0.041 C 
ATOM      7  O   UNL     1      19.469 -13.660  42.948  1.00  0.00    -0.550 OA
ATOM      8  O   UNL     1      21.739 -13.902  43.139  1.00  0.00    -0.550 OA
ENDBRANCH   5   6
ENDBRANCH   4   5
ENDBRANCH   3   4
ENDBRANCH   2   3
ENDBRANCH   1   2
BRANCH   1   9
ATOM      9  C   UNL     1      21.951 -10.708  44.552  1.00  0.00     0.000 C 
BRANCH   9  10
ATOM     10  C   UNL     1      20.658  -9.985  44.141  1.00  0.00    -0.000 C 
BRANCH  10  11
ATOM     11  C   UNL     1      20.392 -10.058  42.629  1.00  0.00    -0.000 C 
BRANCH  11  12
ATOM     12  C   UNL     1      20.205  -8.656  42.038  1.00  0.00    -0.000 C 
BRANCH  12  13
ATOM     13  C   UNL     1      20.930  -7.601  42.882  1.00  0.00    -0.003 C 
ATOM     14  C   UNL     1      22.202  -7.120  42.189  1.00  0.00     0.004 C 
ENDBRANCH  12  13
ENDBRANCH  11  12
ENDBRANCH  10  11
ENDBRANCH   9  10
ENDBRANCH   1   9
TORSDOF 10
ENDMDL
MODEL 9
REMARK VINA RESULT:    -3.389      1.356      2.117
REMARK INTER + INTRA:          -5.930
REMARK INTER:                  -5.462
REMARK INTRA:                  -0.468
REMARK UNBOUND:                -0.560
REMARK SMILES CCCCCCCCCCCC(=O)[O-]
REMARK SMILES IDX 7 1 8 2 9 3 10 4 11 5 12 6 13 7 14 8 6 9 5 10 4 11 3 12 2 13
REMARK SMILES IDX 1 14
REMARK H PARENT
REMARK Flexibility Score: inf
ROOT
ATOM      1  C   UNL     1      33.958  -0.912  42.162  1.00  0.00     0.000 C 
ENDROOT
BRANCH   1   2
ATOM      2  C   UNL     1      32.743  -0.255  42.838  1.00  0.00     0.000 C 
BRANCH   2   3
ATOM      3  C   UNL     1      31.494  -0.254  41.942  1.00  0.00     0.000 C 
BRANCH   3   4
ATOM      4  C   UNL     1      30.370  -1.094  42.567  1.00  0.00     0.006 C 
BRANCH   4   5
ATOM      5  C   UNL     1      30.708  -1.548  43.993  1.00  0.00     0.053 C 
BRANCH   5   6
ATOM      6  C   UNL     1      29.474  -1.784  44.808  1.00  0.00     0.041 C 
ATOM      7  O   UNL     1      28.708  -2.747  44.536  1.00  0.00    -0.550 OA
ATOM      8  O   UNL     1      29.151  -0.922  45.850  1.00  0.00    -0.550 OA
ENDBRANCH   5   6
ENDBRANCH   4   5
ENDBRANCH   3   4
ENDBRANCH   2   3
ENDBRANCH   1   2
BRANCH   1   9
ATOM      9  C   UNL     1      35.291  -0.288  42.610  1.00  0.00     0.000 C 
BRANCH   9  10
ATOM     10  C   UNL     1      36.506  -1.140  42.207  1.00  0.00    -0.000 C 
BRANCH  10  11
ATOM     11  C   UNL     1      37.133  -1.881  43.397  1.00  0.00    -0.000 C 
BRANCH  11  12
ATOM     12  C   UNL     1      36.502  -3.267  43.575  1.00  0.00    -0.000 C 
BRANCH  12  13
ATOM     13  C   UNL     1      37.580  -4.353  43.676  1.00  0.00    -0.003 C 
ATOM     14  C   UNL     1      38.957  -3.797  43.327  1.00  0.00     0.004 C 
ENDBRANCH  12  13
ENDBRANCH  11  12
ENDBRANCH  10  11
ENDBRANCH   9  10
ENDBRANCH   1   9
TORSDOF 10
ENDMDL
