MODEL 1
REMARK VINA RESULT:    -4.915      0.000      0.000
REMARK INTER + INTRA:          -8.057
REMARK INTER:                  -6.639
REMARK INTRA:                  -1.418
REMARK UNBOUND:                -1.418
REMARK SMILES CC(=O)CCC=C(C)CCC=C(C)C
REMARK SMILES IDX 7 1 6 2 8 3 9 4 10 5 11 6 13 7 12 8 14 9 5 10 4 11 2 12 3 13
REMARK SMILES IDX 1 14
REMARK H PARENT
REMARK Flexibility Score: inf
ROOT
ATOM      1  C   UNL     1      21.755   9.245 -25.793  1.00  0.00    -0.077 C 
ATOM      2  C   UNL     1      20.944   9.200 -24.711  1.00  0.00    -0.028 C 
ATOM      3  C   UNL     1      21.416   8.521 -27.076  1.00  0.00     0.039 C 
ENDROOT
BRANCH   1   4
ATOM      4  C   UNL     1      23.047  10.028 -25.711  1.00  0.00     0.034 C 
BRANCH   4   5
ATOM      5  C   UNL     1      22.767  11.531 -25.604  1.00  0.00     0.032 C 
BRANCH   5   6
ATOM      6  C   UNL     1      21.946  12.006 -26.777  1.00  0.00    -0.028 C 
ATOM      7  C   UNL     1      20.036  12.756 -25.340  1.00  0.00     0.039 C 
ATOM      8  C   UNL     1      20.730  12.588 -26.669  1.00  0.00    -0.080 C 
ATOM      9  C   UNL     1      20.008  13.052 -27.908  1.00  0.00     0.039 C 
ENDBRANCH   5   6
ENDBRANCH   4   5
ENDBRANCH   1   4
BRANCH   2  10
ATOM     10  C   UNL     1      19.615   8.487 -24.668  1.00  0.00     0.035 C 
BRANCH  10  11
ATOM     11  C   UNL     1      18.471   9.454 -24.990  1.00  0.00     0.079 C 
BRANCH  11  12
ATOM     12  C   UNL     1      17.910   9.179 -26.358  1.00  0.00     0.130 C 
ATOM     13  O   UNL     1      17.748   8.025 -26.727  1.00  0.00    -0.300 OA
ATOM     14  C   UNL     1      17.573  10.310 -27.282  1.00  0.00     0.087 C 
ENDBRANCH  11  12
ENDBRANCH  10  11
ENDBRANCH   2  10
TORSDOF 6
ENDMDL
MODEL 2
REMARK VINA RESULT:    -4.759      2.365      5.367
REMARK INTER + INTRA:          -7.846
REMARK INTER:                  -7.112
REMARK INTRA:                  -0.734
REMARK UNBOUND:                -1.418
REMARK SMILES CC(=O)CCC=C(C)CCC=C(C)C
REMARK SMILES IDX 7 1 6 2 8 3 9 4 10 5 11 6 13 7 12 8 14 9 5 10 4 11 2 12 3 13
REMARK SMILES IDX 1 14
REMARK H PARENT
REMARK Flexibility Score: inf
ROOT
ATOM      1  C   UNL     1      20.161   9.820 -25.248  1.00  0.00    -0.077 C 
ATOM      2  C   UNL     1      19.605  10.982 -25.660  1.00  0.00    -0.028 C 
ATOM      3  C   UNL     1      21.516   9.776 -24.579  1.00  0.00     0.039 C 
ENDROOT
BRANCH   1   4
ATOM      4  C   UNL     1      19.414   8.525 -25.480  1.00  0.00     0.034 C 
BRANCH   4   5
ATOM      5  C   UNL     1      18.426   8.255 -24.340  1.00  0.00     0.032 C 
BRANCH   5   6
ATOM      6  C   UNL     1      17.004   8.353 -24.830  1.00  0.00    -0.028 C 
ATOM      7  C   UNL     1      16.775   5.879 -25.150  1.00  0.00     0.039 C 
ATOM      8  C   UNL     1      16.239   7.290 -25.168  1.00  0.00    -0.080 C 
ATOM      9  C   UNL     1      14.817   7.501 -25.620  1.00  0.00     0.039 C 
ENDBRANCH   5   6
ENDBRANCH   4   5
ENDBRANCH   1   4
BRANCH   2  10
ATOM     10  C   UNL     1      20.224  12.343 -25.462  1.00  0.00     0.035 C 
BRANCH  10  11
ATOM     11  C   UNL     1      20.603  12.968 -26.809  1.00  0.00     0.079 C 
BRANCH  11  12
ATOM     12  C   UNL     1      21.762  12.235 -27.428  1.00  0.00     0.130 C 
ATOM     13  O   UNL     1      21.598  11.600 -28.459  1.00  0.00    -0.300 OA
ATOM     14  C   UNL     1      23.111  12.258 -26.775  1.00  0.00     0.087 C 
ENDBRANCH  11  12
ENDBRANCH  10  11
ENDBRANCH   2  10
TORSDOF 6
ENDMDL
MODEL 3
REMARK VINA RESULT:    -4.727      2.716      5.648
REMARK INTER + INTRA:          -7.803
REMARK INTER:                  -6.944
REMARK INTRA:                  -0.859
REMARK UNBOUND:                -1.418
REMARK SMILES CC(=O)CCC=C(C)CCC=C(C)C
REMARK SMILES IDX 7 1 6 2 8 3 9 4 10 5 11 6 13 7 12 8 14 9 5 10 4 11 2 12 3 13
REMARK SMILES IDX 1 14
REMARK H PARENT
REMARK Flexibility Score: inf
ROOT
ATOM      1  C   UNL     1      19.722   8.591 -25.078  1.00  0.00    -0.077 C 
ATOM      2  C   UNL     1      20.808   9.159 -24.504  1.00  0.00    -0.028 C 
ATOM      3  C   UNL     1      19.659   8.307 -26.561  1.00  0.00     0.039 C 
ENDROOT
BRANCH   1   4
ATOM      4  C   UNL     1      18.528   8.248 -24.213  1.00  0.00     0.034 C 
BRANCH   4   5
ATOM      5  C   UNL     1      18.230   6.746 -24.269  1.00  0.00     0.032 C 
BRANCH   5   6
ATOM      6  C   UNL     1      16.750   6.490 -24.143  1.00  0.00    -0.028 C 
ATOM      7  C   UNL     1      16.461   6.028 -26.589  1.00  0.00     0.039 C 
ATOM      8  C   UNL     1      15.949   6.135 -25.174  1.00  0.00    -0.080 C 
ATOM      9  C   UNL     1      14.484   5.875 -24.930  1.00  0.00     0.039 C 
ENDBRANCH   5   6
ENDBRANCH   4   5
ENDBRANCH   1   4
BRANCH   2  10
ATOM     10  C   UNL     1      22.073   9.519 -25.242  1.00  0.00     0.035 C 
BRANCH  10  11
ATOM     11  C   UNL     1      22.296  11.035 -25.229  1.00  0.00     0.079 C 
BRANCH  11  12
ATOM     12  C   UNL     1      21.373  11.717 -26.202  1.00  0.00     0.130 C 
ATOM     13  O   UNL     1      21.533  11.559 -27.403  1.00  0.00    -0.300 OA
ATOM     14  C   UNL     1      20.275  12.610 -25.709  1.00  0.00     0.087 C 
ENDBRANCH  11  12
ENDBRANCH  10  11
ENDBRANCH   2  10
TORSDOF 6
ENDMDL
MODEL 4
REMARK VINA RESULT:    -4.586      1.527      3.900
REMARK INTER + INTRA:          -7.612
REMARK INTER:                  -6.176
REMARK INTRA:                  -1.436
REMARK UNBOUND:                -1.418
REMARK SMILES CC(=O)CCC=C(C)CCC=C(C)C
REMARK SMILES IDX 7 1 6 2 8 3 9 4 10 5 11 6 13 7 12 8 14 9 5 10 4 11 2 12 3 13
REMARK SMILES IDX 1 14
REMARK H PARENT
REMARK Flexibility Score: inf
ROOT
ATOM      1  C   UNL     1      21.069  11.867 -26.098  1.00  0.00    -0.077 C 
ATOM      2  C   UNL     1      20.976  11.636 -27.428  1.00  0.00    -0.028 C 
ATOM      3  C   UNL     1      20.047  12.701 -25.361  1.00  0.00     0.039 C 
ENDROOT
BRANCH   1   4
ATOM      4  C   UNL     1      22.238  11.289 -25.331  1.00  0.00     0.034 C 
BRANCH   4   5
ATOM      5  C   UNL     1      22.174   9.759 -25.315  1.00  0.00     0.032 C 
BRANCH   5   6
ATOM      6  C   UNL     1      20.961   9.282 -24.558  1.00  0.00    -0.028 C 
ATOM      7  C   UNL     1      19.962   8.149 -26.557  1.00  0.00     0.039 C 
ATOM      8  C   UNL     1      19.974   8.530 -25.097  1.00  0.00    -0.080 C 
ATOM      9  C   UNL     1      18.818   8.083 -24.240  1.00  0.00     0.039 C 
ENDBRANCH   5   6
ENDBRANCH   4   5
ENDBRANCH   1   4
BRANCH   2  10
ATOM     10  C   UNL     1      19.849  12.122 -28.304  1.00  0.00     0.035 C 
BRANCH  10  11
ATOM     11  C   UNL     1      19.059  10.940 -28.878  1.00  0.00     0.079 C 
BRANCH  11  12
ATOM     12  C   UNL     1      17.647  10.943 -28.360  1.00  0.00     0.130 C 
ATOM     13  O   UNL     1      16.731  11.279 -29.097  1.00  0.00    -0.300 OA
ATOM     14  C   UNL     1      17.358  10.562 -26.940  1.00  0.00     0.087 C 
ENDBRANCH  11  12
ENDBRANCH  10  11
ENDBRANCH   2  10
TORSDOF 6
ENDMDL
MODEL 5
REMARK VINA RESULT:    -4.574      1.659      3.438
REMARK INTER + INTRA:          -7.596
REMARK INTER:                  -6.530
REMARK INTRA:                  -1.066
REMARK UNBOUND:                -1.418
REMARK SMILES CC(=O)CCC=C(C)CCC=C(C)C
REMARK SMILES IDX 7 1 6 2 8 3 9 4 10 5 11 6 13 7 12 8 14 9 5 10 4 11 2 12 3 13
REMARK SMILES IDX 1 14
REMARK H PARENT
REMARK Flexibility Score: inf
ROOT
ATOM      1  C   UNL     1      20.049  11.805 -26.570  1.00  0.00    -0.077 C 
ATOM      2  C   UNL     1      19.269  10.705 -26.680  1.00  0.00    -0.028 C 
ATOM      3  C   UNL     1      20.070  12.646 -25.314  1.00  0.00     0.039 C 
ENDROOT
BRANCH   1   4
ATOM      4  C   UNL     1      20.911  12.216 -27.744  1.00  0.00     0.034 C 
BRANCH   4   5
ATOM      5  C   UNL     1      22.377  11.847 -27.498  1.00  0.00     0.032 C 
BRANCH   5   6
ATOM      6  C   UNL     1      22.695  10.495 -28.086  1.00  0.00    -0.028 C 
ATOM      7  C   UNL     1      22.748   9.359 -25.854  1.00  0.00     0.039 C 
ATOM      8  C   UNL     1      22.833   9.362 -27.360  1.00  0.00    -0.080 C 
ATOM      9  C   UNL     1      23.123   8.057 -28.055  1.00  0.00     0.039 C 
ENDBRANCH   5   6
ENDBRANCH   4   5
ENDBRANCH   1   4
BRANCH   2  10
ATOM     10  C   UNL     1      18.391  10.166 -25.579  1.00  0.00     0.035 C 
BRANCH  10  11
ATOM     11  C   UNL     1      19.071   8.991 -24.868  1.00  0.00     0.079 C 
BRANCH  11  12
ATOM     12  C   UNL     1      18.050   7.996 -24.388  1.00  0.00     0.130 C 
ATOM     13  O   UNL     1      18.398   7.063 -23.680  1.00  0.00    -0.300 OA
ATOM     14  C   UNL     1      16.613   8.127 -24.795  1.00  0.00     0.087 C 
ENDBRANCH  11  12
ENDBRANCH  10  11
ENDBRANCH   2  10
TORSDOF 6
ENDMDL
MODEL 6
REMARK VINA RESULT:    -4.573     15.627     17.601
REMARK INTER + INTRA:          -7.595
REMARK INTER:                  -6.924
REMARK INTRA:                  -0.671
REMARK UNBOUND:                -1.418
REMARK SMILES CC(=O)CCC=C(C)CCC=C(C)C
REMARK SMILES IDX 7 1 6 2 8 3 9 4 10 5 11 6 13 7 12 8 14 9 5 10 4 11 2 12 3 13
REMARK SMILES IDX 1 14
REMARK H PARENT
REMARK Flexibility Score: inf
ROOT
ATOM      1  C   UNL     1       9.283  22.050 -22.599  1.00  0.00    -0.077 C 
ATOM      2  C   UNL     1       8.609  22.917 -21.809  1.00  0.00    -0.028 C 
ATOM      3  C   UNL     1       9.643  22.385 -24.028  1.00  0.00     0.039 C 
ENDROOT
BRANCH   1   4
ATOM      4  C   UNL     1       9.671  20.698 -22.041  1.00  0.00     0.034 C 
BRANCH   4   5
ATOM      5  C   UNL     1      10.788  20.839 -21.001  1.00  0.00     0.032 C 
BRANCH   5   6
ATOM      6  C   UNL     1      10.328  20.345 -19.653  1.00  0.00    -0.028 C 
ATOM      7  C   UNL     1      11.417  18.105 -19.925  1.00  0.00     0.039 C 
ATOM      8  C   UNL     1      10.631  19.129 -19.144  1.00  0.00    -0.080 C 
ATOM      9  C   UNL     1      10.142  18.748 -17.770  1.00  0.00     0.039 C 
ENDBRANCH   5   6
ENDBRANCH   4   5
ENDBRANCH   1   4
BRANCH   2  10
ATOM     10  C   UNL     1       8.192  24.306 -22.226  1.00  0.00     0.035 C 
BRANCH  10  11
ATOM     11  C   UNL     1       6.669  24.394 -22.373  1.00  0.00     0.079 C 
BRANCH  11  12
ATOM     12  C   UNL     1       6.294  24.919 -23.732  1.00  0.00     0.130 C 
ATOM     13  O   UNL     1       5.969  26.090 -23.861  1.00  0.00    -0.300 OA
ATOM     14  C   UNL     1       6.292  24.010 -24.923  1.00  0.00     0.087 C 
ENDBRANCH  11  12
ENDBRANCH  10  11
ENDBRANCH   2  10
TORSDOF 6
ENDMDL
MODEL 7
REMARK VINA RESULT:    -4.555      2.038      3.051
REMARK INTER + INTRA:          -7.570
REMARK INTER:                  -6.770
REMARK INTRA:                  -0.800
REMARK UNBOUND:                -1.418
REMARK SMILES CC(=O)CCC=C(C)CCC=C(C)C
REMARK SMILES IDX 7 1 6 2 8 3 9 4 10 5 11 6 13 7 12 8 14 9 5 10 4 11 2 12 3 13
REMARK SMILES IDX 1 14
REMARK H PARENT
REMARK Flexibility Score: inf
ROOT
ATOM      1  C   UNL     1      20.781  10.739 -25.415  1.00  0.00    -0.077 C 
ATOM      2  C   UNL     1      19.678   9.995 -25.666  1.00  0.00    -0.028 C 
ATOM      3  C   UNL     1      22.060  10.120 -24.900  1.00  0.00     0.039 C 
ENDROOT
BRANCH   1   4
ATOM      4  C   UNL     1      20.726  12.234 -25.640  1.00  0.00     0.034 C 
BRANCH   4   5
ATOM      5  C   UNL     1      20.709  12.559 -27.137  1.00  0.00     0.032 C 
BRANCH   5   6
ATOM      6  C   UNL     1      21.912  11.966 -27.826  1.00  0.00    -0.028 C 
ATOM      7  C   UNL     1      20.532  10.637 -29.439  1.00  0.00     0.039 C 
ATOM      8  C   UNL     1      21.847  11.125 -28.883  1.00  0.00    -0.080 C 
ATOM      9  C   UNL     1      23.116  10.613 -29.514  1.00  0.00     0.039 C 
ENDBRANCH   5   6
ENDBRANCH   4   5
ENDBRANCH   1   4
BRANCH   2  10
ATOM     10  C   UNL     1      19.607   8.496 -25.518  1.00  0.00     0.035 C 
BRANCH  10  11
ATOM     11  C   UNL     1      19.177   8.111 -24.098  1.00  0.00     0.079 C 
BRANCH  11  12
ATOM     12  C   UNL     1      17.880   7.350 -24.122  1.00  0.00     0.130 C 
ATOM     13  O   UNL     1      16.830   7.933 -23.900  1.00  0.00    -0.300 OA
ATOM     14  C   UNL     1      17.871   5.875 -24.390  1.00  0.00     0.087 C 
ENDBRANCH  11  12
ENDBRANCH  10  11
ENDBRANCH   2  10
TORSDOF 6
ENDMDL
MODEL 8
REMARK VINA RESULT:    -4.530     14.161     16.120
REMARK INTER + INTRA:          -7.536
REMARK INTER:                  -6.688
REMARK INTRA:                  -0.849
REMARK UNBOUND:                -1.418
REMARK SMILES CC(=O)CCC=C(C)CCC=C(C)C
REMARK SMILES IDX 7 1 6 2 8 3 9 4 10 5 11 6 13 7 12 8 14 9 5 10 4 11 2 12 3 13
REMARK SMILES IDX 1 14
REMARK H PARENT
REMARK Flexibility Score: inf
ROOT
ATOM      1  C   UNL     1      10.926  19.990 -21.387  1.00  0.00    -0.077 C 
ATOM      2  C   UNL     1       9.933  20.538 -22.124  1.00  0.00    -0.028 C 
ATOM      3  C   UNL     1      11.562  20.727 -20.231  1.00  0.00     0.039 C 
ENDROOT
BRANCH   1   4
ATOM      4  C   UNL     1      11.427  18.607 -21.742  1.00  0.00     0.034 C 
BRANCH   4   5
ATOM      5  C   UNL     1      11.348  17.673 -20.530  1.00  0.00     0.032 C 
BRANCH   5   6
ATOM      6  C   UNL     1       9.919  17.287 -20.245  1.00  0.00    -0.028 C 
ATOM      7  C   UNL     1       9.934  18.304 -17.955  1.00  0.00     0.039 C 
ATOM      8  C   UNL     1       9.261  17.593 -19.103  1.00  0.00    -0.080 C 
ATOM      9  C   UNL     1       7.821  17.181 -18.934  1.00  0.00     0.039 C 
ENDBRANCH   5   6
ENDBRANCH   4   5
ENDBRANCH   1   4
BRANCH   2  10
ATOM     10  C   UNL     1       9.318  21.890 -21.860  1.00  0.00     0.035 C 
BRANCH  10  11
ATOM     11  C   UNL     1       9.250  22.716 -23.148  1.00  0.00     0.079 C 
BRANCH  11  12
ATOM     12  C   UNL     1       8.009  23.566 -23.171  1.00  0.00     0.130 C 
ATOM     13  O   UNL     1       7.206  23.443 -24.084  1.00  0.00    -0.300 OA
ATOM     14  C   UNL     1       7.764  24.580 -22.095  1.00  0.00     0.087 C 
ENDBRANCH  11  12
ENDBRANCH  10  11
ENDBRANCH   2  10
TORSDOF 6
ENDMDL
MODEL 9
REMARK VINA RESULT:    -4.468     16.134     17.943
REMARK INTER + INTRA:          -7.452
REMARK INTER:                  -6.985
REMARK INTRA:                  -0.467
REMARK UNBOUND:                -1.418
REMARK SMILES CC(=O)CCC=C(C)CCC=C(C)C
REMARK SMILES IDX 7 1 6 2 8 3 9 4 10 5 11 6 13 7 12 8 14 9 5 10 4 11 2 12 3 13
REMARK SMILES IDX 1 14
REMARK H PARENT
REMARK Flexibility Score: inf
ROOT
ATOM      1  C   UNL     1       8.645  21.802 -22.112  1.00  0.00    -0.077 C 
ATOM      2  C   UNL     1       9.603  21.379 -21.256  1.00  0.00    -0.028 C 
ATOM      3  C   UNL     1       7.409  20.979 -22.397  1.00  0.00     0.039 C 
ENDROOT
BRANCH   1   4
ATOM      4  C   UNL     1       8.823  23.128 -22.819  1.00  0.00     0.034 C 
BRANCH   4   5
ATOM      5  C   UNL     1       8.060  24.239 -22.091  1.00  0.00     0.032 C 
BRANCH   5   6
ATOM      6  C   UNL     1       6.973  24.805 -22.970  1.00  0.00    -0.028 C 
ATOM      7  C   UNL     1       5.455  25.309 -21.042  1.00  0.00     0.039 C 
ATOM      8  C   UNL     1       5.811  25.319 -22.509  1.00  0.00    -0.080 C 
ATOM      9  C   UNL     1       4.804  25.886 -23.476  1.00  0.00     0.039 C 
ENDBRANCH   5   6
ENDBRANCH   4   5
ENDBRANCH   1   4
BRANCH   2  10
ATOM     10  C   UNL     1       9.536  20.098 -20.462  1.00  0.00     0.035 C 
BRANCH  10  11
ATOM     11  C   UNL     1      10.444  20.175 -19.230  1.00  0.00     0.079 C 
BRANCH  11  12
ATOM     12  C   UNL     1      10.341  18.915 -18.414  1.00  0.00     0.130 C 
ATOM     13  O   UNL     1      10.252  18.987 -17.197  1.00  0.00    -0.300 OA
ATOM     14  C   UNL     1      10.372  17.573 -19.081  1.00  0.00     0.087 C 
ENDBRANCH  11  12
ENDBRANCH  10  11
ENDBRANCH   2  10
TORSDOF 6
ENDMDL
