MODEL 1
REMARK VINA RESULT:     8.461      0.000      0.000
REMARK INTER + INTRA:          14.345
REMARK INTER:                  14.892
REMARK INTRA:                  -0.546
REMARK UNBOUND:                -0.546
REMARK SMILES CCCCCCC=CCCCCCCCC(=O)[O-]
REMARK SMILES IDX 10 1 11 2 12 3 13 4 14 5 15 6 16 7 17 8 18 9 9 10 8 11 7 12
REMARK SMILES IDX 6 13 5 14 4 15 3 16 2 17 1 18
REMARK H PARENT
REMARK Flexibility Score: inf
ROOT
ATOM      1  C   UNL     1     -10.716  19.281 -16.176  1.00  0.00     0.004 C 
ENDROOT
BRANCH   1   2
ATOM      2  C   UNL     1     -11.078  19.990 -17.488  1.00  0.00     0.000 C 
BRANCH   2   3
ATOM      3  C   UNL     1     -11.675  19.004 -18.499  1.00  0.00     0.000 C 
BRANCH   3   4
ATOM      4  C   UNL     1     -12.054  19.718 -19.805  1.00  0.00     0.000 C 
BRANCH   4   5
ATOM      5  C   UNL     1     -13.574  19.780 -20.040  1.00  0.00     0.006 C 
BRANCH   5   6
ATOM      6  C   UNL     1     -13.994  20.751 -21.159  1.00  0.00     0.053 C 
BRANCH   6   7
ATOM      7  C   UNL     1     -13.494  20.331 -22.507  1.00  0.00     0.041 C 
ATOM      8  O   UNL     1     -12.582  20.985 -23.080  1.00  0.00    -0.550 OA
ATOM      9  O   UNL     1     -14.014  19.198 -23.121  1.00  0.00    -0.550 OA
ENDBRANCH   6   7
ENDBRANCH   5   6
ENDBRANCH   4   5
ENDBRANCH   3   4
ENDBRANCH   2   3
ENDBRANCH   1   2
BRANCH   1  10
ATOM     10  C   UNL     1     -11.893  19.233 -15.192  1.00  0.00     0.027 C 
BRANCH  10  11
ATOM     11  C   UNL     1     -11.588  19.989 -13.921  1.00  0.00    -0.031 C 
ATOM     12  C   UNL     1     -12.160  19.770 -12.721  1.00  0.00    -0.031 C 
BRANCH  12  13
ATOM     13  C   UNL     1     -13.177  18.696 -12.417  1.00  0.00     0.027 C 
BRANCH  13  14
ATOM     14  C   UNL     1     -13.058  18.193 -10.972  1.00  0.00     0.004 C 
BRANCH  14  15
ATOM     15  C   UNL     1     -13.439  19.272  -9.945  1.00  0.00     0.000 C 
BRANCH  15  16
ATOM     16  C   UNL     1     -12.715  19.092  -8.601  1.00  0.00    -0.000 C 
BRANCH  16  17
ATOM     17  C   UNL     1     -12.990  20.242  -7.621  1.00  0.00    -0.003 C 
ATOM     18  C   UNL     1     -12.011  21.392  -7.837  1.00  0.00     0.004 C 
ENDBRANCH  16  17
ENDBRANCH  15  16
ENDBRANCH  14  15
ENDBRANCH  13  14
ENDBRANCH  12  13
ENDBRANCH  10  11
ENDBRANCH   1  10
TORSDOF 13
ENDMDL
MODEL 2
REMARK VINA RESULT:     8.558      1.423      1.865
REMARK INTER + INTRA:          14.516
REMARK INTER:                  15.095
REMARK INTRA:                  -0.579
REMARK UNBOUND:                -0.546
REMARK SMILES CCCCCCC=CCCCCCCCC(=O)[O-]
REMARK SMILES IDX 10 1 11 2 12 3 13 4 14 5 15 6 16 7 17 8 18 9 9 10 8 11 7 12
REMARK SMILES IDX 6 13 5 14 4 15 3 16 2 17 1 18
REMARK H PARENT
REMARK Flexibility Score: inf
ROOT
ATOM      1  C   UNL     1     -13.337  18.228 -15.850  1.00  0.00     0.004 C 
ENDROOT
BRANCH   1   2
ATOM      2  C   UNL     1     -14.620  17.954 -16.646  1.00  0.00     0.000 C 
BRANCH   2   3
ATOM      3  C   UNL     1     -14.306  17.696 -18.124  1.00  0.00     0.000 C 
BRANCH   3   4
ATOM      4  C   UNL     1     -14.651  18.923 -18.982  1.00  0.00     0.000 C 
BRANCH   4   5
ATOM      5  C   UNL     1     -13.626  19.185 -20.100  1.00  0.00     0.006 C 
BRANCH   5   6
ATOM      6  C   UNL     1     -13.885  20.480 -20.892  1.00  0.00     0.053 C 
BRANCH   6   7
ATOM      7  C   UNL     1     -13.648  20.316 -22.363  1.00  0.00     0.041 C 
ATOM      8  O   UNL     1     -14.028  19.273 -22.957  1.00  0.00    -0.550 OA
ATOM      9  O   UNL     1     -13.034  21.331 -23.086  1.00  0.00    -0.550 OA
ENDBRANCH   6   7
ENDBRANCH   5   6
ENDBRANCH   4   5
ENDBRANCH   3   4
ENDBRANCH   2   3
ENDBRANCH   1   2
BRANCH   1  10
ATOM     10  C   UNL     1     -13.607  18.996 -14.549  1.00  0.00     0.027 C 
BRANCH  10  11
ATOM     11  C   UNL     1     -12.330  19.286 -13.797  1.00  0.00    -0.031 C 
ATOM     12  C   UNL     1     -12.201  19.326 -12.457  1.00  0.00    -0.031 C 
BRANCH  12  13
ATOM     13  C   UNL     1     -13.299  19.042 -11.460  1.00  0.00     0.027 C 
BRANCH  13  14
ATOM     14  C   UNL     1     -12.942  17.866 -10.541  1.00  0.00     0.004 C 
BRANCH  14  15
ATOM     15  C   UNL     1     -12.674  18.315  -9.095  1.00  0.00     0.000 C 
BRANCH  15  16
ATOM     16  C   UNL     1     -13.377  19.636  -8.747  1.00  0.00    -0.000 C 
BRANCH  16  17
ATOM     17  C   UNL     1     -12.926  20.209  -7.395  1.00  0.00    -0.003 C 
ATOM     18  C   UNL     1     -11.894  21.317  -7.586  1.00  0.00     0.004 C 
ENDBRANCH  16  17
ENDBRANCH  15  16
ENDBRANCH  14  15
ENDBRANCH  13  14
ENDBRANCH  12  13
ENDBRANCH  10  11
ENDBRANCH   1  10
TORSDOF 13
ENDMDL
MODEL 3
REMARK VINA RESULT:     8.759      5.342     10.630
REMARK INTER + INTRA:          14.869
REMARK INTER:                  15.218
REMARK INTRA:                  -0.348
REMARK UNBOUND:                -0.546
REMARK SMILES CCCCCCC=CCCCCCCCC(=O)[O-]
REMARK SMILES IDX 10 1 11 2 12 3 13 4 14 5 15 6 16 7 17 8 18 9 9 10 8 11 7 12
REMARK SMILES IDX 6 13 5 14 4 15 3 16 2 17 1 18
REMARK H PARENT
REMARK Flexibility Score: inf
ROOT
ATOM      1  C   UNL     1     -11.754  19.619 -13.921  1.00  0.00     0.004 C 
ENDROOT
BRANCH   1   2
ATOM      2  C   UNL     1     -12.870  18.888 -13.161  1.00  0.00     0.000 C 
BRANCH   2   3
ATOM      3  C   UNL     1     -12.895  19.305 -11.686  1.00  0.00     0.000 C 
BRANCH   3   4
ATOM      4  C   UNL     1     -12.964  18.075 -10.769  1.00  0.00     0.000 C 
BRANCH   4   5
ATOM      5  C   UNL     1     -12.878  18.430  -9.274  1.00  0.00     0.006 C 
BRANCH   5   6
ATOM      6  C   UNL     1     -13.353  19.857  -8.943  1.00  0.00     0.053 C 
BRANCH   6   7
ATOM      7  C   UNL     1     -12.703  20.414  -7.714  1.00  0.00     0.041 C 
ATOM      8  O   UNL     1     -12.927  19.899  -6.587  1.00  0.00    -0.550 OA
ATOM      9  O   UNL     1     -11.824  21.485  -7.816  1.00  0.00    -0.550 OA
ENDBRANCH   6   7
ENDBRANCH   5   6
ENDBRANCH   4   5
ENDBRANCH   3   4
ENDBRANCH   2   3
ENDBRANCH   1   2
BRANCH   1  10
ATOM     10  C   UNL     1     -11.483  19.002 -15.299  1.00  0.00     0.027 C 
BRANCH  10  11
ATOM     11  C   UNL     1     -10.721  19.950 -16.194  1.00  0.00    -0.031 C 
ATOM     12  C   UNL     1     -10.780  19.976 -17.540  1.00  0.00    -0.031 C 
BRANCH  12  13
ATOM     13  C   UNL     1     -11.656  19.095 -18.398  1.00  0.00     0.027 C 
BRANCH  13  14
ATOM     14  C   UNL     1     -11.875  19.695 -19.793  1.00  0.00     0.004 C 
BRANCH  14  15
ATOM     15  C   UNL     1     -13.329  19.552 -20.269  1.00  0.00     0.000 C 
BRANCH  15  16
ATOM     16  C   UNL     1     -13.881  20.849 -20.884  1.00  0.00    -0.000 C 
BRANCH  16  17
ATOM     17  C   UNL     1     -13.983  20.781 -22.415  1.00  0.00    -0.003 C 
ATOM     18  C   UNL     1     -12.652  20.362 -23.035  1.00  0.00     0.004 C 
ENDBRANCH  16  17
ENDBRANCH  15  16
ENDBRANCH  14  15
ENDBRANCH  13  14
ENDBRANCH  12  13
ENDBRANCH  10  11
ENDBRANCH   1  10
TORSDOF 13
ENDMDL
MODEL 4
REMARK VINA RESULT:     9.294      5.345     10.643
REMARK INTER + INTRA:          15.811
REMARK INTER:                  16.376
REMARK INTRA:                  -0.565
REMARK UNBOUND:                -0.546
REMARK SMILES CCCCCCC=CCCCCCCCC(=O)[O-]
REMARK SMILES IDX 10 1 11 2 12 3 13 4 14 5 15 6 16 7 17 8 18 9 9 10 8 11 7 12
REMARK SMILES IDX 6 13 5 14 4 15 3 16 2 17 1 18
REMARK H PARENT
REMARK Flexibility Score: inf
ROOT
ATOM      1  C   UNL     1     -13.286  18.918 -14.627  1.00  0.00     0.004 C 
ENDROOT
BRANCH   1   2
ATOM      2  C   UNL     1     -12.024  19.185 -13.795  1.00  0.00     0.000 C 
BRANCH   2   3
ATOM      3  C   UNL     1     -12.385  19.727 -12.407  1.00  0.00     0.000 C 
BRANCH   3   4
ATOM      4  C   UNL     1     -13.114  18.663 -11.574  1.00  0.00     0.000 C 
BRANCH   4   5
ATOM      5  C   UNL     1     -13.636  19.201 -10.230  1.00  0.00     0.006 C 
BRANCH   5   6
ATOM      6  C   UNL     1     -12.720  18.885  -9.033  1.00  0.00     0.053 C 
BRANCH   6   7
ATOM      7  C   UNL     1     -12.649  20.010  -8.046  1.00  0.00     0.041 C 
ATOM      8  O   UNL     1     -12.937  19.813  -6.835  1.00  0.00    -0.550 OA
ATOM      9  O   UNL     1     -12.234  21.271  -8.455  1.00  0.00    -0.550 OA
ENDBRANCH   6   7
ENDBRANCH   5   6
ENDBRANCH   4   5
ENDBRANCH   3   4
ENDBRANCH   2   3
ENDBRANCH   1   2
BRANCH   1  10
ATOM     10  C   UNL     1     -12.970  18.250 -15.972  1.00  0.00     0.027 C 
BRANCH  10  11
ATOM     11  C   UNL     1     -14.215  17.702 -16.628  1.00  0.00    -0.031 C 
ATOM     12  C   UNL     1     -14.585  17.912 -17.906  1.00  0.00    -0.031 C 
BRANCH  12  13
ATOM     13  C   UNL     1     -13.800  18.696 -18.930  1.00  0.00     0.027 C 
BRANCH  13  14
ATOM     14  C   UNL     1     -14.693  19.680 -19.699  1.00  0.00     0.004 C 
BRANCH  14  15
ATOM     15  C   UNL     1     -13.917  20.446 -20.784  1.00  0.00     0.000 C 
BRANCH  15  16
ATOM     16  C   UNL     1     -14.464  20.187 -22.197  1.00  0.00    -0.000 C 
BRANCH  16  17
ATOM     17  C   UNL     1     -13.428  19.533 -23.121  1.00  0.00    -0.003 C 
ATOM     18  C   UNL     1     -12.042  20.132 -22.904  1.00  0.00     0.004 C 
ENDBRANCH  16  17
ENDBRANCH  15  16
ENDBRANCH  14  15
ENDBRANCH  13  14
ENDBRANCH  12  13
ENDBRANCH  10  11
ENDBRANCH   1  10
TORSDOF 13
ENDMDL
MODEL 5
REMARK VINA RESULT:    10.926     12.842     15.672
REMARK INTER + INTRA:          18.684
REMARK INTER:                  19.344
REMARK INTRA:                  -0.660
REMARK UNBOUND:                -0.546
REMARK SMILES CCCCCCC=CCCCCCCCC(=O)[O-]
REMARK SMILES IDX 10 1 11 2 12 3 13 4 14 5 15 6 16 7 17 8 18 9 9 10 8 11 7 12
REMARK SMILES IDX 6 13 5 14 4 15 3 16 2 17 1 18
REMARK H PARENT
REMARK Flexibility Score: inf
ROOT
ATOM      1  C   UNL     1      -7.629   8.576 -17.643  1.00  0.00     0.004 C 
ENDROOT
BRANCH   1   2
ATOM      2  C   UNL     1      -8.142  10.008 -17.850  1.00  0.00     0.000 C 
BRANCH   2   3
ATOM      3  C   UNL     1      -7.598  10.604 -19.153  1.00  0.00     0.000 C 
BRANCH   3   4
ATOM      4  C   UNL     1      -6.964  11.980 -18.906  1.00  0.00     0.000 C 
BRANCH   4   5
ATOM      5  C   UNL     1      -6.424  12.148 -17.474  1.00  0.00     0.006 C 
BRANCH   5   6
ATOM      6  C   UNL     1      -5.942  13.574 -17.152  1.00  0.00     0.053 C 
BRANCH   6   7
ATOM      7  C   UNL     1      -4.563  13.600 -16.567  1.00  0.00     0.041 C 
ATOM      8  O   UNL     1      -4.220  14.528 -15.787  1.00  0.00    -0.550 OA
ATOM      9  O   UNL     1      -3.663  12.582 -16.858  1.00  0.00    -0.550 OA
ENDBRANCH   6   7
ENDBRANCH   5   6
ENDBRANCH   4   5
ENDBRANCH   3   4
ENDBRANCH   2   3
ENDBRANCH   1   2
BRANCH   1  10
ATOM     10  C   UNL     1      -7.723   7.730 -18.919  1.00  0.00     0.027 C 
BRANCH  10  11
ATOM     11  C   UNL     1      -7.160   6.344 -18.712  1.00  0.00    -0.031 C 
ATOM     12  C   UNL     1      -7.587   5.224 -19.328  1.00  0.00    -0.031 C 
BRANCH  12  13
ATOM     13  C   UNL     1      -8.675   5.157 -20.373  1.00  0.00     0.027 C 
BRANCH  13  14
ATOM     14  C   UNL     1      -8.757   3.767 -21.018  1.00  0.00     0.004 C 
BRANCH  14  15
ATOM     15  C   UNL     1      -8.801   3.838 -22.554  1.00  0.00     0.000 C 
BRANCH  15  16
ATOM     16  C   UNL     1      -7.847   4.899 -23.124  1.00  0.00    -0.000 C 
BRANCH  16  17
ATOM     17  C   UNL     1      -6.372   4.484 -23.024  1.00  0.00    -0.003 C 
ATOM     18  C   UNL     1      -6.232   2.965 -22.956  1.00  0.00     0.004 C 
ENDBRANCH  16  17
ENDBRANCH  15  16
ENDBRANCH  14  15
ENDBRANCH  13  14
ENDBRANCH  12  13
ENDBRANCH  10  11
ENDBRANCH   1  10
TORSDOF 13
ENDMDL
MODEL 6
REMARK VINA RESULT:    11.411     12.736     14.467
REMARK INTER + INTRA:          19.537
REMARK INTER:                  19.971
REMARK INTRA:                  -0.434
REMARK UNBOUND:                -0.546
REMARK SMILES CCCCCCC=CCCCCCCCC(=O)[O-]
REMARK SMILES IDX 10 1 11 2 12 3 13 4 14 5 15 6 16 7 17 8 18 9 9 10 8 11 7 12
REMARK SMILES IDX 6 13 5 14 4 15 3 16 2 17 1 18
REMARK H PARENT
REMARK Flexibility Score: inf
ROOT
ATOM      1  C   UNL     1      -7.081   6.697 -17.946  1.00  0.00     0.004 C 
ENDROOT
BRANCH   1   2
ATOM      2  C   UNL     1      -7.162   5.615 -19.032  1.00  0.00     0.000 C 
BRANCH   2   3
ATOM      3  C   UNL     1      -8.597   5.459 -19.548  1.00  0.00     0.000 C 
BRANCH   3   4
ATOM      4  C   UNL     1      -8.703   4.281 -20.528  1.00  0.00     0.000 C 
BRANCH   4   5
ATOM      5  C   UNL     1      -8.914   4.728 -21.986  1.00  0.00     0.006 C 
BRANCH   5   6
ATOM      6  C   UNL     1      -8.172   3.858 -23.018  1.00  0.00     0.053 C 
BRANCH   6   7
ATOM      7  C   UNL     1      -6.683   3.983 -22.918  1.00  0.00     0.041 C 
ATOM      8  O   UNL     1      -6.123   5.097 -23.103  1.00  0.00    -0.550 OA
ATOM      9  O   UNL     1      -5.912   2.875 -22.589  1.00  0.00    -0.550 OA
ENDBRANCH   6   7
ENDBRANCH   5   6
ENDBRANCH   4   5
ENDBRANCH   3   4
ENDBRANCH   2   3
ENDBRANCH   1   2
BRANCH   1  10
ATOM     10  C   UNL     1      -7.243   8.113 -18.517  1.00  0.00     0.027 C 
BRANCH  10  11
ATOM     11  C   UNL     1      -7.993   9.015 -17.566  1.00  0.00    -0.031 C 
ATOM     12  C   UNL     1      -8.153  10.344 -17.708  1.00  0.00    -0.031 C 
BRANCH  12  13
ATOM     13  C   UNL     1      -7.652  11.170 -18.870  1.00  0.00     0.027 C 
BRANCH  13  14
ATOM     14  C   UNL     1      -6.411  11.989 -18.492  1.00  0.00     0.004 C 
BRANCH  14  15
ATOM     15  C   UNL     1      -6.430  12.433 -17.020  1.00  0.00     0.000 C 
BRANCH  15  16
ATOM     16  C   UNL     1      -5.950  13.881 -16.832  1.00  0.00    -0.000 C 
BRANCH  16  17
ATOM     17  C   UNL     1      -4.435  13.978 -16.609  1.00  0.00    -0.003 C 
ATOM     18  C   UNL     1      -3.738  12.677 -17.000  1.00  0.00     0.004 C 
ENDBRANCH  16  17
ENDBRANCH  15  16
ENDBRANCH  14  15
ENDBRANCH  13  14
ENDBRANCH  12  13
ENDBRANCH  10  11
ENDBRANCH   1  10
TORSDOF 13
ENDMDL
