MODEL 1
REMARK VINA RESULT:    -4.851      0.000      0.000
REMARK INTER + INTRA:          -9.177
REMARK INTER:                  -7.686
REMARK INTRA:                  -1.491
REMARK UNBOUND:                -1.491
REMARK SMILES CCCCCCCCCCCC(=O)[O-]
REMARK SMILES IDX 7 1 8 2 9 3 10 4 11 5 12 6 13 7 14 8 6 9 5 10 4 11 3 12 2 13
REMARK SMILES IDX 1 14
REMARK H PARENT
REMARK Flexibility Score: inf
ROOT
ATOM      1  C   UNL     1      60.875   3.696  20.418  1.00  0.00     0.000 C 
ENDROOT
BRANCH   1   2
ATOM      2  C   UNL     1      61.370   3.458  21.856  1.00  0.00     0.000 C 
BRANCH   2   3
ATOM      3  C   UNL     1      62.337   4.527  22.408  1.00  0.00     0.000 C 
BRANCH   3   4
ATOM      4  C   UNL     1      63.721   4.001  22.826  1.00  0.00     0.006 C 
BRANCH   4   5
ATOM      5  C   UNL     1      63.710   2.507  23.174  1.00  0.00     0.053 C 
BRANCH   5   6
ATOM      6  C   UNL     1      65.104   2.012  23.397  1.00  0.00     0.041 C 
ATOM      7  O   UNL     1      66.023   2.820  23.696  1.00  0.00    -0.550 OA
ATOM      8  O   UNL     1      65.400   0.667  23.225  1.00  0.00    -0.550 OA
ENDBRANCH   5   6
ENDBRANCH   4   5
ENDBRANCH   3   4
ENDBRANCH   2   3
ENDBRANCH   1   2
BRANCH   1   9
ATOM      9  C   UNL     1      60.963   2.436  19.540  1.00  0.00     0.000 C 
BRANCH   9  10
ATOM     10  C   UNL     1      62.013   1.430  20.045  1.00  0.00    -0.000 C 
BRANCH  10  11
ATOM     11  C   UNL     1      63.239   1.243  19.128  1.00  0.00    -0.000 C 
BRANCH  11  12
ATOM     12  C   UNL     1      64.581   1.715  19.721  1.00  0.00    -0.000 C 
BRANCH  12  13
ATOM     13  C   UNL     1      65.234   2.896  18.981  1.00  0.00    -0.003 C 
ATOM     14  C   UNL     1      64.266   4.051  18.733  1.00  0.00     0.004 C 
ENDBRANCH  12  13
ENDBRANCH  11  12
ENDBRANCH  10  11
ENDBRANCH   9  10
ENDBRANCH   1   9
TORSDOF 10
ENDMDL
MODEL 2
REMARK VINA RESULT:    -4.752      2.041      4.418
REMARK INTER + INTRA:          -9.021
REMARK INTER:                  -8.047
REMARK INTRA:                  -0.973
REMARK UNBOUND:                -1.491
REMARK SMILES CCCCCCCCCCCC(=O)[O-]
REMARK SMILES IDX 7 1 8 2 9 3 10 4 11 5 12 6 13 7 14 8 6 9 5 10 4 11 3 12 2 13
REMARK SMILES IDX 1 14
REMARK H PARENT
REMARK Flexibility Score: inf
ROOT
ATOM      1  C   UNL     1      61.346   2.900  22.245  1.00  0.00     0.000 C 
ENDROOT
BRANCH   1   2
ATOM      2  C   UNL     1      61.068   3.706  20.963  1.00  0.00     0.000 C 
BRANCH   2   3
ATOM      3  C   UNL     1      61.415   2.988  19.643  1.00  0.00     0.000 C 
BRANCH   3   4
ATOM      4  C   UNL     1      61.716   1.485  19.777  1.00  0.00     0.006 C 
BRANCH   4   5
ATOM      5  C   UNL     1      63.076   1.096  19.184  1.00  0.00     0.053 C 
BRANCH   5   6
ATOM      6  C   UNL     1      64.188   1.621  20.038  1.00  0.00     0.041 C 
ATOM      7  O   UNL     1      64.958   2.513  19.596  1.00  0.00    -0.550 OA
ATOM      8  O   UNL     1      64.405   1.088  21.302  1.00  0.00    -0.550 OA
ENDBRANCH   5   6
ENDBRANCH   4   5
ENDBRANCH   3   4
ENDBRANCH   2   3
ENDBRANCH   1   2
BRANCH   1   9
ATOM      9  C   UNL     1      62.423   3.546  23.134  1.00  0.00     0.000 C 
BRANCH   9  10
ATOM     10  C   UNL     1      63.424   4.398  22.334  1.00  0.00    -0.000 C 
BRANCH  10  11
ATOM     11  C   UNL     1      64.903   4.221  22.732  1.00  0.00    -0.000 C 
BRANCH  11  12
ATOM     12  C   UNL     1      65.279   4.770  24.123  1.00  0.00    -0.000 C 
BRANCH  12  13
ATOM     13  C   UNL     1      66.559   4.169  24.730  1.00  0.00    -0.003 C 
ATOM     14  C   UNL     1      66.926   4.788  26.078  1.00  0.00     0.004 C 
ENDBRANCH  12  13
ENDBRANCH  11  12
ENDBRANCH  10  11
ENDBRANCH   9  10
ENDBRANCH   1   9
TORSDOF 10
ENDMDL
MODEL 3
REMARK VINA RESULT:    -4.653      1.563      2.115
REMARK INTER + INTRA:          -8.865
REMARK INTER:                  -7.520
REMARK INTRA:                  -1.344
REMARK UNBOUND:                -1.491
REMARK SMILES CCCCCCCCCCCC(=O)[O-]
REMARK SMILES IDX 7 1 8 2 9 3 10 4 11 5 12 6 13 7 14 8 6 9 5 10 4 11 3 12 2 13
REMARK SMILES IDX 1 14
REMARK H PARENT
REMARK Flexibility Score: inf
ROOT
ATOM      1  C   UNL     1      61.063   3.983  21.376  1.00  0.00     0.000 C 
ENDROOT
BRANCH   1   2
ATOM      2  C   UNL     1      62.253   4.750  21.983  1.00  0.00     0.000 C 
BRANCH   2   3
ATOM      3  C   UNL     1      63.199   3.911  22.866  1.00  0.00     0.000 C 
BRANCH   3   4
ATOM      4  C   UNL     1      64.658   4.399  22.907  1.00  0.00     0.006 C 
BRANCH   4   5
ATOM      5  C   UNL     1      65.572   3.472  23.717  1.00  0.00     0.053 C 
BRANCH   5   6
ATOM      6  C   UNL     1      66.676   4.255  24.356  1.00  0.00     0.041 C 
ATOM      7  O   UNL     1      67.871   4.068  24.004  1.00  0.00    -0.550 OA
ATOM      8  O   UNL     1      66.391   5.153  25.376  1.00  0.00    -0.550 OA
ENDBRANCH   5   6
ENDBRANCH   4   5
ENDBRANCH   3   4
ENDBRANCH   2   3
ENDBRANCH   1   2
BRANCH   1   9
ATOM      9  C   UNL     1      60.979   2.528  21.868  1.00  0.00     0.000 C 
BRANCH   9  10
ATOM     10  C   UNL     1      61.031   1.506  20.718  1.00  0.00    -0.000 C 
BRANCH  10  11
ATOM     11  C   UNL     1      61.891   1.922  19.507  1.00  0.00    -0.000 C 
BRANCH  11  12
ATOM     12  C   UNL     1      63.309   1.320  19.472  1.00  0.00    -0.000 C 
BRANCH  12  13
ATOM     13  C   UNL     1      64.445   2.328  19.720  1.00  0.00    -0.003 C 
ATOM     14  C   UNL     1      64.211   3.670  19.029  1.00  0.00     0.004 C 
ENDBRANCH  12  13
ENDBRANCH  11  12
ENDBRANCH  10  11
ENDBRANCH   9  10
ENDBRANCH   1   9
TORSDOF 10
ENDMDL
MODEL 4
REMARK VINA RESULT:    -4.643      2.015      4.180
REMARK INTER + INTRA:          -8.848
REMARK INTER:                  -7.518
REMARK INTRA:                  -1.329
REMARK UNBOUND:                -1.491
REMARK SMILES CCCCCCCCCCCC(=O)[O-]
REMARK SMILES IDX 7 1 8 2 9 3 10 4 11 5 12 6 13 7 14 8 6 9 5 10 4 11 3 12 2 13
REMARK SMILES IDX 1 14
REMARK H PARENT
REMARK Flexibility Score: inf
ROOT
ATOM      1  C   UNL     1      61.219   2.594  21.361  1.00  0.00     0.000 C 
ENDROOT
BRANCH   1   2
ATOM      2  C   UNL     1      61.541   2.093  19.941  1.00  0.00     0.000 C 
BRANCH   2   3
ATOM      3  C   UNL     1      62.630   1.003  19.857  1.00  0.00     0.000 C 
BRANCH   3   4
ATOM      4  C   UNL     1      64.056   1.523  19.602  1.00  0.00     0.006 C 
BRANCH   4   5
ATOM      5  C   UNL     1      64.081   2.981  19.127  1.00  0.00     0.053 C 
BRANCH   5   6
ATOM      6  C   UNL     1      65.492   3.460  18.985  1.00  0.00     0.041 C 
ATOM      7  O   UNL     1      66.127   3.252  17.919  1.00  0.00    -0.550 OA
ATOM      8  O   UNL     1      66.122   4.091  20.050  1.00  0.00    -0.550 OA
ENDBRANCH   5   6
ENDBRANCH   4   5
ENDBRANCH   3   4
ENDBRANCH   2   3
ENDBRANCH   1   2
BRANCH   1   9
ATOM      9  C   UNL     1      61.217   4.128  21.466  1.00  0.00     0.000 C 
BRANCH   9  10
ATOM     10  C   UNL     1      62.532   4.689  22.037  1.00  0.00    -0.000 C 
BRANCH  10  11
ATOM     11  C   UNL     1      63.337   3.709  22.915  1.00  0.00    -0.000 C 
BRANCH  11  12
ATOM     12  C   UNL     1      64.768   4.164  23.263  1.00  0.00    -0.000 C 
BRANCH  12  13
ATOM     13  C   UNL     1      65.793   3.023  23.401  1.00  0.00    -0.003 C 
ATOM     14  C   UNL     1      65.177   1.642  23.183  1.00  0.00     0.004 C 
ENDBRANCH  12  13
ENDBRANCH  11  12
ENDBRANCH  10  11
ENDBRANCH   9  10
ENDBRANCH   1   9
TORSDOF 10
ENDMDL
MODEL 5
REMARK VINA RESULT:    -4.599      1.602      2.963
REMARK INTER + INTRA:          -8.779
REMARK INTER:                  -7.595
REMARK INTRA:                  -1.184
REMARK UNBOUND:                -1.491
REMARK SMILES CCCCCCCCCCCC(=O)[O-]
REMARK SMILES IDX 7 1 8 2 9 3 10 4 11 5 12 6 13 7 14 8 6 9 5 10 4 11 3 12 2 13
REMARK SMILES IDX 1 14
REMARK H PARENT
REMARK Flexibility Score: inf
ROOT
ATOM      1  C   UNL     1      62.337   3.985  22.989  1.00  0.00     0.000 C 
ENDROOT
BRANCH   1   2
ATOM      2  C   UNL     1      63.855   3.777  22.835  1.00  0.00     0.000 C 
BRANCH   2   3
ATOM      3  C   UNL     1      64.363   2.356  23.156  1.00  0.00     0.000 C 
BRANCH   3   4
ATOM      4  C   UNL     1      65.732   2.294  23.856  1.00  0.00     0.006 C 
BRANCH   4   5
ATOM      5  C   UNL     1      66.733   3.312  23.295  1.00  0.00     0.053 C 
BRANCH   5   6
ATOM      6  C   UNL     1      67.261   4.184  24.390  1.00  0.00     0.041 C 
ATOM      7  O   UNL     1      66.502   4.560  25.322  1.00  0.00    -0.550 OA
ATOM      8  O   UNL     1      68.578   4.624  24.355  1.00  0.00    -0.550 OA
ENDBRANCH   5   6
ENDBRANCH   4   5
ENDBRANCH   3   4
ENDBRANCH   2   3
ENDBRANCH   1   2
BRANCH   1   9
ATOM      9  C   UNL     1      61.690   4.606  21.739  1.00  0.00     0.000 C 
BRANCH   9  10
ATOM     10  C   UNL     1      60.881   3.587  20.917  1.00  0.00    -0.000 C 
BRANCH  10  11
ATOM     11  C   UNL     1      61.608   3.012  19.684  1.00  0.00    -0.000 C 
BRANCH  11  12
ATOM     12  C   UNL     1      62.112   1.563  19.836  1.00  0.00    -0.000 C 
BRANCH  12  13
ATOM     13  C   UNL     1      63.619   1.375  19.582  1.00  0.00    -0.003 C 
ATOM     14  C   UNL     1      64.328   2.678  19.217  1.00  0.00     0.004 C 
ENDBRANCH  12  13
ENDBRANCH  11  12
ENDBRANCH  10  11
ENDBRANCH   9  10
ENDBRANCH   1   9
TORSDOF 10
ENDMDL
MODEL 6
REMARK VINA RESULT:    -4.538      1.761      3.288
REMARK INTER + INTRA:          -8.681
REMARK INTER:                  -7.179
REMARK INTRA:                  -1.503
REMARK UNBOUND:                -1.491
REMARK SMILES CCCCCCCCCCCC(=O)[O-]
REMARK SMILES IDX 7 1 8 2 9 3 10 4 11 5 12 6 13 7 14 8 6 9 5 10 4 11 3 12 2 13
REMARK SMILES IDX 1 14
REMARK H PARENT
REMARK Flexibility Score: inf
ROOT
ATOM      1  C   UNL     1      64.999   4.395  18.640  1.00  0.00     0.000 C 
ENDROOT
BRANCH   1   2
ATOM      2  C   UNL     1      65.196   5.286  19.879  1.00  0.00     0.000 C 
BRANCH   2   3
ATOM      3  C   UNL     1      66.028   4.661  21.018  1.00  0.00     0.000 C 
BRANCH   3   4
ATOM      4  C   UNL     1      65.455   4.862  22.432  1.00  0.00     0.006 C 
BRANCH   4   5
ATOM      5  C   UNL     1      66.499   4.638  23.534  1.00  0.00     0.053 C 
BRANCH   5   6
ATOM      6  C   UNL     1      67.079   3.262  23.432  1.00  0.00     0.041 C 
ATOM      7  O   UNL     1      68.302   3.108  23.178  1.00  0.00    -0.550 OA
ATOM      8  O   UNL     1      66.258   2.150  23.566  1.00  0.00    -0.550 OA
ENDBRANCH   5   6
ENDBRANCH   4   5
ENDBRANCH   3   4
ENDBRANCH   2   3
ENDBRANCH   1   2
BRANCH   1   9
ATOM      9  C   UNL     1      65.326   2.916  18.910  1.00  0.00     0.000 C 
BRANCH   9  10
ATOM     10  C   UNL     1      64.069   2.063  19.157  1.00  0.00    -0.000 C 
BRANCH  10  11
ATOM     11  C   UNL     1      63.949   1.465  20.574  1.00  0.00    -0.000 C 
BRANCH  11  12
ATOM     12  C   UNL     1      63.091   2.281  21.561  1.00  0.00    -0.000 C 
BRANCH  12  13
ATOM     13  C   UNL     1      62.138   3.294  20.902  1.00  0.00    -0.003 C 
ATOM     14  C   UNL     1      61.804   4.475  21.812  1.00  0.00     0.004 C 
ENDBRANCH  12  13
ENDBRANCH  11  12
ENDBRANCH  10  11
ENDBRANCH   9  10
ENDBRANCH   1   9
TORSDOF 10
ENDMDL
MODEL 7
REMARK VINA RESULT:    -4.515      1.393      3.317
REMARK INTER + INTRA:          -8.645
REMARK INTER:                  -7.172
REMARK INTRA:                  -1.473
REMARK UNBOUND:                -1.491
REMARK SMILES CCCCCCCCCCCC(=O)[O-]
REMARK SMILES IDX 7 1 8 2 9 3 10 4 11 5 12 6 13 7 14 8 6 9 5 10 4 11 3 12 2 13
REMARK SMILES IDX 1 14
REMARK H PARENT
REMARK Flexibility Score: inf
ROOT
ATOM      1  C   UNL     1      64.080   1.898  19.758  1.00  0.00     0.000 C 
ENDROOT
BRANCH   1   2
ATOM      2  C   UNL     1      64.053   3.351  19.248  1.00  0.00     0.000 C 
BRANCH   2   3
ATOM      3  C   UNL     1      64.867   4.360  20.084  1.00  0.00     0.000 C 
BRANCH   3   4
ATOM      4  C   UNL     1      65.914   3.735  21.023  1.00  0.00     0.006 C 
BRANCH   4   5
ATOM      5  C   UNL     1      65.865   4.321  22.440  1.00  0.00     0.053 C 
BRANCH   5   6
ATOM      6  C   UNL     1      66.599   3.434  23.397  1.00  0.00     0.041 C 
ATOM      7  O   UNL     1      67.847   3.298  23.305  1.00  0.00    -0.550 OA
ATOM      8  O   UNL     1      65.897   2.718  24.358  1.00  0.00    -0.550 OA
ENDBRANCH   5   6
ENDBRANCH   4   5
ENDBRANCH   3   4
ENDBRANCH   2   3
ENDBRANCH   1   2
BRANCH   1   9
ATOM      9  C   UNL     1      62.748   1.162  19.535  1.00  0.00     0.000 C 
BRANCH   9  10
ATOM     10  C   UNL     1      61.537   2.112  19.522  1.00  0.00    -0.000 C 
BRANCH  10  11
ATOM     11  C   UNL     1      60.875   2.352  20.894  1.00  0.00    -0.000 C 
BRANCH  11  12
ATOM     12  C   UNL     1      60.890   3.813  21.384  1.00  0.00    -0.000 C 
BRANCH  12  13
ATOM     13  C   UNL     1      62.024   4.153  22.368  1.00  0.00    -0.003 C 
ATOM     14  C   UNL     1      62.491   2.943  23.177  1.00  0.00     0.004 C 
ENDBRANCH  12  13
ENDBRANCH  11  12
ENDBRANCH  10  11
ENDBRANCH   9  10
ENDBRANCH   1   9
TORSDOF 10
ENDMDL
MODEL 8
REMARK VINA RESULT:    -4.444     12.761     14.594
REMARK INTER + INTRA:          -8.533
REMARK INTER:                  -7.089
REMARK INTRA:                  -1.444
REMARK UNBOUND:                -1.491
REMARK SMILES CCCCCCCCCCCC(=O)[O-]
REMARK SMILES IDX 7 1 8 2 9 3 10 4 11 5 12 6 13 7 14 8 6 9 5 10 4 11 3 12 2 13
REMARK SMILES IDX 1 14
REMARK H PARENT
REMARK Flexibility Score: inf
ROOT
ATOM      1  C   UNL     1      78.127   6.145  20.942  1.00  0.00     0.000 C 
ENDROOT
BRANCH   1   2
ATOM      2  C   UNL     1      78.184   7.160  22.098  1.00  0.00     0.000 C 
BRANCH   2   3
ATOM      3  C   UNL     1      76.816   7.633  22.631  1.00  0.00     0.000 C 
BRANCH   3   4
ATOM      4  C   UNL     1      76.247   6.803  23.796  1.00  0.00     0.006 C 
BRANCH   4   5
ATOM      5  C   UNL     1      77.252   6.616  24.939  1.00  0.00     0.053 C 
BRANCH   5   6
ATOM      6  C   UNL     1      77.396   7.884  25.720  1.00  0.00     0.041 C 
ATOM      7  O   UNL     1      78.521   8.442  25.819  1.00  0.00    -0.550 OA
ATOM      8  O   UNL     1      76.300   8.423  26.381  1.00  0.00    -0.550 OA
ENDBRANCH   5   6
ENDBRANCH   4   5
ENDBRANCH   3   4
ENDBRANCH   2   3
ENDBRANCH   1   2
BRANCH   1   9
ATOM      9  C   UNL     1      79.206   5.055  21.050  1.00  0.00     0.000 C 
BRANCH   9  10
ATOM     10  C   UNL     1      78.835   3.945  22.050  1.00  0.00    -0.000 C 
BRANCH  10  11
ATOM     11  C   UNL     1      77.605   3.098  21.664  1.00  0.00    -0.000 C 
BRANCH  11  12
ATOM     12  C   UNL     1      76.373   3.278  22.571  1.00  0.00    -0.000 C 
BRANCH  12  13
ATOM     13  C   UNL     1      75.023   3.296  21.830  1.00  0.00    -0.003 C 
ATOM     14  C   UNL     1      74.725   4.641  21.171  1.00  0.00     0.004 C 
ENDBRANCH  12  13
ENDBRANCH  11  12
ENDBRANCH  10  11
ENDBRANCH   9  10
ENDBRANCH   1   9
TORSDOF 10
ENDMDL
MODEL 9
REMARK VINA RESULT:    -4.410      2.131      4.280
REMARK INTER + INTRA:          -8.479
REMARK INTER:                  -6.977
REMARK INTRA:                  -1.501
REMARK UNBOUND:                -1.491
REMARK SMILES CCCCCCCCCCCC(=O)[O-]
REMARK SMILES IDX 7 1 8 2 9 3 10 4 11 5 12 6 13 7 14 8 6 9 5 10 4 11 3 12 2 13
REMARK SMILES IDX 1 14
REMARK H PARENT
REMARK Flexibility Score: inf
ROOT
ATOM      1  C   UNL     1      62.731   1.584  19.726  1.00  0.00     0.000 C 
ENDROOT
BRANCH   1   2
ATOM      2  C   UNL     1      64.265   1.661  19.608  1.00  0.00     0.000 C 
BRANCH   2   3
ATOM      3  C   UNL     1      64.805   2.853  18.791  1.00  0.00     0.000 C 
BRANCH   3   4
ATOM      4  C   UNL     1      65.749   3.796  19.557  1.00  0.00     0.006 C 
BRANCH   4   5
ATOM      5  C   UNL     1      65.144   5.186  19.788  1.00  0.00     0.053 C 
BRANCH   5   6
ATOM      6  C   UNL     1      66.072   6.032  20.601  1.00  0.00     0.041 C 
ATOM      7  O   UNL     1      66.695   5.533  21.575  1.00  0.00    -0.550 OA
ATOM      8  O   UNL     1      66.211   7.384  20.315  1.00  0.00    -0.550 OA
ENDBRANCH   5   6
ENDBRANCH   4   5
ENDBRANCH   3   4
ENDBRANCH   2   3
ENDBRANCH   1   2
BRANCH   1   9
ATOM      9  C   UNL     1      62.047   2.943  19.505  1.00  0.00     0.000 C 
BRANCH   9  10
ATOM     10  C   UNL     1      61.078   3.315  20.642  1.00  0.00    -0.000 C 
BRANCH  10  11
ATOM     11  C   UNL     1      61.550   2.932  22.060  1.00  0.00    -0.000 C 
BRANCH  11  12
ATOM     12  C   UNL     1      62.308   4.037  22.821  1.00  0.00    -0.000 C 
BRANCH  12  13
ATOM     13  C   UNL     1      63.828   3.821  22.928  1.00  0.00    -0.003 C 
ATOM     14  C   UNL     1      64.202   2.378  23.260  1.00  0.00     0.004 C 
ENDBRANCH  12  13
ENDBRANCH  11  12
ENDBRANCH  10  11
ENDBRANCH   9  10
ENDBRANCH   1   9
TORSDOF 10
ENDMDL
