MODEL 1
REMARK VINA RESULT:    -1.070      0.000      0.000
REMARK INTER + INTRA:          -1.168
REMARK INTER:                  -1.133
REMARK INTRA:                  -0.035
REMARK UNBOUND:                -0.035
REMARK SMILES COc1ccc2ccc(=O)oc2c1
REMARK SMILES IDX 3 1 13 2 12 3 6 4 5 5 4 6 7 7 8 8 9 9 10 10 11 11 2 12 1 13
REMARK H PARENT
REMARK Flexibility Score: inf
ROOT
ATOM      1  C   UNL     1      23.529  14.055   2.115  1.00  0.00     0.122 A 
ATOM      2  C   UNL     1      22.593  14.417   1.138  1.00  0.00     0.094 A 
ATOM      3  C   UNL     1      21.250  14.607   1.476  1.00  0.00     0.142 A 
ATOM      4  C   UNL     1      20.831  14.432   2.813  1.00  0.00     0.018 A 
ATOM      5  C   UNL     1      21.763  14.071   3.794  1.00  0.00     0.016 A 
ATOM      6  C   UNL     1      23.105  13.883   3.449  1.00  0.00     0.047 A 
ATOM      7  C   UNL     1      19.482  14.629   3.121  1.00  0.00     0.019 A 
ATOM      8  C   UNL     1      18.594  14.989   2.108  1.00  0.00     0.094 A 
ATOM      9  C   UNL     1      19.080  15.144   0.804  1.00  0.00     0.336 A 
ATOM     10  O   UNL     1      18.294  15.468  -0.124  1.00  0.00    -0.246 OA
ATOM     11  O   UNL     1      20.369  14.950   0.538  1.00  0.00    -0.423 OA
ENDROOT
BRANCH   1  12
ATOM     12  O   UNL     1      24.864  13.876   1.723  1.00  0.00    -0.497 OA
ATOM     13  C   UNL     1      25.974  13.894   2.614  1.00  0.00     0.278 C 
ENDBRANCH   1  12
TORSDOF 1
ENDMDL
MODEL 2
REMARK VINA RESULT:    -0.953     14.691     15.208
REMARK INTER + INTRA:          -1.044
REMARK INTER:                  -1.011
REMARK INTRA:                  -0.033
REMARK UNBOUND:                -0.035
REMARK SMILES COc1ccc2ccc(=O)oc2c1
REMARK SMILES IDX 3 1 13 2 12 3 6 4 5 5 4 6 7 7 8 8 9 9 10 10 11 11 2 12 1 13
REMARK H PARENT
REMARK Flexibility Score: inf
ROOT
ATOM      1  C   UNL     1      27.649  30.096   0.790  1.00  0.00     0.122 A 
ATOM      2  C   UNL     1      27.361  28.812   0.309  1.00  0.00     0.094 A 
ATOM      3  C   UNL     1      26.932  27.805   1.179  1.00  0.00     0.142 A 
ATOM      4  C   UNL     1      26.789  28.082   2.555  1.00  0.00     0.018 A 
ATOM      5  C   UNL     1      27.075  29.363   3.042  1.00  0.00     0.016 A 
ATOM      6  C   UNL     1      27.502  30.366   2.166  1.00  0.00     0.047 A 
ATOM      7  C   UNL     1      26.358  27.055   3.401  1.00  0.00     0.019 A 
ATOM      8  C   UNL     1      26.086  25.797   2.866  1.00  0.00     0.094 A 
ATOM      9  C   UNL     1      26.252  25.594   1.491  1.00  0.00     0.336 A 
ATOM     10  O   UNL     1      26.011  24.466   0.989  1.00  0.00    -0.246 OA
ATOM     11  O   UNL     1      26.663  26.589   0.708  1.00  0.00    -0.423 OA
ENDROOT
BRANCH   1  12
ATOM     12  O   UNL     1      28.076  31.069  -0.125  1.00  0.00    -0.497 OA
ATOM     13  C   UNL     1      27.635  32.422  -0.125  1.00  0.00     0.278 C 
ENDBRANCH   1  12
TORSDOF 1
ENDMDL
MODEL 3
REMARK VINA RESULT:     1.333     14.457     15.013
REMARK INTER + INTRA:           1.376
REMARK INTER:                   1.409
REMARK INTRA:                  -0.033
REMARK UNBOUND:                -0.035
REMARK SMILES COc1ccc2ccc(=O)oc2c1
REMARK SMILES IDX 3 1 13 2 12 3 6 4 5 5 4 6 7 7 8 8 9 9 10 10 11 11 2 12 1 13
REMARK H PARENT
REMARK Flexibility Score: inf
ROOT
ATOM      1  C   UNL     1      26.136  26.125   1.513  1.00  0.00     0.122 A 
ATOM      2  C   UNL     1      26.407  27.191   0.645  1.00  0.00     0.094 A 
ATOM      3  C   UNL     1      26.909  28.399   1.137  1.00  0.00     0.142 A 
ATOM      4  C   UNL     1      27.145  28.549   2.520  1.00  0.00     0.018 A 
ATOM      5  C   UNL     1      26.876  27.487   3.393  1.00  0.00     0.016 A 
ATOM      6  C   UNL     1      26.374  26.281   2.893  1.00  0.00     0.047 A 
ATOM      7  C   UNL     1      27.647  29.768   2.983  1.00  0.00     0.019 A 
ATOM      8  C   UNL     1      27.898  30.795   2.074  1.00  0.00     0.094 A 
ATOM      9  C   UNL     1      27.640  30.575   0.716  1.00  0.00     0.336 A 
ATOM     10  O   UNL     1      27.860  31.489  -0.121  1.00  0.00    -0.246 OA
ATOM     11  O   UNL     1      27.162  29.404   0.302  1.00  0.00    -0.423 OA
ENDROOT
BRANCH   1  12
ATOM     12  O   UNL     1      25.632  24.935   0.967  1.00  0.00    -0.497 OA
ATOM     13  C   UNL     1      26.021  23.631   1.385  1.00  0.00     0.278 C 
ENDBRANCH   1  12
TORSDOF 1
ENDMDL
