MODEL 1
REMARK VINA RESULT:    11.531      0.000      0.000
REMARK INTER + INTRA:          13.269
REMARK INTER:                  13.554
REMARK INTRA:                  -0.285
REMARK UNBOUND:                -0.285
REMARK SMILES O=c1cc(-c2ccc(O)c(O)c2)oc2cc(O)cc(O)c12
REMARK SMILES IDX 4 1 3 2 2 3 1 4 21 5 19 6 18 7 16 8 15 9 14 10 13 11 5 12
REMARK SMILES IDX 6 13 7 14 8 15 12 16 10 17 9 18 11 20 20 22 17 24
REMARK H PARENT 9 19 11 21 20 23 17 25
REMARK Flexibility Score: inf
ROOT
ATOM      1  C   UNL     1      27.093  65.458   5.079  1.00  0.00     0.138 A 
ATOM      2  C   UNL     1      26.082  64.487   5.070  1.00  0.00     0.100 A 
ATOM      3  C   UNL     1      26.412  63.147   4.855  1.00  0.00     0.197 A 
ATOM      4  O   UNL     1      25.490  62.294   4.909  1.00  0.00    -0.289 OA
ATOM      5  C   UNL     1      27.759  62.786   4.611  1.00  0.00     0.107 A 
ATOM      6  C   UNL     1      28.209  61.457   4.345  1.00  0.00     0.134 A 
ATOM      7  C   UNL     1      29.581  61.206   4.218  1.00  0.00     0.093 A 
ATOM      8  C   UNL     1      30.514  62.244   4.288  1.00  0.00     0.123 A 
ATOM      9  C   UNL     1      30.080  63.550   4.497  1.00  0.00     0.094 A 
ATOM     10  C   UNL     1      28.721  63.829   4.663  1.00  0.00     0.146 A 
ATOM     11  O   UNL     1      28.353  65.088   4.878  1.00  0.00    -0.456 OA
ENDROOT
BRANCH   1  12
ATOM     12  C   UNL     1      26.798  66.896   5.299  1.00  0.00     0.021 A 
ATOM     13  C   UNL     1      26.040  67.282   6.417  1.00  0.00     0.016 A 
ATOM     14  C   UNL     1      25.741  68.627   6.644  1.00  0.00     0.051 A 
ATOM     15  C   UNL     1      26.184  69.610   5.755  1.00  0.00     0.157 A 
ATOM     16  C   UNL     1      27.230  67.889   4.398  1.00  0.00     0.062 A 
ATOM     17  C   UNL     1      26.929  69.240   4.624  1.00  0.00     0.158 A 
BRANCH  15  18
ATOM     18  O   UNL     1      25.872  70.945   6.009  1.00  0.00    -0.504 OA
ATOM     19  H   UNL     1      25.758  71.301   6.951  1.00  0.00     0.293 HD
ENDBRANCH  15  18
BRANCH  17  20
ATOM     20  O   UNL     1      27.365  70.214   3.727  1.00  0.00    -0.504 OA
ATOM     21  H   UNL     1      28.212  70.095   3.183  1.00  0.00     0.293 HD
ENDBRANCH  17  20
ENDBRANCH   1  12
BRANCH   6  22
ATOM     22  O   UNL     1      27.359  60.361   4.177  1.00  0.00    -0.507 OA
ATOM     23  H   UNL     1      27.140  59.681   4.889  1.00  0.00     0.293 HD
ENDBRANCH   6  22
BRANCH   8  24
ATOM     24  O   UNL     1      31.875  61.987   4.143  1.00  0.00    -0.508 OA
ATOM     25  H   UNL     1      32.561  62.393   4.770  1.00  0.00     0.293 HD
ENDBRANCH   8  24
TORSDOF 5
ENDMDL
MODEL 2
REMARK VINA RESULT:    11.721      3.369      9.150
REMARK INTER + INTRA:          13.493
REMARK INTER:                  13.775
REMARK INTRA:                  -0.282
REMARK UNBOUND:                -0.285
REMARK SMILES O=c1cc(-c2ccc(O)c(O)c2)oc2cc(O)cc(O)c12
REMARK SMILES IDX 4 1 3 2 2 3 1 4 21 5 19 6 18 7 16 8 15 9 14 10 13 11 5 12
REMARK SMILES IDX 6 13 7 14 8 15 12 16 10 17 9 18 11 20 20 22 17 24
REMARK H PARENT 9 19 11 21 20 23 17 25
REMARK Flexibility Score: inf
ROOT
ATOM      1  C   UNL     1      29.061  59.493   4.207  1.00  0.00     0.138 A 
ATOM      2  C   UNL     1      30.041  60.495   4.195  1.00  0.00     0.100 A 
ATOM      3  C   UNL     1      29.665  61.831   4.346  1.00  0.00     0.197 A 
ATOM      4  O   UNL     1      30.573  62.701   4.386  1.00  0.00    -0.289 OA
ATOM      5  C   UNL     1      28.295  62.166   4.474  1.00  0.00     0.107 A 
ATOM      6  C   UNL     1      27.792  63.496   4.600  1.00  0.00     0.134 A 
ATOM      7  C   UNL     1      26.423  63.697   4.820  1.00  0.00     0.093 A 
ATOM      8  C   UNL     1      25.533  62.621   4.861  1.00  0.00     0.123 A 
ATOM      9  C   UNL     1      26.008  61.324   4.689  1.00  0.00     0.094 A 
ATOM     10  C   UNL     1      27.373  61.087   4.503  1.00  0.00     0.146 A 
ATOM     11  O   UNL     1      27.785  59.831   4.361  1.00  0.00    -0.456 OA
ENDROOT
BRANCH   1  12
ATOM     12  C   UNL     1      29.404  58.058   4.048  1.00  0.00     0.021 A 
ATOM     13  C   UNL     1      30.353  57.475   4.905  1.00  0.00     0.016 A 
ATOM     14  C   UNL     1      30.700  56.129   4.771  1.00  0.00     0.051 A 
ATOM     15  C   UNL     1      30.115  55.342   3.775  1.00  0.00     0.157 A 
ATOM     16  C   UNL     1      28.827  57.265   3.036  1.00  0.00     0.062 A 
ATOM     17  C   UNL     1      29.177  55.913   2.901  1.00  0.00     0.158 A 
BRANCH  15  18
ATOM     18  O   UNL     1      30.480  54.001   3.668  1.00  0.00    -0.504 OA
ATOM     19  H   UNL     1      31.448  53.710   3.607  1.00  0.00     0.293 HD
ENDBRANCH  15  18
BRANCH  17  20
ATOM     20  O   UNL     1      28.597  55.137   1.897  1.00  0.00    -0.504 OA
ATOM     21  H   UNL     1      27.723  55.403   1.458  1.00  0.00     0.293 HD
ENDBRANCH  17  20
ENDBRANCH   1  12
BRANCH   6  22
ATOM     22  O   UNL     1      28.579  64.646   4.495  1.00  0.00    -0.507 OA
ATOM     23  H   UNL     1      29.586  64.657   4.444  1.00  0.00     0.293 HD
ENDBRANCH   6  22
BRANCH   8  24
ATOM     24  O   UNL     1      24.172  62.832   5.064  1.00  0.00    -0.508 OA
ATOM     25  H   UNL     1      23.796  63.761   5.221  1.00  0.00     0.293 HD
ENDBRANCH   8  24
TORSDOF 5
ENDMDL
MODEL 3
REMARK VINA RESULT:    12.032      1.376      7.045
REMARK INTER + INTRA:          13.857
REMARK INTER:                  14.130
REMARK INTRA:                  -0.272
REMARK UNBOUND:                -0.285
REMARK SMILES O=c1cc(-c2ccc(O)c(O)c2)oc2cc(O)cc(O)c12
REMARK SMILES IDX 4 1 3 2 2 3 1 4 21 5 19 6 18 7 16 8 15 9 14 10 13 11 5 12
REMARK SMILES IDX 6 13 7 14 8 15 12 16 10 17 9 18 11 20 20 22 17 24
REMARK H PARENT 9 19 11 21 20 23 17 25
REMARK Flexibility Score: inf
ROOT
ATOM      1  C   UNL     1      27.119  66.062   5.273  1.00  0.00     0.138 A 
ATOM      2  C   UNL     1      26.250  66.348   6.335  1.00  0.00     0.100 A 
ATOM      3  C   UNL     1      25.929  67.675   6.627  1.00  0.00     0.197 A 
ATOM      4  O   UNL     1      25.104  67.895   7.550  1.00  0.00    -0.289 OA
ATOM      5  C   UNL     1      26.513  68.722   5.873  1.00  0.00     0.107 A 
ATOM      6  C   UNL     1      26.286  70.113   6.102  1.00  0.00     0.134 A 
ATOM      7  C   UNL     1      26.842  71.055   5.227  1.00  0.00     0.093 A 
ATOM      8  C   UNL     1      27.661  70.660   4.167  1.00  0.00     0.123 A 
ATOM      9  C   UNL     1      27.928  69.309   3.965  1.00  0.00     0.094 A 
ATOM     10  C   UNL     1      27.361  68.341   4.800  1.00  0.00     0.146 A 
ATOM     11  O   UNL     1      27.629  67.062   4.561  1.00  0.00    -0.456 OA
ENDROOT
BRANCH   1  12
ATOM     12  C   UNL     1      27.497  64.671   4.921  1.00  0.00     0.021 A 
ATOM     13  C   UNL     1      26.510  63.784   4.458  1.00  0.00     0.016 A 
ATOM     14  C   UNL     1      26.836  62.467   4.127  1.00  0.00     0.051 A 
ATOM     15  C   UNL     1      28.149  62.008   4.261  1.00  0.00     0.157 A 
ATOM     16  C   UNL     1      28.816  64.200   5.068  1.00  0.00     0.062 A 
ATOM     17  C   UNL     1      29.144  62.876   4.737  1.00  0.00     0.158 A 
BRANCH  15  18
ATOM     18  O   UNL     1      28.445  60.688   3.920  1.00  0.00    -0.504 OA
ATOM     19  H   UNL     1      27.837  60.137   3.327  1.00  0.00     0.293 HD
ENDBRANCH  15  18
BRANCH  17  20
ATOM     20  O   UNL     1      30.454  62.422   4.884  1.00  0.00    -0.504 OA
ATOM     21  H   UNL     1      30.666  61.556   5.364  1.00  0.00     0.293 HD
ENDBRANCH  17  20
ENDBRANCH   1  12
BRANCH   6  22
ATOM     22  O   UNL     1      25.551  70.621   7.176  1.00  0.00    -0.507 OA
ATOM     23  H   UNL     1      25.636  71.555   7.548  1.00  0.00     0.293 HD
ENDBRANCH   6  22
BRANCH   8  24
ATOM     24  O   UNL     1      28.222  71.605   3.311  1.00  0.00    -0.508 OA
ATOM     25  H   UNL     1      28.049  71.586   2.312  1.00  0.00     0.293 HD
ENDBRANCH   8  24
TORSDOF 5
ENDMDL
MODEL 4
REMARK VINA RESULT:    12.299      1.262      2.756
REMARK INTER + INTRA:          14.171
REMARK INTER:                  14.435
REMARK INTRA:                  -0.264
REMARK UNBOUND:                -0.285
REMARK SMILES O=c1cc(-c2ccc(O)c(O)c2)oc2cc(O)cc(O)c12
REMARK SMILES IDX 4 1 3 2 2 3 1 4 21 5 19 6 18 7 16 8 15 9 14 10 13 11 5 12
REMARK SMILES IDX 6 13 7 14 8 15 12 16 10 17 9 18 11 20 20 22 17 24
REMARK H PARENT 9 19 11 21 20 23 17 25
REMARK Flexibility Score: inf
ROOT
ATOM      1  C   UNL     1      27.397  65.823   5.078  1.00  0.00     0.138 A 
ATOM      2  C   UNL     1      28.706  65.341   5.217  1.00  0.00     0.100 A 
ATOM      3  C   UNL     1      28.973  63.990   4.985  1.00  0.00     0.197 A 
ATOM      4  O   UNL     1      30.166  63.600   5.064  1.00  0.00    -0.289 OA
ATOM      5  C   UNL     1      27.915  63.112   4.648  1.00  0.00     0.107 A 
ATOM      6  C   UNL     1      28.062  61.710   4.422  1.00  0.00     0.134 A 
ATOM      7  C   UNL     1      26.958  60.960   3.996  1.00  0.00     0.093 A 
ATOM      8  C   UNL     1      25.701  61.550   3.844  1.00  0.00     0.123 A 
ATOM      9  C   UNL     1      25.536  62.907   4.110  1.00  0.00     0.094 A 
ATOM     10  C   UNL     1      26.625  63.690   4.503  1.00  0.00     0.146 A 
ATOM     11  O   UNL     1      26.427  64.984   4.730  1.00  0.00    -0.456 OA
ENDROOT
BRANCH   1  12
ATOM     12  C   UNL     1      27.057  67.248   5.316  1.00  0.00     0.021 A 
ATOM     13  C   UNL     1      26.214  67.587   6.388  1.00  0.00     0.016 A 
ATOM     14  C   UNL     1      25.872  68.919   6.630  1.00  0.00     0.051 A 
ATOM     15  C   UNL     1      26.355  69.936   5.801  1.00  0.00     0.157 A 
ATOM     16  C   UNL     1      27.530  68.274   4.475  1.00  0.00     0.062 A 
ATOM     17  C   UNL     1      27.186  69.612   4.716  1.00  0.00     0.158 A 
BRANCH  15  18
ATOM     18  O   UNL     1      25.998  71.257   6.069  1.00  0.00    -0.504 OA
ATOM     19  H   UNL     1      25.168  71.492   6.600  1.00  0.00     0.293 HD
ENDBRANCH  15  18
BRANCH  17  20
ATOM     20  O   UNL     1      27.662  70.620   3.878  1.00  0.00    -0.504 OA
ATOM     21  H   UNL     1      27.177  71.504   3.780  1.00  0.00     0.293 HD
ENDBRANCH  17  20
ENDBRANCH   1  12
BRANCH   6  22
ATOM     22  O   UNL     1      29.252  61.004   4.620  1.00  0.00    -0.507 OA
ATOM     23  H   UNL     1      29.363  60.217   5.240  1.00  0.00     0.293 HD
ENDBRANCH   6  22
BRANCH   8  24
ATOM     24  O   UNL     1      24.605  60.794   3.436  1.00  0.00    -0.508 OA
ATOM     25  H   UNL     1      24.586  60.332   2.533  1.00  0.00     0.293 HD
ENDBRANCH   8  24
TORSDOF 5
ENDMDL
MODEL 5
REMARK VINA RESULT:    12.884      3.505      8.819
REMARK INTER + INTRA:          14.859
REMARK INTER:                  15.140
REMARK INTRA:                  -0.281
REMARK UNBOUND:                -0.285
REMARK SMILES O=c1cc(-c2ccc(O)c(O)c2)oc2cc(O)cc(O)c12
REMARK SMILES IDX 4 1 3 2 2 3 1 4 21 5 19 6 18 7 16 8 15 9 14 10 13 11 5 12
REMARK SMILES IDX 6 13 7 14 8 15 12 16 10 17 9 18 11 20 20 22 17 24
REMARK H PARENT 9 19 11 21 20 23 17 25
REMARK Flexibility Score: inf
ROOT
ATOM      1  C   UNL     1      28.558  59.244   4.306  1.00  0.00     0.138 A 
ATOM      2  C   UNL     1      27.177  59.485   4.305  1.00  0.00     0.100 A 
ATOM      3  C   UNL     1      26.703  60.788   4.465  1.00  0.00     0.197 A 
ATOM      4  O   UNL     1      25.461  60.978   4.403  1.00  0.00    -0.289 OA
ATOM      5  C   UNL     1      27.618  61.850   4.664  1.00  0.00     0.107 A 
ATOM      6  C   UNL     1      27.249  63.213   4.872  1.00  0.00     0.134 A 
ATOM      7  C   UNL     1      28.247  64.193   4.958  1.00  0.00     0.093 A 
ATOM      8  C   UNL     1      29.600  63.850   4.902  1.00  0.00     0.123 A 
ATOM      9  C   UNL     1      29.971  62.517   4.749  1.00  0.00     0.094 A 
ATOM     10  C   UNL     1      28.999  61.520   4.625  1.00  0.00     0.146 A 
ATOM     11  O   UNL     1      29.397  60.263   4.463  1.00  0.00    -0.456 OA
ENDROOT
BRANCH   1  12
ATOM     12  C   UNL     1      29.116  57.879   4.144  1.00  0.00     0.021 A 
ATOM     13  C   UNL     1      30.224  57.489   4.916  1.00  0.00     0.016 A 
ATOM     14  C   UNL     1      30.775  56.213   4.777  1.00  0.00     0.051 A 
ATOM     15  C   UNL     1      30.237  55.306   3.860  1.00  0.00     0.157 A 
ATOM     16  C   UNL     1      28.586  56.966   3.211  1.00  0.00     0.062 A 
ATOM     17  C   UNL     1      29.139  55.685   3.070  1.00  0.00     0.158 A 
BRANCH  15  18
ATOM     18  O   UNL     1      30.806  54.038   3.746  1.00  0.00    -0.504 OA
ATOM     19  H   UNL     1      30.405  53.226   4.201  1.00  0.00     0.293 HD
ENDBRANCH  15  18
BRANCH  17  20
ATOM     20  O   UNL     1      28.604  54.789   2.145  1.00  0.00    -0.504 OA
ATOM     21  H   UNL     1      27.777  55.013   1.604  1.00  0.00     0.293 HD
ENDBRANCH  17  20
ENDBRANCH   1  12
BRANCH   6  22
ATOM     22  O   UNL     1      25.932  63.655   5.022  1.00  0.00    -0.507 OA
ATOM     23  H   UNL     1      25.607  64.590   4.830  1.00  0.00     0.293 HD
ENDBRANCH   6  22
BRANCH   8  24
ATOM     24  O   UNL     1      30.586  64.829   5.005  1.00  0.00    -0.508 OA
ATOM     25  H   UNL     1      30.354  65.796   5.202  1.00  0.00     0.293 HD
ENDBRANCH   8  24
TORSDOF 5
ENDMDL
MODEL 6
REMARK VINA RESULT:    14.192      4.430      7.561
REMARK INTER + INTRA:          16.397
REMARK INTER:                  16.670
REMARK INTRA:                  -0.274
REMARK UNBOUND:                -0.285
REMARK SMILES O=c1cc(-c2ccc(O)c(O)c2)oc2cc(O)cc(O)c12
REMARK SMILES IDX 4 1 3 2 2 3 1 4 21 5 19 6 18 7 16 8 15 9 14 10 13 11 5 12
REMARK SMILES IDX 6 13 7 14 8 15 12 16 10 17 9 18 11 20 20 22 17 24
REMARK H PARENT 9 19 11 21 20 23 17 25
REMARK Flexibility Score: inf
ROOT
ATOM      1  C   UNL     1      29.023  58.832   4.284  1.00  0.00     0.138 A 
ATOM      2  C   UNL     1      30.165  58.469   5.010  1.00  0.00     0.100 A 
ATOM      3  C   UNL     1      30.600  57.142   4.996  1.00  0.00     0.197 A 
ATOM      4  O   UNL     1      31.660  56.860   5.613  1.00  0.00    -0.289 OA
ATOM      5  C   UNL     1      29.864  56.168   4.281  1.00  0.00     0.107 A 
ATOM      6  C   UNL     1      30.193  54.780   4.223  1.00  0.00     0.134 A 
ATOM      7  C   UNL     1      29.445  53.927   3.400  1.00  0.00     0.093 A 
ATOM      8  C   UNL     1      28.347  54.402   2.678  1.00  0.00     0.123 A 
ATOM      9  C   UNL     1      27.989  55.744   2.767  1.00  0.00     0.094 A 
ATOM     10  C   UNL     1      28.735  56.627   3.552  1.00  0.00     0.146 A 
ATOM     11  O   UNL     1      28.368  57.904   3.594  1.00  0.00    -0.456 OA
ENDROOT
BRANCH   1  12
ATOM     12  C   UNL     1      28.515  60.226   4.266  1.00  0.00     0.021 A 
ATOM     13  C   UNL     1      29.312  61.245   3.718  1.00  0.00     0.016 A 
ATOM     14  C   UNL     1      28.862  62.567   3.696  1.00  0.00     0.051 A 
ATOM     15  C   UNL     1      27.613  62.898   4.228  1.00  0.00     0.157 A 
ATOM     16  C   UNL     1      27.262  60.567   4.814  1.00  0.00     0.062 A 
ATOM     17  C   UNL     1      26.810  61.894   4.793  1.00  0.00     0.158 A 
BRANCH  15  18
ATOM     18  O   UNL     1      27.189  64.225   4.188  1.00  0.00    -0.504 OA
ATOM     19  H   UNL     1      26.403  64.522   3.622  1.00  0.00     0.293 HD
ENDBRANCH  15  18
BRANCH  17  20
ATOM     20  O   UNL     1      25.567  62.219   5.336  1.00  0.00    -0.504 OA
ATOM     21  H   UNL     1      25.024  61.544   5.862  1.00  0.00     0.293 HD
ENDBRANCH  17  20
ENDBRANCH   1  12
BRANCH   6  22
ATOM     22  O   UNL     1      31.218  54.186   4.963  1.00  0.00    -0.507 OA
ATOM     23  H   UNL     1      31.439  54.398   5.924  1.00  0.00     0.293 HD
ENDBRANCH   6  22
BRANCH   8  24
ATOM     24  O   UNL     1      27.601  53.544   1.875  1.00  0.00    -0.508 OA
ATOM     25  H   UNL     1      27.443  53.740   0.892  1.00  0.00     0.293 HD
ENDBRANCH   8  24
TORSDOF 5
ENDMDL
