MODEL 1
REMARK VINA RESULT:    -4.137      0.000      0.000
REMARK INTER + INTRA:         -10.492
REMARK INTER:                  -8.006
REMARK INTRA:                  -2.485
REMARK UNBOUND:                -2.485
REMARK SMILES CCCCCCCCCCCCCCCCCC(=O)[O-]
REMARK SMILES IDX 10 1 11 2 12 3 13 4 14 5 15 6 16 7 17 8 18 9 19 10 20 11
REMARK SMILES IDX 9 12 8 13 7 14 6 15 5 16 4 17 3 18 2 19 1 20
REMARK H PARENT
REMARK Flexibility Score: inf
ROOT
ATOM      1  C   UNL     1       3.852   2.908  -9.679  1.00  0.00     0.000 C 
ENDROOT
BRANCH   1   2
ATOM      2  C   UNL     1       5.257   2.844  -9.057  1.00  0.00     0.000 C 
BRANCH   2   3
ATOM      3  C   UNL     1       6.163   1.812  -9.749  1.00  0.00     0.000 C 
BRANCH   3   4
ATOM      4  C   UNL     1       7.422   2.442 -10.367  1.00  0.00     0.000 C 
BRANCH   4   5
ATOM      5  C   UNL     1       8.730   2.039  -9.654  1.00  0.00     0.000 C 
BRANCH   5   6
ATOM      6  C   UNL     1       8.469   1.183  -8.402  1.00  0.00     0.000 C 
BRANCH   6   7
ATOM      7  C   UNL     1       9.161   1.730  -7.142  1.00  0.00     0.006 C 
BRANCH   7   8
ATOM      8  C   UNL     1       9.992   0.682  -6.382  1.00  0.00     0.053 C 
BRANCH   8   9
ATOM      9  C   UNL     1       9.366   0.289  -5.078  1.00  0.00     0.041 C 
ATOM     10  O   UNL     1       9.351  -0.918  -4.721  1.00  0.00    -0.550 OA
ATOM     11  O   UNL     1       8.766   1.249  -4.273  1.00  0.00    -0.550 OA
ENDBRANCH   8   9
ENDBRANCH   7   8
ENDBRANCH   6   7
ENDBRANCH   5   6
ENDBRANCH   4   5
ENDBRANCH   3   4
ENDBRANCH   2   3
ENDBRANCH   1   2
BRANCH   1  12
ATOM     12  C   UNL     1       3.597   4.224 -10.431  1.00  0.00     0.000 C 
BRANCH  12  13
ATOM     13  C   UNL     1       4.914   4.966 -10.698  1.00  0.00    -0.000 C 
BRANCH  13  14
ATOM     14  C   UNL     1       4.904   6.412 -10.167  1.00  0.00    -0.000 C 
BRANCH  14  15
ATOM     15  C   UNL     1       5.835   6.672  -8.966  1.00  0.00    -0.000 C 
BRANCH  15  16
ATOM     16  C   UNL     1       7.202   5.964  -9.036  1.00  0.00    -0.000 C 
BRANCH  16  17
ATOM     17  C   UNL     1       7.587   5.162  -7.776  1.00  0.00    -0.000 C 
BRANCH  17  18
ATOM     18  C   UNL     1       6.636   5.335  -6.579  1.00  0.00    -0.000 C 
BRANCH  18  19
ATOM     19  C   UNL     1       6.900   4.321  -5.457  1.00  0.00    -0.003 C 
ATOM     20  C   UNL     1       5.994   3.101  -5.593  1.00  0.00     0.004 C 
ENDBRANCH  18  19
ENDBRANCH  17  18
ENDBRANCH  16  17
ENDBRANCH  15  16
ENDBRANCH  14  15
ENDBRANCH  13  14
ENDBRANCH  12  13
ENDBRANCH   1  12
TORSDOF 16
ENDMDL
MODEL 2
REMARK VINA RESULT:    -4.082     13.651     16.357
REMARK INTER + INTRA:         -10.386
REMARK INTER:                  -8.413
REMARK INTRA:                  -1.973
REMARK UNBOUND:                -2.485
REMARK SMILES CCCCCCCCCCCCCCCCCC(=O)[O-]
REMARK SMILES IDX 10 1 11 2 12 3 13 4 14 5 15 6 16 7 17 8 18 9 19 10 20 11
REMARK SMILES IDX 9 12 8 13 7 14 6 15 5 16 4 17 3 18 2 19 1 20
REMARK H PARENT
REMARK Flexibility Score: inf
ROOT
ATOM      1  C   UNL     1      -6.269  14.075  -3.291  1.00  0.00     0.000 C 
ENDROOT
BRANCH   1   2
ATOM      2  C   UNL     1      -4.940  13.693  -2.619  1.00  0.00     0.000 C 
BRANCH   2   3
ATOM      3  C   UNL     1      -4.058  12.808  -3.514  1.00  0.00     0.000 C 
BRANCH   3   4
ATOM      4  C   UNL     1      -3.131  13.623  -4.433  1.00  0.00     0.000 C 
BRANCH   4   5
ATOM      5  C   UNL     1      -3.115  13.126  -5.893  1.00  0.00     0.000 C 
BRANCH   5   6
ATOM      6  C   UNL     1      -1.898  13.652  -6.673  1.00  0.00     0.000 C 
BRANCH   6   7
ATOM      7  C   UNL     1      -1.508  12.756  -7.862  1.00  0.00     0.006 C 
BRANCH   7   8
ATOM      8  C   UNL     1      -2.525  11.642  -8.164  1.00  0.00     0.053 C 
BRANCH   8   9
ATOM      9  C   UNL     1      -2.374  11.088  -9.548  1.00  0.00     0.041 C 
ATOM     10  O   UNL     1      -1.304  10.519  -9.889  1.00  0.00    -0.550 OA
ATOM     11  O   UNL     1      -3.400  11.230 -10.474  1.00  0.00    -0.550 OA
ENDBRANCH   8   9
ENDBRANCH   7   8
ENDBRANCH   6   7
ENDBRANCH   5   6
ENDBRANCH   4   5
ENDBRANCH   3   4
ENDBRANCH   2   3
ENDBRANCH   1   2
BRANCH   1  12
ATOM     12  C   UNL     1      -7.493  13.693  -2.445  1.00  0.00     0.000 C 
BRANCH  12  13
ATOM     13  C   UNL     1      -8.731  13.497  -3.331  1.00  0.00    -0.000 C 
BRANCH  13  14
ATOM     14  C   UNL     1      -9.098  12.015  -3.528  1.00  0.00    -0.000 C 
BRANCH  14  15
ATOM     15  C   UNL     1      -8.940  11.489  -4.969  1.00  0.00    -0.000 C 
BRANCH  15  16
ATOM     16  C   UNL     1      -7.636  10.714  -5.240  1.00  0.00    -0.000 C 
BRANCH  16  17
ATOM     17  C   UNL     1      -6.534  11.521  -5.957  1.00  0.00    -0.000 C 
BRANCH  17  18
ATOM     18  C   UNL     1      -7.013  12.821  -6.628  1.00  0.00    -0.000 C 
BRANCH  18  19
ATOM     19  C   UNL     1      -7.506  12.603  -8.066  1.00  0.00    -0.003 C 
ATOM     20  C   UNL     1      -6.339  12.338  -9.012  1.00  0.00     0.004 C 
ENDBRANCH  18  19
ENDBRANCH  17  18
ENDBRANCH  16  17
ENDBRANCH  15  16
ENDBRANCH  14  15
ENDBRANCH  13  14
ENDBRANCH  12  13
ENDBRANCH   1  12
TORSDOF 16
ENDMDL
MODEL 3
REMARK VINA RESULT:    -4.019     14.274     16.894
REMARK INTER + INTRA:         -10.263
REMARK INTER:                  -8.236
REMARK INTRA:                  -2.026
REMARK UNBOUND:                -2.485
REMARK SMILES CCCCCCCCCCCCCCCCCC(=O)[O-]
REMARK SMILES IDX 10 1 11 2 12 3 13 4 14 5 15 6 16 7 17 8 18 9 19 10 20 11
REMARK SMILES IDX 9 12 8 13 7 14 6 15 5 16 4 17 3 18 2 19 1 20
REMARK H PARENT
REMARK Flexibility Score: inf
ROOT
ATOM      1  C   UNL     1      -6.630  13.093  -3.471  1.00  0.00     0.000 C 
ENDROOT
BRANCH   1   2
ATOM      2  C   UNL     1      -5.324  13.672  -2.902  1.00  0.00     0.000 C 
BRANCH   2   3
ATOM      3  C   UNL     1      -4.075  12.965  -3.454  1.00  0.00     0.000 C 
BRANCH   3   4
ATOM      4  C   UNL     1      -3.065  13.941  -4.082  1.00  0.00     0.000 C 
BRANCH   4   5
ATOM      5  C   UNL     1      -2.963  13.821  -5.617  1.00  0.00     0.000 C 
BRANCH   5   6
ATOM      6  C   UNL     1      -4.288  13.368  -6.255  1.00  0.00     0.000 C 
BRANCH   6   7
ATOM      7  C   UNL     1      -4.106  12.250  -7.296  1.00  0.00     0.006 C 
BRANCH   7   8
ATOM      8  C   UNL     1      -2.647  11.799  -7.480  1.00  0.00     0.053 C 
BRANCH   8   9
ATOM      9  C   UNL     1      -2.315  11.498  -8.910  1.00  0.00     0.041 C 
ATOM     10  O   UNL     1      -1.124  11.273  -9.250  1.00  0.00    -0.550 OA
ATOM     11  O   UNL     1      -3.315  11.500  -9.875  1.00  0.00    -0.550 OA
ENDBRANCH   8   9
ENDBRANCH   7   8
ENDBRANCH   6   7
ENDBRANCH   5   6
ENDBRANCH   4   5
ENDBRANCH   3   4
ENDBRANCH   2   3
ENDBRANCH   1   2
BRANCH   1  12
ATOM     12  C   UNL     1      -7.877  13.615  -2.740  1.00  0.00     0.000 C 
BRANCH  12  13
ATOM     13  C   UNL     1      -9.088  13.654  -3.683  1.00  0.00    -0.000 C 
BRANCH  13  14
ATOM     14  C   UNL     1     -10.113  12.543  -3.387  1.00  0.00    -0.000 C 
BRANCH  14  15
ATOM     15  C   UNL     1      -9.588  11.387  -2.512  1.00  0.00    -0.000 C 
BRANCH  15  16
ATOM     16  C   UNL     1      -9.392  10.049  -3.249  1.00  0.00    -0.000 C 
BRANCH  16  17
ATOM     17  C   UNL     1      -9.490  10.129  -4.786  1.00  0.00    -0.000 C 
BRANCH  17  18
ATOM     18  C   UNL     1      -8.250   9.625  -5.544  1.00  0.00    -0.000 C 
BRANCH  18  19
ATOM     19  C   UNL     1      -7.309  10.761  -5.970  1.00  0.00    -0.003 C 
ATOM     20  C   UNL     1      -8.069  11.854  -6.715  1.00  0.00     0.004 C 
ENDBRANCH  18  19
ENDBRANCH  17  18
ENDBRANCH  16  17
ENDBRANCH  15  16
ENDBRANCH  14  15
ENDBRANCH  13  14
ENDBRANCH  12  13
ENDBRANCH   1  12
TORSDOF 16
ENDMDL
MODEL 4
REMARK VINA RESULT:    -3.971     13.697     16.250
REMARK INTER + INTRA:         -10.171
REMARK INTER:                  -8.167
REMARK INTRA:                  -2.005
REMARK UNBOUND:                -2.485
REMARK SMILES CCCCCCCCCCCCCCCCCC(=O)[O-]
REMARK SMILES IDX 10 1 11 2 12 3 13 4 14 5 15 6 16 7 17 8 18 9 19 10 20 11
REMARK SMILES IDX 9 12 8 13 7 14 6 15 5 16 4 17 3 18 2 19 1 20
REMARK H PARENT
REMARK Flexibility Score: inf
ROOT
ATOM      1  C   UNL     1      -6.666  13.015  -3.523  1.00  0.00     0.000 C 
ENDROOT
BRANCH   1   2
ATOM      2  C   UNL     1      -5.357  13.658  -3.036  1.00  0.00     0.000 C 
BRANCH   2   3
ATOM      3  C   UNL     1      -4.122  12.799  -3.354  1.00  0.00     0.000 C 
BRANCH   3   4
ATOM      4  C   UNL     1      -3.606  13.002  -4.789  1.00  0.00     0.000 C 
BRANCH   4   5
ATOM      5  C   UNL     1      -3.819  11.777  -5.702  1.00  0.00     0.000 C 
BRANCH   5   6
ATOM      6  C   UNL     1      -3.870  12.162  -7.190  1.00  0.00     0.000 C 
BRANCH   6   7
ATOM      7  C   UNL     1      -2.490  12.125  -7.871  1.00  0.00     0.006 C 
BRANCH   7   8
ATOM      8  C   UNL     1      -2.130  10.758  -8.477  1.00  0.00     0.053 C 
BRANCH   8   9
ATOM      9  C   UNL     1      -2.555  10.635  -9.909  1.00  0.00     0.041 C 
ATOM     10  O   UNL     1      -3.483  11.356 -10.359  1.00  0.00    -0.550 OA
ATOM     11  O   UNL     1      -1.952   9.697 -10.738  1.00  0.00    -0.550 OA
ENDBRANCH   8   9
ENDBRANCH   7   8
ENDBRANCH   6   7
ENDBRANCH   5   6
ENDBRANCH   4   5
ENDBRANCH   3   4
ENDBRANCH   2   3
ENDBRANCH   1   2
BRANCH   1  12
ATOM     12  C   UNL     1      -7.488  13.952  -4.421  1.00  0.00     0.000 C 
BRANCH  12  13
ATOM     13  C   UNL     1      -6.931  13.968  -5.851  1.00  0.00    -0.000 C 
BRANCH  13  14
ATOM     14  C   UNL     1      -7.929  13.421  -6.888  1.00  0.00    -0.000 C 
BRANCH  14  15
ATOM     15  C   UNL     1      -7.513  12.097  -7.560  1.00  0.00    -0.000 C 
BRANCH  15  16
ATOM     16  C   UNL     1      -8.322  10.861  -7.122  1.00  0.00    -0.000 C 
BRANCH  16  17
ATOM     17  C   UNL     1      -7.918  10.266  -5.758  1.00  0.00    -0.000 C 
BRANCH  17  18
ATOM     18  C   UNL     1      -9.093   9.820  -4.870  1.00  0.00    -0.000 C 
BRANCH  18  19
ATOM     19  C   UNL     1      -8.806   9.993  -3.371  1.00  0.00    -0.003 C 
ATOM     20  C   UNL     1      -9.881  10.843  -2.701  1.00  0.00     0.004 C 
ENDBRANCH  18  19
ENDBRANCH  17  18
ENDBRANCH  16  17
ENDBRANCH  15  16
ENDBRANCH  14  15
ENDBRANCH  13  14
ENDBRANCH  12  13
ENDBRANCH   1  12
TORSDOF 16
ENDMDL
MODEL 5
REMARK VINA RESULT:    -3.912     13.493     16.408
REMARK INTER + INTRA:         -10.055
REMARK INTER:                  -8.549
REMARK INTRA:                  -1.507
REMARK UNBOUND:                -2.485
REMARK SMILES CCCCCCCCCCCCCCCCCC(=O)[O-]
REMARK SMILES IDX 10 1 11 2 12 3 13 4 14 5 15 6 16 7 17 8 18 9 19 10 20 11
REMARK SMILES IDX 9 12 8 13 7 14 6 15 5 16 4 17 3 18 2 19 1 20
REMARK H PARENT
REMARK Flexibility Score: inf
ROOT
ATOM      1  C   UNL     1      -5.179  13.696  -2.424  1.00  0.00     0.000 C 
ENDROOT
BRANCH   1   2
ATOM      2  C   UNL     1      -6.689  13.899  -2.630  1.00  0.00     0.000 C 
BRANCH   2   3
ATOM      3  C   UNL     1      -7.255  13.022  -3.760  1.00  0.00     0.000 C 
BRANCH   3   4
ATOM      4  C   UNL     1      -7.588  13.825  -5.029  1.00  0.00     0.000 C 
BRANCH   4   5
ATOM      5  C   UNL     1      -8.352  13.010  -6.093  1.00  0.00     0.000 C 
BRANCH   5   6
ATOM      6  C   UNL     1      -7.449  11.985  -6.800  1.00  0.00     0.000 C 
BRANCH   6   7
ATOM      7  C   UNL     1      -8.228  11.013  -7.702  1.00  0.00     0.006 C 
BRANCH   7   8
ATOM      8  C   UNL     1      -9.245  10.140  -6.947  1.00  0.00     0.053 C 
BRANCH   8   9
ATOM      9  C   UNL     1      -8.586   9.118  -6.071  1.00  0.00     0.041 C 
ATOM     10  O   UNL     1      -8.459   7.930  -6.468  1.00  0.00    -0.550 OA
ATOM     11  O   UNL     1      -8.144   9.468  -4.800  1.00  0.00    -0.550 OA
ENDBRANCH   8   9
ENDBRANCH   7   8
ENDBRANCH   6   7
ENDBRANCH   5   6
ENDBRANCH   4   5
ENDBRANCH   3   4
ENDBRANCH   2   3
ENDBRANCH   1   2
BRANCH   1  12
ATOM     12  C   UNL     1      -4.373  13.893  -3.716  1.00  0.00     0.000 C 
BRANCH  12  13
ATOM     13  C   UNL     1      -3.568  12.631  -4.058  1.00  0.00    -0.000 C 
BRANCH  13  14
ATOM     14  C   UNL     1      -3.927  12.048  -5.437  1.00  0.00    -0.000 C 
BRANCH  14  15
ATOM     15  C   UNL     1      -3.587  12.955  -6.637  1.00  0.00    -0.000 C 
BRANCH  15  16
ATOM     16  C   UNL     1      -2.083  13.210  -6.856  1.00  0.00    -0.000 C 
BRANCH  16  17
ATOM     17  C   UNL     1      -1.497  12.593  -8.143  1.00  0.00    -0.000 C 
BRANCH  17  18
ATOM     18  C   UNL     1      -2.440  11.633  -8.891  1.00  0.00    -0.000 C 
BRANCH  18  19
ATOM     19  C   UNL     1      -1.943  10.180  -8.879  1.00  0.00    -0.003 C 
ATOM     20  C   UNL     1      -1.964   9.581 -10.282  1.00  0.00     0.004 C 
ENDBRANCH  18  19
ENDBRANCH  17  18
ENDBRANCH  16  17
ENDBRANCH  15  16
ENDBRANCH  14  15
ENDBRANCH  13  14
ENDBRANCH  12  13
ENDBRANCH   1  12
TORSDOF 16
ENDMDL
MODEL 6
REMARK VINA RESULT:    -3.819     13.734     16.523
REMARK INTER + INTRA:          -9.876
REMARK INTER:                  -7.396
REMARK INTRA:                  -2.480
REMARK UNBOUND:                -2.485
REMARK SMILES CCCCCCCCCCCCCCCCCC(=O)[O-]
REMARK SMILES IDX 10 1 11 2 12 3 13 4 14 5 15 6 16 7 17 8 18 9 19 10 20 11
REMARK SMILES IDX 9 12 8 13 7 14 6 15 5 16 4 17 3 18 2 19 1 20
REMARK H PARENT
REMARK Flexibility Score: inf
ROOT
ATOM      1  C   UNL     1      -6.399  11.236  -4.441  1.00  0.00     0.000 C 
ENDROOT
BRANCH   1   2
ATOM      2  C   UNL     1      -6.702  12.653  -3.927  1.00  0.00     0.000 C 
BRANCH   2   3
ATOM      3  C   UNL     1      -5.439  13.396  -3.461  1.00  0.00     0.000 C 
BRANCH   3   4
ATOM      4  C   UNL     1      -4.146  12.617  -3.754  1.00  0.00     0.000 C 
BRANCH   4   5
ATOM      5  C   UNL     1      -3.235  13.300  -4.795  1.00  0.00     0.000 C 
BRANCH   5   6
ATOM      6  C   UNL     1      -3.844  13.273  -6.208  1.00  0.00     0.000 C 
BRANCH   6   7
ATOM      7  C   UNL     1      -3.426  12.037  -7.023  1.00  0.00     0.006 C 
BRANCH   7   8
ATOM      8  C   UNL     1      -2.186  12.263  -7.906  1.00  0.00     0.053 C 
BRANCH   8   9
ATOM      9  C   UNL     1      -2.262  11.516  -9.203  1.00  0.00     0.041 C 
ATOM     10  O   UNL     1      -3.325  11.524  -9.877  1.00  0.00    -0.550 OA
ATOM     11  O   UNL     1      -1.171  10.782  -9.652  1.00  0.00    -0.550 OA
ENDBRANCH   8   9
ENDBRANCH   7   8
ENDBRANCH   6   7
ENDBRANCH   5   6
ENDBRANCH   4   5
ENDBRANCH   3   4
ENDBRANCH   2   3
ENDBRANCH   1   2
BRANCH   1  12
ATOM     12  C   UNL     1      -7.661  10.371  -4.575  1.00  0.00     0.000 C 
BRANCH  12  13
ATOM     13  C   UNL     1      -8.923  11.195  -4.281  1.00  0.00    -0.000 C 
BRANCH  13  14
ATOM     14  C   UNL     1     -10.008  11.036  -5.362  1.00  0.00    -0.000 C 
BRANCH  14  15
ATOM     15  C   UNL     1      -9.664  11.662  -6.728  1.00  0.00    -0.000 C 
BRANCH  15  16
ATOM     16  C   UNL     1      -9.198  13.130  -6.674  1.00  0.00    -0.000 C 
BRANCH  16  17
ATOM     17  C   UNL     1      -7.783  13.387  -7.233  1.00  0.00    -0.000 C 
BRANCH  17  18
ATOM     18  C   UNL     1      -7.122  12.174  -7.910  1.00  0.00    -0.000 C 
BRANCH  18  19
ATOM     19  C   UNL     1      -6.614  12.485  -9.325  1.00  0.00    -0.003 C 
ATOM     20  C   UNL     1      -7.471  11.793 -10.381  1.00  0.00     0.004 C 
ENDBRANCH  18  19
ENDBRANCH  17  18
ENDBRANCH  16  17
ENDBRANCH  15  16
ENDBRANCH  14  15
ENDBRANCH  13  14
ENDBRANCH  12  13
ENDBRANCH   1  12
TORSDOF 16
ENDMDL
MODEL 7
REMARK VINA RESULT:    -3.772      1.306      2.055
REMARK INTER + INTRA:          -9.784
REMARK INTER:                  -7.323
REMARK INTRA:                  -2.462
REMARK UNBOUND:                -2.485
REMARK SMILES CCCCCCCCCCCCCCCCCC(=O)[O-]
REMARK SMILES IDX 10 1 11 2 12 3 13 4 14 5 15 6 16 7 17 8 18 9 19 10 20 11
REMARK SMILES IDX 9 12 8 13 7 14 6 15 5 16 4 17 3 18 2 19 1 20
REMARK H PARENT
REMARK Flexibility Score: inf
ROOT
ATOM      1  C   UNL     1       5.375   2.878  -9.219  1.00  0.00     0.000 C 
ENDROOT
BRANCH   1   2
ATOM      2  C   UNL     1       5.884   1.479  -9.605  1.00  0.00     0.000 C 
BRANCH   2   3
ATOM      3  C   UNL     1       6.611   1.468 -10.959  1.00  0.00     0.000 C 
BRANCH   3   4
ATOM      4  C   UNL     1       8.000   2.126 -10.897  1.00  0.00     0.000 C 
BRANCH   4   5
ATOM      5  C   UNL     1       9.084   1.226 -10.269  1.00  0.00     0.000 C 
BRANCH   5   6
ATOM      6  C   UNL     1       9.713   1.861  -9.017  1.00  0.00     0.000 C 
BRANCH   6   7
ATOM      7  C   UNL     1       9.326   1.139  -7.714  1.00  0.00     0.006 C 
BRANCH   7   8
ATOM      8  C   UNL     1       8.657   2.051  -6.670  1.00  0.00     0.053 C 
BRANCH   8   9
ATOM      9  C   UNL     1       8.076   1.280  -5.524  1.00  0.00     0.041 C 
ATOM     10  O   UNL     1       8.668   1.253  -4.414  1.00  0.00    -0.550 OA
ATOM     11  O   UNL     1       6.899   0.561  -5.691  1.00  0.00    -0.550 OA
ENDBRANCH   8   9
ENDBRANCH   7   8
ENDBRANCH   6   7
ENDBRANCH   5   6
ENDBRANCH   4   5
ENDBRANCH   3   4
ENDBRANCH   2   3
ENDBRANCH   1   2
BRANCH   1  12
ATOM     12  C   UNL     1       3.916   3.114  -9.638  1.00  0.00     0.000 C 
BRANCH  12  13
ATOM     13  C   UNL     1       3.844   3.985 -10.900  1.00  0.00    -0.000 C 
BRANCH  13  14
ATOM     14  C   UNL     1       5.062   4.914 -11.057  1.00  0.00    -0.000 C 
BRANCH  14  15
ATOM     15  C   UNL     1       4.869   6.343 -10.512  1.00  0.00    -0.000 C 
BRANCH  15  16
ATOM     16  C   UNL     1       6.076   7.281 -10.700  1.00  0.00    -0.000 C 
BRANCH  16  17
ATOM     17  C   UNL     1       6.976   7.445  -9.458  1.00  0.00    -0.000 C 
BRANCH  17  18
ATOM     18  C   UNL     1       6.374   6.912  -8.146  1.00  0.00    -0.000 C 
BRANCH  18  19
ATOM     19  C   UNL     1       7.078   5.645  -7.639  1.00  0.00    -0.003 C 
ATOM     20  C   UNL     1       8.246   5.265  -8.545  1.00  0.00     0.004 C 
ENDBRANCH  18  19
ENDBRANCH  17  18
ENDBRANCH  16  17
ENDBRANCH  15  16
ENDBRANCH  14  15
ENDBRANCH  13  14
ENDBRANCH  12  13
ENDBRANCH   1  12
TORSDOF 16
ENDMDL
MODEL 8
REMARK VINA RESULT:    -3.701      2.274      4.506
REMARK INTER + INTRA:          -9.648
REMARK INTER:                  -6.861
REMARK INTRA:                  -2.786
REMARK UNBOUND:                -2.485
REMARK SMILES CCCCCCCCCCCCCCCCCC(=O)[O-]
REMARK SMILES IDX 10 1 11 2 12 3 13 4 14 5 15 6 16 7 17 8 18 9 19 10 20 11
REMARK SMILES IDX 9 12 8 13 7 14 6 15 5 16 4 17 3 18 2 19 1 20
REMARK H PARENT
REMARK Flexibility Score: inf
ROOT
ATOM      1  C   UNL     1       7.171   3.850  -4.833  1.00  0.00     0.000 C 
ENDROOT
BRANCH   1   2
ATOM      2  C   UNL     1       8.294   2.917  -4.351  1.00  0.00     0.000 C 
BRANCH   2   3
ATOM      3  C   UNL     1       9.263   2.525  -5.479  1.00  0.00     0.000 C 
BRANCH   3   4
ATOM      4  C   UNL     1       9.023   1.100  -6.005  1.00  0.00     0.000 C 
BRANCH   4   5
ATOM      5  C   UNL     1       9.465   0.898  -7.470  1.00  0.00     0.000 C 
BRANCH   5   6
ATOM      6  C   UNL     1       9.465   2.215  -8.263  1.00  0.00     0.000 C 
BRANCH   6   7
ATOM      7  C   UNL     1       8.545   2.179  -9.496  1.00  0.00     0.006 C 
BRANCH   7   8
ATOM      8  C   UNL     1       8.133   0.761  -9.926  1.00  0.00     0.053 C 
BRANCH   8   9
ATOM      9  C   UNL     1       6.657   0.531  -9.809  1.00  0.00     0.041 C 
ATOM     10  O   UNL     1       5.938   0.495 -10.842  1.00  0.00    -0.550 OA
ATOM     11  O   UNL     1       6.068   0.394  -8.559  1.00  0.00    -0.550 OA
ENDBRANCH   8   9
ENDBRANCH   7   8
ENDBRANCH   6   7
ENDBRANCH   5   6
ENDBRANCH   4   5
ENDBRANCH   3   4
ENDBRANCH   2   3
ENDBRANCH   1   2
BRANCH   1  12
ATOM     12  C   UNL     1       6.108   3.117  -5.664  1.00  0.00     0.000 C 
BRANCH  12  13
ATOM     13  C   UNL     1       6.053   3.671  -7.094  1.00  0.00    -0.000 C 
BRANCH  13  14
ATOM     14  C   UNL     1       6.604   5.105  -7.203  1.00  0.00    -0.000 C 
BRANCH  14  15
ATOM     15  C   UNL     1       7.460   5.382  -8.455  1.00  0.00    -0.000 C 
BRANCH  15  16
ATOM     16  C   UNL     1       6.728   6.118  -9.594  1.00  0.00    -0.000 C 
BRANCH  16  17
ATOM     17  C   UNL     1       6.552   5.302 -10.891  1.00  0.00    -0.000 C 
BRANCH  17  18
ATOM     18  C   UNL     1       5.657   4.057 -10.760  1.00  0.00    -0.000 C 
BRANCH  18  19
ATOM     19  C   UNL     1       4.222   4.397 -10.333  1.00  0.00    -0.003 C 
ATOM     20  C   UNL     1       3.534   3.188  -9.706  1.00  0.00     0.004 C 
ENDBRANCH  18  19
ENDBRANCH  17  18
ENDBRANCH  16  17
ENDBRANCH  15  16
ENDBRANCH  14  15
ENDBRANCH  13  14
ENDBRANCH  12  13
ENDBRANCH   1  12
TORSDOF 16
ENDMDL
MODEL 9
REMARK VINA RESULT:    -3.673      3.519      6.056
REMARK INTER + INTRA:          -9.594
REMARK INTER:                  -8.354
REMARK INTRA:                  -1.240
REMARK UNBOUND:                -2.485
REMARK SMILES CCCCCCCCCCCCCCCCCC(=O)[O-]
REMARK SMILES IDX 10 1 11 2 12 3 13 4 14 5 15 6 16 7 17 8 18 9 19 10 20 11
REMARK SMILES IDX 9 12 8 13 7 14 6 15 5 16 4 17 3 18 2 19 1 20
REMARK H PARENT
REMARK Flexibility Score: inf
ROOT
ATOM      1  C   UNL     1       3.673   2.339 -10.942  1.00  0.00     0.000 C 
ENDROOT
BRANCH   1   2
ATOM      2  C   UNL     1       5.003   2.988 -10.528  1.00  0.00     0.000 C 
BRANCH   2   3
ATOM      3  C   UNL     1       4.912   3.713  -9.176  1.00  0.00     0.000 C 
BRANCH   3   4
ATOM      4  C   UNL     1       6.211   3.617  -8.357  1.00  0.00     0.000 C 
BRANCH   4   5
ATOM      5  C   UNL     1       5.977   3.368  -6.852  1.00  0.00     0.000 C 
BRANCH   5   6
ATOM      6  C   UNL     1       6.991   4.120  -5.974  1.00  0.00     0.000 C 
BRANCH   6   7
ATOM      7  C   UNL     1       7.518   3.276  -4.801  1.00  0.00     0.006 C 
BRANCH   7   8
ATOM      8  C   UNL     1       8.707   2.371  -5.167  1.00  0.00     0.053 C 
BRANCH   8   9
ATOM      9  C   UNL     1       8.334   0.920  -5.202  1.00  0.00     0.041 C 
ATOM     10  O   UNL     1       7.174   0.572  -5.547  1.00  0.00    -0.550 OA
ATOM     11  O   UNL     1       9.254  -0.048  -4.819  1.00  0.00    -0.550 OA
ENDBRANCH   8   9
ENDBRANCH   7   8
ENDBRANCH   6   7
ENDBRANCH   5   6
ENDBRANCH   4   5
ENDBRANCH   3   4
ENDBRANCH   2   3
ENDBRANCH   1   2
BRANCH   1  12
ATOM     12  C   UNL     1       3.742   0.804 -10.960  1.00  0.00     0.000 C 
BRANCH  12  13
ATOM     13  C   UNL     1       5.136   0.315 -10.544  1.00  0.00    -0.000 C 
BRANCH  13  14
ATOM     14  C   UNL     1       5.089  -0.936  -9.647  1.00  0.00    -0.000 C 
BRANCH  14  15
ATOM     15  C   UNL     1       3.736  -1.677  -9.631  1.00  0.00    -0.000 C 
BRANCH  15  16
ATOM     16  C   UNL     1       3.622  -2.847 -10.627  1.00  0.00    -0.000 C 
BRANCH  16  17
ATOM     17  C   UNL     1       4.921  -3.650 -10.843  1.00  0.00    -0.000 C 
BRANCH  17  18
ATOM     18  C   UNL     1       5.031  -4.942 -10.014  1.00  0.00    -0.000 C 
BRANCH  18  19
ATOM     19  C   UNL     1       6.480  -5.290  -9.642  1.00  0.00    -0.003 C 
ATOM     20  C   UNL     1       7.440  -4.192 -10.090  1.00  0.00     0.004 C 
ENDBRANCH  18  19
ENDBRANCH  17  18
ENDBRANCH  16  17
ENDBRANCH  15  16
ENDBRANCH  14  15
ENDBRANCH  13  14
ENDBRANCH  12  13
ENDBRANCH   1  12
TORSDOF 16
ENDMDL
