MODEL 1
REMARK VINA RESULT:    -4.763      0.000      0.000
REMARK INTER + INTRA:          -5.504
REMARK INTER:                  -5.459
REMARK INTRA:                  -0.045
REMARK UNBOUND:                -0.045
REMARK SMILES O=C([O-])c1cc(O)c(O)c(O)c1
REMARK SMILES IDX 4 1 5 2 12 3 6 4 10 5 8 6 2 7 1 8 3 9 7 10 11 12 9 14
REMARK H PARENT 7 11 11 13 9 15
REMARK Flexibility Score: inf
ROOT
ATOM      1  C   UNL     1     129.688 136.888 139.977  1.00  0.00     0.005 A 
ATOM      2  C   UNL     1     130.194 138.194 140.085  1.00  0.00     0.060 A 
ATOM      3  C   UNL     1     128.484 136.677 139.284  1.00  0.00     0.060 A 
ATOM      4  C   UNL     1     129.509 139.273 139.509  1.00  0.00     0.162 A 
ATOM      5  C   UNL     1     127.795 137.754 138.706  1.00  0.00     0.162 A 
ATOM      6  C   UNL     1     128.309 139.056 138.820  1.00  0.00     0.200 A 
ENDROOT
BRANCH   1   7
ATOM      7  C   UNL     1     130.417 135.753 140.588  1.00  0.00     0.072 C 
ATOM      8  O   UNL     1     130.415 135.589 141.837  1.00  0.00    -0.545 OA
ATOM      9  O   UNL     1     131.111 134.851 139.791  1.00  0.00    -0.545 OA
ENDBRANCH   1   7
BRANCH   4  10
ATOM     10  O   UNL     1     130.015 140.568 139.618  1.00  0.00    -0.504 OA
ATOM     11  H   UNL     1     131.005 140.741 139.751  1.00  0.00     0.293 HD
ENDBRANCH   4  10
BRANCH   5  12
ATOM     12  O   UNL     1     126.602 137.532 138.021  1.00  0.00    -0.504 OA
ATOM     13  H   UNL     1     126.543 136.874 137.254  1.00  0.00     0.293 HD
ENDBRANCH   5  12
BRANCH   6  14
ATOM     14  O   UNL     1     127.642 140.142 138.253  1.00  0.00    -0.502 OA
ATOM     15  H   UNL     1     127.226 140.097 137.331  1.00  0.00     0.293 HD
ENDBRANCH   6  14
TORSDOF 4
ENDMDL
MODEL 2
REMARK VINA RESULT:    -4.756      0.040      2.422
REMARK INTER + INTRA:          -5.496
REMARK INTER:                  -5.451
REMARK INTRA:                  -0.045
REMARK UNBOUND:                -0.045
REMARK SMILES O=C([O-])c1cc(O)c(O)c(O)c1
REMARK SMILES IDX 4 1 5 2 12 3 6 4 10 5 8 6 2 7 1 8 3 9 7 10 11 12 9 14
REMARK H PARENT 7 11 11 13 9 15
REMARK Flexibility Score: inf
ROOT
ATOM      1  C   UNL     1     129.706 136.892 139.993  1.00  0.00     0.005 A 
ATOM      2  C   UNL     1     128.497 136.696 139.305  1.00  0.00     0.060 A 
ATOM      3  C   UNL     1     130.227 138.193 140.101  1.00  0.00     0.060 A 
ATOM      4  C   UNL     1     127.818 137.782 138.735  1.00  0.00     0.162 A 
ATOM      5  C   UNL     1     129.551 139.282 139.532  1.00  0.00     0.162 A 
ATOM      6  C   UNL     1     128.343 139.075 138.846  1.00  0.00     0.200 A 
ENDROOT
BRANCH   1   7
ATOM      7  C   UNL     1     130.418 135.742 140.593  1.00  0.00     0.072 C 
ATOM      8  O   UNL     1     130.409 135.562 141.841  1.00  0.00    -0.545 OA
ATOM      9  O   UNL     1     131.107 134.841 139.789  1.00  0.00    -0.545 OA
ENDBRANCH   1   7
BRANCH   4  10
ATOM     10  O   UNL     1     126.618 137.581 138.053  1.00  0.00    -0.504 OA
ATOM     11  H   UNL     1     126.046 136.760 138.214  1.00  0.00     0.293 HD
ENDBRANCH   4  10
BRANCH   5  12
ATOM     12  O   UNL     1     130.077 140.567 139.646  1.00  0.00    -0.504 OA
ATOM     13  H   UNL     1     131.057 140.758 139.476  1.00  0.00     0.293 HD
ENDBRANCH   5  12
BRANCH   6  14
ATOM     14  O   UNL     1     127.652 140.142 138.272  1.00  0.00    -0.502 OA
ATOM     15  H   UNL     1     127.998 140.630 137.455  1.00  0.00     0.293 HD
ENDBRANCH   6  14
TORSDOF 4
ENDMDL
MODEL 3
REMARK VINA RESULT:    -4.633     14.736     16.819
REMARK INTER + INTRA:          -5.356
REMARK INTER:                  -5.304
REMARK INTRA:                  -0.051
REMARK UNBOUND:                -0.045
REMARK SMILES O=C([O-])c1cc(O)c(O)c(O)c1
REMARK SMILES IDX 4 1 5 2 12 3 6 4 10 5 8 6 2 7 1 8 3 9 7 10 11 12 9 14
REMARK H PARENT 7 11 11 13 9 15
REMARK Flexibility Score: inf
ROOT
ATOM      1  C   UNL     1     134.215 136.754 155.483  1.00  0.00     0.005 A 
ATOM      2  C   UNL     1     133.462 136.804 154.298  1.00  0.00     0.060 A 
ATOM      3  C   UNL     1     133.957 135.733 156.413  1.00  0.00     0.060 A 
ATOM      4  C   UNL     1     132.468 135.848 154.045  1.00  0.00     0.162 A 
ATOM      5  C   UNL     1     132.964 134.775 156.164  1.00  0.00     0.162 A 
ATOM      6  C   UNL     1     132.216 134.834 154.977  1.00  0.00     0.200 A 
ENDROOT
BRANCH   1   7
ATOM      7  C   UNL     1     135.263 137.766 155.744  1.00  0.00     0.072 C 
ATOM      8  O   UNL     1     135.797 138.395 154.791  1.00  0.00    -0.545 OA
ATOM      9  O   UNL     1     135.673 138.038 157.043  1.00  0.00    -0.545 OA
ENDBRANCH   1   7
BRANCH   4  10
ATOM     10  O   UNL     1     131.723 135.902 152.867  1.00  0.00    -0.504 OA
ATOM     11  H   UNL     1     131.021 135.205 152.650  1.00  0.00     0.293 HD
ENDBRANCH   4  10
BRANCH   5  12
ATOM     12  O   UNL     1     132.717 133.767 157.094  1.00  0.00    -0.504 OA
ATOM     13  H   UNL     1     132.283 133.962 157.988  1.00  0.00     0.293 HD
ENDBRANCH   5  12
BRANCH   6  14
ATOM     14  O   UNL     1     131.223 133.892 154.707  1.00  0.00    -0.502 OA
ATOM     15  H   UNL     1     131.425 133.012 154.248  1.00  0.00     0.293 HD
ENDBRANCH   6  14
TORSDOF 4
ENDMDL
MODEL 4
REMARK VINA RESULT:    -4.575     14.784     16.190
REMARK INTER + INTRA:          -5.289
REMARK INTER:                  -5.237
REMARK INTRA:                  -0.052
REMARK UNBOUND:                -0.045
REMARK SMILES O=C([O-])c1cc(O)c(O)c(O)c1
REMARK SMILES IDX 4 1 5 2 12 3 6 4 10 5 8 6 2 7 1 8 3 9 7 10 11 12 9 14
REMARK H PARENT 7 11 11 13 9 15
REMARK Flexibility Score: inf
ROOT
ATOM      1  C   UNL     1     134.236 136.435 154.021  1.00  0.00     0.005 A 
ATOM      2  C   UNL     1     134.199 137.209 155.193  1.00  0.00     0.060 A 
ATOM      3  C   UNL     1     133.283 135.417 153.844  1.00  0.00     0.060 A 
ATOM      4  C   UNL     1     133.225 136.972 156.173  1.00  0.00     0.162 A 
ATOM      5  C   UNL     1     132.307 135.176 154.822  1.00  0.00     0.162 A 
ATOM      6  C   UNL     1     132.279 135.956 155.990  1.00  0.00     0.200 A 
ENDROOT
BRANCH   1   7
ATOM      7  C   UNL     1     135.267 136.691 152.990  1.00  0.00     0.072 C 
ATOM      8  O   UNL     1     135.587 135.792 152.167  1.00  0.00    -0.545 OA
ATOM      9  O   UNL     1     135.895 137.929 152.913  1.00  0.00    -0.545 OA
ENDBRANCH   1   7
BRANCH   4  10
ATOM     10  O   UNL     1     133.192 137.744 157.334  1.00  0.00    -0.504 OA
ATOM     11  H   UNL     1     133.062 137.324 158.247  1.00  0.00     0.293 HD
ENDBRANCH   4  10
BRANCH   5  12
ATOM     12  O   UNL     1     131.368 134.164 154.636  1.00  0.00    -0.504 OA
ATOM     13  H   UNL     1     130.497 134.329 154.145  1.00  0.00     0.293 HD
ENDBRANCH   5  12
BRANCH   6  14
ATOM     14  O   UNL     1     131.318 135.735 156.976  1.00  0.00    -0.502 OA
ATOM     15  H   UNL     1     130.434 136.229 156.988  1.00  0.00     0.293 HD
ENDBRANCH   6  14
TORSDOF 4
ENDMDL
MODEL 5
REMARK VINA RESULT:    -4.570     14.781     16.317
REMARK INTER + INTRA:          -5.283
REMARK INTER:                  -5.232
REMARK INTRA:                  -0.051
REMARK UNBOUND:                -0.045
REMARK SMILES O=C([O-])c1cc(O)c(O)c(O)c1
REMARK SMILES IDX 4 1 5 2 12 3 6 4 10 5 8 6 2 7 1 8 3 9 7 10 11 12 9 14
REMARK H PARENT 7 11 11 13 9 15
REMARK Flexibility Score: inf
ROOT
ATOM      1  C   UNL     1     134.341 136.475 153.961  1.00  0.00     0.005 A 
ATOM      2  C   UNL     1     133.379 135.470 153.768  1.00  0.00     0.060 A 
ATOM      3  C   UNL     1     134.310 137.231 155.145  1.00  0.00     0.060 A 
ATOM      4  C   UNL     1     132.401 135.222 154.741  1.00  0.00     0.162 A 
ATOM      5  C   UNL     1     133.333 136.987 156.122  1.00  0.00     0.162 A 
ATOM      6  C   UNL     1     132.376 135.980 155.919  1.00  0.00     0.200 A 
ENDROOT
BRANCH   1   7
ATOM      7  C   UNL     1     135.371 136.731 152.929  1.00  0.00     0.072 C 
ATOM      8  O   UNL     1     135.710 135.822 152.124  1.00  0.00    -0.545 OA
ATOM      9  O   UNL     1     135.977 137.977 152.832  1.00  0.00    -0.545 OA
ENDBRANCH   1   7
BRANCH   4  10
ATOM     10  O   UNL     1     131.449 134.223 154.544  1.00  0.00    -0.504 OA
ATOM     11  H   UNL     1     131.465 133.628 153.724  1.00  0.00     0.293 HD
ENDBRANCH   4  10
BRANCH   5  12
ATOM     12  O   UNL     1     133.312 137.744 157.292  1.00  0.00    -0.504 OA
ATOM     13  H   UNL     1     133.395 137.314 158.206  1.00  0.00     0.293 HD
ENDBRANCH   5  12
BRANCH   6  14
ATOM     14  O   UNL     1     131.396 135.719 156.876  1.00  0.00    -0.502 OA
ATOM     15  H   UNL     1     131.482 136.032 157.835  1.00  0.00     0.293 HD
ENDBRANCH   6  14
TORSDOF 4
ENDMDL
MODEL 6
REMARK VINA RESULT:    -4.364      1.927      2.479
REMARK INTER + INTRA:          -5.047
REMARK INTER:                  -4.994
REMARK INTRA:                  -0.053
REMARK UNBOUND:                -0.045
REMARK SMILES O=C([O-])c1cc(O)c(O)c(O)c1
REMARK SMILES IDX 4 1 5 2 12 3 6 4 10 5 8 6 2 7 1 8 3 9 7 10 11 12 9 14
REMARK H PARENT 7 11 11 13 9 15
REMARK Flexibility Score: inf
ROOT
ATOM      1  C   UNL     1     130.527 136.069 140.697  1.00  0.00     0.005 A 
ATOM      2  C   UNL     1     130.535 136.663 141.970  1.00  0.00     0.060 A 
ATOM      3  C   UNL     1     129.588 136.507 139.746  1.00  0.00     0.060 A 
ATOM      4  C   UNL     1     129.622 137.678 142.290  1.00  0.00     0.162 A 
ATOM      5  C   UNL     1     128.673 137.522 140.061  1.00  0.00     0.162 A 
ATOM      6  C   UNL     1     128.690 138.108 141.337  1.00  0.00     0.200 A 
ENDROOT
BRANCH   1   7
ATOM      7  C   UNL     1     131.493 134.999 140.367  1.00  0.00     0.072 C 
ATOM      8  O   UNL     1     132.357 134.633 141.209  1.00  0.00    -0.545 OA
ATOM      9  O   UNL     1     131.461 134.379 139.123  1.00  0.00    -0.545 OA
ENDBRANCH   1   7
BRANCH   4  10
ATOM     10  O   UNL     1     129.635 138.264 143.555  1.00  0.00    -0.504 OA
ATOM     11  H   UNL     1     130.458 138.236 144.145  1.00  0.00     0.293 HD
ENDBRANCH   4  10
BRANCH   5  12
ATOM     12  O   UNL     1     127.748 137.947 139.110  1.00  0.00    -0.504 OA
ATOM     13  H   UNL     1     126.882 138.400 139.376  1.00  0.00     0.293 HD
ENDBRANCH   5  12
BRANCH   6  14
ATOM     14  O   UNL     1     127.790 139.119 141.673  1.00  0.00    -0.502 OA
ATOM     15  H   UNL     1     126.865 138.919 142.035  1.00  0.00     0.293 HD
ENDBRANCH   6  14
TORSDOF 4
ENDMDL
MODEL 7
REMARK VINA RESULT:    -4.353      2.890      5.602
REMARK INTER + INTRA:          -5.035
REMARK INTER:                  -4.987
REMARK INTRA:                  -0.048
REMARK UNBOUND:                -0.045
REMARK SMILES O=C([O-])c1cc(O)c(O)c(O)c1
REMARK SMILES IDX 4 1 5 2 12 3 6 4 10 5 8 6 2 7 1 8 3 9 7 10 11 12 9 14
REMARK H PARENT 7 11 11 13 9 15
REMARK Flexibility Score: inf
ROOT
ATOM      1  C   UNL     1     130.778 135.826 141.559  1.00  0.00     0.005 A 
ATOM      2  C   UNL     1     130.906 136.935 142.412  1.00  0.00     0.060 A 
ATOM      3  C   UNL     1     131.088 134.547 142.053  1.00  0.00     0.060 A 
ATOM      4  C   UNL     1     131.335 136.770 143.736  1.00  0.00     0.162 A 
ATOM      5  C   UNL     1     131.518 134.377 143.377  1.00  0.00     0.162 A 
ATOM      6  C   UNL     1     131.642 135.493 144.221  1.00  0.00     0.200 A 
ENDROOT
BRANCH   1   7
ATOM      7  C   UNL     1     130.324 136.007 140.162  1.00  0.00     0.072 C 
ATOM      8  O   UNL     1     129.340 136.749 139.899  1.00  0.00    -0.545 OA
ATOM      9  O   UNL     1     130.978 135.362 139.120  1.00  0.00    -0.545 OA
ENDBRANCH   1   7
BRANCH   4  10
ATOM     10  O   UNL     1     131.460 137.875 144.578  1.00  0.00    -0.504 OA
ATOM     11  H   UNL     1     131.110 138.788 144.312  1.00  0.00     0.293 HD
ENDBRANCH   4  10
BRANCH   5  12
ATOM     12  O   UNL     1     131.822 133.104 143.855  1.00  0.00    -0.504 OA
ATOM     13  H   UNL     1     131.388 132.273 143.469  1.00  0.00     0.293 HD
ENDBRANCH   5  12
BRANCH   6  14
ATOM     14  O   UNL     1     132.068 135.349 145.541  1.00  0.00    -0.502 OA
ATOM     15  H   UNL     1     133.047 135.378 145.798  1.00  0.00     0.293 HD
ENDBRANCH   6  14
TORSDOF 4
ENDMDL
MODEL 8
REMARK VINA RESULT:    -4.352      1.930      3.140
REMARK INTER + INTRA:          -5.033
REMARK INTER:                  -4.980
REMARK INTRA:                  -0.053
REMARK UNBOUND:                -0.045
REMARK SMILES O=C([O-])c1cc(O)c(O)c(O)c1
REMARK SMILES IDX 4 1 5 2 12 3 6 4 10 5 8 6 2 7 1 8 3 9 7 10 11 12 9 14
REMARK H PARENT 7 11 11 13 9 15
REMARK Flexibility Score: inf
ROOT
ATOM      1  C   UNL     1     130.547 136.046 140.698  1.00  0.00     0.005 A 
ATOM      2  C   UNL     1     129.606 136.477 139.749  1.00  0.00     0.060 A 
ATOM      3  C   UNL     1     130.550 136.637 141.974  1.00  0.00     0.060 A 
ATOM      4  C   UNL     1     128.681 137.482 140.068  1.00  0.00     0.162 A 
ATOM      5  C   UNL     1     129.627 137.642 142.297  1.00  0.00     0.162 A 
ATOM      6  C   UNL     1     128.690 138.066 141.340  1.00  0.00     0.200 A 
ENDROOT
BRANCH   1   7
ATOM      7  C   UNL     1     131.521 134.985 140.356  1.00  0.00     0.072 C 
ATOM      8  O   UNL     1     132.386 134.615 141.194  1.00  0.00    -0.545 OA
ATOM      9  O   UNL     1     131.493 134.380 139.105  1.00  0.00    -0.545 OA
ENDBRANCH   1   7
BRANCH   4  10
ATOM     10  O   UNL     1     127.749 137.905 139.121  1.00  0.00    -0.504 OA
ATOM     11  H   UNL     1     127.971 137.936 138.133  1.00  0.00     0.293 HD
ENDBRANCH   4  10
BRANCH   5  12
ATOM     12  O   UNL     1     129.639 138.220 143.565  1.00  0.00    -0.504 OA
ATOM     13  H   UNL     1     130.020 139.145 143.724  1.00  0.00     0.293 HD
ENDBRANCH   5  12
BRANCH   6  14
ATOM     14  O   UNL     1     127.762 139.063 141.638  1.00  0.00    -0.502 OA
ATOM     15  H   UNL     1     127.215 139.522 140.920  1.00  0.00     0.293 HD
ENDBRANCH   6  14
TORSDOF 4
ENDMDL
MODEL 9
REMARK VINA RESULT:    -4.333      2.888      5.917
REMARK INTER + INTRA:          -5.012
REMARK INTER:                  -4.963
REMARK INTRA:                  -0.048
REMARK UNBOUND:                -0.045
REMARK SMILES O=C([O-])c1cc(O)c(O)c(O)c1
REMARK SMILES IDX 4 1 5 2 12 3 6 4 10 5 8 6 2 7 1 8 3 9 7 10 11 12 9 14
REMARK H PARENT 7 11 11 13 9 15
REMARK Flexibility Score: inf
ROOT
ATOM      1  C   UNL     1     130.774 135.826 141.505  1.00  0.00     0.005 A 
ATOM      2  C   UNL     1     131.096 134.561 142.026  1.00  0.00     0.060 A 
ATOM      3  C   UNL     1     130.883 136.954 142.337  1.00  0.00     0.060 A 
ATOM      4  C   UNL     1     131.520 134.425 143.355  1.00  0.00     0.162 A 
ATOM      5  C   UNL     1     131.306 136.822 143.667  1.00  0.00     0.162 A 
ATOM      6  C   UNL     1     131.625 135.553 144.178  1.00  0.00     0.200 A 
ENDROOT
BRANCH   1   7
ATOM      7  C   UNL     1     130.327 135.963 140.101  1.00  0.00     0.072 C 
ATOM      8  O   UNL     1     130.952 135.388 139.170  1.00  0.00    -0.545 OA
ATOM      9  O   UNL     1     129.209 136.727 139.789  1.00  0.00    -0.545 OA
ENDBRANCH   1   7
BRANCH   4  10
ATOM     10  O   UNL     1     131.838 133.167 143.866  1.00  0.00    -0.504 OA
ATOM     11  H   UNL     1     131.140 132.438 143.957  1.00  0.00     0.293 HD
ENDBRANCH   4  10
BRANCH   5  12
ATOM     12  O   UNL     1     131.410 137.948 144.482  1.00  0.00    -0.504 OA
ATOM     13  H   UNL     1     131.685 137.877 145.454  1.00  0.00     0.293 HD
ENDBRANCH   5  12
BRANCH   6  14
ATOM     14  O   UNL     1     132.049 135.397 145.497  1.00  0.00    -0.502 OA
ATOM     15  H   UNL     1     133.004 135.152 145.731  1.00  0.00     0.293 HD
ENDBRANCH   6  14
TORSDOF 4
ENDMDL
