MODEL 1
REMARK VINA RESULT:    -5.055      0.000      0.000
REMARK INTER + INTRA:         -10.277
REMARK INTER:                  -8.601
REMARK INTRA:                  -1.675
REMARK UNBOUND:                -1.675
REMARK SMILES CCCCCCCCCCCCCC(=O)[O-]
REMARK SMILES IDX 8 1 9 2 10 3 11 4 12 5 13 6 14 7 15 8 16 9 7 10 6 11 5 12
REMARK SMILES IDX 4 13 3 14 2 15 1 16
REMARK H PARENT
REMARK Flexibility Score: inf
ROOT
ATOM      1  C   UNL     1     105.188 107.584 229.128  1.00  0.00     0.000 C 
ENDROOT
BRANCH   1   2
ATOM      2  C   UNL     1     105.024 106.125 228.666  1.00  0.00     0.000 C 
BRANCH   2   3
ATOM      3  C   UNL     1     104.150 105.997 227.408  1.00  0.00     0.000 C 
BRANCH   3   4
ATOM      4  C   UNL     1     102.926 105.092 227.628  1.00  0.00     0.000 C 
BRANCH   4   5
ATOM      5  C   UNL     1     102.996 104.320 228.961  1.00  0.00     0.006 C 
BRANCH   5   6
ATOM      6  C   UNL     1     101.729 103.505 229.267  1.00  0.00     0.053 C 
BRANCH   6   7
ATOM      7  C   UNL     1     101.957 102.472 230.324  1.00  0.00     0.041 C 
ATOM      8  O   UNL     1     101.019 101.712 230.682  1.00  0.00    -0.550 OA
ATOM      9  O   UNL     1     103.200 102.362 230.934  1.00  0.00    -0.550 OA
ENDBRANCH   6   7
ENDBRANCH   5   6
ENDBRANCH   4   5
ENDBRANCH   3   4
ENDBRANCH   2   3
ENDBRANCH   1   2
BRANCH   1  10
ATOM     10  C   UNL     1     104.555 107.844 230.505  1.00  0.00     0.000 C 
BRANCH  10  11
ATOM     11  C   UNL     1     103.021 107.740 230.478  1.00  0.00    -0.000 C 
BRANCH  11  12
ATOM     12  C   UNL     1     102.454 107.069 231.740  1.00  0.00    -0.000 C 
BRANCH  12  13
ATOM     13  C   UNL     1     103.303 105.873 232.204  1.00  0.00    -0.000 C 
BRANCH  13  14
ATOM     14  C   UNL     1     103.866 106.055 233.625  1.00  0.00    -0.000 C 
BRANCH  14  15
ATOM     15  C   UNL     1     105.399 105.955 233.734  1.00  0.00    -0.003 C 
ATOM     16  C   UNL     1     106.021 105.079 232.647  1.00  0.00     0.004 C 
ENDBRANCH  14  15
ENDBRANCH  13  14
ENDBRANCH  12  13
ENDBRANCH  11  12
ENDBRANCH  10  11
ENDBRANCH   1  10
TORSDOF 12
ENDMDL
MODEL 2
REMARK VINA RESULT:    -5.040      1.375      2.177
REMARK INTER + INTRA:         -10.250
REMARK INTER:                  -8.755
REMARK INTRA:                  -1.495
REMARK UNBOUND:                -1.675
REMARK SMILES CCCCCCCCCCCCCC(=O)[O-]
REMARK SMILES IDX 8 1 9 2 10 3 11 4 12 5 13 6 14 7 15 8 16 9 7 10 6 11 5 12
REMARK SMILES IDX 4 13 3 14 2 15 1 16
REMARK H PARENT
REMARK Flexibility Score: inf
ROOT
ATOM      1  C   UNL     1     105.015 107.636 228.744  1.00  0.00     0.000 C 
ENDROOT
BRANCH   1   2
ATOM      2  C   UNL     1     104.970 106.108 228.565  1.00  0.00     0.000 C 
BRANCH   2   3
ATOM      3  C   UNL     1     104.149 105.680 227.337  1.00  0.00     0.000 C 
BRANCH   3   4
ATOM      4  C   UNL     1     102.758 105.143 227.714  1.00  0.00     0.000 C 
BRANCH   4   5
ATOM      5  C   UNL     1     102.813 104.131 228.877  1.00  0.00     0.006 C 
BRANCH   5   6
ATOM      6  C   UNL     1     101.433 103.597 229.292  1.00  0.00     0.053 C 
BRANCH   6   7
ATOM      7  C   UNL     1     101.529 102.467 230.268  1.00  0.00     0.041 C 
ATOM      8  O   UNL     1     102.648 102.124 230.733  1.00  0.00    -0.550 OA
ATOM      9  O   UNL     1     100.386 101.773 230.644  1.00  0.00    -0.550 OA
ENDBRANCH   6   7
ENDBRANCH   5   6
ENDBRANCH   4   5
ENDBRANCH   3   4
ENDBRANCH   2   3
ENDBRANCH   1   2
BRANCH   1  10
ATOM     10  C   UNL     1     105.152 108.056 230.216  1.00  0.00     0.000 C 
BRANCH  10  11
ATOM     11  C   UNL     1     104.199 107.281 231.142  1.00  0.00    -0.000 C 
BRANCH  11  12
ATOM     12  C   UNL     1     102.756 107.806 231.075  1.00  0.00    -0.000 C 
BRANCH  12  13
ATOM     13  C   UNL     1     101.712 106.683 231.197  1.00  0.00    -0.000 C 
BRANCH  13  14
ATOM     14  C   UNL     1     102.004 105.720 232.363  1.00  0.00    -0.000 C 
BRANCH  14  15
ATOM     15  C   UNL     1     101.703 106.284 233.763  1.00  0.00    -0.003 C 
ATOM     16  C   UNL     1     100.359 107.009 233.840  1.00  0.00     0.004 C 
ENDBRANCH  14  15
ENDBRANCH  13  14
ENDBRANCH  12  13
ENDBRANCH  11  12
ENDBRANCH  10  11
ENDBRANCH   1  10
TORSDOF 12
ENDMDL
MODEL 3
REMARK VINA RESULT:    -5.032      2.114      3.240
REMARK INTER + INTRA:         -10.237
REMARK INTER:                  -8.336
REMARK INTRA:                  -1.900
REMARK UNBOUND:                -1.675
REMARK SMILES CCCCCCCCCCCCCC(=O)[O-]
REMARK SMILES IDX 8 1 9 2 10 3 11 4 12 5 13 6 14 7 15 8 16 9 7 10 6 11 5 12
REMARK SMILES IDX 4 13 3 14 2 15 1 16
REMARK H PARENT
REMARK Flexibility Score: inf
ROOT
ATOM      1  C   UNL     1     104.664 107.265 228.604  1.00  0.00     0.000 C 
ENDROOT
BRANCH   1   2
ATOM      2  C   UNL     1     104.782 105.777 228.228  1.00  0.00     0.000 C 
BRANCH   2   3
ATOM      3  C   UNL     1     103.512 104.980 228.566  1.00  0.00     0.000 C 
BRANCH   3   4
ATOM      4  C   UNL     1     103.754 103.911 229.645  1.00  0.00     0.000 C 
BRANCH   4   5
ATOM      5  C   UNL     1     105.242 103.798 230.039  1.00  0.00     0.006 C 
BRANCH   5   6
ATOM      6  C   UNL     1     105.504 104.061 231.530  1.00  0.00     0.053 C 
BRANCH   6   7
ATOM      7  C   UNL     1     106.388 103.022 232.145  1.00  0.00     0.041 C 
ATOM      8  O   UNL     1     106.512 101.893 231.602  1.00  0.00    -0.550 OA
ATOM      9  O   UNL     1     107.056 103.291 233.333  1.00  0.00    -0.550 OA
ENDBRANCH   6   7
ENDBRANCH   5   6
ENDBRANCH   4   5
ENDBRANCH   3   4
ENDBRANCH   2   3
ENDBRANCH   1   2
BRANCH   1  10
ATOM     10  C   UNL     1     105.443 107.617 229.882  1.00  0.00     0.000 C 
BRANCH  10  11
ATOM     11  C   UNL     1     104.529 107.739 231.114  1.00  0.00    -0.000 C 
BRANCH  11  12
ATOM     12  C   UNL     1     103.057 107.972 230.735  1.00  0.00    -0.000 C 
BRANCH  12  13
ATOM     13  C   UNL     1     102.109 106.965 231.408  1.00  0.00    -0.000 C 
BRANCH  13  14
ATOM     14  C   UNL     1     102.794 106.147 232.517  1.00  0.00    -0.000 C 
BRANCH  14  15
ATOM     15  C   UNL     1     101.994 106.030 233.827  1.00  0.00    -0.003 C 
ATOM     16  C   UNL     1     100.714 106.866 233.824  1.00  0.00     0.004 C 
ENDBRANCH  14  15
ENDBRANCH  13  14
ENDBRANCH  12  13
ENDBRANCH  11  12
ENDBRANCH  10  11
ENDBRANCH   1  10
TORSDOF 12
ENDMDL
MODEL 4
REMARK VINA RESULT:    -4.998      2.382      4.343
REMARK INTER + INTRA:         -10.179
REMARK INTER:                  -8.337
REMARK INTRA:                  -1.842
REMARK UNBOUND:                -1.675
REMARK SMILES CCCCCCCCCCCCCC(=O)[O-]
REMARK SMILES IDX 8 1 9 2 10 3 11 4 12 5 13 6 14 7 15 8 16 9 7 10 6 11 5 12
REMARK SMILES IDX 4 13 3 14 2 15 1 16
REMARK H PARENT
REMARK Flexibility Score: inf
ROOT
ATOM      1  C   UNL     1     104.913 105.666 229.122  1.00  0.00     0.000 C 
ENDROOT
BRANCH   1   2
ATOM      2  C   UNL     1     105.144 107.174 228.916  1.00  0.00     0.000 C 
BRANCH   2   3
ATOM      3  C   UNL     1     104.708 108.011 230.129  1.00  0.00     0.000 C 
BRANCH   3   4
ATOM      4  C   UNL     1     103.894 107.195 231.148  1.00  0.00     0.000 C 
BRANCH   4   5
ATOM      5  C   UNL     1     102.389 107.531 231.104  1.00  0.00     0.006 C 
BRANCH   5   6
ATOM      6  C   UNL     1     101.492 106.411 231.655  1.00  0.00     0.053 C 
BRANCH   6   7
ATOM      7  C   UNL     1     101.348 106.475 233.142  1.00  0.00     0.041 C 
ATOM      8  O   UNL     1     100.379 107.091 233.659  1.00  0.00    -0.550 OA
ATOM      9  O   UNL     1     102.298 105.877 233.960  1.00  0.00    -0.550 OA
ENDBRANCH   6   7
ENDBRANCH   5   6
ENDBRANCH   4   5
ENDBRANCH   3   4
ENDBRANCH   2   3
ENDBRANCH   1   2
BRANCH   1  10
ATOM     10  C   UNL     1     104.643 104.922 227.805  1.00  0.00     0.000 C 
BRANCH  10  11
ATOM     11  C   UNL     1     103.328 105.362 227.137  1.00  0.00    -0.000 C 
BRANCH  11  12
ATOM     12  C   UNL     1     102.137 105.336 228.109  1.00  0.00    -0.000 C 
BRANCH  12  13
ATOM     13  C   UNL     1     101.404 103.984 228.109  1.00  0.00    -0.000 C 
BRANCH  13  14
ATOM     14  C   UNL     1     101.148 103.442 229.527  1.00  0.00    -0.000 C 
BRANCH  14  15
ATOM     15  C   UNL     1     102.259 102.535 230.086  1.00  0.00    -0.003 C 
ATOM     16  C   UNL     1     103.109 103.220 231.158  1.00  0.00     0.004 C 
ENDBRANCH  14  15
ENDBRANCH  13  14
ENDBRANCH  12  13
ENDBRANCH  11  12
ENDBRANCH  10  11
ENDBRANCH   1  10
TORSDOF 12
ENDMDL
MODEL 5
REMARK VINA RESULT:    -4.986      1.787      3.137
REMARK INTER + INTRA:         -10.158
REMARK INTER:                  -8.028
REMARK INTRA:                  -2.131
REMARK UNBOUND:                -1.675
REMARK SMILES CCCCCCCCCCCCCC(=O)[O-]
REMARK SMILES IDX 8 1 9 2 10 3 11 4 12 5 13 6 14 7 15 8 16 9 7 10 6 11 5 12
REMARK SMILES IDX 4 13 3 14 2 15 1 16
REMARK H PARENT
REMARK Flexibility Score: inf
ROOT
ATOM      1  C   UNL     1     104.895 107.781 228.875  1.00  0.00     0.000 C 
ENDROOT
BRANCH   1   2
ATOM      2  C   UNL     1     104.344 107.930 230.304  1.00  0.00     0.000 C 
BRANCH   2   3
ATOM      3  C   UNL     1     102.807 107.920 230.349  1.00  0.00     0.000 C 
BRANCH   3   4
ATOM      4  C   UNL     1     102.254 107.021 231.468  1.00  0.00     0.000 C 
BRANCH   4   5
ATOM      5  C   UNL     1     101.660 105.704 230.927  1.00  0.00     0.006 C 
BRANCH   5   6
ATOM      6  C   UNL     1     100.980 105.855 229.557  1.00  0.00     0.053 C 
BRANCH   6   7
ATOM      7  C   UNL     1     101.227 104.679 228.666  1.00  0.00     0.041 C 
ATOM      8  O   UNL     1     101.249 104.824 227.415  1.00  0.00    -0.550 OA
ATOM      9  O   UNL     1     101.406 103.416 229.214  1.00  0.00    -0.550 OA
ENDBRANCH   6   7
ENDBRANCH   5   6
ENDBRANCH   4   5
ENDBRANCH   3   4
ENDBRANCH   2   3
ENDBRANCH   1   2
BRANCH   1  10
ATOM     10  C   UNL     1     104.360 106.529 228.160  1.00  0.00     0.000 C 
BRANCH  10  11
ATOM     11  C   UNL     1     105.354 105.356 228.202  1.00  0.00    -0.000 C 
BRANCH  11  12
ATOM     12  C   UNL     1     104.945 104.274 229.215  1.00  0.00    -0.000 C 
BRANCH  12  13
ATOM     13  C   UNL     1     105.839 104.272 230.468  1.00  0.00    -0.000 C 
BRANCH  13  14
ATOM     14  C   UNL     1     105.055 104.554 231.762  1.00  0.00    -0.000 C 
BRANCH  14  15
ATOM     15  C   UNL     1     105.713 105.573 232.710  1.00  0.00    -0.003 C 
ATOM     16  C   UNL     1     104.781 106.039 233.829  1.00  0.00     0.004 C 
ENDBRANCH  14  15
ENDBRANCH  13  14
ENDBRANCH  12  13
ENDBRANCH  11  12
ENDBRANCH  10  11
ENDBRANCH   1  10
TORSDOF 12
ENDMDL
MODEL 6
REMARK VINA RESULT:    -4.984      2.263      4.911
REMARK INTER + INTRA:         -10.156
REMARK INTER:                  -8.363
REMARK INTRA:                  -1.793
REMARK UNBOUND:                -1.675
REMARK SMILES CCCCCCCCCCCCCC(=O)[O-]
REMARK SMILES IDX 8 1 9 2 10 3 11 4 12 5 13 6 14 7 15 8 16 9 7 10 6 11 5 12
REMARK SMILES IDX 4 13 3 14 2 15 1 16
REMARK H PARENT
REMARK Flexibility Score: inf
ROOT
ATOM      1  C   UNL     1     101.368 103.995 228.309  1.00  0.00     0.000 C 
ENDROOT
BRANCH   1   2
ATOM      2  C   UNL     1     101.219 104.367 229.795  1.00  0.00     0.000 C 
BRANCH   2   3
ATOM      3  C   UNL     1     100.744 105.815 229.997  1.00  0.00     0.000 C 
BRANCH   3   4
ATOM      4  C   UNL     1     101.708 106.638 230.869  1.00  0.00     0.000 C 
BRANCH   4   5
ATOM      5  C   UNL     1     102.853 105.782 231.449  1.00  0.00     0.006 C 
BRANCH   5   6
ATOM      6  C   UNL     1     104.041 106.612 231.962  1.00  0.00     0.053 C 
BRANCH   6   7
ATOM      7  C   UNL     1     104.964 105.812 232.825  1.00  0.00     0.041 C 
ATOM      8  O   UNL     1     105.082 106.082 234.049  1.00  0.00    -0.550 OA
ATOM      9  O   UNL     1     105.716 104.782 232.273  1.00  0.00    -0.550 OA
ENDBRANCH   6   7
ENDBRANCH   5   6
ENDBRANCH   4   5
ENDBRANCH   3   4
ENDBRANCH   2   3
ENDBRANCH   1   2
BRANCH   1  10
ATOM     10  C   UNL     1     101.811 105.184 227.442  1.00  0.00     0.000 C 
BRANCH  10  11
ATOM     11  C   UNL     1     103.310 105.140 227.100  1.00  0.00    -0.000 C 
BRANCH  11  12
ATOM     12  C   UNL     1     104.098 106.287 227.753  1.00  0.00    -0.000 C 
BRANCH  12  13
ATOM     13  C   UNL     1     105.251 105.782 228.637  1.00  0.00    -0.000 C 
BRANCH  13  14
ATOM     14  C   UNL     1     105.385 104.249 228.628  1.00  0.00    -0.000 C 
BRANCH  14  15
ATOM     15  C   UNL     1     106.688 103.714 228.006  1.00  0.00    -0.003 C 
ATOM     16  C   UNL     1     106.702 103.798 226.480  1.00  0.00     0.004 C 
ENDBRANCH  14  15
ENDBRANCH  13  14
ENDBRANCH  12  13
ENDBRANCH  11  12
ENDBRANCH  10  11
ENDBRANCH   1  10
TORSDOF 12
ENDMDL
MODEL 7
REMARK VINA RESULT:    -4.982      1.918      4.777
REMARK INTER + INTRA:         -10.153
REMARK INTER:                  -8.472
REMARK INTRA:                  -1.681
REMARK UNBOUND:                -1.675
REMARK SMILES CCCCCCCCCCCCCC(=O)[O-]
REMARK SMILES IDX 8 1 9 2 10 3 11 4 12 5 13 6 14 7 15 8 16 9 7 10 6 11 5 12
REMARK SMILES IDX 4 13 3 14 2 15 1 16
REMARK H PARENT
REMARK Flexibility Score: inf
ROOT
ATOM      1  C   UNL     1     103.372 105.544 231.655  1.00  0.00     0.000 C 
ENDROOT
BRANCH   1   2
ATOM      2  C   UNL     1     103.544 106.018 233.109  1.00  0.00     0.000 C 
BRANCH   2   3
ATOM      3  C   UNL     1     105.008 105.976 233.575  1.00  0.00     0.000 C 
BRANCH   3   4
ATOM      4  C   UNL     1     105.967 105.496 232.472  1.00  0.00     0.000 C 
BRANCH   4   5
ATOM      5  C   UNL     1     106.906 104.373 232.957  1.00  0.00     0.006 C 
BRANCH   5   6
ATOM      6  C   UNL     1     106.573 102.994 232.364  1.00  0.00     0.053 C 
BRANCH   6   7
ATOM      7  C   UNL     1     106.455 103.029 230.873  1.00  0.00     0.041 C 
ATOM      8  O   UNL     1     105.391 102.655 230.312  1.00  0.00    -0.550 OA
ATOM      9  O   UNL     1     107.529 103.450 230.099  1.00  0.00    -0.550 OA
ENDBRANCH   6   7
ENDBRANCH   5   6
ENDBRANCH   4   5
ENDBRANCH   3   4
ENDBRANCH   2   3
ENDBRANCH   1   2
BRANCH   1  10
ATOM     10  C   UNL     1     102.351 106.386 230.873  1.00  0.00     0.000 C 
BRANCH  10  11
ATOM     11  C   UNL     1     102.866 107.804 230.570  1.00  0.00    -0.000 C 
BRANCH  11  12
ATOM     12  C   UNL     1     104.366 107.827 230.236  1.00  0.00    -0.000 C 
BRANCH  12  13
ATOM     13  C   UNL     1     104.651 107.455 228.771  1.00  0.00    -0.000 C 
BRANCH  13  14
ATOM     14  C   UNL     1     105.369 106.101 228.627  1.00  0.00    -0.000 C 
BRANCH  14  15
ATOM     15  C   UNL     1     104.569 105.018 227.881  1.00  0.00    -0.003 C 
ATOM     16  C   UNL     1     103.457 105.592 227.002  1.00  0.00     0.004 C 
ENDBRANCH  14  15
ENDBRANCH  13  14
ENDBRANCH  12  13
ENDBRANCH  11  12
ENDBRANCH  10  11
ENDBRANCH   1  10
TORSDOF 12
ENDMDL
MODEL 8
REMARK VINA RESULT:    -4.929      1.976      3.393
REMARK INTER + INTRA:         -10.062
REMARK INTER:                  -7.946
REMARK INTRA:                  -2.116
REMARK UNBOUND:                -1.675
REMARK SMILES CCCCCCCCCCCCCC(=O)[O-]
REMARK SMILES IDX 8 1 9 2 10 3 11 4 12 5 13 6 14 7 15 8 16 9 7 10 6 11 5 12
REMARK SMILES IDX 4 13 3 14 2 15 1 16
REMARK H PARENT
REMARK Flexibility Score: inf
ROOT
ATOM      1  C   UNL     1     101.938 105.213 227.559  1.00  0.00     0.000 C 
ENDROOT
BRANCH   1   2
ATOM      2  C   UNL     1     103.414 105.141 227.131  1.00  0.00     0.000 C 
BRANCH   2   3
ATOM      3  C   UNL     1     104.289 106.182 227.849  1.00  0.00     0.000 C 
BRANCH   3   4
ATOM      4  C   UNL     1     105.467 105.543 228.606  1.00  0.00     0.000 C 
BRANCH   4   5
ATOM      5  C   UNL     1     105.247 104.041 228.877  1.00  0.00     0.006 C 
BRANCH   5   6
ATOM      6  C   UNL     1     104.816 103.734 230.321  1.00  0.00     0.053 C 
BRANCH   6   7
ATOM      7  C   UNL     1     105.886 103.039 231.100  1.00  0.00     0.041 C 
ATOM      8  O   UNL     1     105.825 101.796 231.293  1.00  0.00    -0.550 OA
ATOM      9  O   UNL     1     106.941 103.766 231.636  1.00  0.00    -0.550 OA
ENDBRANCH   6   7
ENDBRANCH   5   6
ENDBRANCH   4   5
ENDBRANCH   3   4
ENDBRANCH   2   3
ENDBRANCH   1   2
BRANCH   1  10
ATOM     10  C   UNL     1     101.550 104.093 228.539  1.00  0.00     0.000 C 
BRANCH  10  11
ATOM     11  C   UNL     1     101.276 104.620 229.959  1.00  0.00    -0.000 C 
BRANCH  11  12
ATOM     12  C   UNL     1     101.221 106.156 230.016  1.00  0.00    -0.000 C 
BRANCH  12  13
ATOM     13  C   UNL     1     102.129 106.738 231.113  1.00  0.00    -0.000 C 
BRANCH  13  14
ATOM     14  C   UNL     1     102.915 107.976 230.644  1.00  0.00    -0.000 C 
BRANCH  14  15
ATOM     15  C   UNL     1     104.390 108.012 231.081  1.00  0.00    -0.003 C 
ATOM     16  C   UNL     1     104.753 106.896 232.062  1.00  0.00     0.004 C 
ENDBRANCH  14  15
ENDBRANCH  13  14
ENDBRANCH  12  13
ENDBRANCH  11  12
ENDBRANCH  10  11
ENDBRANCH   1  10
TORSDOF 12
ENDMDL
MODEL 9
REMARK VINA RESULT:    -4.921      2.477      4.392
REMARK INTER + INTRA:         -10.048
REMARK INTER:                  -8.441
REMARK INTRA:                  -1.607
REMARK UNBOUND:                -1.675
REMARK SMILES CCCCCCCCCCCCCC(=O)[O-]
REMARK SMILES IDX 8 1 9 2 10 3 11 4 12 5 13 6 14 7 15 8 16 9 7 10 6 11 5 12
REMARK SMILES IDX 4 13 3 14 2 15 1 16
REMARK H PARENT
REMARK Flexibility Score: inf
ROOT
ATOM      1  C   UNL     1     102.257 105.278 228.239  1.00  0.00     0.000 C 
ENDROOT
BRANCH   1   2
ATOM      2  C   UNL     1     101.249 104.117 228.176  1.00  0.00     0.000 C 
BRANCH   2   3
ATOM      3  C   UNL     1     101.234 103.276 229.463  1.00  0.00     0.000 C 
BRANCH   3   4
ATOM      4  C   UNL     1     101.700 104.072 230.695  1.00  0.00     0.000 C 
BRANCH   4   5
ATOM      5  C   UNL     1     100.640 105.084 231.177  1.00  0.00     0.006 C 
BRANCH   5   6
ATOM      6  C   UNL     1     101.242 106.371 231.763  1.00  0.00     0.053 C 
BRANCH   6   7
ATOM      7  C   UNL     1     101.037 106.475 233.241  1.00  0.00     0.041 C 
ATOM      8  O   UNL     1     100.032 107.079 233.701  1.00  0.00    -0.550 OA
ATOM      9  O   UNL     1     101.968 105.926 234.113  1.00  0.00    -0.550 OA
ENDBRANCH   6   7
ENDBRANCH   5   6
ENDBRANCH   4   5
ENDBRANCH   3   4
ENDBRANCH   2   3
ENDBRANCH   1   2
BRANCH   1  10
ATOM     10  C   UNL     1     103.168 105.340 227.002  1.00  0.00     0.000 C 
BRANCH  10  11
ATOM     11  C   UNL     1     104.637 105.026 227.336  1.00  0.00    -0.000 C 
BRANCH  11  12
ATOM     12  C   UNL     1     104.841 104.668 228.817  1.00  0.00    -0.000 C 
BRANCH  12  13
ATOM     13  C   UNL     1     105.698 105.706 229.562  1.00  0.00    -0.000 C 
BRANCH  13  14
ATOM     14  C   UNL     1     104.887 106.532 230.577  1.00  0.00    -0.000 C 
BRANCH  14  15
ATOM     15  C   UNL     1     104.199 107.781 229.997  1.00  0.00    -0.003 C 
ATOM     16  C   UNL     1     104.994 108.430 228.863  1.00  0.00     0.004 C 
ENDBRANCH  14  15
ENDBRANCH  13  14
ENDBRANCH  12  13
ENDBRANCH  11  12
ENDBRANCH  10  11
ENDBRANCH   1  10
TORSDOF 12
ENDMDL
