MODEL 1
REMARK VINA RESULT:    -3.350      0.000      0.000
REMARK INTER + INTRA:          -4.370
REMARK INTER:                  -4.035
REMARK INTRA:                  -0.335
REMARK UNBOUND:                -0.335
REMARK SMILES NC(=O)C[C@@H]([NH3+])C(=O)[O-]
REMARK SMILES IDX 4 1 5 2 6 3 7 7 8 8 9 9 2 10 3 11 1 12
REMARK H PARENT 6 4 6 5 6 6 1 13 1 14
REMARK Flexibility Score: inf
ROOT
ATOM      1  C   UNL     1      25.818  18.314 -16.871  1.00  0.00     0.171 C 
ENDROOT
BRANCH   1   2
ATOM      2  C   UNL     1      25.309  19.769 -16.973  1.00  0.00     0.237 C 
BRANCH   2   3
ATOM      3  N   UNL     1      23.850  19.846 -16.822  1.00  0.00    -0.350 N 
ATOM      4  H   UNL     1      23.448  18.879 -16.805  1.00  0.00     0.345 HD
ATOM      5  H   UNL     1      23.611  20.314 -15.918  1.00  0.00     0.345 HD
ATOM      6  H   UNL     1      23.414  20.379 -17.609  1.00  0.00     0.345 HD
ENDBRANCH   2   3
BRANCH   2   7
ATOM      7  C   UNL     1      26.007  20.668 -15.985  1.00  0.00     0.100 C 
ATOM      8  O   UNL     1      25.603  21.848 -15.815  1.00  0.00    -0.544 OA
ATOM      9  O   UNL     1      27.129  20.225 -15.294  1.00  0.00    -0.544 OA
ENDBRANCH   2   7
ENDBRANCH   1   2
BRANCH   1  10
ATOM     10  C   UNL     1      24.788  17.360 -16.335  1.00  0.00     0.223 C 
ATOM     11  O   UNL     1      23.936  16.855 -17.115  1.00  0.00    -0.275 OA
ATOM     12  N   UNL     1      24.752  17.035 -14.946  1.00  0.00    -0.369 N 
ATOM     13  H   UNL     1      24.027  16.381 -14.576  1.00  0.00     0.159 HD
ATOM     14  H   UNL     1      25.448  17.446 -14.284  1.00  0.00     0.159 HD
ENDBRANCH   1  10
TORSDOF 4
ENDMDL
MODEL 2
REMARK VINA RESULT:    -3.267     22.330     23.124
REMARK INTER + INTRA:          -4.271
REMARK INTER:                  -3.966
REMARK INTRA:                  -0.305
REMARK UNBOUND:                -0.335
REMARK SMILES NC(=O)C[C@@H]([NH3+])C(=O)[O-]
REMARK SMILES IDX 4 1 5 2 6 3 7 7 8 8 9 9 2 10 3 11 1 12
REMARK H PARENT 6 4 6 5 6 6 1 13 1 14
REMARK Flexibility Score: inf
ROOT
ATOM      1  C   UNL     1      10.886   3.561  -5.971  1.00  0.00     0.171 C 
ENDROOT
BRANCH   1   2
ATOM      2  C   UNL     1      10.908   4.395  -7.271  1.00  0.00     0.237 C 
BRANCH   2   3
ATOM      3  N   UNL     1      12.090   4.094  -8.090  1.00  0.00    -0.350 N 
ATOM      4  H   UNL     1      12.385   4.954  -8.608  1.00  0.00     0.345 HD
ATOM      5  H   UNL     1      12.881   3.796  -7.475  1.00  0.00     0.345 HD
ATOM      6  H   UNL     1      11.889   3.335  -8.781  1.00  0.00     0.345 HD
ENDBRANCH   2   3
BRANCH   2   7
ATOM      7  C   UNL     1       9.637   4.217  -8.062  1.00  0.00     0.100 C 
ATOM      8  O   UNL     1       8.875   3.245  -7.816  1.00  0.00    -0.544 OA
ATOM      9  O   UNL     1       9.319   5.087  -9.099  1.00  0.00    -0.544 OA
ENDBRANCH   2   7
ENDBRANCH   1   2
BRANCH   1  10
ATOM     10  C   UNL     1      12.216   2.949  -5.634  1.00  0.00     0.223 C 
ATOM     11  O   UNL     1      12.575   1.880  -6.197  1.00  0.00    -0.275 OA
ATOM     12  N   UNL     1      13.070   3.557  -4.666  1.00  0.00    -0.369 N 
ATOM     13  H   UNL     1      13.989   3.122  -4.425  1.00  0.00     0.159 HD
ATOM     14  H   UNL     1      12.789   4.441  -4.186  1.00  0.00     0.159 HD
ENDBRANCH   1  10
TORSDOF 4
ENDMDL
MODEL 3
REMARK VINA RESULT:    -3.178      1.792      3.774
REMARK INTER + INTRA:          -4.163
REMARK INTER:                  -3.912
REMARK INTRA:                  -0.251
REMARK UNBOUND:                -0.335
REMARK SMILES NC(=O)C[C@@H]([NH3+])C(=O)[O-]
REMARK SMILES IDX 4 1 5 2 6 3 7 7 8 8 9 9 2 10 3 11 1 12
REMARK H PARENT 6 4 6 5 6 6 1 13 1 14
REMARK Flexibility Score: inf
ROOT
ATOM      1  C   UNL     1      26.195  19.684 -15.964  1.00  0.00     0.171 C 
ENDROOT
BRANCH   1   2
ATOM      2  C   UNL     1      24.719  19.235 -16.045  1.00  0.00     0.237 C 
BRANCH   2   3
ATOM      3  N   UNL     1      23.999  19.925 -17.124  1.00  0.00    -0.350 N 
ATOM      4  H   UNL     1      24.279  19.518 -18.047  1.00  0.00     0.345 HD
ATOM      5  H   UNL     1      22.969  19.789 -17.006  1.00  0.00     0.345 HD
ATOM      6  H   UNL     1      24.211  20.949 -17.127  1.00  0.00     0.345 HD
ENDBRANCH   2   3
BRANCH   2   7
ATOM      7  C   UNL     1      24.605  17.738 -16.183  1.00  0.00     0.100 C 
ATOM      8  O   UNL     1      23.930  17.244 -17.125  1.00  0.00    -0.544 OA
ATOM      9  O   UNL     1      25.195  16.893 -15.251  1.00  0.00    -0.544 OA
ENDBRANCH   2   7
ENDBRANCH   1   2
BRANCH   1  10
ATOM     10  C   UNL     1      26.377  21.012 -15.286  1.00  0.00     0.223 C 
ATOM     11  O   UNL     1      25.845  22.044 -15.777  1.00  0.00    -0.275 OA
ATOM     12  N   UNL     1      27.165  21.120 -14.101  1.00  0.00    -0.369 N 
ATOM     13  H   UNL     1      27.299  22.047 -13.640  1.00  0.00     0.159 HD
ATOM     14  H   UNL     1      27.616  20.277 -13.681  1.00  0.00     0.159 HD
ENDBRANCH   1  10
TORSDOF 4
ENDMDL
MODEL 4
REMARK VINA RESULT:    -3.173      2.048      4.044
REMARK INTER + INTRA:          -4.157
REMARK INTER:                  -3.866
REMARK INTRA:                  -0.291
REMARK UNBOUND:                -0.335
REMARK SMILES NC(=O)C[C@@H]([NH3+])C(=O)[O-]
REMARK SMILES IDX 4 1 5 2 6 3 7 7 8 8 9 9 2 10 3 11 1 12
REMARK H PARENT 6 4 6 5 6 6 1 13 1 14
REMARK Flexibility Score: inf
ROOT
ATOM      1  C   UNL     1      25.572  19.772 -16.024  1.00  0.00     0.171 C 
ENDROOT
BRANCH   1   2
ATOM      2  C   UNL     1      25.803  18.437 -16.766  1.00  0.00     0.237 C 
BRANCH   2   3
ATOM      3  N   UNL     1      27.201  17.995 -16.666  1.00  0.00    -0.350 N 
ATOM      4  H   UNL     1      27.306  17.348 -15.849  1.00  0.00     0.345 HD
ATOM      5  H   UNL     1      27.470  17.474 -17.532  1.00  0.00     0.345 HD
ATOM      6  H   UNL     1      27.847  18.807 -16.540  1.00  0.00     0.345 HD
ENDBRANCH   2   3
BRANCH   2   7
ATOM      7  C   UNL     1      24.857  17.368 -16.283  1.00  0.00     0.100 C 
ATOM      8  O   UNL     1      25.003  16.872 -15.134  1.00  0.00    -0.544 OA
ATOM      9  O   UNL     1      23.853  16.881 -17.113  1.00  0.00    -0.544 OA
ENDBRANCH   2   7
ENDBRANCH   1   2
BRANCH   1  10
ATOM     10  C   UNL     1      26.846  20.494 -15.686  1.00  0.00     0.223 C 
ATOM     11  O   UNL     1      27.557  20.975 -16.608  1.00  0.00    -0.275 OA
ATOM     12  N   UNL     1      27.269  20.622 -14.329  1.00  0.00    -0.369 N 
ATOM     13  H   UNL     1      28.161  21.113 -14.099  1.00  0.00     0.159 HD
ATOM     14  H   UNL     1      26.694  20.227 -13.551  1.00  0.00     0.159 HD
ENDBRANCH   1  10
TORSDOF 4
ENDMDL
MODEL 5
REMARK VINA RESULT:    -3.167     22.390     23.641
REMARK INTER + INTRA:          -4.149
REMARK INTER:                  -3.924
REMARK INTRA:                  -0.226
REMARK UNBOUND:                -0.335
REMARK SMILES NC(=O)C[C@@H]([NH3+])C(=O)[O-]
REMARK SMILES IDX 4 1 5 2 6 3 7 7 8 8 9 9 2 10 3 11 1 12
REMARK H PARENT 6 4 6 5 6 6 1 13 1 14
REMARK Flexibility Score: inf
ROOT
ATOM      1  C   UNL     1      10.828   3.959  -5.877  1.00  0.00     0.171 C 
ENDROOT
BRANCH   1   2
ATOM      2  C   UNL     1      11.868   2.828  -5.716  1.00  0.00     0.237 C 
BRANCH   2   3
ATOM      3  N   UNL     1      13.216   3.270  -6.098  1.00  0.00    -0.350 N 
ATOM      4  H   UNL     1      13.175   3.761  -7.022  1.00  0.00     0.345 HD
ATOM      5  H   UNL     1      13.583   3.944  -5.387  1.00  0.00     0.345 HD
ATOM      6  H   UNL     1      13.873   2.461  -6.175  1.00  0.00     0.345 HD
ENDBRANCH   2   3
BRANCH   2   7
ATOM      7  C   UNL     1      11.855   2.263  -4.319  1.00  0.00     0.100 C 
ATOM      8  O   UNL     1      10.772   1.875  -3.808  1.00  0.00    -0.544 OA
ATOM      9  O   UNL     1      13.022   2.211  -3.564  1.00  0.00    -0.544 OA
ENDBRANCH   2   7
ENDBRANCH   1   2
BRANCH   1  10
ATOM     10  C   UNL     1      10.602   4.360  -7.308  1.00  0.00     0.223 C 
ATOM     11  O   UNL     1      11.525   4.212  -8.153  1.00  0.00    -0.275 OA
ATOM     12  N   UNL     1       9.357   4.927  -7.714  1.00  0.00    -0.369 N 
ATOM     13  H   UNL     1       9.208   5.216  -8.706  1.00  0.00     0.159 HD
ATOM     14  H   UNL     1       8.582   5.060  -7.027  1.00  0.00     0.159 HD
ENDBRANCH   1  10
TORSDOF 4
ENDMDL
MODEL 6
REMARK VINA RESULT:    -3.005     22.697     24.022
REMARK INTER + INTRA:          -3.955
REMARK INTER:                  -3.695
REMARK INTRA:                  -0.260
REMARK UNBOUND:                -0.335
REMARK SMILES NC(=O)C[C@@H]([NH3+])C(=O)[O-]
REMARK SMILES IDX 4 1 5 2 6 3 7 7 8 8 9 9 2 10 3 11 1 12
REMARK H PARENT 6 4 6 5 6 6 1 13 1 14
REMARK Flexibility Score: inf
ROOT
ATOM      1  C   UNL     1      11.090   2.479  -4.643  1.00  0.00     0.171 C 
ENDROOT
BRANCH   1   2
ATOM      2  C   UNL     1      11.649   3.552  -5.604  1.00  0.00     0.237 C 
BRANCH   2   3
ATOM      3  N   UNL     1      13.020   3.239  -6.029  1.00  0.00    -0.350 N 
ATOM      4  H   UNL     1      13.327   2.341  -5.586  1.00  0.00     0.345 HD
ATOM      5  H   UNL     1      13.050   3.117  -7.067  1.00  0.00     0.345 HD
ATOM      6  H   UNL     1      13.685   3.997  -5.753  1.00  0.00     0.345 HD
ENDBRANCH   2   3
BRANCH   2   7
ATOM      7  C   UNL     1      10.743   3.753  -6.792  1.00  0.00     0.100 C 
ATOM      8  O   UNL     1       9.758   2.989  -6.968  1.00  0.00    -0.544 OA
ATOM      9  O   UNL     1      11.012   4.745  -7.728  1.00  0.00    -0.544 OA
ENDBRANCH   2   7
ENDBRANCH   1   2
BRANCH   1  10
ATOM     10  C   UNL     1      11.813   2.425  -3.327  1.00  0.00     0.223 C 
ATOM     11  O   UNL     1      12.945   1.877  -3.256  1.00  0.00    -0.275 OA
ATOM     12  N   UNL     1      11.219   2.971  -2.150  1.00  0.00    -0.369 N 
ATOM     13  H   UNL     1      11.719   2.921  -1.234  1.00  0.00     0.159 HD
ATOM     14  H   UNL     1      10.280   3.427  -2.188  1.00  0.00     0.159 HD
ENDBRANCH   1  10
TORSDOF 4
ENDMDL
MODEL 7
REMARK VINA RESULT:    -2.910     22.575     23.273
REMARK INTER + INTRA:          -3.841
REMARK INTER:                  -3.368
REMARK INTRA:                  -0.473
REMARK UNBOUND:                -0.335
REMARK SMILES NC(=O)C[C@@H]([NH3+])C(=O)[O-]
REMARK SMILES IDX 4 1 5 2 6 3 7 7 8 8 9 9 2 10 3 11 1 12
REMARK H PARENT 6 4 6 5 6 6 1 13 1 14
REMARK Flexibility Score: inf
ROOT
ATOM      1  C   UNL     1      10.709   2.331  -6.501  1.00  0.00     0.171 C 
ENDROOT
BRANCH   1   2
ATOM      2  C   UNL     1       9.996   3.201  -7.560  1.00  0.00     0.237 C 
BRANCH   2   3
ATOM      3  N   UNL     1       9.768   4.569  -7.075  1.00  0.00    -0.350 N 
ATOM      4  H   UNL     1       8.921   4.969  -7.543  1.00  0.00     0.345 HD
ATOM      5  H   UNL     1       9.596   4.555  -6.044  1.00  0.00     0.345 HD
ATOM      6  H   UNL     1      10.589   5.184  -7.277  1.00  0.00     0.345 HD
ENDBRANCH   2   3
BRANCH   2   7
ATOM      7  C   UNL     1      10.748   3.204  -8.866  1.00  0.00     0.100 C 
ATOM      8  O   UNL     1      11.769   2.481  -9.005  1.00  0.00    -0.544 OA
ATOM      9  O   UNL     1      10.355   4.037  -9.908  1.00  0.00    -0.544 OA
ENDBRANCH   2   7
ENDBRANCH   1   2
BRANCH   1  10
ATOM     10  C   UNL     1      11.692   3.099  -5.663  1.00  0.00     0.223 C 
ATOM     11  O   UNL     1      11.308   3.662  -4.604  1.00  0.00    -0.275 OA
ATOM     12  N   UNL     1      13.056   3.213  -6.069  1.00  0.00    -0.369 N 
ATOM     13  H   UNL     1      13.734   3.758  -5.491  1.00  0.00     0.159 HD
ATOM     14  H   UNL     1      13.393   2.756  -6.946  1.00  0.00     0.159 HD
ENDBRANCH   1  10
TORSDOF 4
ENDMDL
MODEL 8
REMARK VINA RESULT:    -2.812     22.632     23.639
REMARK INTER + INTRA:          -3.723
REMARK INTER:                  -3.459
REMARK INTRA:                  -0.263
REMARK UNBOUND:                -0.335
REMARK SMILES NC(=O)C[C@@H]([NH3+])C(=O)[O-]
REMARK SMILES IDX 4 1 5 2 6 3 7 7 8 8 9 9 2 10 3 11 1 12
REMARK H PARENT 6 4 6 5 6 6 1 13 1 14
REMARK Flexibility Score: inf
ROOT
ATOM      1  C   UNL     1      11.043   3.223  -5.317  1.00  0.00     0.171 C 
ENDROOT
BRANCH   1   2
ATOM      2  C   UNL     1      10.461   2.722  -6.657  1.00  0.00     0.237 C 
BRANCH   2   3
ATOM      3  N   UNL     1       9.262   1.897  -6.454  1.00  0.00    -0.350 N 
ATOM      4  H   UNL     1       8.828   2.132  -5.531  1.00  0.00     0.345 HD
ATOM      5  H   UNL     1       8.562   2.098  -7.204  1.00  0.00     0.345 HD
ATOM      6  H   UNL     1       9.496   0.878  -6.468  1.00  0.00     0.345 HD
ENDBRANCH   2   3
BRANCH   2   7
ATOM      7  C   UNL     1      10.182   3.865  -7.598  1.00  0.00     0.100 C 
ATOM      8  O   UNL     1      11.139   4.500  -8.117  1.00  0.00    -0.544 OA
ATOM      9  O   UNL     1       8.877   4.264  -7.864  1.00  0.00    -0.544 OA
ENDBRANCH   2   7
ENDBRANCH   1   2
BRANCH   1  10
ATOM     10  C   UNL     1      12.516   2.959  -5.172  1.00  0.00     0.223 C 
ATOM     11  O   UNL     1      13.000   2.717  -4.034  1.00  0.00    -0.275 OA
ATOM     12  N   UNL     1      13.375   3.000  -6.311  1.00  0.00    -0.369 N 
ATOM     13  H   UNL     1      14.400   2.828  -6.204  1.00  0.00     0.159 HD
ATOM     14  H   UNL     1      12.992   3.202  -7.261  1.00  0.00     0.159 HD
ENDBRANCH   1  10
TORSDOF 4
ENDMDL
MODEL 9
REMARK VINA RESULT:    -2.521      1.992      2.241
REMARK INTER + INTRA:          -3.371
REMARK INTER:                  -3.144
REMARK INTRA:                  -0.227
REMARK UNBOUND:                -0.335
REMARK SMILES NC(=O)C[C@@H]([NH3+])C(=O)[O-]
REMARK SMILES IDX 4 1 5 2 6 3 7 7 8 8 9 9 2 10 3 11 1 12
REMARK H PARENT 6 4 6 5 6 6 1 13 1 14
REMARK Flexibility Score: inf
ROOT
ATOM      1  C   UNL     1      25.952  18.542 -16.222  1.00  0.00     0.171 C 
ENDROOT
BRANCH   1   2
ATOM      2  C   UNL     1      25.471  19.891 -15.644  1.00  0.00     0.237 C 
BRANCH   2   3
ATOM      3  N   UNL     1      26.589  20.691 -15.128  1.00  0.00    -0.350 N 
ATOM      4  H   UNL     1      26.777  20.429 -14.132  1.00  0.00     0.345 HD
ATOM      5  H   UNL     1      27.453  20.494 -15.685  1.00  0.00     0.345 HD
ATOM      6  H   UNL     1      26.378  21.714 -15.175  1.00  0.00     0.345 HD
ENDBRANCH   2   3
BRANCH   2   7
ATOM      7  C   UNL     1      24.666  20.668 -16.655  1.00  0.00     0.100 C 
ATOM      8  O   UNL     1      25.072  21.792 -17.052  1.00  0.00    -0.544 OA
ATOM      9  O   UNL     1      23.449  20.180 -17.119  1.00  0.00    -0.544 OA
ENDBRANCH   2   7
ENDBRANCH   1   2
BRANCH   1  10
ATOM     10  C   UNL     1      24.953  17.432 -16.052  1.00  0.00     0.223 C 
ATOM     11  O   UNL     1      24.890  16.808 -14.959  1.00  0.00    -0.275 OA
ATOM     12  N   UNL     1      24.087  17.064 -17.125  1.00  0.00    -0.369 N 
ATOM     13  H   UNL     1      23.403  16.284 -17.007  1.00  0.00     0.159 HD
ATOM     14  H   UNL     1      24.126  17.568 -18.039  1.00  0.00     0.159 HD
ENDBRANCH   1  10
TORSDOF 4
ENDMDL
