MODEL 1
REMARK VINA RESULT:    28.504      0.000      0.000
REMARK INTER + INTRA:          40.591
REMARK INTER:                  37.668
REMARK INTRA:                   2.923
REMARK UNBOUND:                 2.923
REMARK SMILES CC[C@H](C=C[C@H](C)[C@H]1CC[C@@H]2[C@H]3CC=C4C[C@H](O)CC[C@]4(C)[C@@H]3CC[C@@]21C)C(C)C
REMARK SMILES IDX 6 1 7 2 5 3 4 4 3 5 2 6 1 7 28 8 29 9 30 10 8 11 9 12 26 13
REMARK SMILES IDX 10 14 11 15 25 16 27 17 12 18 24 19 23 20 13 21 21 22 14 23
REMARK SMILES IDX 15 24 20 25 22 26 16 27 19 28 17 29 18 30
REMARK H PARENT 18 31
REMARK Flexibility Score: inf
ROOT
ATOM      1  C   UNL     1      22.998  45.641  32.506  1.00  0.00     0.012 C 
ATOM      2  C   UNL     1      22.960  47.181  32.583  1.00  0.00     0.012 C 
ENDROOT
BRANCH   1   3
ATOM      3  C   UNL     1      23.118  45.064  33.909  1.00  0.00    -0.028 C 
ATOM      4  C   UNL     1      22.320  45.357  34.958  1.00  0.00    -0.027 C 
BRANCH   4   5
ATOM      5  C   UNL     1      21.148  46.330  34.958  1.00  0.00     0.014 C 
BRANCH   5   6
ATOM      6  C   UNL     1      21.608  47.812  35.113  1.00  0.00     0.004 C 
ATOM      7  C   UNL     1      23.124  48.046  35.121  1.00  0.00     0.004 C 
ENDBRANCH   5   6
BRANCH   5   8
ATOM      8  C   UNL     1      20.216  46.058  33.735  1.00  0.00    -0.011 C 
ATOM      9  C   UNL     1      19.116  45.035  34.064  1.00  0.00     0.008 C 
ATOM     10  C   UNL     1      19.591  47.323  33.127  1.00  0.00     0.008 C 
ENDBRANCH   5   8
ENDBRANCH   4   5
ENDBRANCH   1   3
BRANCH   1  11
ATOM     11  C   UNL     1      21.761  45.007  31.763  1.00  0.00     0.002 C 
ATOM     12  C   UNL     1      21.432  45.729  30.453  1.00  0.00     0.005 C 
ATOM     13  C   UNL     1      21.830  43.485  31.370  1.00  0.00    -0.026 C 
ATOM     14  C   UNL     1      22.077  44.920  29.341  1.00  0.00     0.005 C 
ATOM     15  C   UNL     1      22.226  43.472  29.851  1.00  0.00    -0.001 C 
ATOM     16  C   UNL     1      20.413  42.852  31.560  1.00  0.00     0.007 C 
ATOM     17  C   UNL     1      22.829  42.687  32.257  1.00  0.00     0.012 C 
ATOM     18  C   UNL     1      21.374  42.494  28.983  1.00  0.00     0.000 C 
ATOM     19  C   UNL     1      20.253  41.429  30.967  1.00  0.00     0.005 C 
ATOM     20  C   UNL     1      21.150  41.150  29.725  1.00  0.00     0.003 C 
ATOM     21  C   UNL     1      21.990  42.255  27.597  1.00  0.00     0.031 C 
ATOM     22  C   UNL     1      20.716  39.929  28.771  1.00  0.00    -0.008 C 
ATOM     23  C   UNL     1      21.013  41.446  26.796  1.00  0.00    -0.027 C 
ATOM     24  C   UNL     1      20.310  40.445  27.368  1.00  0.00    -0.065 C 
ATOM     25  C   UNL     1      19.620  38.992  29.403  1.00  0.00     0.014 C 
ATOM     26  C   UNL     1      21.959  39.020  28.546  1.00  0.00     0.016 C 
ATOM     27  C   UNL     1      19.090  39.952  26.606  1.00  0.00     0.063 C 
ATOM     28  C   UNL     1      18.217  39.237  28.854  1.00  0.00     0.033 C 
ATOM     29  C   UNL     1      18.222  38.935  27.355  1.00  0.00     0.118 C 
BRANCH  29  30
ATOM     30  O   UNL     1      16.913  38.985  26.852  1.00  0.00    -0.393 OA
ATOM     31  H   UNL     1      16.301  38.913  27.631  1.00  0.00     0.210 HD
ENDBRANCH  29  30
ENDBRANCH   1  11
TORSDOF 6
ENDMDL
