MODEL 1
REMARK VINA RESULT:    -3.172      0.000      0.000
REMARK INTER + INTRA:          -5.475
REMARK INTER:                  -4.841
REMARK INTRA:                  -0.635
REMARK UNBOUND:                -0.635
REMARK SMILES CCCCCCCCCC=CC(=O)[O-]
REMARK SMILES IDX 7 1 8 2 9 3 10 4 11 5 12 6 13 7 14 8 6 9 5 10 4 11 3 12 2 13
REMARK SMILES IDX 1 14
REMARK H PARENT
REMARK Flexibility Score: inf
ROOT
ATOM      1  C   UNL     1      44.672 -24.035  -1.759  1.00  0.00     0.000 C 
ENDROOT
BRANCH   1   2
ATOM      2  C   UNL     1      45.988 -23.614  -1.090  1.00  0.00     0.004 C 
BRANCH   2   3
ATOM      3  C   UNL     1      45.881 -23.597   0.440  1.00  0.00     0.027 C 
BRANCH   3   4
ATOM      4  C   UNL     1      46.125 -24.959   1.025  1.00  0.00    -0.025 C 
ATOM      5  C   UNL     1      45.206 -25.575   1.776  1.00  0.00     0.020 C 
BRANCH   5   6
ATOM      6  C   UNL     1      45.448 -26.892   2.383  1.00  0.00     0.064 C 
ATOM      7  O   UNL     1      45.384 -27.927   1.669  1.00  0.00    -0.545 OA
ATOM      8  O   UNL     1      45.749 -27.013   3.735  1.00  0.00    -0.545 OA
ENDBRANCH   5   6
ENDBRANCH   3   4
ENDBRANCH   2   3
ENDBRANCH   1   2
BRANCH   1   9
ATOM      9  C   UNL     1      44.863 -25.300  -2.604  1.00  0.00     0.000 C 
BRANCH   9  10
ATOM     10  C   UNL     1      46.124 -25.195  -3.475  1.00  0.00     0.000 C 
BRANCH  10  11
ATOM     11  C   UNL     1      45.800 -24.942  -4.956  1.00  0.00    -0.000 C 
BRANCH  11  12
ATOM     12  C   UNL     1      46.035 -23.479  -5.371  1.00  0.00    -0.000 C 
BRANCH  12  13
ATOM     13  C   UNL     1      45.919 -23.272  -6.888  1.00  0.00    -0.003 C 
ATOM     14  C   UNL     1      46.091 -24.570  -7.677  1.00  0.00     0.004 C 
ENDBRANCH  12  13
ENDBRANCH  11  12
ENDBRANCH  10  11
ENDBRANCH   9  10
ENDBRANCH   1   9
TORSDOF 9
ENDMDL
MODEL 2
REMARK VINA RESULT:    -2.956      1.448      2.243
REMARK INTER + INTRA:          -5.146
REMARK INTER:                  -4.765
REMARK INTRA:                  -0.381
REMARK UNBOUND:                -0.635
REMARK SMILES CCCCCCCCCC=CC(=O)[O-]
REMARK SMILES IDX 7 1 8 2 9 3 10 4 11 5 12 6 13 7 14 8 6 9 5 10 4 11 3 12 2 13
REMARK SMILES IDX 1 14
REMARK H PARENT
REMARK Flexibility Score: inf
ROOT
ATOM      1  C   UNL     1      44.758 -24.706  -0.100  1.00  0.00     0.000 C 
ENDROOT
BRANCH   1   2
ATOM      2  C   UNL     1      45.910 -25.392   0.647  1.00  0.00     0.004 C 
BRANCH   2   3
ATOM      3  C   UNL     1      45.639 -25.505   2.153  1.00  0.00     0.027 C 
BRANCH   3   4
ATOM      4  C   UNL     1      45.945 -26.884   2.667  1.00  0.00    -0.025 C 
ATOM      5  C   UNL     1      45.736 -27.973   1.921  1.00  0.00     0.020 C 
BRANCH   5   6
ATOM      6  C   UNL     1      45.999 -29.328   2.428  1.00  0.00     0.064 C 
ATOM      7  O   UNL     1      46.118 -29.516   3.667  1.00  0.00    -0.545 OA
ATOM      8  O   UNL     1      46.115 -30.407   1.559  1.00  0.00    -0.545 OA
ENDBRANCH   5   6
ENDBRANCH   3   4
ENDBRANCH   2   3
ENDBRANCH   1   2
BRANCH   1   9
ATOM      9  C   UNL     1      45.249 -24.067  -1.404  1.00  0.00     0.000 C 
BRANCH   9  10
ATOM     10  C   UNL     1      46.109 -25.053  -2.210  1.00  0.00     0.000 C 
BRANCH  10  11
ATOM     11  C   UNL     1      45.596 -25.247  -3.646  1.00  0.00    -0.000 C 
BRANCH  11  12
ATOM     12  C   UNL     1      46.124 -24.172  -4.611  1.00  0.00    -0.000 C 
BRANCH  12  13
ATOM     13  C   UNL     1      45.740 -24.453  -6.072  1.00  0.00    -0.003 C 
ATOM     14  C   UNL     1      45.781 -23.199  -6.945  1.00  0.00     0.004 C 
ENDBRANCH  12  13
ENDBRANCH  11  12
ENDBRANCH  10  11
ENDBRANCH   9  10
ENDBRANCH   1   9
TORSDOF 9
ENDMDL
MODEL 3
REMARK VINA RESULT:    -2.561      4.339      6.544
REMARK INTER + INTRA:          -4.543
REMARK INTER:                  -4.013
REMARK INTRA:                  -0.529
REMARK UNBOUND:                -0.635
REMARK SMILES CCCCCCCCCC=CC(=O)[O-]
REMARK SMILES IDX 7 1 8 2 9 3 10 4 11 5 12 6 13 7 14 8 6 9 5 10 4 11 3 12 2 13
REMARK SMILES IDX 1 14
REMARK H PARENT
REMARK Flexibility Score: inf
ROOT
ATOM      1  C   UNL     1      45.284 -26.483   3.714  1.00  0.00     0.000 C 
ENDROOT
BRANCH   1   2
ATOM      2  C   UNL     1      46.063 -27.050   4.910  1.00  0.00     0.004 C 
BRANCH   2   3
ATOM      3  C   UNL     1      46.106 -28.582   4.900  1.00  0.00     0.027 C 
BRANCH   3   4
ATOM      4  C   UNL     1      46.125 -29.144   6.294  1.00  0.00    -0.025 C 
ATOM      5  C   UNL     1      45.952 -28.365   7.366  1.00  0.00     0.020 C 
BRANCH   5   6
ATOM      6  C   UNL     1      46.004 -28.898   8.735  1.00  0.00     0.064 C 
ATOM      7  O   UNL     1      45.969 -30.143   8.919  1.00  0.00    -0.545 OA
ATOM      8  O   UNL     1      46.093 -28.048   9.831  1.00  0.00    -0.545 OA
ENDBRANCH   5   6
ENDBRANCH   3   4
ENDBRANCH   2   3
ENDBRANCH   1   2
BRANCH   1   9
ATOM      9  C   UNL     1      45.265 -27.477   2.548  1.00  0.00     0.000 C 
BRANCH   9  10
ATOM     10  C   UNL     1      46.097 -26.956   1.366  1.00  0.00     0.000 C 
BRANCH  10  11
ATOM     11  C   UNL     1      46.122 -25.422   1.292  1.00  0.00    -0.000 C 
BRANCH  11  12
ATOM     12  C   UNL     1      45.415 -24.880   0.037  1.00  0.00    -0.000 C 
BRANCH  12  13
ATOM     13  C   UNL     1      45.985 -23.529  -0.422  1.00  0.00    -0.003 C 
ATOM     14  C   UNL     1      45.918 -22.459   0.667  1.00  0.00     0.004 C 
ENDBRANCH  12  13
ENDBRANCH  11  12
ENDBRANCH  10  11
ENDBRANCH   9  10
ENDBRANCH   1   9
TORSDOF 9
ENDMDL
MODEL 4
REMARK VINA RESULT:    -0.709      4.231      7.647
REMARK INTER + INTRA:          -1.717
REMARK INTER:                  -1.296
REMARK INTRA:                  -0.420
REMARK UNBOUND:                -0.635
REMARK SMILES CCCCCCCCCC=CC(=O)[O-]
REMARK SMILES IDX 7 1 8 2 9 3 10 4 11 5 12 6 13 7 14 8 6 9 5 10 4 11 3 12 2 13
REMARK SMILES IDX 1 14
REMARK H PARENT
REMARK Flexibility Score: inf
ROOT
ATOM      1  C   UNL     1      44.915 -24.403  -1.648  1.00  0.00     0.000 C 
ENDROOT
BRANCH   1   2
ATOM      2  C   UNL     1      46.034 -24.287  -2.693  1.00  0.00     0.004 C 
BRANCH   2   3
ATOM      3  C   UNL     1      46.125 -25.531  -3.585  1.00  0.00     0.027 C 
BRANCH   3   4
ATOM      4  C   UNL     1      46.089 -25.168  -5.043  1.00  0.00    -0.025 C 
ATOM      5  C   UNL     1      45.945 -23.903  -5.448  1.00  0.00     0.020 C 
BRANCH   5   6
ATOM      6  C   UNL     1      45.874 -23.542  -6.872  1.00  0.00     0.064 C 
ATOM      7  O   UNL     1      45.823 -22.328  -7.203  1.00  0.00    -0.545 OA
ATOM      8  O   UNL     1      45.864 -24.520  -7.858  1.00  0.00    -0.545 OA
ENDBRANCH   5   6
ENDBRANCH   3   4
ENDBRANCH   2   3
ENDBRANCH   1   2
BRANCH   1   9
ATOM      9  C   UNL     1      45.372 -23.861  -0.288  1.00  0.00     0.000 C 
BRANCH   9  10
ATOM     10  C   UNL     1      46.123 -24.938   0.509  1.00  0.00     0.000 C 
BRANCH  10  11
ATOM     11  C   UNL     1      45.574 -25.108   1.935  1.00  0.00    -0.000 C 
BRANCH  11  12
ATOM     12  C   UNL     1      46.074 -26.397   2.610  1.00  0.00    -0.000 C 
BRANCH  12  13
ATOM     13  C   UNL     1      45.252 -27.630   2.205  1.00  0.00    -0.003 C 
ATOM     14  C   UNL     1      46.125 -28.842   1.881  1.00  0.00     0.004 C 
ENDBRANCH  12  13
ENDBRANCH  11  12
ENDBRANCH  10  11
ENDBRANCH   9  10
ENDBRANCH   1   9
TORSDOF 9
ENDMDL
