MODEL 1
REMARK VINA RESULT:    -3.313      0.000      0.000
REMARK INTER + INTRA:          -3.929
REMARK INTER:                  -3.893
REMARK INTRA:                  -0.035
REMARK UNBOUND:                -0.035
REMARK SMILES CCCCC(=O)[O-]
REMARK SMILES IDX 4 1 5 2 6 3 7 4 3 5 2 6 1 7
REMARK H PARENT
REMARK Flexibility Score: inf
ROOT
ATOM      1  C   UNL     1      -0.438   6.780  -9.042  1.00  0.00     0.053 C 
ENDROOT
BRANCH   1   2
ATOM      2  C   UNL     1       0.906   7.160  -8.508  1.00  0.00     0.041 C 
ATOM      3  O   UNL     1       1.898   7.232  -9.281  1.00  0.00    -0.550 OA
ATOM      4  O   UNL     1       1.057   7.481  -7.165  1.00  0.00    -0.550 OA
ENDBRANCH   1   2
BRANCH   1   5
ATOM      5  C   UNL     1      -1.473   7.856  -8.704  1.00  0.00     0.006 C 
BRANCH   5   6
ATOM      6  C   UNL     1      -2.331   8.198  -9.927  1.00  0.00    -0.003 C 
ATOM      7  C   UNL     1      -2.589   6.960 -10.782  1.00  0.00     0.004 C 
ENDBRANCH   5   6
ENDBRANCH   1   5
TORSDOF 3
ENDMDL
MODEL 2
REMARK VINA RESULT:    -3.273      2.539      3.847
REMARK INTER + INTRA:          -3.882
REMARK INTER:                  -3.804
REMARK INTRA:                  -0.078
REMARK UNBOUND:                -0.035
REMARK SMILES CCCCC(=O)[O-]
REMARK SMILES IDX 4 1 5 2 6 3 7 4 3 5 2 6 1 7
REMARK H PARENT
REMARK Flexibility Score: inf
ROOT
ATOM      1  C   UNL     1      -0.474   7.951 -10.085  1.00  0.00     0.053 C 
ENDROOT
BRANCH   1   2
ATOM      2  C   UNL     1      -1.320   6.764 -10.422  1.00  0.00     0.041 C 
ATOM      3  O   UNL     1      -2.325   6.480  -9.717  1.00  0.00    -0.550 OA
ATOM      4  O   UNL     1      -1.029   5.997 -11.543  1.00  0.00    -0.550 OA
ENDBRANCH   1   2
BRANCH   1   5
ATOM      5  C   UNL     1       1.009   7.571 -10.089  1.00  0.00     0.006 C 
BRANCH   5   6
ATOM      6  C   UNL     1       1.538   7.406  -8.660  1.00  0.00    -0.003 C 
ATOM      7  C   UNL     1       0.770   8.292  -7.683  1.00  0.00     0.004 C 
ENDBRANCH   5   6
ENDBRANCH   1   5
TORSDOF 3
ENDMDL
MODEL 3
REMARK VINA RESULT:    -3.238      2.350      3.367
REMARK INTER + INTRA:          -3.841
REMARK INTER:                  -3.774
REMARK INTRA:                  -0.067
REMARK UNBOUND:                -0.035
REMARK SMILES CCCCC(=O)[O-]
REMARK SMILES IDX 4 1 5 2 6 3 7 4 3 5 2 6 1 7
REMARK H PARENT
REMARK Flexibility Score: inf
ROOT
ATOM      1  C   UNL     1      -0.069   6.647  -9.129  1.00  0.00     0.053 C 
ENDROOT
BRANCH   1   2
ATOM      2  C   UNL     1      -1.499   7.084  -9.114  1.00  0.00     0.041 C 
ATOM      3  O   UNL     1      -2.358   6.468  -9.800  1.00  0.00    -0.550 OA
ATOM      4  O   UNL     1      -1.896   8.141  -8.305  1.00  0.00    -0.550 OA
ENDBRANCH   1   2
BRANCH   1   5
ATOM      5  C   UNL     1       0.789   7.592  -8.282  1.00  0.00     0.006 C 
BRANCH   5   6
ATOM      6  C   UNL     1       1.837   8.304  -9.145  1.00  0.00    -0.003 C 
ATOM      7  C   UNL     1       1.835   7.763 -10.572  1.00  0.00     0.004 C 
ENDBRANCH   5   6
ENDBRANCH   1   5
TORSDOF 3
ENDMDL
MODEL 4
REMARK VINA RESULT:    -3.218      2.649      3.602
REMARK INTER + INTRA:          -3.818
REMARK INTER:                  -3.773
REMARK INTRA:                  -0.045
REMARK UNBOUND:                -0.035
REMARK SMILES CCCCC(=O)[O-]
REMARK SMILES IDX 4 1 5 2 6 3 7 4 3 5 2 6 1 7
REMARK H PARENT
REMARK Flexibility Score: inf
ROOT
ATOM      1  C   UNL     1      -0.262   7.422 -10.140  1.00  0.00     0.053 C 
ENDROOT
BRANCH   1   2
ATOM      2  C   UNL     1      -1.298   6.541 -10.763  1.00  0.00     0.041 C 
ATOM      3  O   UNL     1      -1.010   5.835 -11.765  1.00  0.00    -0.550 OA
ATOM      4  O   UNL     1      -2.570   6.463 -10.210  1.00  0.00    -0.550 OA
ENDBRANCH   1   2
BRANCH   1   5
ATOM      5  C   UNL     1      -0.655   7.778  -8.703  1.00  0.00     0.006 C 
BRANCH   5   6
ATOM      6  C   UNL     1       0.580   8.138  -7.869  1.00  0.00    -0.003 C 
ATOM      7  C   UNL     1       1.826   7.431  -8.395  1.00  0.00     0.004 C 
ENDBRANCH   5   6
ENDBRANCH   1   5
TORSDOF 3
ENDMDL
MODEL 5
REMARK VINA RESULT:    -3.172      1.515      1.954
REMARK INTER + INTRA:          -3.764
REMARK INTER:                  -3.703
REMARK INTRA:                  -0.060
REMARK UNBOUND:                -0.035
REMARK SMILES CCCCC(=O)[O-]
REMARK SMILES IDX 4 1 5 2 6 3 7 4 3 5 2 6 1 7
REMARK H PARENT
REMARK Flexibility Score: inf
ROOT
ATOM      1  C   UNL     1       1.167   7.692  -8.357  1.00  0.00     0.053 C 
ENDROOT
BRANCH   1   2
ATOM      2  C   UNL     1       1.992   8.050  -9.551  1.00  0.00     0.041 C 
ATOM      3  O   UNL     1       2.017   7.291 -10.556  1.00  0.00    -0.550 OA
ATOM      4  O   UNL     1       2.696   9.248  -9.577  1.00  0.00    -0.550 OA
ENDBRANCH   1   2
BRANCH   1   5
ATOM      5  C   UNL     1      -0.018   6.813  -8.767  1.00  0.00     0.006 C 
BRANCH   5   6
ATOM      6  C   UNL     1      -1.305   7.639  -8.871  1.00  0.00    -0.003 C 
ATOM      7  C   UNL     1      -2.226   7.090  -9.956  1.00  0.00     0.004 C 
ENDBRANCH   5   6
ENDBRANCH   1   5
TORSDOF 3
ENDMDL
MODEL 6
REMARK VINA RESULT:    -3.131      2.596      3.530
REMARK INTER + INTRA:          -3.715
REMARK INTER:                  -3.614
REMARK INTRA:                  -0.101
REMARK UNBOUND:                -0.035
REMARK SMILES CCCCC(=O)[O-]
REMARK SMILES IDX 4 1 5 2 6 3 7 4 3 5 2 6 1 7
REMARK H PARENT
REMARK Flexibility Score: inf
ROOT
ATOM      1  C   UNL     1       2.135   8.291  -9.950  1.00  0.00     0.053 C 
ENDROOT
BRANCH   1   2
ATOM      2  C   UNL     1       1.772   7.557 -11.201  1.00  0.00     0.041 C 
ATOM      3  O   UNL     1       0.574   7.517 -11.588  1.00  0.00    -0.550 OA
ATOM      4  O   UNL     1       2.761   6.956 -11.968  1.00  0.00    -0.550 OA
ENDBRANCH   1   2
BRANCH   1   5
ATOM      5  C   UNL     1       1.792   7.453  -8.716  1.00  0.00     0.006 C 
BRANCH   5   6
ATOM      6  C   UNL     1       0.786   8.182  -7.818  1.00  0.00    -0.003 C 
ATOM      7  C   UNL     1      -0.643   7.977  -8.312  1.00  0.00     0.004 C 
ENDBRANCH   5   6
ENDBRANCH   1   5
TORSDOF 3
ENDMDL
MODEL 7
REMARK VINA RESULT:    -3.100      1.201      1.818
REMARK INTER + INTRA:          -3.679
REMARK INTER:                  -3.656
REMARK INTRA:                  -0.024
REMARK UNBOUND:                -0.035
REMARK SMILES CCCCC(=O)[O-]
REMARK SMILES IDX 4 1 5 2 6 3 7 4 3 5 2 6 1 7
REMARK H PARENT
REMARK Flexibility Score: inf
ROOT
ATOM      1  C   UNL     1      -0.621   6.974 -10.277  1.00  0.00     0.053 C 
ENDROOT
BRANCH   1   2
ATOM      2  C   UNL     1       0.182   7.211  -9.038  1.00  0.00     0.041 C 
ATOM      3  O   UNL     1      -0.384   7.586  -7.977  1.00  0.00    -0.550 OA
ATOM      4  O   UNL     1       1.551   6.973  -9.038  1.00  0.00    -0.550 OA
ENDBRANCH   1   2
BRANCH   1   5
ATOM      5  C   UNL     1      -2.118   6.971  -9.954  1.00  0.00     0.006 C 
BRANCH   5   6
ATOM      6  C   UNL     1      -2.955   7.122 -11.228  1.00  0.00    -0.003 C 
ATOM      7  C   UNL     1      -3.931   8.290 -11.111  1.00  0.00     0.004 C 
ENDBRANCH   5   6
ENDBRANCH   1   5
TORSDOF 3
ENDMDL
MODEL 8
REMARK VINA RESULT:    -3.082      2.129      2.929
REMARK INTER + INTRA:          -3.657
REMARK INTER:                  -3.547
REMARK INTRA:                  -0.110
REMARK UNBOUND:                -0.035
REMARK SMILES CCCCC(=O)[O-]
REMARK SMILES IDX 4 1 5 2 6 3 7 4 3 5 2 6 1 7
REMARK H PARENT
REMARK Flexibility Score: inf
ROOT
ATOM      1  C   UNL     1       0.019   6.924  -9.597  1.00  0.00     0.053 C 
ENDROOT
BRANCH   1   2
ATOM      2  C   UNL     1       0.892   7.300  -8.443  1.00  0.00     0.041 C 
ATOM      3  O   UNL     1       0.398   7.861  -7.429  1.00  0.00    -0.550 OA
ATOM      4  O   UNL     1       2.246   6.989  -8.463  1.00  0.00    -0.550 OA
ENDBRANCH   1   2
BRANCH   1   5
ATOM      5  C   UNL     1       0.256   7.869 -10.779  1.00  0.00     0.006 C 
BRANCH   5   6
ATOM      6  C   UNL     1       0.941   7.138 -11.938  1.00  0.00    -0.003 C 
ATOM      7  C   UNL     1       2.431   7.467 -11.993  1.00  0.00     0.004 C 
ENDBRANCH   5   6
ENDBRANCH   1   5
TORSDOF 3
ENDMDL
MODEL 9
REMARK VINA RESULT:    -3.030      2.334      3.425
REMARK INTER + INTRA:          -3.597
REMARK INTER:                  -3.500
REMARK INTRA:                  -0.097
REMARK UNBOUND:                -0.035
REMARK SMILES CCCCC(=O)[O-]
REMARK SMILES IDX 4 1 5 2 6 3 7 4 3 5 2 6 1 7
REMARK H PARENT
REMARK Flexibility Score: inf
ROOT
ATOM      1  C   UNL     1       1.498   7.350  -8.515  1.00  0.00     0.053 C 
ENDROOT
BRANCH   1   2
ATOM      2  C   UNL     1       0.016   7.156  -8.550  1.00  0.00     0.041 C 
ATOM      3  O   UNL     1      -0.743   7.948  -7.931  1.00  0.00    -0.550 OA
ATOM      4  O   UNL     1      -0.534   6.129  -9.307  1.00  0.00    -0.550 OA
ENDBRANCH   1   2
BRANCH   1   5
ATOM      5  C   UNL     1       1.987   7.988  -9.818  1.00  0.00     0.006 C 
BRANCH   5   6
ATOM      6  C   UNL     1       2.055   9.514  -9.693  1.00  0.00    -0.003 C 
ATOM      7  C   UNL     1       1.152  10.191 -10.720  1.00  0.00     0.004 C 
ENDBRANCH   5   6
ENDBRANCH   1   5
TORSDOF 3
ENDMDL
