MODEL 1
REMARK VINA RESULT:    -4.658      0.000      0.000
REMARK INTER + INTRA:         -10.052
REMARK INTER:                  -7.926
REMARK INTRA:                  -2.126
REMARK UNBOUND:                -2.126
REMARK SMILES CCCCCCCCCCCCCC(=O)[O-]
REMARK SMILES IDX 8 1 9 2 10 3 11 4 12 5 13 6 14 7 15 8 16 9 7 10 6 11 5 12
REMARK SMILES IDX 4 13 3 14 2 15 1 16
REMARK H PARENT
REMARK Flexibility Score: inf
ROOT
ATOM      1  C   UNL     1      14.049  43.514   3.449  1.00  0.00     0.000 C 
ENDROOT
BRANCH   1   2
ATOM      2  C   UNL     1      14.596  44.943   3.592  1.00  0.00     0.000 C 
BRANCH   2   3
ATOM      3  C   UNL     1      16.018  44.974   4.176  1.00  0.00     0.000 C 
BRANCH   3   4
ATOM      4  C   UNL     1      16.580  43.569   4.458  1.00  0.00     0.000 C 
BRANCH   4   5
ATOM      5  C   UNL     1      17.433  43.455   5.738  1.00  0.00     0.006 C 
BRANCH   5   6
ATOM      6  C   UNL     1      17.097  44.488   6.823  1.00  0.00     0.053 C 
BRANCH   6   7
ATOM      7  C   UNL     1      17.050  43.872   8.188  1.00  0.00     0.041 C 
ATOM      8  O   UNL     1      16.259  44.320   9.060  1.00  0.00    -0.550 OA
ATOM      9  O   UNL     1      17.904  42.824   8.507  1.00  0.00    -0.550 OA
ENDBRANCH   6   7
ENDBRANCH   5   6
ENDBRANCH   4   5
ENDBRANCH   3   4
ENDBRANCH   2   3
ENDBRANCH   1   2
BRANCH   1  10
ATOM     10  C   UNL     1      12.722  43.313   4.204  1.00  0.00     0.000 C 
BRANCH  10  11
ATOM     11  C   UNL     1      12.870  42.396   5.428  1.00  0.00    -0.000 C 
BRANCH  11  12
ATOM     12  C   UNL     1      13.592  43.085   6.599  1.00  0.00    -0.000 C 
BRANCH  12  13
ATOM     13  C   UNL     1      12.795  44.269   7.168  1.00  0.00    -0.000 C 
BRANCH  13  14
ATOM     14  C   UNL     1      13.578  45.594   7.113  1.00  0.00    -0.000 C 
BRANCH  14  15
ATOM     15  C   UNL     1      12.668  46.804   6.853  1.00  0.00    -0.003 C 
ATOM     16  C   UNL     1      12.032  46.777   5.464  1.00  0.00     0.004 C 
ENDBRANCH  14  15
ENDBRANCH  13  14
ENDBRANCH  12  13
ENDBRANCH  11  12
ENDBRANCH  10  11
ENDBRANCH   1  10
TORSDOF 12
ENDMDL
MODEL 2
REMARK VINA RESULT:    -4.631      1.338      3.851
REMARK INTER + INTRA:         -10.005
REMARK INTER:                  -8.205
REMARK INTRA:                  -1.799
REMARK UNBOUND:                -2.126
REMARK SMILES CCCCCCCCCCCCCC(=O)[O-]
REMARK SMILES IDX 8 1 9 2 10 3 11 4 12 5 13 6 14 7 15 8 16 9 7 10 6 11 5 12
REMARK SMILES IDX 4 13 3 14 2 15 1 16
REMARK H PARENT
REMARK Flexibility Score: inf
ROOT
ATOM      1  C   UNL     1      11.559  46.038   6.938  1.00  0.00     0.000 C 
ENDROOT
BRANCH   1   2
ATOM      2  C   UNL     1      12.697  45.859   7.955  1.00  0.00     0.000 C 
BRANCH   2   3
ATOM      3  C   UNL     1      13.126  44.390   8.108  1.00  0.00     0.000 C 
BRANCH   3   4
ATOM      4  C   UNL     1      14.393  44.050   7.303  1.00  0.00     0.000 C 
BRANCH   4   5
ATOM      5  C   UNL     1      15.469  45.156   7.288  1.00  0.00     0.006 C 
BRANCH   5   6
ATOM      6  C   UNL     1      16.668  44.893   8.211  1.00  0.00     0.053 C 
BRANCH   6   7
ATOM      7  C   UNL     1      17.513  43.757   7.722  1.00  0.00     0.041 C 
ATOM      8  O   UNL     1      17.846  43.691   6.509  1.00  0.00    -0.550 OA
ATOM      9  O   UNL     1      17.904  42.753   8.599  1.00  0.00    -0.550 OA
ENDBRANCH   6   7
ENDBRANCH   5   6
ENDBRANCH   4   5
ENDBRANCH   3   4
ENDBRANCH   2   3
ENDBRANCH   1   2
BRANCH   1  10
ATOM     10  C   UNL     1      11.866  47.131   5.898  1.00  0.00     0.000 C 
BRANCH  10  11
ATOM     11  C   UNL     1      13.188  46.887   5.153  1.00  0.00    -0.000 C 
BRANCH  11  12
ATOM     12  C   UNL     1      13.041  45.868   4.010  1.00  0.00    -0.000 C 
BRANCH  12  13
ATOM     13  C   UNL     1      14.364  45.159   3.679  1.00  0.00    -0.000 C 
BRANCH  13  14
ATOM     14  C   UNL     1      14.223  43.626   3.641  1.00  0.00    -0.000 C 
BRANCH  14  15
ATOM     15  C   UNL     1      12.758  43.172   3.579  1.00  0.00    -0.003 C 
ATOM     16  C   UNL     1      12.387  42.216   4.712  1.00  0.00     0.004 C 
ENDBRANCH  14  15
ENDBRANCH  13  14
ENDBRANCH  12  13
ENDBRANCH  11  12
ENDBRANCH  10  11
ENDBRANCH   1  10
TORSDOF 12
ENDMDL
MODEL 3
REMARK VINA RESULT:    -4.612      1.021      2.112
REMARK INTER + INTRA:          -9.974
REMARK INTER:                  -7.689
REMARK INTRA:                  -2.285
REMARK UNBOUND:                -2.126
REMARK SMILES CCCCCCCCCCCCCC(=O)[O-]
REMARK SMILES IDX 8 1 9 2 10 3 11 4 12 5 13 6 14 7 15 8 16 9 7 10 6 11 5 12
REMARK SMILES IDX 4 13 3 14 2 15 1 16
REMARK H PARENT
REMARK Flexibility Score: inf
ROOT
ATOM      1  C   UNL     1      12.228  43.177   4.803  1.00  0.00     0.000 C 
ENDROOT
BRANCH   1   2
ATOM      2  C   UNL     1      12.875  43.077   3.413  1.00  0.00     0.000 C 
BRANCH   2   3
ATOM      3  C   UNL     1      14.404  43.237   3.461  1.00  0.00     0.000 C 
BRANCH   3   4
ATOM      4  C   UNL     1      14.853  44.708   3.416  1.00  0.00     0.000 C 
BRANCH   4   5
ATOM      5  C   UNL     1      15.777  45.141   4.573  1.00  0.00     0.006 C 
BRANCH   5   6
ATOM      6  C   UNL     1      16.626  44.008   5.170  1.00  0.00     0.053 C 
BRANCH   6   7
ATOM      7  C   UNL     1      17.019  44.291   6.587  1.00  0.00     0.041 C 
ATOM      8  O   UNL     1      16.650  45.357   7.148  1.00  0.00    -0.550 OA
ATOM      9  O   UNL     1      17.823  43.392   7.278  1.00  0.00    -0.550 OA
ENDBRANCH   6   7
ENDBRANCH   5   6
ENDBRANCH   4   5
ENDBRANCH   3   4
ENDBRANCH   2   3
ENDBRANCH   1   2
BRANCH   1  10
ATOM     10  C   UNL     1      13.145  42.641   5.919  1.00  0.00     0.000 C 
BRANCH  10  11
ATOM     11  C   UNL     1      13.392  43.673   7.030  1.00  0.00    -0.000 C 
BRANCH  11  12
ATOM     12  C   UNL     1      12.356  44.810   7.020  1.00  0.00    -0.000 C 
BRANCH  12  13
ATOM     13  C   UNL     1      13.002  46.198   7.159  1.00  0.00    -0.000 C 
BRANCH  13  14
ATOM     14  C   UNL     1      12.967  47.003   5.847  1.00  0.00    -0.000 C 
BRANCH  14  15
ATOM     15  C   UNL     1      11.704  46.721   5.019  1.00  0.00    -0.003 C 
ATOM     16  C   UNL     1      11.961  46.779   3.513  1.00  0.00     0.004 C 
ENDBRANCH  14  15
ENDBRANCH  13  14
ENDBRANCH  12  13
ENDBRANCH  11  12
ENDBRANCH  10  11
ENDBRANCH   1  10
TORSDOF 12
ENDMDL
MODEL 4
REMARK VINA RESULT:    -4.546      1.127      2.488
REMARK INTER + INTRA:          -9.861
REMARK INTER:                  -8.263
REMARK INTRA:                  -1.598
REMARK UNBOUND:                -2.126
REMARK SMILES CCCCCCCCCCCCCC(=O)[O-]
REMARK SMILES IDX 8 1 9 2 10 3 11 4 12 5 13 6 14 7 15 8 16 9 7 10 6 11 5 12
REMARK SMILES IDX 4 13 3 14 2 15 1 16
REMARK H PARENT
REMARK Flexibility Score: inf
ROOT
ATOM      1  C   UNL     1      12.882  44.323   3.956  1.00  0.00     0.000 C 
ENDROOT
BRANCH   1   2
ATOM      2  C   UNL     1      14.095  43.384   3.870  1.00  0.00     0.000 C 
BRANCH   2   3
ATOM      3  C   UNL     1      15.422  44.146   3.718  1.00  0.00     0.000 C 
BRANCH   3   4
ATOM      4  C   UNL     1      16.644  43.309   4.136  1.00  0.00     0.000 C 
BRANCH   4   5
ATOM      5  C   UNL     1      16.715  42.970   5.639  1.00  0.00     0.006 C 
BRANCH   5   6
ATOM      6  C   UNL     1      17.754  43.782   6.428  1.00  0.00     0.053 C 
BRANCH   6   7
ATOM      7  C   UNL     1      17.109  44.721   7.401  1.00  0.00     0.041 C 
ATOM      8  O   UNL     1      17.375  44.642   8.629  1.00  0.00    -0.550 OA
ATOM      9  O   UNL     1      16.188  45.660   6.954  1.00  0.00    -0.550 OA
ENDBRANCH   6   7
ENDBRANCH   5   6
ENDBRANCH   4   5
ENDBRANCH   3   4
ENDBRANCH   2   3
ENDBRANCH   1   2
BRANCH   1  10
ATOM     10  C   UNL     1      13.286  45.809   3.933  1.00  0.00     0.000 C 
BRANCH  10  11
ATOM     11  C   UNL     1      12.179  46.732   4.468  1.00  0.00    -0.000 C 
BRANCH  11  12
ATOM     12  C   UNL     1      11.669  46.299   5.854  1.00  0.00    -0.000 C 
BRANCH  12  13
ATOM     13  C   UNL     1      12.511  46.880   7.001  1.00  0.00    -0.000 C 
BRANCH  13  14
ATOM     14  C   UNL     1      12.810  45.845   8.101  1.00  0.00    -0.000 C 
BRANCH  14  15
ATOM     15  C   UNL     1      12.421  44.418   7.687  1.00  0.00    -0.003 C 
ATOM     16  C   UNL     1      13.623  43.477   7.610  1.00  0.00     0.004 C 
ENDBRANCH  14  15
ENDBRANCH  13  14
ENDBRANCH  12  13
ENDBRANCH  11  12
ENDBRANCH  10  11
ENDBRANCH   1  10
TORSDOF 12
ENDMDL
MODEL 5
REMARK VINA RESULT:    -4.543      1.364      2.734
REMARK INTER + INTRA:          -9.856
REMARK INTER:                  -8.141
REMARK INTRA:                  -1.715
REMARK UNBOUND:                -2.126
REMARK SMILES CCCCCCCCCCCCCC(=O)[O-]
REMARK SMILES IDX 8 1 9 2 10 3 11 4 12 5 13 6 14 7 15 8 16 9 7 10 6 11 5 12
REMARK SMILES IDX 4 13 3 14 2 15 1 16
REMARK H PARENT
REMARK Flexibility Score: inf
ROOT
ATOM      1  C   UNL     1      15.429  45.294   3.817  1.00  0.00     0.000 C 
ENDROOT
BRANCH   1   2
ATOM      2  C   UNL     1      15.532  43.819   3.399  1.00  0.00     0.000 C 
BRANCH   2   3
ATOM      3  C   UNL     1      16.747  43.113   4.022  1.00  0.00     0.000 C 
BRANCH   3   4
ATOM      4  C   UNL     1      17.015  43.552   5.473  1.00  0.00     0.000 C 
BRANCH   4   5
ATOM      5  C   UNL     1      16.435  42.616   6.552  1.00  0.00     0.006 C 
BRANCH   5   6
ATOM      6  C   UNL     1      17.057  42.786   7.947  1.00  0.00     0.053 C 
BRANCH   6   7
ATOM      7  C   UNL     1      16.359  43.844   8.745  1.00  0.00     0.041 C 
ATOM      8  O   UNL     1      15.487  43.525   9.596  1.00  0.00    -0.550 OA
ATOM      9  O   UNL     1      16.648  45.185   8.525  1.00  0.00    -0.550 OA
ENDBRANCH   6   7
ENDBRANCH   5   6
ENDBRANCH   4   5
ENDBRANCH   3   4
ENDBRANCH   2   3
ENDBRANCH   1   2
BRANCH   1  10
ATOM     10  C   UNL     1      14.042  45.649   4.386  1.00  0.00     0.000 C 
BRANCH  10  11
ATOM     11  C   UNL     1      14.090  46.020   5.876  1.00  0.00    -0.000 C 
BRANCH  11  12
ATOM     12  C   UNL     1      13.507  44.919   6.778  1.00  0.00    -0.000 C 
BRANCH  12  13
ATOM     13  C   UNL     1      12.476  44.044   6.048  1.00  0.00    -0.000 C 
BRANCH  13  14
ATOM     14  C   UNL     1      13.018  42.642   5.711  1.00  0.00    -0.000 C 
BRANCH  14  15
ATOM     15  C   UNL     1      12.173  41.925   4.649  1.00  0.00    -0.003 C 
ATOM     16  C   UNL     1      12.469  42.412   3.231  1.00  0.00     0.004 C 
ENDBRANCH  14  15
ENDBRANCH  13  14
ENDBRANCH  12  13
ENDBRANCH  11  12
ENDBRANCH  10  11
ENDBRANCH   1  10
TORSDOF 12
ENDMDL
MODEL 6
REMARK VINA RESULT:    -4.482      2.527      4.848
REMARK INTER + INTRA:          -9.752
REMARK INTER:                  -8.191
REMARK INTRA:                  -1.561
REMARK UNBOUND:                -2.126
REMARK SMILES CCCCCCCCCCCCCC(=O)[O-]
REMARK SMILES IDX 8 1 9 2 10 3 11 4 12 5 13 6 14 7 15 8 16 9 7 10 6 11 5 12
REMARK SMILES IDX 4 13 3 14 2 15 1 16
REMARK H PARENT
REMARK Flexibility Score: inf
ROOT
ATOM      1  C   UNL     1      16.769  43.422   4.206  1.00  0.00     0.000 C 
ENDROOT
BRANCH   1   2
ATOM      2  C   UNL     1      15.637  44.411   3.886  1.00  0.00     0.000 C 
BRANCH   2   3
ATOM      3  C   UNL     1      14.273  43.717   3.735  1.00  0.00     0.000 C 
BRANCH   3   4
ATOM      4  C   UNL     1      13.142  44.455   4.474  1.00  0.00     0.000 C 
BRANCH   4   5
ATOM      5  C   UNL     1      13.155  45.989   4.315  1.00  0.00     0.006 C 
BRANCH   5   6
ATOM      6  C   UNL     1      13.627  46.755   5.560  1.00  0.00     0.053 C 
BRANCH   6   7
ATOM      7  C   UNL     1      12.551  46.858   6.596  1.00  0.00     0.041 C 
ATOM      8  O   UNL     1      11.454  47.412   6.319  1.00  0.00    -0.550 OA
ATOM      9  O   UNL     1      12.771  46.372   7.879  1.00  0.00    -0.550 OA
ENDBRANCH   6   7
ENDBRANCH   5   6
ENDBRANCH   4   5
ENDBRANCH   3   4
ENDBRANCH   2   3
ENDBRANCH   1   2
BRANCH   1  10
ATOM     10  C   UNL     1      17.024  43.289   5.719  1.00  0.00     0.000 C 
BRANCH  10  11
ATOM     11  C   UNL     1      16.765  44.599   6.481  1.00  0.00    -0.000 C 
BRANCH  11  12
ATOM     12  C   UNL     1      15.784  44.417   7.652  1.00  0.00    -0.000 C 
BRANCH  12  13
ATOM     13  C   UNL     1      14.875  43.191   7.474  1.00  0.00    -0.000 C 
BRANCH  13  14
ATOM     14  C   UNL     1      14.953  42.216   8.663  1.00  0.00    -0.000 C 
BRANCH  14  15
ATOM     15  C   UNL     1      16.255  41.403   8.671  1.00  0.00    -0.003 C 
ATOM     16  C   UNL     1      16.056  39.974   9.176  1.00  0.00     0.004 C 
ENDBRANCH  14  15
ENDBRANCH  13  14
ENDBRANCH  12  13
ENDBRANCH  11  12
ENDBRANCH  10  11
ENDBRANCH   1  10
TORSDOF 12
ENDMDL
MODEL 7
REMARK VINA RESULT:    -4.469      2.545      4.344
REMARK INTER + INTRA:          -9.729
REMARK INTER:                  -7.559
REMARK INTRA:                  -2.170
REMARK UNBOUND:                -2.126
REMARK SMILES CCCCCCCCCCCCCC(=O)[O-]
REMARK SMILES IDX 8 1 9 2 10 3 11 4 12 5 13 6 14 7 15 8 16 9 7 10 6 11 5 12
REMARK SMILES IDX 4 13 3 14 2 15 1 16
REMARK H PARENT
REMARK Flexibility Score: inf
ROOT
ATOM      1  C   UNL     1      16.286  43.238   4.496  1.00  0.00     0.000 C 
ENDROOT
BRANCH   1   2
ATOM      2  C   UNL     1      16.229  42.665   5.921  1.00  0.00     0.000 C 
BRANCH   2   3
ATOM      3  C   UNL     1      15.801  43.714   6.962  1.00  0.00     0.000 C 
BRANCH   3   4
ATOM      4  C   UNL     1      15.040  43.100   8.151  1.00  0.00     0.000 C 
BRANCH   4   5
ATOM      5  C   UNL     1      13.710  43.798   8.500  1.00  0.00     0.006 C 
BRANCH   5   6
ATOM      6  C   UNL     1      13.647  45.284   8.113  1.00  0.00     0.053 C 
BRANCH   6   7
ATOM      7  C   UNL     1      12.239  45.794   8.076  1.00  0.00     0.041 C 
ATOM      8  O   UNL     1      11.364  45.297   8.834  1.00  0.00    -0.550 OA
ATOM      9  O   UNL     1      11.886  46.794   7.179  1.00  0.00    -0.550 OA
ENDBRANCH   6   7
ENDBRANCH   5   6
ENDBRANCH   4   5
ENDBRANCH   3   4
ENDBRANCH   2   3
ENDBRANCH   1   2
BRANCH   1  10
ATOM     10  C   UNL     1      16.217  44.776   4.477  1.00  0.00     0.000 C 
BRANCH  10  11
ATOM     11  C   UNL     1      15.074  45.307   3.597  1.00  0.00    -0.000 C 
BRANCH  11  12
ATOM     12  C   UNL     1      13.825  45.681   4.414  1.00  0.00    -0.000 C 
BRANCH  12  13
ATOM     13  C   UNL     1      12.605  44.817   4.057  1.00  0.00    -0.000 C 
BRANCH  13  14
ATOM     14  C   UNL     1      12.393  43.652   5.042  1.00  0.00    -0.000 C 
BRANCH  14  15
ATOM     15  C   UNL     1      12.552  42.280   4.371  1.00  0.00    -0.003 C 
ATOM     16  C   UNL     1      12.797  42.383   2.866  1.00  0.00     0.004 C 
ENDBRANCH  14  15
ENDBRANCH  13  14
ENDBRANCH  12  13
ENDBRANCH  11  12
ENDBRANCH  10  11
ENDBRANCH   1  10
TORSDOF 12
ENDMDL
MODEL 8
REMARK VINA RESULT:    -4.460      1.797      3.108
REMARK INTER + INTRA:          -9.714
REMARK INTER:                  -7.761
REMARK INTRA:                  -1.953
REMARK UNBOUND:                -2.126
REMARK SMILES CCCCCCCCCCCCCC(=O)[O-]
REMARK SMILES IDX 8 1 9 2 10 3 11 4 12 5 13 6 14 7 15 8 16 9 7 10 6 11 5 12
REMARK SMILES IDX 4 13 3 14 2 15 1 16
REMARK H PARENT
REMARK Flexibility Score: inf
ROOT
ATOM      1  C   UNL     1      15.480  43.750   3.623  1.00  0.00     0.000 C 
ENDROOT
BRANCH   1   2
ATOM      2  C   UNL     1      16.730  43.289   4.388  1.00  0.00     0.000 C 
BRANCH   2   3
ATOM      3  C   UNL     1      16.405  42.805   5.811  1.00  0.00     0.000 C 
BRANCH   3   4
ATOM      4  C   UNL     1      17.086  43.652   6.901  1.00  0.00     0.000 C 
BRANCH   4   5
ATOM      5  C   UNL     1      16.840  43.171   8.346  1.00  0.00     0.006 C 
BRANCH   5   6
ATOM      6  C   UNL     1      15.403  42.708   8.629  1.00  0.00     0.053 C 
BRANCH   6   7
ATOM      7  C   UNL     1      15.341  41.252   8.976  1.00  0.00     0.041 C 
ATOM      8  O   UNL     1      14.252  40.730   9.334  1.00  0.00    -0.550 OA
ATOM      9  O   UNL     1      16.495  40.479   8.938  1.00  0.00    -0.550 OA
ENDBRANCH   6   7
ENDBRANCH   5   6
ENDBRANCH   4   5
ENDBRANCH   3   4
ENDBRANCH   2   3
ENDBRANCH   1   2
BRANCH   1  10
ATOM     10  C   UNL     1      15.299  45.279   3.657  1.00  0.00     0.000 C 
BRANCH  10  11
ATOM     11  C   UNL     1      14.031  45.709   4.412  1.00  0.00    -0.000 C 
BRANCH  11  12
ATOM     12  C   UNL     1      14.284  45.928   5.914  1.00  0.00    -0.000 C 
BRANCH  12  13
ATOM     13  C   UNL     1      13.281  45.171   6.798  1.00  0.00    -0.000 C 
BRANCH  13  14
ATOM     14  C   UNL     1      12.353  44.248   5.986  1.00  0.00    -0.000 C 
BRANCH  14  15
ATOM     15  C   UNL     1      12.834  42.790   5.979  1.00  0.00    -0.003 C 
ATOM     16  C   UNL     1      12.347  42.014   4.755  1.00  0.00     0.004 C 
ENDBRANCH  14  15
ENDBRANCH  13  14
ENDBRANCH  12  13
ENDBRANCH  11  12
ENDBRANCH  10  11
ENDBRANCH   1  10
TORSDOF 12
ENDMDL
MODEL 9
REMARK VINA RESULT:    -4.447      2.931      5.295
REMARK INTER + INTRA:          -9.692
REMARK INTER:                  -7.735
REMARK INTRA:                  -1.957
REMARK UNBOUND:                -2.126
REMARK SMILES CCCCCCCCCCCCCC(=O)[O-]
REMARK SMILES IDX 8 1 9 2 10 3 11 4 12 5 13 6 14 7 15 8 16 9 7 10 6 11 5 12
REMARK SMILES IDX 4 13 3 14 2 15 1 16
REMARK H PARENT
REMARK Flexibility Score: inf
ROOT
ATOM      1  C   UNL     1      15.465  42.495   7.214  1.00  0.00     0.000 C 
ENDROOT
BRANCH   1   2
ATOM      2  C   UNL     1      14.517  42.931   8.342  1.00  0.00     0.000 C 
BRANCH   2   3
ATOM      3  C   UNL     1      13.412  43.882   7.850  1.00  0.00     0.000 C 
BRANCH   3   4
ATOM      4  C   UNL     1      13.929  45.304   7.568  1.00  0.00     0.000 C 
BRANCH   4   5
ATOM      5  C   UNL     1      12.847  46.315   7.137  1.00  0.00     0.006 C 
BRANCH   5   6
ATOM      6  C   UNL     1      13.068  46.932   5.747  1.00  0.00     0.053 C 
BRANCH   6   7
ATOM      7  C   UNL     1      11.815  46.925   4.926  1.00  0.00     0.041 C 
ATOM      8  O   UNL     1      10.694  47.091   5.476  1.00  0.00    -0.550 OA
ATOM      9  O   UNL     1      11.883  46.700   3.556  1.00  0.00    -0.550 OA
ENDBRANCH   6   7
ENDBRANCH   5   6
ENDBRANCH   4   5
ENDBRANCH   3   4
ENDBRANCH   2   3
ENDBRANCH   1   2
BRANCH   1  10
ATOM     10  C   UNL     1      16.905  42.994   7.430  1.00  0.00     0.000 C 
BRANCH  10  11
ATOM     11  C   UNL     1      17.519  43.599   6.157  1.00  0.00    -0.000 C 
BRANCH  11  12
ATOM     12  C   UNL     1      16.584  43.490   4.941  1.00  0.00    -0.000 C 
BRANCH  12  13
ATOM     13  C   UNL     1      15.981  44.845   4.537  1.00  0.00    -0.000 C 
BRANCH  13  14
ATOM     14  C   UNL     1      14.818  44.703   3.537  1.00  0.00    -0.000 C 
BRANCH  14  15
ATOM     15  C   UNL     1      14.150  43.322   3.605  1.00  0.00    -0.003 C 
ATOM     16  C   UNL     1      12.780  43.362   4.280  1.00  0.00     0.004 C 
ENDBRANCH  14  15
ENDBRANCH  13  14
ENDBRANCH  12  13
ENDBRANCH  11  12
ENDBRANCH  10  11
ENDBRANCH   1  10
TORSDOF 12
ENDMDL
