MODEL 1
REMARK VINA RESULT:    -3.727      0.000      0.000
REMARK INTER + INTRA:          -8.124
REMARK INTER:                  -6.994
REMARK INTRA:                  -1.129
REMARK UNBOUND:                -1.129
REMARK SMILES O=C([O-])CCCCCCCCCCCCCCC(=O)[O-]
REMARK SMILES IDX 10 1 9 2 8 3 7 4 6 5 5 6 4 7 2 8 1 9 3 10 11 11 12 12 13 13
REMARK SMILES IDX 14 14 15 15 16 16 17 17 18 18 19 19 20 20
REMARK H PARENT
REMARK Flexibility Score: inf
ROOT
ATOM      1  C   UNL     1      -3.890  25.579  25.325  1.00  0.00     0.000 C 
ENDROOT
BRANCH   1   2
ATOM      2  C   UNL     1      -3.582  24.159  25.830  1.00  0.00     0.000 C 
BRANCH   2   3
ATOM      3  C   UNL     1      -4.736  23.551  26.649  1.00  0.00     0.000 C 
BRANCH   3   4
ATOM      4  C   UNL     1      -6.103  23.533  25.942  1.00  0.00     0.000 C 
BRANCH   4   5
ATOM      5  C   UNL     1      -7.114  22.589  26.611  1.00  0.00     0.000 C 
BRANCH   5   6
ATOM      6  C   UNL     1      -8.538  23.149  26.512  1.00  0.00     0.006 C 
BRANCH   6   7
ATOM      7  C   UNL     1      -8.793  23.760  25.131  1.00  0.00     0.053 C 
BRANCH   7   8
ATOM      8  C   UNL     1      -9.878  23.013  24.420  1.00  0.00     0.041 C 
ATOM      9  O   UNL     1     -10.499  23.552  23.466  1.00  0.00    -0.550 OA
ATOM     10  O   UNL     1     -10.234  21.739  24.840  1.00  0.00    -0.550 OA
ENDBRANCH   7   8
ENDBRANCH   6   7
ENDBRANCH   5   6
ENDBRANCH   4   5
ENDBRANCH   3   4
ENDBRANCH   2   3
ENDBRANCH   1   2
BRANCH   1  11
ATOM     11  C   UNL     1      -3.195  26.665  26.162  1.00  0.00     0.000 C 
BRANCH  11  12
ATOM     12  C   UNL     1      -2.486  27.718  25.295  1.00  0.00     0.000 C 
BRANCH  12  13
ATOM     13  C   UNL     1      -1.914  27.084  24.022  1.00  0.00     0.000 C 
BRANCH  13  14
ATOM     14  C   UNL     1      -0.400  27.329  23.916  1.00  0.00     0.000 C 
BRANCH  14  15
ATOM     15  C   UNL     1       0.428  26.109  24.349  1.00  0.00     0.000 C 
BRANCH  15  16
ATOM     16  C   UNL     1      -0.273  24.777  24.043  1.00  0.00     0.006 C 
BRANCH  16  17
ATOM     17  C   UNL     1       0.478  23.999  22.957  1.00  0.00     0.053 C 
BRANCH  17  18
ATOM     18  C   UNL     1      -0.178  22.678  22.710  1.00  0.00     0.041 C 
ATOM     19  O   UNL     1      -0.915  22.161  23.591  1.00  0.00    -0.550 OA
ATOM     20  O   UNL     1      -0.016  22.039  21.487  1.00  0.00    -0.550 OA
ENDBRANCH  17  18
ENDBRANCH  16  17
ENDBRANCH  15  16
ENDBRANCH  14  15
ENDBRANCH  13  14
ENDBRANCH  12  13
ENDBRANCH  11  12
ENDBRANCH   1  11
TORSDOF 15
ENDMDL
MODEL 2
REMARK VINA RESULT:    -3.723      1.141      8.492
REMARK INTER + INTRA:          -8.117
REMARK INTER:                  -7.322
REMARK INTRA:                  -0.795
REMARK UNBOUND:                -1.129
REMARK SMILES O=C([O-])CCCCCCCCCCCCCCC(=O)[O-]
REMARK SMILES IDX 10 1 9 2 8 3 7 4 6 5 5 6 4 7 2 8 1 9 3 10 11 11 12 12 13 13
REMARK SMILES IDX 14 14 15 15 16 16 17 17 18 18 19 19 20 20
REMARK H PARENT
REMARK Flexibility Score: inf
ROOT
ATOM      1  C   UNL     1      -3.410  25.352  25.533  1.00  0.00     0.000 C 
ENDROOT
BRANCH   1   2
ATOM      2  C   UNL     1      -3.236  26.684  26.282  1.00  0.00     0.000 C 
BRANCH   2   3
ATOM      3  C   UNL     1      -2.228  27.628  25.600  1.00  0.00     0.000 C 
BRANCH   3   4
ATOM      4  C   UNL     1      -2.049  27.411  24.086  1.00  0.00     0.000 C 
BRANCH   4   5
ATOM      5  C   UNL     1      -0.578  27.455  23.643  1.00  0.00     0.000 C 
BRANCH   5   6
ATOM      6  C   UNL     1       0.195  26.246  24.187  1.00  0.00     0.006 C 
BRANCH   6   7
ATOM      7  C   UNL     1       0.662  25.335  23.048  1.00  0.00     0.053 C 
BRANCH   7   8
ATOM      8  C   UNL     1       0.191  23.933  23.272  1.00  0.00     0.041 C 
ATOM      9  O   UNL     1       0.565  23.008  22.505  1.00  0.00    -0.550 OA
ATOM     10  O   UNL     1      -0.699  23.656  24.302  1.00  0.00    -0.550 OA
ENDBRANCH   7   8
ENDBRANCH   6   7
ENDBRANCH   5   6
ENDBRANCH   4   5
ENDBRANCH   3   4
ENDBRANCH   2   3
ENDBRANCH   1   2
BRANCH   1  11
ATOM     11  C   UNL     1      -4.082  24.273  26.398  1.00  0.00     0.000 C 
BRANCH  11  12
ATOM     12  C   UNL     1      -5.162  23.491  25.637  1.00  0.00     0.000 C 
BRANCH  12  13
ATOM     13  C   UNL     1      -6.175  22.869  26.606  1.00  0.00     0.000 C 
BRANCH  13  14
ATOM     14  C   UNL     1      -7.607  23.312  26.266  1.00  0.00     0.000 C 
BRANCH  14  15
ATOM     15  C   UNL     1      -8.661  22.269  26.670  1.00  0.00     0.000 C 
BRANCH  15  16
ATOM     16  C   UNL     1     -10.037  22.545  26.049  1.00  0.00     0.006 C 
BRANCH  16  17
ATOM     17  C   UNL     1     -10.069  22.120  24.577  1.00  0.00     0.053 C 
BRANCH  17  18
ATOM     18  C   UNL     1     -10.365  23.294  23.699  1.00  0.00     0.041 C 
ATOM     19  O   UNL     1     -11.257  23.216  22.814  1.00  0.00    -0.550 OA
ATOM     20  O   UNL     1      -9.688  24.493  23.890  1.00  0.00    -0.550 OA
ENDBRANCH  17  18
ENDBRANCH  16  17
ENDBRANCH  15  16
ENDBRANCH  14  15
ENDBRANCH  13  14
ENDBRANCH  12  13
ENDBRANCH  11  12
ENDBRANCH   1  11
TORSDOF 15
ENDMDL
MODEL 3
REMARK VINA RESULT:    -3.604      1.142      1.730
REMARK INTER + INTRA:          -7.893
REMARK INTER:                  -7.088
REMARK INTRA:                  -0.805
REMARK UNBOUND:                -1.129
REMARK SMILES O=C([O-])CCCCCCCCCCCCCCC(=O)[O-]
REMARK SMILES IDX 10 1 9 2 8 3 7 4 6 5 5 6 4 7 2 8 1 9 3 10 11 11 12 12 13 13
REMARK SMILES IDX 14 14 15 15 16 16 17 17 18 18 19 19 20 20
REMARK H PARENT
REMARK Flexibility Score: inf
ROOT
ATOM      1  C   UNL     1      -3.914  24.160  26.288  1.00  0.00     0.000 C 
ENDROOT
BRANCH   1   2
ATOM      2  C   UNL     1      -5.236  23.795  25.591  1.00  0.00     0.000 C 
BRANCH   2   3
ATOM      3  C   UNL     1      -6.125  22.867  26.439  1.00  0.00     0.000 C 
BRANCH   3   4
ATOM      4  C   UNL     1      -7.604  23.282  26.532  1.00  0.00     0.000 C 
BRANCH   4   5
ATOM      5  C   UNL     1      -8.566  22.084  26.500  1.00  0.00     0.000 C 
BRANCH   5   6
ATOM      6  C   UNL     1      -9.940  22.497  25.956  1.00  0.00     0.006 C 
BRANCH   6   7
ATOM      7  C   UNL     1     -10.062  22.170  24.465  1.00  0.00     0.053 C 
BRANCH   7   8
ATOM      8  C   UNL     1     -10.334  23.411  23.676  1.00  0.00     0.041 C 
ATOM      9  O   UNL     1     -11.172  23.395  22.736  1.00  0.00    -0.550 OA
ATOM     10  O   UNL     1      -9.629  24.576  23.950  1.00  0.00    -0.550 OA
ENDBRANCH   7   8
ENDBRANCH   6   7
ENDBRANCH   5   6
ENDBRANCH   4   5
ENDBRANCH   3   4
ENDBRANCH   2   3
ENDBRANCH   1   2
BRANCH   1  11
ATOM     11  C   UNL     1      -3.095  25.192  25.497  1.00  0.00     0.000 C 
BRANCH  11  12
ATOM     12  C   UNL     1      -3.400  26.638  25.916  1.00  0.00     0.000 C 
BRANCH  12  13
ATOM     13  C   UNL     1      -2.367  27.608  25.331  1.00  0.00     0.000 C 
BRANCH  13  14
ATOM     14  C   UNL     1      -0.998  26.928  25.173  1.00  0.00     0.000 C 
BRANCH  14  15
ATOM     15  C   UNL     1      -0.362  27.190  23.799  1.00  0.00     0.000 C 
BRANCH  15  16
ATOM     16  C   UNL     1       0.471  26.002  23.295  1.00  0.00     0.006 C 
BRANCH  16  17
ATOM     17  C   UNL     1      -0.052  24.682  23.872  1.00  0.00     0.053 C 
BRANCH  17  18
ATOM     18  C   UNL     1       0.262  23.547  22.952  1.00  0.00     0.041 C 
ATOM     19  O   UNL     1       1.228  23.630  22.148  1.00  0.00    -0.550 OA
ATOM     20  O   UNL     1      -0.482  22.374  23.015  1.00  0.00    -0.550 OA
ENDBRANCH  17  18
ENDBRANCH  16  17
ENDBRANCH  15  16
ENDBRANCH  14  15
ENDBRANCH  13  14
ENDBRANCH  12  13
ENDBRANCH  11  12
ENDBRANCH   1  11
TORSDOF 15
ENDMDL
MODEL 4
REMARK VINA RESULT:    -3.475      0.552      8.061
REMARK INTER + INTRA:          -7.651
REMARK INTER:                  -6.799
REMARK INTRA:                  -0.852
REMARK UNBOUND:                -1.129
REMARK SMILES O=C([O-])CCCCCCCCCCCCCCC(=O)[O-]
REMARK SMILES IDX 10 1 9 2 8 3 7 4 6 5 5 6 4 7 2 8 1 9 3 10 11 11 12 12 13 13
REMARK SMILES IDX 14 14 15 15 16 16 17 17 18 18 19 19 20 20
REMARK H PARENT
REMARK Flexibility Score: inf
ROOT
ATOM      1  C   UNL     1      -3.122  26.836  25.861  1.00  0.00     0.000 C 
ENDROOT
BRANCH   1   2
ATOM      2  C   UNL     1      -2.093  27.087  24.746  1.00  0.00     0.000 C 
BRANCH   2   3
ATOM      3  C   UNL     1      -0.715  27.513  25.286  1.00  0.00     0.000 C 
BRANCH   3   4
ATOM      4  C   UNL     1       0.478  26.698  24.753  1.00  0.00     0.000 C 
BRANCH   4   5
ATOM      5  C   UNL     1       0.155  25.939  23.457  1.00  0.00     0.000 C 
BRANCH   5   6
ATOM      6  C   UNL     1       0.075  24.429  23.710  1.00  0.00     0.006 C 
BRANCH   6   7
ATOM      7  C   UNL     1       0.751  23.646  22.580  1.00  0.00     0.053 C 
BRANCH   7   8
ATOM      8  C   UNL     1      -0.064  22.445  22.215  1.00  0.00     0.041 C 
ATOM      9  O   UNL     1      -0.114  22.053  21.020  1.00  0.00    -0.550 OA
ATOM     10  O   UNL     1      -0.805  21.786  23.187  1.00  0.00    -0.550 OA
ENDBRANCH   7   8
ENDBRANCH   6   7
ENDBRANCH   5   6
ENDBRANCH   4   5
ENDBRANCH   3   4
ENDBRANCH   2   3
ENDBRANCH   1   2
BRANCH   1  11
ATOM     11  C   UNL     1      -4.113  25.716  25.507  1.00  0.00     0.000 C 
BRANCH  11  12
ATOM     12  C   UNL     1      -3.574  24.318  25.845  1.00  0.00     0.000 C 
BRANCH  12  13
ATOM     13  C   UNL     1      -4.621  23.494  26.603  1.00  0.00     0.000 C 
BRANCH  13  14
ATOM     14  C   UNL     1      -5.981  23.538  25.888  1.00  0.00     0.000 C 
BRANCH  14  15
ATOM     15  C   UNL     1      -7.003  22.567  26.499  1.00  0.00     0.000 C 
BRANCH  15  16
ATOM     16  C   UNL     1      -8.425  23.147  26.532  1.00  0.00     0.006 C 
BRANCH  16  17
ATOM     17  C   UNL     1      -8.822  23.702  25.161  1.00  0.00     0.053 C 
BRANCH  17  18
ATOM     18  C   UNL     1      -9.879  22.849  24.536  1.00  0.00     0.041 C 
ATOM     19  O   UNL     1     -10.269  21.799  25.110  1.00  0.00    -0.550 OA
ATOM     20  O   UNL     1     -10.471  23.240  23.340  1.00  0.00    -0.550 OA
ENDBRANCH  17  18
ENDBRANCH  16  17
ENDBRANCH  15  16
ENDBRANCH  14  15
ENDBRANCH  13  14
ENDBRANCH  12  13
ENDBRANCH  11  12
ENDBRANCH   1  11
TORSDOF 15
ENDMDL
MODEL 5
REMARK VINA RESULT:    -3.417      3.364      8.017
REMARK INTER + INTRA:          -7.543
REMARK INTER:                  -6.596
REMARK INTRA:                  -0.948
REMARK UNBOUND:                -1.129
REMARK SMILES O=C([O-])CCCCCCCCCCCCCCC(=O)[O-]
REMARK SMILES IDX 10 1 9 2 8 3 7 4 6 5 5 6 4 7 2 8 1 9 3 10 11 11 12 12 13 13
REMARK SMILES IDX 14 14 15 15 16 16 17 17 18 18 19 19 20 20
REMARK H PARENT
REMARK Flexibility Score: inf
ROOT
ATOM      1  C   UNL     1      -0.147  23.455  23.414  1.00  0.00     0.000 C 
ENDROOT
BRANCH   1   2
ATOM      2  C   UNL     1       1.140  23.767  22.631  1.00  0.00     0.000 C 
BRANCH   2   3
ATOM      3  C   UNL     1       1.048  23.374  21.145  1.00  0.00     0.000 C 
BRANCH   3   4
ATOM      4  C   UNL     1       0.121  22.184  20.838  1.00  0.00     0.000 C 
BRANCH   4   5
ATOM      5  C   UNL     1       0.522  21.423  19.566  1.00  0.00     0.000 C 
BRANCH   5   6
ATOM      6  C   UNL     1       0.770  19.940  19.868  1.00  0.00     0.006 C 
BRANCH   6   7
ATOM      7  C   UNL     1       0.540  19.079  18.622  1.00  0.00     0.053 C 
BRANCH   7   8
ATOM      8  C   UNL     1       0.250  17.663  19.010  1.00  0.00     0.041 C 
ATOM      9  O   UNL     1      -0.348  16.897  18.210  1.00  0.00    -0.550 OA
ATOM     10  O   UNL     1       0.600  17.204  20.273  1.00  0.00    -0.550 OA
ENDBRANCH   7   8
ENDBRANCH   6   7
ENDBRANCH   5   6
ENDBRANCH   4   5
ENDBRANCH   3   4
ENDBRANCH   2   3
ENDBRANCH   1   2
BRANCH   1  11
ATOM     11  C   UNL     1      -0.536  24.585  24.381  1.00  0.00     0.000 C 
BRANCH  11  12
ATOM     12  C   UNL     1       0.258  25.877  24.134  1.00  0.00     0.000 C 
BRANCH  12  13
ATOM     13  C   UNL     1      -0.672  27.020  23.711  1.00  0.00     0.000 C 
BRANCH  13  14
ATOM     14  C   UNL     1      -2.120  26.742  24.142  1.00  0.00     0.000 C 
BRANCH  14  15
ATOM     15  C   UNL     1      -2.451  27.329  25.523  1.00  0.00     0.000 C 
BRANCH  15  16
ATOM     16  C   UNL     1      -3.389  26.429  26.341  1.00  0.00     0.006 C 
BRANCH  16  17
ATOM     17  C   UNL     1      -3.804  25.194  25.535  1.00  0.00     0.053 C 
BRANCH  17  18
ATOM     18  C   UNL     1      -4.342  24.133  26.442  1.00  0.00     0.041 C 
ATOM     19  O   UNL     1      -5.115  23.247  25.992  1.00  0.00    -0.550 OA
ATOM     20  O   UNL     1      -3.950  24.093  27.775  1.00  0.00    -0.550 OA
ENDBRANCH  17  18
ENDBRANCH  16  17
ENDBRANCH  15  16
ENDBRANCH  14  15
ENDBRANCH  13  14
ENDBRANCH  12  13
ENDBRANCH  11  12
ENDBRANCH   1  11
TORSDOF 15
ENDMDL
MODEL 6
REMARK VINA RESULT:    -3.156      3.386      6.114
REMARK INTER + INTRA:          -7.052
REMARK INTER:                  -6.110
REMARK INTRA:                  -0.943
REMARK UNBOUND:                -1.129
REMARK SMILES O=C([O-])CCCCCCCCCCCCCCC(=O)[O-]
REMARK SMILES IDX 10 1 9 2 8 3 7 4 6 5 5 6 4 7 2 8 1 9 3 10 11 11 12 12 13 13
REMARK SMILES IDX 14 14 15 15 16 16 17 17 18 18 19 19 20 20
REMARK H PARENT
REMARK Flexibility Score: inf
ROOT
ATOM      1  C   UNL     1       0.283  24.280  23.299  1.00  0.00     0.000 C 
ENDROOT
BRANCH   1   2
ATOM      2  C   UNL     1       0.903  25.671  23.524  1.00  0.00     0.000 C 
BRANCH   2   3
ATOM      3  C   UNL     1      -0.074  26.663  24.182  1.00  0.00     0.000 C 
BRANCH   3   4
ATOM      4  C   UNL     1      -1.482  26.107  24.464  1.00  0.00     0.000 C 
BRANCH   4   5
ATOM      5  C   UNL     1      -2.336  27.047  25.329  1.00  0.00     0.000 C 
BRANCH   5   6
ATOM      6  C   UNL     1      -3.516  26.294  25.957  1.00  0.00     0.006 C 
BRANCH   6   7
ATOM      7  C   UNL     1      -3.482  24.809  25.584  1.00  0.00     0.053 C 
BRANCH   7   8
ATOM      8  C   UNL     1      -4.291  24.007  26.554  1.00  0.00     0.041 C 
ATOM      9  O   UNL     1      -3.979  23.982  27.773  1.00  0.00    -0.550 OA
ATOM     10  O   UNL     1      -5.364  23.250  26.102  1.00  0.00    -0.550 OA
ENDBRANCH   7   8
ENDBRANCH   6   7
ENDBRANCH   5   6
ENDBRANCH   4   5
ENDBRANCH   3   4
ENDBRANCH   2   3
ENDBRANCH   1   2
BRANCH   1  11
ATOM     11  C   UNL     1       0.935  23.527  22.128  1.00  0.00     0.000 C 
BRANCH  11  12
ATOM     12  C   UNL     1       1.258  24.445  20.940  1.00  0.00     0.000 C 
BRANCH  12  13
ATOM     13  C   UNL     1       0.668  23.886  19.639  1.00  0.00     0.000 C 
BRANCH  13  14
ATOM     14  C   UNL     1       0.179  22.441  19.831  1.00  0.00     0.000 C 
BRANCH  14  15
ATOM     15  C   UNL     1       0.200  21.631  18.526  1.00  0.00     0.000 C 
BRANCH  15  16
ATOM     16  C   UNL     1       0.982  20.316  18.657  1.00  0.00     0.006 C 
BRANCH  16  17
ATOM     17  C   UNL     1       0.653  19.612  19.978  1.00  0.00     0.053 C 
BRANCH  17  18
ATOM     18  C   UNL     1       0.740  18.128  19.817  1.00  0.00     0.041 C 
ATOM     19  O   UNL     1      -0.132  17.509  19.152  1.00  0.00    -0.550 OA
ATOM     20  O   UNL     1       1.814  17.431  20.361  1.00  0.00    -0.550 OA
ENDBRANCH  17  18
ENDBRANCH  16  17
ENDBRANCH  15  16
ENDBRANCH  14  15
ENDBRANCH  13  14
ENDBRANCH  12  13
ENDBRANCH  11  12
ENDBRANCH   1  11
TORSDOF 15
ENDMDL
MODEL 7
REMARK VINA RESULT:    -3.111      1.308      2.391
REMARK INTER + INTRA:          -6.968
REMARK INTER:                  -6.085
REMARK INTRA:                  -0.883
REMARK UNBOUND:                -1.129
REMARK SMILES O=C([O-])CCCCCCCCCCCCCCC(=O)[O-]
REMARK SMILES IDX 10 1 9 2 8 3 7 4 6 5 5 6 4 7 2 8 1 9 3 10 11 11 12 12 13 13
REMARK SMILES IDX 14 14 15 15 16 16 17 17 18 18 19 19 20 20
REMARK H PARENT
REMARK Flexibility Score: inf
ROOT
ATOM      1  C   UNL     1      -2.041  27.414  25.889  1.00  0.00     0.000 C 
ENDROOT
BRANCH   1   2
ATOM      2  C   UNL     1      -3.434  26.767  25.987  1.00  0.00     0.000 C 
BRANCH   2   3
ATOM      3  C   UNL     1      -3.447  25.299  25.522  1.00  0.00     0.000 C 
BRANCH   3   4
ATOM      4  C   UNL     1      -4.156  24.317  26.472  1.00  0.00     0.000 C 
BRANCH   4   5
ATOM      5  C   UNL     1      -4.994  23.263  25.730  1.00  0.00     0.000 C 
BRANCH   5   6
ATOM      6  C   UNL     1      -6.230  22.869  26.548  1.00  0.00     0.006 C 
BRANCH   6   7
ATOM      7  C   UNL     1      -7.491  23.539  25.995  1.00  0.00     0.053 C 
BRANCH   7   8
ATOM      8  C   UNL     1      -8.717  22.851  26.507  1.00  0.00     0.041 C 
ATOM      9  O   UNL     1      -8.974  22.846  27.739  1.00  0.00    -0.550 OA
ATOM     10  O   UNL     1      -9.552  22.175  25.626  1.00  0.00    -0.550 OA
ENDBRANCH   7   8
ENDBRANCH   6   7
ENDBRANCH   5   6
ENDBRANCH   4   5
ENDBRANCH   3   4
ENDBRANCH   2   3
ENDBRANCH   1   2
BRANCH   1  11
ATOM     11  C   UNL     1      -1.223  26.873  24.705  1.00  0.00     0.000 C 
BRANCH  11  12
ATOM     12  C   UNL     1      -1.519  27.615  23.392  1.00  0.00     0.000 C 
BRANCH  12  13
ATOM     13  C   UNL     1      -0.318  27.546  22.441  1.00  0.00     0.000 C 
BRANCH  13  14
ATOM     14  C   UNL     1       0.618  26.387  22.817  1.00  0.00     0.000 C 
BRANCH  14  15
ATOM     15  C   UNL     1       1.429  25.869  21.619  1.00  0.00     0.000 C 
BRANCH  15  16
ATOM     16  C   UNL     1       1.380  24.340  21.486  1.00  0.00     0.006 C 
BRANCH  16  17
ATOM     17  C   UNL     1       0.719  23.704  22.714  1.00  0.00     0.053 C 
BRANCH  17  18
ATOM     18  C   UNL     1      -0.098  22.518  22.315  1.00  0.00     0.041 C 
ATOM     19  O   UNL     1      -0.092  22.115  21.122  1.00  0.00    -0.550 OA
ATOM     20  O   UNL     1      -0.831  21.824  23.271  1.00  0.00    -0.550 OA
ENDBRANCH  17  18
ENDBRANCH  16  17
ENDBRANCH  15  16
ENDBRANCH  14  15
ENDBRANCH  13  14
ENDBRANCH  12  13
ENDBRANCH  11  12
ENDBRANCH   1  11
TORSDOF 15
ENDMDL
MODEL 8
REMARK VINA RESULT:    -3.072      3.390      7.986
REMARK INTER + INTRA:          -6.894
REMARK INTER:                  -5.435
REMARK INTRA:                  -1.459
REMARK UNBOUND:                -1.129
REMARK SMILES O=C([O-])CCCCCCCCCCCCCCC(=O)[O-]
REMARK SMILES IDX 10 1 9 2 8 3 7 4 6 5 5 6 4 7 2 8 1 9 3 10 11 11 12 12 13 13
REMARK SMILES IDX 14 14 15 15 16 16 17 17 18 18 19 19 20 20
REMARK H PARENT
REMARK Flexibility Score: inf
ROOT
ATOM      1  C   UNL     1      -0.120  23.257  23.412  1.00  0.00     0.000 C 
ENDROOT
BRANCH   1   2
ATOM      2  C   UNL     1       0.987  23.476  22.367  1.00  0.00     0.000 C 
BRANCH   2   3
ATOM      3  C   UNL     1       0.686  22.790  21.021  1.00  0.00     0.000 C 
BRANCH   3   4
ATOM      4  C   UNL     1       0.945  23.654  19.773  1.00  0.00     0.000 C 
BRANCH   4   5
ATOM      5  C   UNL     1       2.101  24.648  19.960  1.00  0.00     0.000 C 
BRANCH   5   6
ATOM      6  C   UNL     1       1.733  26.029  19.405  1.00  0.00     0.006 C 
BRANCH   6   7
ATOM      7  C   UNL     1       0.258  26.349  19.660  1.00  0.00     0.053 C 
BRANCH   7   8
ATOM      8  C   UNL     1      -0.416  26.764  18.390  1.00  0.00     0.041 C 
ATOM      9  O   UNL     1       0.015  26.354  17.281  1.00  0.00    -0.550 OA
ATOM     10  O   UNL     1      -1.493  27.639  18.430  1.00  0.00    -0.550 OA
ENDBRANCH   7   8
ENDBRANCH   6   7
ENDBRANCH   5   6
ENDBRANCH   4   5
ENDBRANCH   3   4
ENDBRANCH   2   3
ENDBRANCH   1   2
BRANCH   1  11
ATOM     11  C   UNL     1      -0.446  24.534  24.203  1.00  0.00     0.000 C 
BRANCH  11  12
ATOM     12  C   UNL     1       0.205  25.787  23.598  1.00  0.00     0.000 C 
BRANCH  12  13
ATOM     13  C   UNL     1      -0.725  27.001  23.720  1.00  0.00     0.000 C 
BRANCH  13  14
ATOM     14  C   UNL     1      -1.194  27.192  25.171  1.00  0.00     0.000 C 
BRANCH  14  15
ATOM     15  C   UNL     1      -2.704  27.456  25.275  1.00  0.00     0.000 C 
BRANCH  15  16
ATOM     16  C   UNL     1      -3.419  26.458  26.196  1.00  0.00     0.006 C 
BRANCH  16  17
ATOM     17  C   UNL     1      -3.669  25.129  25.476  1.00  0.00     0.053 C 
BRANCH  17  18
ATOM     18  C   UNL     1      -4.294  24.138  26.405  1.00  0.00     0.041 C 
ATOM     19  O   UNL     1      -5.136  23.307  25.974  1.00  0.00    -0.550 OA
ATOM     20  O   UNL     1      -3.911  24.099  27.741  1.00  0.00    -0.550 OA
ENDBRANCH  17  18
ENDBRANCH  16  17
ENDBRANCH  15  16
ENDBRANCH  14  15
ENDBRANCH  13  14
ENDBRANCH  12  13
ENDBRANCH  11  12
ENDBRANCH   1  11
TORSDOF 15
ENDMDL
MODEL 9
REMARK VINA RESULT:    -3.040      3.257      7.880
REMARK INTER + INTRA:          -6.834
REMARK INTER:                  -5.688
REMARK INTRA:                  -1.146
REMARK UNBOUND:                -1.129
REMARK SMILES O=C([O-])CCCCCCCCCCCCCCC(=O)[O-]
REMARK SMILES IDX 10 1 9 2 8 3 7 4 6 5 5 6 4 7 2 8 1 9 3 10 11 11 12 12 13 13
REMARK SMILES IDX 14 14 15 15 16 16 17 17 18 18 19 19 20 20
REMARK H PARENT
REMARK Flexibility Score: inf
ROOT
ATOM      1  C   UNL     1       0.008  23.583  23.291  1.00  0.00     0.000 C 
ENDROOT
BRANCH   1   2
ATOM      2  C   UNL     1       1.164  23.961  22.349  1.00  0.00     0.000 C 
BRANCH   2   3
ATOM      3  C   UNL     1       0.972  23.424  20.919  1.00  0.00     0.000 C 
BRANCH   3   4
ATOM      4  C   UNL     1       0.158  22.122  20.811  1.00  0.00     0.000 C 
BRANCH   4   5
ATOM      5  C   UNL     1       0.663  21.188  19.700  1.00  0.00     0.000 C 
BRANCH   5   6
ATOM      6  C   UNL     1       1.412  21.976  18.619  1.00  0.00     0.006 C 
BRANCH   6   7
ATOM      7  C   UNL     1       0.714  21.846  17.262  1.00  0.00     0.053 C 
BRANCH   7   8
ATOM      8  C   UNL     1      -0.535  22.669  17.234  1.00  0.00     0.041 C 
ATOM      9  O   UNL     1      -1.655  22.116  17.078  1.00  0.00    -0.550 OA
ATOM     10  O   UNL     1      -0.458  24.052  17.334  1.00  0.00    -0.550 OA
ENDBRANCH   7   8
ENDBRANCH   6   7
ENDBRANCH   5   6
ENDBRANCH   4   5
ENDBRANCH   3   4
ENDBRANCH   2   3
ENDBRANCH   1   2
BRANCH   1  11
ATOM     11  C   UNL     1      -0.152  24.574  24.455  1.00  0.00     0.000 C 
BRANCH  11  12
ATOM     12  C   UNL     1      -0.445  26.005  23.980  1.00  0.00     0.000 C 
BRANCH  12  13
ATOM     13  C   UNL     1      -0.131  27.024  25.081  1.00  0.00     0.000 C 
BRANCH  13  14
ATOM     14  C   UNL     1      -1.419  27.657  25.631  1.00  0.00     0.000 C 
BRANCH  14  15
ATOM     15  C   UNL     1      -2.688  27.049  25.013  1.00  0.00     0.000 C 
BRANCH  15  16
ATOM     16  C   UNL     1      -3.511  26.241  26.026  1.00  0.00     0.006 C 
BRANCH  16  17
ATOM     17  C   UNL     1      -3.610  24.771  25.605  1.00  0.00     0.053 C 
BRANCH  17  18
ATOM     18  C   UNL     1      -4.306  23.969  26.657  1.00  0.00     0.041 C 
ATOM     19  O   UNL     1      -3.915  24.016  27.853  1.00  0.00    -0.550 OA
ATOM     20  O   UNL     1      -5.421  23.207  26.326  1.00  0.00    -0.550 OA
ENDBRANCH  17  18
ENDBRANCH  16  17
ENDBRANCH  15  16
ENDBRANCH  14  15
ENDBRANCH  13  14
ENDBRANCH  12  13
ENDBRANCH  11  12
ENDBRANCH   1  11
TORSDOF 15
ENDMDL
