MODEL 1
REMARK VINA RESULT:    -4.974      0.000      0.000
REMARK INTER + INTRA:          -5.593
REMARK INTER:                  -5.556
REMARK INTRA:                  -0.037
REMARK UNBOUND:                -0.037
REMARK SMILES O=C([O-])c1ccc(O)c(O)c1
REMARK SMILES IDX 4 1 11 2 5 3 9 4 6 5 7 6 2 7 1 8 3 9 10 10 8 12
REMARK H PARENT 10 11 8 13
REMARK Flexibility Score: inf
ROOT
ATOM      1  C   UNL     1      -7.786  -5.894   7.651  1.00  0.00     0.001 A 
ATOM      2  C   UNL     1      -9.103  -5.890   8.142  1.00  0.00     0.060 A 
ATOM      3  C   UNL     1      -7.499  -5.202   6.461  1.00  0.00     0.014 A 
ATOM      4  C   UNL     1     -10.118  -5.208   7.459  1.00  0.00     0.158 A 
ATOM      5  C   UNL     1      -8.511  -4.521   5.777  1.00  0.00     0.051 A 
ATOM      6  C   UNL     1      -9.822  -4.520   6.271  1.00  0.00     0.157 A 
ENDROOT
BRANCH   1   7
ATOM      7  C   UNL     1      -6.719  -6.616   8.378  1.00  0.00     0.072 C 
ATOM      8  O   UNL     1      -5.738  -5.991   8.863  1.00  0.00    -0.545 OA
ATOM      9  O   UNL     1      -6.785  -7.996   8.538  1.00  0.00    -0.545 OA
ENDBRANCH   1   7
BRANCH   4  10
ATOM     10  O   UNL     1     -11.413  -5.227   7.977  1.00  0.00    -0.504 OA
ATOM     11  H   UNL     1     -12.036  -4.433   7.896  1.00  0.00     0.293 HD
ENDBRANCH   4  10
BRANCH   6  12
ATOM     12  O   UNL     1     -10.828  -3.840   5.586  1.00  0.00    -0.504 OA
ATOM     13  H   UNL     1     -11.356  -3.093   6.023  1.00  0.00     0.293 HD
ENDBRANCH   6  12
TORSDOF 3
ENDMDL
MODEL 2
REMARK VINA RESULT:    -4.919      0.905      2.311
REMARK INTER + INTRA:          -5.532
REMARK INTER:                  -5.495
REMARK INTRA:                  -0.037
REMARK UNBOUND:                -0.037
REMARK SMILES O=C([O-])c1ccc(O)c(O)c1
REMARK SMILES IDX 4 1 11 2 5 3 9 4 6 5 7 6 2 7 1 8 3 9 10 10 8 12
REMARK H PARENT 10 11 8 13
REMARK Flexibility Score: inf
ROOT
ATOM      1  C   UNL     1      -7.801  -5.913   7.558  1.00  0.00     0.001 A 
ATOM      2  C   UNL     1      -7.464  -5.133   6.438  1.00  0.00     0.060 A 
ATOM      3  C   UNL     1      -9.144  -5.975   7.967  1.00  0.00     0.014 A 
ATOM      4  C   UNL     1      -8.449  -4.425   5.738  1.00  0.00     0.158 A 
ATOM      5  C   UNL     1     -10.130  -5.269   7.270  1.00  0.00     0.051 A 
ATOM      6  C   UNL     1      -9.789  -4.493   6.155  1.00  0.00     0.157 A 
ENDROOT
BRANCH   1   7
ATOM      7  C   UNL     1      -6.754  -6.657   8.292  1.00  0.00     0.072 C 
ATOM      8  O   UNL     1      -6.771  -7.917   8.330  1.00  0.00    -0.545 OA
ATOM      9  O   UNL     1      -5.735  -5.977   8.950  1.00  0.00    -0.545 OA
ENDBRANCH   1   7
BRANCH   4  10
ATOM     10  O   UNL     1      -8.077  -3.661   4.631  1.00  0.00    -0.504 OA
ATOM     11  H   UNL     1      -7.251  -3.077   4.635  1.00  0.00     0.293 HD
ENDBRANCH   4  10
BRANCH   6  12
ATOM     12  O   UNL     1     -10.774  -3.791   5.462  1.00  0.00    -0.504 OA
ATOM     13  H   UNL     1     -10.927  -2.801   5.614  1.00  0.00     0.293 HD
ENDBRANCH   6  12
TORSDOF 3
ENDMDL
MODEL 3
REMARK VINA RESULT:    -4.890     16.601     18.481
REMARK INTER + INTRA:          -5.499
REMARK INTER:                  -5.461
REMARK INTRA:                  -0.038
REMARK UNBOUND:                -0.037
REMARK SMILES O=C([O-])c1ccc(O)c(O)c1
REMARK SMILES IDX 4 1 11 2 5 3 9 4 6 5 7 6 2 7 1 8 3 9 10 10 8 12
REMARK H PARENT 10 11 8 13
REMARK Flexibility Score: inf
ROOT
ATOM      1  C   UNL     1     -21.455  -2.379  18.775  1.00  0.00     0.001 A 
ATOM      2  C   UNL     1     -21.743  -1.548  19.872  1.00  0.00     0.060 A 
ATOM      3  C   UNL     1     -20.999  -3.687  19.012  1.00  0.00     0.014 A 
ATOM      4  C   UNL     1     -21.579  -2.012  21.183  1.00  0.00     0.158 A 
ATOM      5  C   UNL     1     -20.834  -4.153  20.320  1.00  0.00     0.051 A 
ATOM      6  C   UNL     1     -21.123  -3.321  21.409  1.00  0.00     0.157 A 
ENDROOT
BRANCH   1   7
ATOM      7  C   UNL     1     -21.631  -1.880  17.394  1.00  0.00     0.072 C 
ATOM      8  O   UNL     1     -20.669  -1.895  16.580  1.00  0.00    -0.545 OA
ATOM      9  O   UNL     1     -22.861  -1.387  16.973  1.00  0.00    -0.545 OA
ENDBRANCH   1   7
BRANCH   4  10
ATOM     10  O   UNL     1     -21.875  -1.159  22.246  1.00  0.00    -0.504 OA
ATOM     11  H   UNL     1     -22.758  -0.668  22.311  1.00  0.00     0.293 HD
ENDBRANCH   4  10
BRANCH   6  12
ATOM     12  O   UNL     1     -20.958  -3.790  22.712  1.00  0.00    -0.504 OA
ATOM     13  H   UNL     1     -20.220  -3.442  23.312  1.00  0.00     0.293 HD
ENDBRANCH   6  12
TORSDOF 3
ENDMDL
MODEL 4
REMARK VINA RESULT:    -4.793     17.166     18.784
REMARK INTER + INTRA:          -5.391
REMARK INTER:                  -5.349
REMARK INTRA:                  -0.042
REMARK UNBOUND:                -0.037
REMARK SMILES O=C([O-])c1ccc(O)c(O)c1
REMARK SMILES IDX 4 1 11 2 5 3 9 4 6 5 7 6 2 7 1 8 3 9 10 10 8 12
REMARK H PARENT 10 11 8 13
REMARK Flexibility Score: inf
ROOT
ATOM      1  C   UNL     1     -20.632  -3.286  20.370  1.00  0.00     0.001 A 
ATOM      2  C   UNL     1     -20.883  -1.942  20.043  1.00  0.00     0.060 A 
ATOM      3  C   UNL     1     -21.031  -3.767  21.629  1.00  0.00     0.014 A 
ATOM      4  C   UNL     1     -21.519  -1.091  20.955  1.00  0.00     0.158 A 
ATOM      5  C   UNL     1     -21.665  -2.920  22.542  1.00  0.00     0.051 A 
ATOM      6  C   UNL     1     -21.913  -1.582  22.211  1.00  0.00     0.157 A 
ENDROOT
BRANCH   1   7
ATOM      7  C   UNL     1     -19.960  -4.178  19.400  1.00  0.00     0.072 C 
ATOM      8  O   UNL     1     -20.224  -5.410  19.373  1.00  0.00    -0.545 OA
ATOM      9  O   UNL     1     -19.027  -3.669  18.503  1.00  0.00    -0.545 OA
ENDBRANCH   1   7
BRANCH   4  10
ATOM     10  O   UNL     1     -21.750   0.236  20.596  1.00  0.00    -0.504 OA
ATOM     11  H   UNL     1     -21.960   0.950  21.282  1.00  0.00     0.293 HD
ENDBRANCH   4  10
BRANCH   6  12
ATOM     12  O   UNL     1     -22.546  -0.740  23.124  1.00  0.00    -0.504 OA
ATOM     13  H   UNL     1     -22.879   0.179  22.857  1.00  0.00     0.293 HD
ENDBRANCH   6  12
TORSDOF 3
ENDMDL
MODEL 5
REMARK VINA RESULT:    -4.783     16.102     17.844
REMARK INTER + INTRA:          -5.380
REMARK INTER:                  -5.343
REMARK INTRA:                  -0.036
REMARK UNBOUND:                -0.037
REMARK SMILES O=C([O-])c1ccc(O)c(O)c1
REMARK SMILES IDX 4 1 11 2 5 3 9 4 6 5 7 6 2 7 1 8 3 9 10 10 8 12
REMARK H PARENT 10 11 8 13
REMARK Flexibility Score: inf
ROOT
ATOM      1  C   UNL     1     -21.147  -2.166  20.359  1.00  0.00     0.001 A 
ATOM      2  C   UNL     1     -19.925  -2.859  20.337  1.00  0.00     0.060 A 
ATOM      3  C   UNL     1     -21.782  -1.863  19.142  1.00  0.00     0.014 A 
ATOM      4  C   UNL     1     -19.343  -3.245  19.123  1.00  0.00     0.158 A 
ATOM      5  C   UNL     1     -21.204  -2.246  17.928  1.00  0.00     0.051 A 
ATOM      6  C   UNL     1     -19.985  -2.938  17.912  1.00  0.00     0.157 A 
ENDROOT
BRANCH   1   7
ATOM      7  C   UNL     1     -21.755  -1.762  21.647  1.00  0.00     0.072 C 
ATOM      8  O   UNL     1     -21.754  -0.554  22.005  1.00  0.00    -0.545 OA
ATOM      9  O   UNL     1     -22.335  -2.712  22.480  1.00  0.00    -0.545 OA
ENDBRANCH   1   7
BRANCH   4  10
ATOM     10  O   UNL     1     -18.130  -3.931  19.141  1.00  0.00    -0.504 OA
ATOM     11  H   UNL     1     -17.898  -4.594  19.871  1.00  0.00     0.293 HD
ENDBRANCH   4  10
BRANCH   6  12
ATOM     12  O   UNL     1     -19.412  -3.318  16.700  1.00  0.00    -0.504 OA
ATOM     13  H   UNL     1     -18.412  -3.448  16.603  1.00  0.00     0.293 HD
ENDBRANCH   6  12
TORSDOF 3
ENDMDL
MODEL 6
REMARK VINA RESULT:    -4.696      1.799      2.527
REMARK INTER + INTRA:          -5.282
REMARK INTER:                  -5.244
REMARK INTRA:                  -0.038
REMARK UNBOUND:                -0.037
REMARK SMILES O=C([O-])c1ccc(O)c(O)c1
REMARK SMILES IDX 4 1 11 2 5 3 9 4 6 5 7 6 2 7 1 8 3 9 10 10 8 12
REMARK H PARENT 10 11 8 13
REMARK Flexibility Score: inf
ROOT
ATOM      1  C   UNL     1      -9.278  -6.053   7.975  1.00  0.00     0.001 A 
ATOM      2  C   UNL     1     -10.212  -5.287   7.256  1.00  0.00     0.060 A 
ATOM      3  C   UNL     1      -7.927  -6.017   7.591  1.00  0.00     0.014 A 
ATOM      4  C   UNL     1      -9.807  -4.499   6.171  1.00  0.00     0.158 A 
ATOM      5  C   UNL     1      -7.519  -5.232   6.509  1.00  0.00     0.051 A 
ATOM      6  C   UNL     1      -8.454  -4.470   5.795  1.00  0.00     0.157 A 
ENDROOT
BRANCH   1   7
ATOM      7  C   UNL     1      -9.715  -6.883   9.119  1.00  0.00     0.072 C 
ATOM      8  O   UNL     1      -9.187  -6.738  10.254  1.00  0.00    -0.545 OA
ATOM      9  O   UNL     1     -10.715  -7.835   8.958  1.00  0.00    -0.545 OA
ENDBRANCH   1   7
BRANCH   4  10
ATOM     10  O   UNL     1     -10.762  -3.753   5.482  1.00  0.00    -0.504 OA
ATOM     11  H   UNL     1     -11.753  -3.946   5.559  1.00  0.00     0.293 HD
ENDBRANCH   4  10
BRANCH   6  12
ATOM     12  O   UNL     1      -8.044  -3.688   4.717  1.00  0.00    -0.504 OA
ATOM     13  H   UNL     1      -7.232  -3.933   4.162  1.00  0.00     0.293 HD
ENDBRANCH   6  12
TORSDOF 3
ENDMDL
MODEL 7
REMARK VINA RESULT:    -4.594     16.158     17.900
REMARK INTER + INTRA:          -5.168
REMARK INTER:                  -5.131
REMARK INTRA:                  -0.037
REMARK UNBOUND:                -0.037
REMARK SMILES O=C([O-])c1ccc(O)c(O)c1
REMARK SMILES IDX 4 1 11 2 5 3 9 4 6 5 7 6 2 7 1 8 3 9 10 10 8 12
REMARK H PARENT 10 11 8 13
REMARK Flexibility Score: inf
ROOT
ATOM      1  C   UNL     1     -21.096  -2.234  20.419  1.00  0.00     0.001 A 
ATOM      2  C   UNL     1     -21.657  -1.941  19.165  1.00  0.00     0.060 A 
ATOM      3  C   UNL     1     -19.911  -2.988  20.477  1.00  0.00     0.014 A 
ATOM      4  C   UNL     1     -21.049  -2.392  17.986  1.00  0.00     0.158 A 
ATOM      5  C   UNL     1     -19.302  -3.441  19.303  1.00  0.00     0.051 A 
ATOM      6  C   UNL     1     -19.865  -3.145  18.055  1.00  0.00     0.157 A 
ENDROOT
BRANCH   1   7
ATOM      7  C   UNL     1     -21.745  -1.753  21.659  1.00  0.00     0.072 C 
ATOM      8  O   UNL     1     -21.725  -0.529  21.959  1.00  0.00    -0.545 OA
ATOM      9  O   UNL     1     -22.387  -2.645  22.510  1.00  0.00    -0.545 OA
ENDBRANCH   1   7
BRANCH   4  10
ATOM     10  O   UNL     1     -21.635  -2.082  16.760  1.00  0.00    -0.504 OA
ATOM     11  H   UNL     1     -21.876  -1.132  16.504  1.00  0.00     0.293 HD
ENDBRANCH   4  10
BRANCH   6  12
ATOM     12  O   UNL     1     -19.254  -3.598  16.887  1.00  0.00    -0.504 OA
ATOM     13  H   UNL     1     -18.352  -3.247  16.589  1.00  0.00     0.293 HD
ENDBRANCH   6  12
TORSDOF 3
ENDMDL
MODEL 8
REMARK VINA RESULT:    -4.584     16.662     18.340
REMARK INTER + INTRA:          -5.157
REMARK INTER:                  -5.112
REMARK INTRA:                  -0.044
REMARK UNBOUND:                -0.037
REMARK SMILES O=C([O-])c1ccc(O)c(O)c1
REMARK SMILES IDX 4 1 11 2 5 3 9 4 6 5 7 6 2 7 1 8 3 9 10 10 8 12
REMARK H PARENT 10 11 8 13
REMARK Flexibility Score: inf
ROOT
ATOM      1  C   UNL     1     -20.689  -2.935  19.366  1.00  0.00     0.001 A 
ATOM      2  C   UNL     1     -20.558  -3.684  20.548  1.00  0.00     0.060 A 
ATOM      3  C   UNL     1     -21.391  -1.718  19.403  1.00  0.00     0.014 A 
ATOM      4  C   UNL     1     -21.117  -3.228  21.748  1.00  0.00     0.158 A 
ATOM      5  C   UNL     1     -21.951  -1.261  20.599  1.00  0.00     0.051 A 
ATOM      6  C   UNL     1     -21.817  -2.010  21.775  1.00  0.00     0.157 A 
ENDROOT
BRANCH   1   7
ATOM      7  C   UNL     1     -20.094  -3.424  18.102  1.00  0.00     0.072 C 
ATOM      8  O   UNL     1     -19.448  -4.506  18.074  1.00  0.00    -0.545 OA
ATOM      9  O   UNL     1     -20.240  -2.696  16.926  1.00  0.00    -0.545 OA
ENDBRANCH   1   7
BRANCH   4  10
ATOM     10  O   UNL     1     -20.967  -3.998  22.901  1.00  0.00    -0.504 OA
ATOM     11  H   UNL     1     -20.830  -5.000  22.864  1.00  0.00     0.293 HD
ENDBRANCH   4  10
BRANCH   6  12
ATOM     12  O   UNL     1     -22.377  -1.551  22.966  1.00  0.00    -0.504 OA
ATOM     13  H   UNL     1     -22.643  -2.187  23.709  1.00  0.00     0.293 HD
ENDBRANCH   6  12
TORSDOF 3
ENDMDL
MODEL 9
REMARK VINA RESULT:    -4.400     14.924     16.602
REMARK INTER + INTRA:          -4.951
REMARK INTER:                  -4.915
REMARK INTRA:                  -0.037
REMARK UNBOUND:                -0.037
REMARK SMILES O=C([O-])c1ccc(O)c(O)c1
REMARK SMILES IDX 4 1 11 2 5 3 9 4 6 5 7 6 2 7 1 8 3 9 10 10 8 12
REMARK H PARENT 10 11 8 13
REMARK Flexibility Score: inf
ROOT
ATOM      1  C   UNL     1     -19.547  -3.355  18.071  1.00  0.00     0.001 A 
ATOM      2  C   UNL     1     -20.743  -2.650  17.850  1.00  0.00     0.060 A 
ATOM      3  C   UNL     1     -19.103  -3.547  19.390  1.00  0.00     0.014 A 
ATOM      4  C   UNL     1     -21.483  -2.143  18.925  1.00  0.00     0.158 A 
ATOM      5  C   UNL     1     -19.839  -3.042  20.466  1.00  0.00     0.051 A 
ATOM      6  C   UNL     1     -21.030  -2.340  20.240  1.00  0.00     0.157 A 
ENDROOT
BRANCH   1   7
ATOM      7  C   UNL     1     -18.771  -3.887  16.929  1.00  0.00     0.072 C 
ATOM      8  O   UNL     1     -18.686  -5.129  16.736  1.00  0.00    -0.545 OA
ATOM      9  O   UNL     1     -18.125  -3.023  16.052  1.00  0.00    -0.545 OA
ENDBRANCH   1   7
BRANCH   4  10
ATOM     10  O   UNL     1     -22.665  -1.449  18.666  1.00  0.00    -0.504 OA
ATOM     11  H   UNL     1     -22.943  -1.193  17.727  1.00  0.00     0.293 HD
ENDBRANCH   4  10
BRANCH   6  12
ATOM     12  O   UNL     1     -21.762  -1.838  21.315  1.00  0.00    -0.504 OA
ATOM     13  H   UNL     1     -21.674  -2.229  22.246  1.00  0.00     0.293 HD
ENDBRANCH   6  12
TORSDOF 3
ENDMDL
