MODEL 1
REMARK VINA RESULT:    -5.798      0.000      0.000
REMARK INTER + INTRA:          -8.707
REMARK INTER:                  -7.831
REMARK INTRA:                  -0.876
REMARK UNBOUND:                -0.876
REMARK SMILES CC(=O)CCC=C(C)CCC=C(C)C
REMARK SMILES IDX 7 1 6 2 8 3 9 4 10 5 11 6 13 7 12 8 14 9 5 10 4 11 2 12 3 13
REMARK SMILES IDX 1 14
REMARK H PARENT
REMARK Flexibility Score: inf
ROOT
ATOM      1  C   UNL     1       2.630  13.641  -8.359  1.00  0.00    -0.077 C 
ATOM      2  C   UNL     1       2.231  13.742  -7.072  1.00  0.00    -0.028 C 
ATOM      3  C   UNL     1       3.160  14.838  -9.114  1.00  0.00     0.039 C 
ENDROOT
BRANCH   1   4
ATOM      4  C   UNL     1       2.547  12.301  -9.060  1.00  0.00     0.034 C 
BRANCH   4   5
ATOM      5  C   UNL     1       3.898  11.570  -9.060  1.00  0.00     0.032 C 
BRANCH   5   6
ATOM      6  C   UNL     1       4.605  11.702  -7.731  1.00  0.00    -0.028 C 
ATOM      7  C   UNL     1       6.405  13.185  -8.644  1.00  0.00     0.039 C 
ATOM      8  C   UNL     1       5.746  12.398  -7.535  1.00  0.00    -0.080 C 
ATOM      9  C   UNL     1       6.360  12.397  -6.160  1.00  0.00     0.039 C 
ENDBRANCH   5   6
ENDBRANCH   4   5
ENDBRANCH   1   4
BRANCH   2  10
ATOM     10  C   UNL     1       2.270  15.036  -6.297  1.00  0.00     0.035 C 
BRANCH  10  11
ATOM     11  C   UNL     1       3.379  15.015  -5.239  1.00  0.00     0.079 C 
BRANCH  11  12
ATOM     12  C   UNL     1       4.000  16.379  -5.091  1.00  0.00     0.130 C 
ATOM     13  O   UNL     1       4.928  16.536  -4.311  1.00  0.00    -0.300 OA
ATOM     14  C   UNL     1       3.498  17.557  -5.873  1.00  0.00     0.087 C 
ENDBRANCH  11  12
ENDBRANCH  10  11
ENDBRANCH   2  10
TORSDOF 6
ENDMDL
MODEL 2
REMARK VINA RESULT:    -5.259      1.708      4.613
REMARK INTER + INTRA:          -7.980
REMARK INTER:                  -6.999
REMARK INTRA:                  -0.981
REMARK UNBOUND:                -0.876
REMARK SMILES CC(=O)CCC=C(C)CCC=C(C)C
REMARK SMILES IDX 7 1 6 2 8 3 9 4 10 5 11 6 13 7 12 8 14 9 5 10 4 11 2 12 3 13
REMARK SMILES IDX 1 14
REMARK H PARENT
REMARK Flexibility Score: inf
ROOT
ATOM      1  C   UNL     1       2.483  13.834  -8.092  1.00  0.00    -0.077 C 
ATOM      2  C   UNL     1       2.769  12.513  -8.077  1.00  0.00    -0.028 C 
ATOM      3  C   UNL     1       3.095  14.759  -9.118  1.00  0.00     0.039 C 
ENDROOT
BRANCH   1   4
ATOM      4  C   UNL     1       1.530  14.401  -7.059  1.00  0.00     0.034 C 
BRANCH   4   5
ATOM      5  C   UNL     1       2.272  14.929  -5.824  1.00  0.00     0.032 C 
BRANCH   5   6
ATOM      6  C   UNL     1       2.518  16.418  -5.913  1.00  0.00    -0.028 C 
ATOM      7  C   UNL     1       4.879  16.250  -5.094  1.00  0.00     0.039 C 
ATOM      8  C   UNL     1       3.671  17.028  -5.561  1.00  0.00    -0.080 C 
ATOM      9  C   UNL     1       3.748  18.529  -5.662  1.00  0.00     0.039 C 
ENDBRANCH   5   6
ENDBRANCH   4   5
ENDBRANCH   1   4
BRANCH   2  10
ATOM     10  C   UNL     1       3.711  11.864  -9.060  1.00  0.00     0.035 C 
BRANCH  10  11
ATOM     11  C   UNL     1       4.989  11.379  -8.366  1.00  0.00     0.079 C 
BRANCH  11  12
ATOM     12  C   UNL     1       5.828  12.547  -7.917  1.00  0.00     0.130 C 
ATOM     13  O   UNL     1       6.388  13.241  -8.752  1.00  0.00    -0.300 OA
ATOM     14  C   UNL     1       6.001  12.872  -6.463  1.00  0.00     0.087 C 
ENDBRANCH  11  12
ENDBRANCH  10  11
ENDBRANCH   2  10
TORSDOF 6
ENDMDL
MODEL 3
REMARK VINA RESULT:    -4.985      1.900      4.961
REMARK INTER + INTRA:          -7.609
REMARK INTER:                  -7.114
REMARK INTRA:                  -0.495
REMARK UNBOUND:                -0.876
REMARK SMILES CC(=O)CCC=C(C)CCC=C(C)C
REMARK SMILES IDX 7 1 6 2 8 3 9 4 10 5 11 6 13 7 12 8 14 9 5 10 4 11 2 12 3 13
REMARK SMILES IDX 1 14
REMARK H PARENT
REMARK Flexibility Score: inf
ROOT
ATOM      1  C   UNL     1       2.757  14.407  -7.762  1.00  0.00    -0.077 C 
ATOM      2  C   UNL     1       4.097  14.500  -7.623  1.00  0.00    -0.028 C 
ATOM      3  C   UNL     1       2.114  14.289  -9.125  1.00  0.00     0.039 C 
ENDROOT
BRANCH   1   4
ATOM      4  C   UNL     1       1.877  14.421  -6.528  1.00  0.00     0.034 C 
BRANCH   4   5
ATOM      5  C   UNL     1       2.520  15.207  -5.376  1.00  0.00     0.032 C 
BRANCH   5   6
ATOM      6  C   UNL     1       2.668  16.673  -5.714  1.00  0.00    -0.028 C 
ATOM      7  C   UNL     1       4.878  16.891  -4.557  1.00  0.00     0.039 C 
ATOM      8  C   UNL     1       3.706  17.448  -5.329  1.00  0.00    -0.080 C 
ATOM      9  C   UNL     1       3.688  18.906  -5.703  1.00  0.00     0.039 C 
ENDBRANCH   5   6
ENDBRANCH   4   5
ENDBRANCH   1   4
BRANCH   2  10
ATOM     10  C   UNL     1       5.049  14.502  -8.793  1.00  0.00     0.035 C 
BRANCH  10  11
ATOM     11  C   UNL     1       6.031  13.329  -8.712  1.00  0.00     0.079 C 
BRANCH  11  12
ATOM     12  C   UNL     1       5.332  12.079  -8.245  1.00  0.00     0.130 C 
ATOM     13  O   UNL     1       5.602  11.614  -7.148  1.00  0.00    -0.300 OA
ATOM     14  C   UNL     1       4.317  11.384  -9.103  1.00  0.00     0.087 C 
ENDBRANCH  11  12
ENDBRANCH  10  11
ENDBRANCH   2  10
TORSDOF 6
ENDMDL
MODEL 4
REMARK VINA RESULT:    -4.821      1.276      2.516
REMARK INTER + INTRA:          -7.388
REMARK INTER:                  -6.941
REMARK INTRA:                  -0.447
REMARK UNBOUND:                -0.876
REMARK SMILES CC(=O)CCC=C(C)CCC=C(C)C
REMARK SMILES IDX 7 1 6 2 8 3 9 4 10 5 11 6 13 7 12 8 14 9 5 10 4 11 2 12 3 13
REMARK SMILES IDX 1 14
REMARK H PARENT
REMARK Flexibility Score: inf
ROOT
ATOM      1  C   UNL     1       4.089  14.502  -7.884  1.00  0.00    -0.077 C 
ATOM      2  C   UNL     1       4.284  14.724  -6.566  1.00  0.00    -0.028 C 
ATOM      3  C   UNL     1       2.758  14.787  -8.541  1.00  0.00     0.039 C 
ENDROOT
BRANCH   1   4
ATOM      4  C   UNL     1       5.227  13.957  -8.723  1.00  0.00     0.034 C 
BRANCH   4   5
ATOM      5  C   UNL     1       5.470  12.464  -8.458  1.00  0.00     0.032 C 
BRANCH   5   6
ATOM      6  C   UNL     1       4.376  11.605  -9.050  1.00  0.00    -0.028 C 
ATOM      7  C   UNL     1       3.194  11.304  -6.863  1.00  0.00     0.039 C 
ATOM      8  C   UNL     1       3.365  11.054  -8.343  1.00  0.00    -0.080 C 
ATOM      9  C   UNL     1       2.376  10.180  -9.068  1.00  0.00     0.039 C 
ENDBRANCH   5   6
ENDBRANCH   4   5
ENDBRANCH   1   4
BRANCH   2  10
ATOM     10  C   UNL     1       3.208  15.257  -5.652  1.00  0.00     0.035 C 
BRANCH  10  11
ATOM     11  C   UNL     1       2.903  16.728  -5.955  1.00  0.00     0.079 C 
BRANCH  11  12
ATOM     12  C   UNL     1       3.916  17.629  -5.300  1.00  0.00     0.130 C 
ATOM     13  O   UNL     1       4.718  17.156  -4.508  1.00  0.00    -0.300 OA
ATOM     14  C   UNL     1       3.958  19.100  -5.591  1.00  0.00     0.087 C 
ENDBRANCH  11  12
ENDBRANCH  10  11
ENDBRANCH   2  10
TORSDOF 6
ENDMDL
MODEL 5
REMARK VINA RESULT:    -4.680      1.507      2.782
REMARK INTER + INTRA:          -7.198
REMARK INTER:                  -6.809
REMARK INTRA:                  -0.389
REMARK UNBOUND:                -0.876
REMARK SMILES CC(=O)CCC=C(C)CCC=C(C)C
REMARK SMILES IDX 7 1 6 2 8 3 9 4 10 5 11 6 13 7 12 8 14 9 5 10 4 11 2 12 3 13
REMARK SMILES IDX 1 14
REMARK H PARENT
REMARK Flexibility Score: inf
ROOT
ATOM      1  C   UNL     1       4.104  15.606  -8.317  1.00  0.00    -0.077 C 
ATOM      2  C   UNL     1       4.122  16.179  -7.094  1.00  0.00    -0.028 C 
ATOM      3  C   UNL     1       2.828  15.056  -8.910  1.00  0.00     0.039 C 
ENDROOT
BRANCH   1   4
ATOM      4  C   UNL     1       5.391  15.512  -9.112  1.00  0.00     0.034 C 
BRANCH   4   5
ATOM      5  C   UNL     1       5.967  14.088  -9.104  1.00  0.00     0.032 C 
BRANCH   5   6
ATOM      6  C   UNL     1       4.875  13.043  -9.125  1.00  0.00    -0.028 C 
ATOM      7  C   UNL     1       5.935  11.654  -7.330  1.00  0.00     0.039 C 
ATOM      8  C   UNL     1       4.862  11.932  -8.356  1.00  0.00    -0.080 C 
ATOM      9  C   UNL     1       3.727  10.957  -8.526  1.00  0.00     0.039 C 
ENDBRANCH   5   6
ENDBRANCH   4   5
ENDBRANCH   1   4
BRANCH   2  10
ATOM     10  C   UNL     1       2.893  16.310  -6.229  1.00  0.00     0.035 C 
BRANCH  10  11
ATOM     11  C   UNL     1       3.004  15.440  -4.973  1.00  0.00     0.079 C 
BRANCH  11  12
ATOM     12  C   UNL     1       3.308  14.011  -5.339  1.00  0.00     0.130 C 
ATOM     13  O   UNL     1       4.399  13.537  -5.059  1.00  0.00    -0.300 OA
ATOM     14  C   UNL     1       2.303  13.156  -6.053  1.00  0.00     0.087 C 
ENDBRANCH  11  12
ENDBRANCH  10  11
ENDBRANCH   2  10
TORSDOF 6
ENDMDL
MODEL 6
REMARK VINA RESULT:    -4.622      1.426      4.048
REMARK INTER + INTRA:          -7.119
REMARK INTER:                  -5.883
REMARK INTRA:                  -1.237
REMARK UNBOUND:                -0.876
REMARK SMILES CC(=O)CCC=C(C)CCC=C(C)C
REMARK SMILES IDX 7 1 6 2 8 3 9 4 10 5 11 6 13 7 12 8 14 9 5 10 4 11 2 12 3 13
REMARK SMILES IDX 1 14
REMARK H PARENT
REMARK Flexibility Score: inf
ROOT
ATOM      1  C   UNL     1       3.237  12.052  -8.376  1.00  0.00    -0.077 C 
ATOM      2  C   UNL     1       4.486  12.276  -8.839  1.00  0.00    -0.028 C 
ATOM      3  C   UNL     1       2.995  11.238  -7.127  1.00  0.00     0.039 C 
ENDROOT
BRANCH   1   4
ATOM      4  C   UNL     1       2.051  12.628  -9.124  1.00  0.00     0.034 C 
BRANCH   4   5
ATOM      5  C   UNL     1       2.058  14.164  -9.111  1.00  0.00     0.032 C 
BRANCH   5   6
ATOM      6  C   UNL     1       1.971  14.711  -7.705  1.00  0.00    -0.028 C 
ATOM      7  C   UNL     1       4.142  15.950  -7.870  1.00  0.00     0.039 C 
ATOM      8  C   UNL     1       2.912  15.489  -7.125  1.00  0.00    -0.080 C 
ATOM      9  C   UNL     1       2.705  15.918  -5.696  1.00  0.00     0.039 C 
ENDBRANCH   5   6
ENDBRANCH   4   5
ENDBRANCH   1   4
BRANCH   2  10
ATOM     10  C   UNL     1       5.723  11.736  -8.166  1.00  0.00     0.035 C 
BRANCH  10  11
ATOM     11  C   UNL     1       6.480  12.844  -7.426  1.00  0.00     0.079 C 
BRANCH  11  12
ATOM     12  C   UNL     1       6.097  12.870  -5.969  1.00  0.00     0.130 C 
ATOM     13  O   UNL     1       5.183  13.592  -5.601  1.00  0.00    -0.300 OA
ATOM     14  C   UNL     1       6.824  12.037  -4.955  1.00  0.00     0.087 C 
ENDBRANCH  11  12
ENDBRANCH  10  11
ENDBRANCH   2  10
TORSDOF 6
ENDMDL
MODEL 7
REMARK VINA RESULT:    -4.584      1.183      3.060
REMARK INTER + INTRA:          -7.068
REMARK INTER:                  -6.296
REMARK INTRA:                  -0.772
REMARK UNBOUND:                -0.876
REMARK SMILES CC(=O)CCC=C(C)CCC=C(C)C
REMARK SMILES IDX 7 1 6 2 8 3 9 4 10 5 11 6 13 7 12 8 14 9 5 10 4 11 2 12 3 13
REMARK SMILES IDX 1 14
REMARK H PARENT
REMARK Flexibility Score: inf
ROOT
ATOM      1  C   UNL     1       5.739  13.124  -6.701  1.00  0.00    -0.077 C 
ATOM      2  C   UNL     1       4.791  14.087  -6.724  1.00  0.00    -0.028 C 
ATOM      3  C   UNL     1       6.252  12.556  -5.399  1.00  0.00     0.039 C 
ENDROOT
BRANCH   1   4
ATOM      4  C   UNL     1       6.300  12.603  -8.009  1.00  0.00     0.034 C 
BRANCH   4   5
ATOM      5  C   UNL     1       5.246  12.603  -9.125  1.00  0.00     0.032 C 
BRANCH   5   6
ATOM      6  C   UNL     1       4.362  11.379  -9.060  1.00  0.00    -0.028 C 
ATOM      7  C   UNL     1       2.284  12.694  -8.588  1.00  0.00     0.039 C 
ATOM      8  C   UNL     1       3.038  11.401  -8.791  1.00  0.00    -0.080 C 
ATOM      9  C   UNL     1       2.301  10.091  -8.712  1.00  0.00     0.039 C 
ENDBRANCH   5   6
ENDBRANCH   4   5
ENDBRANCH   1   4
BRANCH   2  10
ATOM     10  C   UNL     1       4.182  14.671  -5.473  1.00  0.00     0.035 C 
BRANCH  10  11
ATOM     11  C   UNL     1       3.382  15.940  -5.787  1.00  0.00     0.079 C 
BRANCH  11  12
ATOM     12  C   UNL     1       4.034  17.148  -5.167  1.00  0.00     0.130 C 
ATOM     13  O   UNL     1       4.829  16.999  -4.251  1.00  0.00    -0.300 OA
ATOM     14  C   UNL     1       3.720  18.536  -5.643  1.00  0.00     0.087 C 
ENDBRANCH  11  12
ENDBRANCH  10  11
ENDBRANCH   2  10
TORSDOF 6
ENDMDL
MODEL 8
REMARK VINA RESULT:    -4.108      2.155      4.724
REMARK INTER + INTRA:          -6.424
REMARK INTER:                  -5.983
REMARK INTRA:                  -0.441
REMARK UNBOUND:                -0.876
REMARK SMILES CC(=O)CCC=C(C)CCC=C(C)C
REMARK SMILES IDX 7 1 6 2 8 3 9 4 10 5 11 6 13 7 12 8 14 9 5 10 4 11 2 12 3 13
REMARK SMILES IDX 1 14
REMARK H PARENT
REMARK Flexibility Score: inf
ROOT
ATOM      1  C   UNL     1       4.301  15.955  -6.714  1.00  0.00    -0.077 C 
ATOM      2  C   UNL     1       4.205  15.951  -8.061  1.00  0.00    -0.028 C 
ATOM      3  C   UNL     1       5.442  15.264  -6.004  1.00  0.00     0.039 C 
ENDROOT
BRANCH   1   4
ATOM      4  C   UNL     1       3.244  16.668  -5.895  1.00  0.00     0.034 C 
BRANCH   4   5
ATOM      5  C   UNL     1       2.027  15.771  -5.625  1.00  0.00     0.032 C 
BRANCH   5   6
ATOM      6  C   UNL     1       2.381  14.305  -5.723  1.00  0.00    -0.028 C 
ATOM      7  C   UNL     1       1.432  14.056  -8.028  1.00  0.00     0.039 C 
ATOM      8  C   UNL     1       2.094  13.516  -6.782  1.00  0.00    -0.080 C 
ATOM      9  C   UNL     1       2.468  12.059  -6.712  1.00  0.00     0.039 C 
ENDBRANCH   5   6
ENDBRANCH   4   5
ENDBRANCH   1   4
BRANCH   2  10
ATOM     10  C   UNL     1       5.205  15.261  -8.956  1.00  0.00     0.035 C 
BRANCH  10  11
ATOM     11  C   UNL     1       4.867  13.776  -9.125  1.00  0.00     0.079 C 
BRANCH  11  12
ATOM     12  C   UNL     1       5.976  12.911  -8.587  1.00  0.00     0.130 C 
ATOM     13  O   UNL     1       7.111  13.053  -9.017  1.00  0.00    -0.300 OA
ATOM     14  C   UNL     1       5.717  11.869  -7.540  1.00  0.00     0.087 C 
ENDBRANCH  11  12
ENDBRANCH  10  11
ENDBRANCH   2  10
TORSDOF 6
ENDMDL
MODEL 9
REMARK VINA RESULT:    -3.827      2.076      4.598
REMARK INTER + INTRA:          -6.046
REMARK INTER:                  -5.451
REMARK INTRA:                  -0.595
REMARK UNBOUND:                -0.876
REMARK SMILES CC(=O)CCC=C(C)CCC=C(C)C
REMARK SMILES IDX 7 1 6 2 8 3 9 4 10 5 11 6 13 7 12 8 14 9 5 10 4 11 2 12 3 13
REMARK SMILES IDX 1 14
REMARK H PARENT
REMARK Flexibility Score: inf
ROOT
ATOM      1  C   UNL     1       3.618  14.646  -8.749  1.00  0.00    -0.077 C 
ATOM      2  C   UNL     1       4.461  13.620  -9.003  1.00  0.00    -0.028 C 
ATOM      3  C   UNL     1       2.137  14.417  -8.560  1.00  0.00     0.039 C 
ENDROOT
BRANCH   1   4
ATOM      4  C   UNL     1       4.168  16.054  -8.653  1.00  0.00     0.034 C 
BRANCH   4   5
ATOM      5  C   UNL     1       4.027  16.628  -7.235  1.00  0.00     0.032 C 
BRANCH   5   6
ATOM      6  C   UNL     1       4.142  15.551  -6.182  1.00  0.00    -0.028 C 
ATOM      7  C   UNL     1       1.822  15.916  -5.312  1.00  0.00     0.039 C 
ATOM      8  C   UNL     1       3.172  15.240  -5.293  1.00  0.00    -0.080 C 
ATOM      9  C   UNL     1       3.454  14.172  -4.270  1.00  0.00     0.039 C 
ENDBRANCH   5   6
ENDBRANCH   4   5
ENDBRANCH   1   4
BRANCH   2  10
ATOM     10  C   UNL     1       4.002  12.188  -9.124  1.00  0.00     0.035 C 
BRANCH  10  11
ATOM     11  C   UNL     1       4.391  11.375  -7.885  1.00  0.00     0.079 C 
BRANCH  11  12
ATOM     12  C   UNL     1       5.764  11.761  -7.402  1.00  0.00     0.130 C 
ATOM     13  O   UNL     1       6.727  11.598  -8.136  1.00  0.00    -0.300 OA
ATOM     14  C   UNL     1       5.979  12.334  -6.032  1.00  0.00     0.087 C 
ENDBRANCH  11  12
ENDBRANCH  10  11
ENDBRANCH   2  10
TORSDOF 6
ENDMDL
