MODEL 1
REMARK VINA RESULT:    -2.961      0.000      0.000
REMARK INTER + INTRA:          -4.910
REMARK INTER:                  -4.345
REMARK INTRA:                  -0.564
REMARK UNBOUND:                -0.564
REMARK SMILES O=C([O-])CCCCCCCC(=O)[O-]
REMARK SMILES IDX 7 1 6 2 5 3 4 4 2 5 1 6 3 7 8 8 9 9 10 10 11 11 12 12 13 13
REMARK H PARENT
REMARK Flexibility Score: inf
ROOT
ATOM      1  C   UNL     1      31.273  64.169  19.161  1.00  0.00     0.000 C 
ENDROOT
BRANCH   1   2
ATOM      2  C   UNL     1      31.659  64.951  17.896  1.00  0.00     0.000 C 
BRANCH   2   3
ATOM      3  C   UNL     1      32.913  64.382  17.209  1.00  0.00     0.006 C 
BRANCH   3   4
ATOM      4  C   UNL     1      32.629  63.052  16.497  1.00  0.00     0.053 C 
BRANCH   4   5
ATOM      5  C   UNL     1      32.190  63.262  15.081  1.00  0.00     0.041 C 
ATOM      6  O   UNL     1      33.037  63.262  14.148  1.00  0.00    -0.550 OA
ATOM      7  O   UNL     1      30.842  63.422  14.785  1.00  0.00    -0.550 OA
ENDBRANCH   4   5
ENDBRANCH   3   4
ENDBRANCH   2   3
ENDBRANCH   1   2
BRANCH   1   8
ATOM      8  C   UNL     1      31.830  64.806  20.444  1.00  0.00     0.000 C 
BRANCH   8   9
ATOM      9  C   UNL     1      32.901  63.909  21.081  1.00  0.00     0.006 C 
BRANCH   9  10
ATOM     10  C   UNL     1      32.975  62.528  20.415  1.00  0.00     0.053 C 
BRANCH  10  11
ATOM     11  C   UNL     1      32.637  61.429  21.375  1.00  0.00     0.041 C 
ATOM     12  O   UNL     1      31.994  60.420  20.981  1.00  0.00    -0.550 OA
ATOM     13  O   UNL     1      33.003  61.533  22.711  1.00  0.00    -0.550 OA
ENDBRANCH  10  11
ENDBRANCH   9  10
ENDBRANCH   8   9
ENDBRANCH   1   8
TORSDOF 8
ENDMDL
MODEL 2
REMARK VINA RESULT:    -2.678      3.323      4.882
REMARK INTER + INTRA:          -4.494
REMARK INTER:                  -4.048
REMARK INTRA:                  -0.446
REMARK UNBOUND:                -0.564
REMARK SMILES O=C([O-])CCCCCCCC(=O)[O-]
REMARK SMILES IDX 7 1 6 2 5 3 4 4 2 5 1 6 3 7 8 8 9 9 10 10 11 11 12 12 13 13
REMARK H PARENT
REMARK Flexibility Score: inf
ROOT
ATOM      1  C   UNL     1      30.229  63.735  14.964  1.00  0.00     0.000 C 
ENDROOT
BRANCH   1   2
ATOM      2  C   UNL     1      30.169  64.731  16.133  1.00  0.00     0.000 C 
BRANCH   2   3
ATOM      3  C   UNL     1      29.022  65.747  15.985  1.00  0.00     0.006 C 
BRANCH   3   4
ATOM      4  C   UNL     1      27.680  65.177  16.465  1.00  0.00     0.053 C 
BRANCH   4   5
ATOM      5  C   UNL     1      27.610  65.102  17.959  1.00  0.00     0.041 C 
ATOM      6  O   UNL     1      27.082  64.105  18.519  1.00  0.00    -0.550 OA
ATOM      7  O   UNL     1      28.161  66.114  18.734  1.00  0.00    -0.550 OA
ENDBRANCH   4   5
ENDBRANCH   3   4
ENDBRANCH   2   3
ENDBRANCH   1   2
BRANCH   1   8
ATOM      8  C   UNL     1      31.628  63.127  14.776  1.00  0.00     0.000 C 
BRANCH   8   9
ATOM      9  C   UNL     1      32.587  63.605  15.877  1.00  0.00     0.006 C 
BRANCH   9  10
ATOM     10  C   UNL     1      33.117  62.444  16.730  1.00  0.00     0.053 C 
BRANCH  10  11
ATOM     11  C   UNL     1      33.062  62.759  18.193  1.00  0.00     0.041 C 
ATOM     12  O   UNL     1      32.988  63.954  18.581  1.00  0.00    -0.550 OA
ATOM     13  O   UNL     1      33.125  61.734  19.129  1.00  0.00    -0.550 OA
ENDBRANCH  10  11
ENDBRANCH   9  10
ENDBRANCH   8   9
ENDBRANCH   1   8
TORSDOF 8
ENDMDL
MODEL 3
REMARK VINA RESULT:    -2.654      2.516      3.897
REMARK INTER + INTRA:          -4.459
REMARK INTER:                  -3.981
REMARK INTRA:                  -0.478
REMARK UNBOUND:                -0.564
REMARK SMILES O=C([O-])CCCCCCCC(=O)[O-]
REMARK SMILES IDX 7 1 6 2 5 3 4 4 2 5 1 6 3 7 8 8 9 9 10 10 11 11 12 12 13 13
REMARK H PARENT
REMARK Flexibility Score: inf
ROOT
ATOM      1  C   UNL     1      32.087  62.846  15.576  1.00  0.00     0.000 C 
ENDROOT
BRANCH   1   2
ATOM      2  C   UNL     1      31.280  63.650  14.544  1.00  0.00     0.000 C 
BRANCH   2   3
ATOM      3  C   UNL     1      29.818  63.864  14.973  1.00  0.00     0.006 C 
BRANCH   3   4
ATOM      4  C   UNL     1      29.674  65.011  15.983  1.00  0.00     0.053 C 
BRANCH   4   5
ATOM      5  C   UNL     1      28.338  64.991  16.660  1.00  0.00     0.041 C 
ATOM      6  O   UNL     1      27.303  64.683  16.012  1.00  0.00    -0.550 OA
ATOM      7  O   UNL     1      28.241  65.275  18.017  1.00  0.00    -0.550 OA
ENDBRANCH   4   5
ENDBRANCH   3   4
ENDBRANCH   2   3
ENDBRANCH   1   2
BRANCH   1   8
ATOM      8  C   UNL     1      33.059  63.723  16.381  1.00  0.00     0.000 C 
BRANCH   8   9
ATOM      9  C   UNL     1      33.117  63.274  17.848  1.00  0.00     0.006 C 
BRANCH   9  10
ATOM     10  C   UNL     1      31.948  63.829  18.673  1.00  0.00     0.053 C 
BRANCH  10  11
ATOM     11  C   UNL     1      31.966  63.316  20.080  1.00  0.00     0.041 C 
ATOM     12  O   UNL     1      31.963  64.122  21.047  1.00  0.00    -0.550 OA
ATOM     13  O   UNL     1      32.020  61.949  20.323  1.00  0.00    -0.550 OA
ENDBRANCH  10  11
ENDBRANCH   9  10
ENDBRANCH   8   9
ENDBRANCH   1   8
TORSDOF 8
ENDMDL
MODEL 4
REMARK VINA RESULT:    -2.647      2.911      3.542
REMARK INTER + INTRA:          -4.450
REMARK INTER:                  -4.147
REMARK INTRA:                  -0.303
REMARK UNBOUND:                -0.564
REMARK SMILES O=C([O-])CCCCCCCC(=O)[O-]
REMARK SMILES IDX 7 1 6 2 5 3 4 4 2 5 1 6 3 7 8 8 9 9 10 10 11 11 12 12 13 13
REMARK H PARENT
REMARK Flexibility Score: inf
ROOT
ATOM      1  C   UNL     1      30.565  65.120  19.000  1.00  0.00     0.000 C 
ENDROOT
BRANCH   1   2
ATOM      2  C   UNL     1      30.643  65.684  17.573  1.00  0.00     0.000 C 
BRANCH   2   3
ATOM      3  C   UNL     1      29.619  65.037  16.623  1.00  0.00     0.006 C 
BRANCH   3   4
ATOM      4  C   UNL     1      28.366  65.905  16.446  1.00  0.00     0.053 C 
BRANCH   4   5
ATOM      5  C   UNL     1      27.151  65.254  17.029  1.00  0.00     0.041 C 
ATOM      6  O   UNL     1      26.056  65.282  16.408  1.00  0.00    -0.550 OA
ATOM      7  O   UNL     1      27.235  64.582  18.243  1.00  0.00    -0.550 OA
ENDBRANCH   4   5
ENDBRANCH   3   4
ENDBRANCH   2   3
ENDBRANCH   1   2
BRANCH   1   8
ATOM      8  C   UNL     1      31.947  64.978  19.657  1.00  0.00     0.000 C 
BRANCH   8   9
ATOM      9  C   UNL     1      32.010  63.720  20.536  1.00  0.00     0.006 C 
BRANCH   9  10
ATOM     10  C   UNL     1      32.604  62.518  19.788  1.00  0.00     0.053 C 
BRANCH  10  11
ATOM     11  C   UNL     1      32.724  61.316  20.673  1.00  0.00     0.041 C 
ATOM     12  O   UNL     1      32.767  60.162  20.171  1.00  0.00    -0.550 OA
ATOM     13  O   UNL     1      32.757  61.468  22.054  1.00  0.00    -0.550 OA
ENDBRANCH  10  11
ENDBRANCH   9  10
ENDBRANCH   8   9
ENDBRANCH   1   8
TORSDOF 8
ENDMDL
MODEL 5
REMARK VINA RESULT:    -2.639      2.730      6.159
REMARK INTER + INTRA:          -4.437
REMARK INTER:                  -4.138
REMARK INTRA:                  -0.299
REMARK UNBOUND:                -0.564
REMARK SMILES O=C([O-])CCCCCCCC(=O)[O-]
REMARK SMILES IDX 7 1 6 2 5 3 4 4 2 5 1 6 3 7 8 8 9 9 10 10 11 11 12 12 13 13
REMARK H PARENT
REMARK Flexibility Score: inf
ROOT
ATOM      1  C   UNL     1      32.059  64.529  17.503  1.00  0.00     0.000 C 
ENDROOT
BRANCH   1   2
ATOM      2  C   UNL     1      32.453  63.266  18.285  1.00  0.00     0.000 C 
BRANCH   2   3
ATOM      3  C   UNL     1      31.955  63.293  19.741  1.00  0.00     0.006 C 
BRANCH   3   4
ATOM      4  C   UNL     1      33.066  62.936  20.738  1.00  0.00     0.053 C 
BRANCH   4   5
ATOM      5  C   UNL     1      32.768  61.664  21.471  1.00  0.00     0.041 C 
ATOM      6  O   UNL     1      32.288  60.676  20.856  1.00  0.00    -0.550 OA
ATOM      7  O   UNL     1      33.054  61.558  22.826  1.00  0.00    -0.550 OA
ENDBRANCH   4   5
ENDBRANCH   3   4
ENDBRANCH   2   3
ENDBRANCH   1   2
BRANCH   1   8
ATOM      8  C   UNL     1      30.668  65.056  17.891  1.00  0.00     0.000 C 
BRANCH   8   9
ATOM      9  C   UNL     1      29.738  65.098  16.670  1.00  0.00     0.006 C 
BRANCH   9  10
ATOM     10  C   UNL     1      28.532  66.022  16.890  1.00  0.00     0.053 C 
BRANCH  10  11
ATOM     11  C   UNL     1      27.297  65.252  17.241  1.00  0.00     0.041 C 
ATOM     12  O   UNL     1      27.266  64.548  18.284  1.00  0.00    -0.550 OA
ATOM     13  O   UNL     1      26.192  65.285  16.400  1.00  0.00    -0.550 OA
ENDBRANCH  10  11
ENDBRANCH   9  10
ENDBRANCH   8   9
ENDBRANCH   1   8
TORSDOF 8
ENDMDL
MODEL 6
REMARK VINA RESULT:    -2.603      0.645      5.764
REMARK INTER + INTRA:          -4.384
REMARK INTER:                  -4.001
REMARK INTRA:                  -0.384
REMARK UNBOUND:                -0.564
REMARK SMILES O=C([O-])CCCCCCCC(=O)[O-]
REMARK SMILES IDX 7 1 6 2 5 3 4 4 2 5 1 6 3 7 8 8 9 9 10 10 11 11 12 12 13 13
REMARK H PARENT
REMARK Flexibility Score: inf
ROOT
ATOM      1  C   UNL     1      30.996  64.300  18.929  1.00  0.00     0.000 C 
ENDROOT
BRANCH   1   2
ATOM      2  C   UNL     1      31.226  65.264  20.103  1.00  0.00     0.000 C 
BRANCH   2   3
ATOM      3  C   UNL     1      31.877  64.576  21.315  1.00  0.00     0.006 C 
BRANCH   3   4
ATOM      4  C   UNL     1      32.865  63.478  20.895  1.00  0.00     0.053 C 
BRANCH   4   5
ATOM      5  C   UNL     1      32.821  62.305  21.824  1.00  0.00     0.041 C 
ATOM      6  O   UNL     1      32.916  62.478  23.068  1.00  0.00    -0.550 OA
ATOM      7  O   UNL     1      32.637  61.023  21.320  1.00  0.00    -0.550 OA
ENDBRANCH   4   5
ENDBRANCH   3   4
ENDBRANCH   2   3
ENDBRANCH   1   2
BRANCH   1   8
ATOM      8  C   UNL     1      31.594  64.818  17.611  1.00  0.00     0.000 C 
BRANCH   8   9
ATOM      9  C   UNL     1      32.908  64.096  17.283  1.00  0.00     0.006 C 
BRANCH   9  10
ATOM     10  C   UNL     1      32.685  62.845  16.422  1.00  0.00     0.053 C 
BRANCH  10  11
ATOM     11  C   UNL     1      32.250  63.196  15.032  1.00  0.00     0.041 C 
ATOM     12  O   UNL     1      33.108  63.384  14.130  1.00  0.00    -0.550 OA
ATOM     13  O   UNL     1      30.900  63.348  14.741  1.00  0.00    -0.550 OA
ENDBRANCH  10  11
ENDBRANCH   9  10
ENDBRANCH   8   9
ENDBRANCH   1   8
TORSDOF 8
ENDMDL
MODEL 7
REMARK VINA RESULT:    -2.563      2.630      5.747
REMARK INTER + INTRA:          -4.326
REMARK INTER:                  -3.812
REMARK INTRA:                  -0.514
REMARK UNBOUND:                -0.564
REMARK SMILES O=C([O-])CCCCCCCC(=O)[O-]
REMARK SMILES IDX 7 1 6 2 5 3 4 4 2 5 1 6 3 7 8 8 9 9 10 10 11 11 12 12 13 13
REMARK H PARENT
REMARK Flexibility Score: inf
ROOT
ATOM      1  C   UNL     1      31.960  62.772  15.434  1.00  0.00     0.000 C 
ENDROOT
BRANCH   1   2
ATOM      2  C   UNL     1      33.068  63.539  16.173  1.00  0.00     0.000 C 
BRANCH   2   3
ATOM      3  C   UNL     1      33.076  63.254  17.685  1.00  0.00     0.006 C 
BRANCH   3   4
ATOM      4  C   UNL     1      32.333  64.336  18.481  1.00  0.00     0.053 C 
BRANCH   4   5
ATOM      5  C   UNL     1      31.849  63.822  19.801  1.00  0.00     0.041 C 
ATOM      6  O   UNL     1      32.002  62.609  20.103  1.00  0.00    -0.550 OA
ATOM      7  O   UNL     1      31.263  64.689  20.715  1.00  0.00    -0.550 OA
ENDBRANCH   4   5
ENDBRANCH   3   4
ENDBRANCH   2   3
ENDBRANCH   1   2
BRANCH   1   8
ATOM      8  C   UNL     1      31.178  63.660  14.454  1.00  0.00     0.000 C 
BRANCH   8   9
ATOM      9  C   UNL     1      29.758  63.932  14.974  1.00  0.00     0.006 C 
BRANCH   9  10
ATOM     10  C   UNL     1      29.730  65.050  16.025  1.00  0.00     0.053 C 
BRANCH  10  11
ATOM     11  C   UNL     1      28.459  65.036  16.818  1.00  0.00     0.041 C 
ATOM     12  O   UNL     1      28.495  65.139  18.072  1.00  0.00    -0.550 OA
ATOM     13  O   UNL     1      27.238  64.876  16.175  1.00  0.00    -0.550 OA
ENDBRANCH  10  11
ENDBRANCH   9  10
ENDBRANCH   8   9
ENDBRANCH   1   8
TORSDOF 8
ENDMDL
MODEL 8
REMARK VINA RESULT:    -2.380      2.143      2.524
REMARK INTER + INTRA:          -4.058
REMARK INTER:                  -3.756
REMARK INTRA:                  -0.301
REMARK UNBOUND:                -0.564
REMARK SMILES O=C([O-])CCCCCCCC(=O)[O-]
REMARK SMILES IDX 7 1 6 2 5 3 4 4 2 5 1 6 3 7 8 8 9 9 10 10 11 11 12 12 13 13
REMARK H PARENT
REMARK Flexibility Score: inf
ROOT
ATOM      1  C   UNL     1      31.323  65.529  20.312  1.00  0.00     0.000 C 
ENDROOT
BRANCH   1   2
ATOM      2  C   UNL     1      31.091  65.751  18.809  1.00  0.00     0.000 C 
BRANCH   2   3
ATOM      3  C   UNL     1      29.621  65.548  18.401  1.00  0.00     0.006 C 
BRANCH   3   4
ATOM      4  C   UNL     1      29.332  66.090  16.994  1.00  0.00     0.053 C 
BRANCH   4   5
ATOM      5  C   UNL     1      28.903  65.003  16.058  1.00  0.00     0.041 C 
ATOM      6  O   UNL     1      29.748  64.432  15.320  1.00  0.00    -0.550 OA
ATOM      7  O   UNL     1      27.575  64.594  16.027  1.00  0.00    -0.550 OA
ENDBRANCH   4   5
ENDBRANCH   3   4
ENDBRANCH   2   3
ENDBRANCH   1   2
BRANCH   1   8
ATOM      8  C   UNL     1      32.785  65.191  20.642  1.00  0.00     0.000 C 
BRANCH   8   9
ATOM      9  C   UNL     1      32.887  63.839  21.364  1.00  0.00     0.006 C 
BRANCH   9  10
ATOM     10  C   UNL     1      32.580  62.659  20.432  1.00  0.00     0.053 C 
BRANCH  10  11
ATOM     11  C   UNL     1      32.622  61.350  21.160  1.00  0.00     0.041 C 
ATOM     12  O   UNL     1      32.448  60.272  20.533  1.00  0.00    -0.550 OA
ATOM     13  O   UNL     1      32.819  61.323  22.535  1.00  0.00    -0.550 OA
ENDBRANCH  10  11
ENDBRANCH   9  10
ENDBRANCH   8   9
ENDBRANCH   1   8
TORSDOF 8
ENDMDL
