MODEL 1
REMARK VINA RESULT:    -7.104      0.000      0.000
REMARK INTER + INTRA:         -11.458
REMARK INTER:                 -10.218
REMARK INTRA:                  -1.239
REMARK UNBOUND:                -1.239
REMARK SMILES O=c1c(O[C@H]2O[C@H](CO)[C@H](O)[C@H](O)[C@H]2O)c(-c2ccc(O)cc2)oc2cc(O)cc(O)c12
REMARK SMILES IDX 4 1 3 2 16 3 24 4 2 5 25 6 1 7 32 8 26 9 30 10 27 11 29 12
REMARK SMILES IDX 17 13 18 14 19 15 20 16 23 17 22 18 21 19 31 21 28 23 5 25
REMARK SMILES IDX 14 26 6 27 12 28 7 29 10 30 15 31 13 33 8 35 9 36 11 38
REMARK H PARENT 21 20 31 22 28 24 15 32 13 34 9 37 11 39
REMARK Flexibility Score: inf
ROOT
ATOM      1  O   UNL     1     -38.225   5.777  81.414  1.00  0.00    -0.454 OA
ENDROOT
BRANCH   1   2
ATOM      2  C   UNL     1     -39.000   5.237  80.378  1.00  0.00     0.214 A 
ATOM      3  C   UNL     1     -38.525   5.167  79.055  1.00  0.00     0.180 A 
ATOM      4  O   UNL     1     -39.240   4.533  78.133  1.00  0.00    -0.452 OA
ATOM      5  C   UNL     1     -40.268   4.727  80.672  1.00  0.00     0.239 A 
ATOM      6  C   UNL     1     -40.435   4.006  78.372  1.00  0.00     0.146 A 
ATOM      7  O   UNL     1     -40.670   4.774  81.864  1.00  0.00    -0.285 OA
ATOM      8  C   UNL     1     -41.040   4.123  79.651  1.00  0.00     0.111 A 
ATOM      9  C   UNL     1     -41.087   3.334  77.336  1.00  0.00     0.094 A 
ATOM     10  C   UNL     1     -42.352   3.592  79.835  1.00  0.00     0.134 A 
ATOM     11  C   UNL     1     -42.342   2.767  77.543  1.00  0.00     0.123 A 
ATOM     12  C   UNL     1     -42.967   2.895  78.786  1.00  0.00     0.093 A 
BRANCH   3  13
ATOM     13  C   UNL     1     -37.250   5.790  78.646  1.00  0.00     0.021 A 
ATOM     14  C   UNL     1     -37.196   7.149  78.289  1.00  0.00     0.016 A 
ATOM     15  C   UNL     1     -35.986   7.726  77.893  1.00  0.00     0.047 A 
ATOM     16  C   UNL     1     -34.824   6.950  77.831  1.00  0.00     0.115 A 
ATOM     17  C   UNL     1     -36.087   5.010  78.558  1.00  0.00     0.016 A 
ATOM     18  C   UNL     1     -34.877   5.589  78.162  1.00  0.00     0.047 A 
BRANCH  16  19
ATOM     19  O   UNL     1     -33.624   7.539  77.438  1.00  0.00    -0.508 OA
ATOM     20  H   UNL     1     -32.803   7.514  78.031  1.00  0.00     0.293 HD
ENDBRANCH  16  19
ENDBRANCH   3  13
BRANCH  10  21
ATOM     21  O   UNL     1     -43.098   3.743  81.006  1.00  0.00    -0.507 OA
ATOM     22  H   UNL     1     -43.931   3.219  81.229  1.00  0.00     0.293 HD
ENDBRANCH  10  21
BRANCH  11  23
ATOM     23  O   UNL     1     -42.967   2.084  76.501  1.00  0.00    -0.508 OA
ATOM     24  H   UNL     1     -42.899   1.078  76.411  1.00  0.00     0.293 HD
ENDBRANCH  11  23
ENDBRANCH   1   2
BRANCH   1  25
ATOM     25  C   UNL     1     -37.769   4.999  82.526  1.00  0.00     0.339 C 
ATOM     26  C   UNL     1     -37.204   5.905  83.632  1.00  0.00     0.214 C 
ATOM     27  O   UNL     1     -36.822   4.034  82.102  1.00  0.00    -0.332 OA
ATOM     28  C   UNL     1     -36.033   6.751  83.094  1.00  0.00     0.180 C 
ATOM     29  C   UNL     1     -35.523   4.538  81.792  1.00  0.00     0.179 C 
ATOM     30  C   UNL     1     -35.335   6.092  81.875  1.00  0.00     0.177 C 
BRANCH  26  31
ATOM     31  O   UNL     1     -38.208   6.757  84.124  1.00  0.00    -0.384 OA
ATOM     32  H   UNL     1     -38.593   6.314  84.925  1.00  0.00     0.211 HD
ENDBRANCH  26  31
BRANCH  28  33
ATOM     33  O   UNL     1     -35.131   7.069  84.124  1.00  0.00    -0.387 OA
ATOM     34  H   UNL     1     -35.357   7.972  84.461  1.00  0.00     0.211 HD
ENDBRANCH  28  33
BRANCH  29  35
ATOM     35  C   UNL     1     -34.476   3.731  82.584  1.00  0.00     0.191 C 
BRANCH  35  36
ATOM     36  O   UNL     1     -34.385   4.164  83.913  1.00  0.00    -0.394 OA
ATOM     37  H   UNL     1     -35.272   4.539  84.156  1.00  0.00     0.210 HD
ENDBRANCH  35  36
ENDBRANCH  29  35
BRANCH  30  38
ATOM     38  O   UNL     1     -33.977   6.455  81.833  1.00  0.00    -0.387 OA
ATOM     39  H   UNL     1     -33.471   5.645  81.563  1.00  0.00     0.211 HD
ENDBRANCH  30  38
ENDBRANCH   1  25
TORSDOF 11
ENDMDL
MODEL 2
REMARK VINA RESULT:    -6.754      2.743      7.322
REMARK INTER + INTRA:         -10.955
REMARK INTER:                  -9.840
REMARK INTRA:                  -1.115
REMARK UNBOUND:                -1.239
REMARK SMILES O=c1c(O[C@H]2O[C@H](CO)[C@H](O)[C@H](O)[C@H]2O)c(-c2ccc(O)cc2)oc2cc(O)cc(O)c12
REMARK SMILES IDX 4 1 3 2 16 3 24 4 2 5 25 6 1 7 32 8 26 9 30 10 27 11 29 12
REMARK SMILES IDX 17 13 18 14 19 15 20 16 23 17 22 18 21 19 31 21 28 23 5 25
REMARK SMILES IDX 14 26 6 27 12 28 7 29 10 30 15 31 13 33 8 35 9 36 11 38
REMARK H PARENT 21 20 31 22 28 24 15 32 13 34 9 37 11 39
REMARK Flexibility Score: inf
ROOT
ATOM      1  O   UNL     1     -38.806   5.054  78.418  1.00  0.00    -0.454 OA
ENDROOT
BRANCH   1   2
ATOM      2  C   UNL     1     -37.714   5.926  78.518  1.00  0.00     0.214 A 
ATOM      3  C   UNL     1     -37.873   7.323  78.476  1.00  0.00     0.180 A 
ATOM      4  O   UNL     1     -36.828   8.111  78.702  1.00  0.00    -0.452 OA
ATOM      5  C   UNL     1     -36.433   5.394  78.694  1.00  0.00     0.239 A 
ATOM      6  C   UNL     1     -35.600   7.651  78.905  1.00  0.00     0.146 A 
ATOM      7  O   UNL     1     -36.309   4.142  78.754  1.00  0.00    -0.285 OA
ATOM      8  C   UNL     1     -35.325   6.259  78.858  1.00  0.00     0.111 A 
ATOM      9  C   UNL     1     -34.578   8.568  79.164  1.00  0.00     0.094 A 
ATOM     10  C   UNL     1     -33.976   5.824  79.021  1.00  0.00     0.134 A 
ATOM     11  C   UNL     1     -33.274   8.129  79.381  1.00  0.00     0.123 A 
ATOM     12  C   UNL     1     -32.979   6.765  79.311  1.00  0.00     0.093 A 
BRANCH   3  13
ATOM     13  C   UNL     1     -39.173   7.955  78.175  1.00  0.00     0.021 A 
ATOM     14  C   UNL     1     -39.420   8.527  76.914  1.00  0.00     0.016 A 
ATOM     15  C   UNL     1     -40.650   9.132  76.643  1.00  0.00     0.047 A 
ATOM     16  C   UNL     1     -41.638   9.190  77.632  1.00  0.00     0.115 A 
ATOM     17  C   UNL     1     -40.158   8.039  79.172  1.00  0.00     0.016 A 
ATOM     18  C   UNL     1     -41.389   8.645  78.898  1.00  0.00     0.047 A 
BRANCH  16  19
ATOM     19  O   UNL     1     -42.861   9.794  77.347  1.00  0.00    -0.508 OA
ATOM     20  H   UNL     1     -42.912  10.723  76.946  1.00  0.00     0.293 HD
ENDBRANCH  16  19
ENDBRANCH   3  13
BRANCH  10  21
ATOM     21  O   UNL     1     -33.561   4.497  78.881  1.00  0.00    -0.507 OA
ATOM     22  H   UNL     1     -33.824   3.745  79.500  1.00  0.00     0.293 HD
ENDBRANCH  10  21
BRANCH  11  23
ATOM     23  O   UNL     1     -32.274   9.059  79.657  1.00  0.00    -0.508 OA
ATOM     24  H   UNL     1     -32.249   9.567  80.533  1.00  0.00     0.293 HD
ENDBRANCH  11  23
ENDBRANCH   1   2
BRANCH   1  25
ATOM     25  C   UNL     1     -39.047   4.002  79.359  1.00  0.00     0.339 C 
ATOM     26  C   UNL     1     -39.600   2.753  78.653  1.00  0.00     0.214 C 
ATOM     27  O   UNL     1     -39.908   4.446  80.392  1.00  0.00    -0.332 OA
ATOM     28  C   UNL     1     -40.914   3.083  77.919  1.00  0.00     0.180 C 
ATOM     29  C   UNL     1     -41.284   4.579  80.035  1.00  0.00     0.179 C 
ATOM     30  C   UNL     1     -41.650   4.301  78.536  1.00  0.00     0.177 C 
BRANCH  26  31
ATOM     31  O   UNL     1     -38.661   2.258  77.732  1.00  0.00    -0.384 OA
ATOM     32  H   UNL     1     -38.550   1.291  77.925  1.00  0.00     0.211 HD
ENDBRANCH  26  31
BRANCH  28  33
ATOM     33  O   UNL     1     -41.736   1.946  77.830  1.00  0.00    -0.387 OA
ATOM     34  H   UNL     1     -42.227   1.855  78.686  1.00  0.00     0.211 HD
ENDBRANCH  28  33
BRANCH  29  35
ATOM     35  C   UNL     1     -42.138   3.794  81.050  1.00  0.00     0.191 C 
BRANCH  35  36
ATOM     36  O   UNL     1     -43.476   4.211  81.034  1.00  0.00    -0.394 OA
ATOM     37  H   UNL     1     -43.547   4.926  80.348  1.00  0.00     0.210 HD
ENDBRANCH  35  36
ENDBRANCH  29  35
BRANCH  30  38
ATOM     38  O   UNL     1     -43.039   4.179  78.353  1.00  0.00    -0.387 OA
ATOM     39  H   UNL     1     -43.200   3.279  77.968  1.00  0.00     0.211 HD
ENDBRANCH  30  38
ENDBRANCH   1  25
TORSDOF 11
ENDMDL
MODEL 3
REMARK VINA RESULT:    -6.530      1.897      6.430
REMARK INTER + INTRA:         -10.632
REMARK INTER:                  -9.220
REMARK INTRA:                  -1.411
REMARK UNBOUND:                -1.239
REMARK SMILES O=c1c(O[C@H]2O[C@H](CO)[C@H](O)[C@H](O)[C@H]2O)c(-c2ccc(O)cc2)oc2cc(O)cc(O)c12
REMARK SMILES IDX 4 1 3 2 16 3 24 4 2 5 25 6 1 7 32 8 26 9 30 10 27 11 29 12
REMARK SMILES IDX 17 13 18 14 19 15 20 16 23 17 22 18 21 19 31 21 28 23 5 25
REMARK SMILES IDX 14 26 6 27 12 28 7 29 10 30 15 31 13 33 8 35 9 36 11 38
REMARK H PARENT 21 20 31 22 28 24 15 32 13 34 9 37 11 39
REMARK Flexibility Score: inf
ROOT
ATOM      1  O   UNL     1     -36.868   4.439  81.075  1.00  0.00    -0.454 OA
ENDROOT
BRANCH   1   2
ATOM      2  C   UNL     1     -36.591   5.366  80.061  1.00  0.00     0.214 A 
ATOM      3  C   UNL     1     -37.527   5.667  79.055  1.00  0.00     0.180 A 
ATOM      4  O   UNL     1     -37.272   6.643  78.191  1.00  0.00    -0.452 OA
ATOM      5  C   UNL     1     -35.361   6.033  80.066  1.00  0.00     0.239 A 
ATOM      6  C   UNL     1     -36.133   7.324  78.176  1.00  0.00     0.146 A 
ATOM      7  O   UNL     1     -34.543   5.771  80.986  1.00  0.00    -0.285 OA
ATOM      8  C   UNL     1     -35.087   7.016  79.086  1.00  0.00     0.111 A 
ATOM      9  C   UNL     1     -35.981   8.352  77.242  1.00  0.00     0.094 A 
ATOM     10  C   UNL     1     -33.861   7.738  78.985  1.00  0.00     0.134 A 
ATOM     11  C   UNL     1     -34.802   9.092  77.191  1.00  0.00     0.123 A 
ATOM     12  C   UNL     1     -33.751   8.785  78.059  1.00  0.00     0.093 A 
BRANCH   3  13
ATOM     13  C   UNL     1     -38.794   4.922  78.914  1.00  0.00     0.021 A 
ATOM     14  C   UNL     1     -38.801   3.602  78.430  1.00  0.00     0.016 A 
ATOM     15  C   UNL     1     -40.008   2.909  78.291  1.00  0.00     0.047 A 
ATOM     16  C   UNL     1     -41.218   3.532  78.616  1.00  0.00     0.115 A 
ATOM     17  C   UNL     1     -40.012   5.551  79.215  1.00  0.00     0.016 A 
ATOM     18  C   UNL     1     -41.218   4.856  79.075  1.00  0.00     0.047 A 
BRANCH  16  19
ATOM     19  O   UNL     1     -42.412   2.829  78.476  1.00  0.00    -0.508 OA
ATOM     20  H   UNL     1     -42.818   2.651  77.565  1.00  0.00     0.293 HD
ENDBRANCH  16  19
ENDBRANCH   3  13
BRANCH  10  21
ATOM     21  O   UNL     1     -32.722   7.452  79.742  1.00  0.00    -0.507 OA
ATOM     22  H   UNL     1     -31.790   7.359  79.366  1.00  0.00     0.293 HD
ENDBRANCH  10  21
BRANCH  11  23
ATOM     23  O   UNL     1     -34.680  10.125  76.265  1.00  0.00    -0.508 OA
ATOM     24  H   UNL     1     -34.042  10.898  76.414  1.00  0.00     0.293 HD
ENDBRANCH  11  23
ENDBRANCH   1   2
BRANCH   1  25
ATOM     25  C   UNL     1     -37.117   4.825  82.431  1.00  0.00     0.339 C 
ATOM     26  C   UNL     1     -36.938   3.630  83.382  1.00  0.00     0.214 C 
ATOM     27  O   UNL     1     -38.403   5.407  82.553  1.00  0.00    -0.332 OA
ATOM     28  C   UNL     1     -37.897   2.486  82.999  1.00  0.00     0.180 C 
ATOM     29  C   UNL     1     -39.500   4.495  82.504  1.00  0.00     0.179 C 
ATOM     30  C   UNL     1     -39.151   2.991  82.238  1.00  0.00     0.177 C 
BRANCH  26  31
ATOM     31  O   UNL     1     -35.614   3.165  83.335  1.00  0.00    -0.384 OA
ATOM     32  H   UNL     1     -35.075   3.773  83.906  1.00  0.00     0.211 HD
ENDBRANCH  26  31
BRANCH  28  33
ATOM     33  O   UNL     1     -38.226   1.712  84.125  1.00  0.00    -0.387 OA
ATOM     34  H   UNL     1     -37.409   1.236  84.419  1.00  0.00     0.211 HD
ENDBRANCH  28  33
BRANCH  29  35
ATOM     35  C   UNL     1     -40.394   4.728  83.739  1.00  0.00     0.191 C 
BRANCH  35  36
ATOM     36  O   UNL     1     -41.699   4.263  83.529  1.00  0.00    -0.394 OA
ATOM     37  H   UNL     1     -42.045   3.968  84.412  1.00  0.00     0.210 HD
ENDBRANCH  35  36
ENDBRANCH  29  35
BRANCH  30  38
ATOM     38  O   UNL     1     -40.249   2.149  82.489  1.00  0.00    -0.387 OA
ATOM     39  H   UNL     1     -40.085   1.716  83.367  1.00  0.00     0.211 HD
ENDBRANCH  30  38
ENDBRANCH   1  25
TORSDOF 11
ENDMDL
MODEL 4
REMARK VINA RESULT:    -6.501      2.796      7.206
REMARK INTER + INTRA:         -10.591
REMARK INTER:                  -9.653
REMARK INTRA:                  -0.938
REMARK UNBOUND:                -1.239
REMARK SMILES O=c1c(O[C@H]2O[C@H](CO)[C@H](O)[C@H](O)[C@H]2O)c(-c2ccc(O)cc2)oc2cc(O)cc(O)c12
REMARK SMILES IDX 4 1 3 2 16 3 24 4 2 5 25 6 1 7 32 8 26 9 30 10 27 11 29 12
REMARK SMILES IDX 17 13 18 14 19 15 20 16 23 17 22 18 21 19 31 21 28 23 5 25
REMARK SMILES IDX 14 26 6 27 12 28 7 29 10 30 15 31 13 33 8 35 9 36 11 38
REMARK H PARENT 21 20 31 22 28 24 15 32 13 34 9 37 11 39
REMARK Flexibility Score: inf
ROOT
ATOM      1  O   UNL     1     -38.172   5.719  77.830  1.00  0.00    -0.454 OA
ENDROOT
BRANCH   1   2
ATOM      2  C   UNL     1     -37.157   6.654  78.071  1.00  0.00     0.214 A 
ATOM      3  C   UNL     1     -37.387   8.039  77.986  1.00  0.00     0.180 A 
ATOM      4  O   UNL     1     -36.432   8.888  78.347  1.00  0.00    -0.452 OA
ATOM      5  C   UNL     1     -35.887   6.199  78.438  1.00  0.00     0.239 A 
ATOM      6  C   UNL     1     -35.222   8.502  78.731  1.00  0.00     0.146 A 
ATOM      7  O   UNL     1     -35.701   4.957  78.534  1.00  0.00    -0.285 OA
ATOM      8  C   UNL     1     -34.865   7.128  78.745  1.00  0.00     0.111 A 
ATOM      9  C   UNL     1     -34.302   9.479  79.120  1.00  0.00     0.094 A 
ATOM     10  C   UNL     1     -33.530   6.774  79.107  1.00  0.00     0.134 A 
ATOM     11  C   UNL     1     -33.020   9.119  79.529  1.00  0.00     0.123 A 
ATOM     12  C   UNL     1     -32.641   7.774  79.523  1.00  0.00     0.093 A 
BRANCH   3  13
ATOM     13  C   UNL     1     -38.664   8.593  77.492  1.00  0.00     0.021 A 
ATOM     14  C   UNL     1     -39.678   8.971  78.390  1.00  0.00     0.016 A 
ATOM     15  C   UNL     1     -40.888   9.484  77.911  1.00  0.00     0.047 A 
ATOM     16  C   UNL     1     -41.104   9.607  76.535  1.00  0.00     0.115 A 
ATOM     17  C   UNL     1     -38.896   8.694  76.112  1.00  0.00     0.016 A 
ATOM     18  C   UNL     1     -40.106   9.208  75.635  1.00  0.00     0.047 A 
BRANCH  16  19
ATOM     19  O   UNL     1     -42.312  10.124  76.072  1.00  0.00    -0.508 OA
ATOM     20  H   UNL     1     -42.376  10.603  75.182  1.00  0.00     0.293 HD
ENDBRANCH  16  19
ENDBRANCH   3  13
BRANCH  10  21
ATOM     21  O   UNL     1     -33.025   5.473  79.049  1.00  0.00    -0.507 OA
ATOM     22  H   UNL     1     -33.561   4.660  78.782  1.00  0.00     0.293 HD
ENDBRANCH  10  21
BRANCH  11  23
ATOM     23  O   UNL     1     -32.124  10.107  79.930  1.00  0.00    -0.508 OA
ATOM     24  H   UNL     1     -31.466  10.521  79.281  1.00  0.00     0.293 HD
ENDBRANCH  11  23
ENDBRANCH   1   2
BRANCH   1  25
ATOM     25  C   UNL     1     -39.334   5.604  78.659  1.00  0.00     0.339 C 
ATOM     26  C   UNL     1     -39.024   4.786  79.924  1.00  0.00     0.214 C 
ATOM     27  O   UNL     1     -40.414   5.052  77.927  1.00  0.00    -0.332 OA
ATOM     28  C   UNL     1     -38.531   3.375  79.548  1.00  0.00     0.180 C 
ATOM     29  C   UNL     1     -40.334   3.650  77.670  1.00  0.00     0.179 C 
ATOM     30  C   UNL     1     -39.032   2.923  78.151  1.00  0.00     0.177 C 
BRANCH  26  31
ATOM     31  O   UNL     1     -38.045   5.434  80.695  1.00  0.00    -0.384 OA
ATOM     32  H   UNL     1     -37.163   5.123  80.361  1.00  0.00     0.211 HD
ENDBRANCH  26  31
BRANCH  28  33
ATOM     33  O   UNL     1     -38.846   2.450  80.559  1.00  0.00    -0.387 OA
ATOM     34  H   UNL     1     -38.787   1.541  80.170  1.00  0.00     0.211 HD
ENDBRANCH  28  33
BRANCH  29  35
ATOM     35  C   UNL     1     -41.642   2.984  78.142  1.00  0.00     0.191 C 
BRANCH  35  36
ATOM     36  O   UNL     1     -41.755   2.996  79.539  1.00  0.00    -0.394 OA
ATOM     37  H   UNL     1     -42.388   2.271  79.783  1.00  0.00     0.210 HD
ENDBRANCH  35  36
ENDBRANCH  29  35
BRANCH  30  38
ATOM     38  O   UNL     1     -39.171   1.523  78.111  1.00  0.00    -0.387 OA
ATOM     39  H   UNL     1     -38.966   1.241  77.182  1.00  0.00     0.211 HD
ENDBRANCH  30  38
ENDBRANCH   1  25
TORSDOF 11
ENDMDL
MODEL 5
REMARK VINA RESULT:    -6.378      2.176      6.972
REMARK INTER + INTRA:         -10.414
REMARK INTER:                  -9.406
REMARK INTRA:                  -1.008
REMARK UNBOUND:                -1.239
REMARK SMILES O=c1c(O[C@H]2O[C@H](CO)[C@H](O)[C@H](O)[C@H]2O)c(-c2ccc(O)cc2)oc2cc(O)cc(O)c12
REMARK SMILES IDX 4 1 3 2 16 3 24 4 2 5 25 6 1 7 32 8 26 9 30 10 27 11 29 12
REMARK SMILES IDX 17 13 18 14 19 15 20 16 23 17 22 18 21 19 31 21 28 23 5 25
REMARK SMILES IDX 14 26 6 27 12 28 7 29 10 30 15 31 13 33 8 35 9 36 11 38
REMARK H PARENT 21 20 31 22 28 24 15 32 13 34 9 37 11 39
REMARK Flexibility Score: inf
ROOT
ATOM      1  O   UNL     1     -37.722   4.572  79.041  1.00  0.00    -0.454 OA
ENDROOT
BRANCH   1   2
ATOM      2  C   UNL     1     -36.940   5.526  79.706  1.00  0.00     0.214 A 
ATOM      3  C   UNL     1     -37.122   6.906  79.502  1.00  0.00     0.180 A 
ATOM      4  O   UNL     1     -36.448   7.775  80.247  1.00  0.00    -0.452 OA
ATOM      5  C   UNL     1     -35.973   5.097  80.619  1.00  0.00     0.239 A 
ATOM      6  C   UNL     1     -35.542   7.414  81.147  1.00  0.00     0.146 A 
ATOM      7  O   UNL     1     -35.838   3.860  80.810  1.00  0.00    -0.285 OA
ATOM      8  C   UNL     1     -35.215   6.047  81.345  1.00  0.00     0.111 A 
ATOM      9  C   UNL     1     -34.913   8.410  81.898  1.00  0.00     0.094 A 
ATOM     10  C   UNL     1     -34.190   5.720  82.282  1.00  0.00     0.134 A 
ATOM     11  C   UNL     1     -33.956   8.076  82.854  1.00  0.00     0.123 A 
ATOM     12  C   UNL     1     -33.601   6.738  83.043  1.00  0.00     0.093 A 
BRANCH   3  13
ATOM     13  C   UNL     1     -38.038   7.433  78.471  1.00  0.00     0.021 A 
ATOM     14  C   UNL     1     -37.723   7.321  77.105  1.00  0.00     0.016 A 
ATOM     15  C   UNL     1     -38.592   7.832  76.136  1.00  0.00     0.047 A 
ATOM     16  C   UNL     1     -39.773   8.475  76.521  1.00  0.00     0.115 A 
ATOM     17  C   UNL     1     -39.211   8.101  78.852  1.00  0.00     0.016 A 
ATOM     18  C   UNL     1     -40.080   8.612  77.882  1.00  0.00     0.047 A 
BRANCH  16  19
ATOM     19  O   UNL     1     -40.632   8.976  75.546  1.00  0.00    -0.508 OA
ATOM     20  H   UNL     1     -41.054   9.893  75.633  1.00  0.00     0.293 HD
ENDBRANCH  16  19
ENDBRANCH   3  13
BRANCH  10  21
ATOM     21  O   UNL     1     -33.699   4.427  82.482  1.00  0.00    -0.507 OA
ATOM     22  H   UNL     1     -33.732   3.687  81.796  1.00  0.00     0.293 HD
ENDBRANCH  10  21
BRANCH  11  23
ATOM     23  O   UNL     1     -33.355   9.084  83.604  1.00  0.00    -0.508 OA
ATOM     24  H   UNL     1     -32.752   8.871  84.390  1.00  0.00     0.293 HD
ENDBRANCH  11  23
ENDBRANCH   1   2
BRANCH   1  25
ATOM     25  C   UNL     1     -38.352   3.479  79.718  1.00  0.00     0.339 C 
ATOM     26  C   UNL     1     -39.151   2.611  78.732  1.00  0.00     0.214 C 
ATOM     27  O   UNL     1     -39.164   3.953  80.777  1.00  0.00    -0.332 OA
ATOM     28  C   UNL     1     -40.228   3.453  78.020  1.00  0.00     0.180 C 
ATOM     29  C   UNL     1     -40.398   4.556  80.388  1.00  0.00     0.179 C 
ATOM     30  C   UNL     1     -40.656   4.693  78.849  1.00  0.00     0.177 C 
BRANCH  26  31
ATOM     31  O   UNL     1     -38.292   2.047  77.774  1.00  0.00    -0.384 OA
ATOM     32  H   UNL     1     -37.457   1.795  78.249  1.00  0.00     0.211 HD
ENDBRANCH  26  31
BRANCH  28  33
ATOM     33  O   UNL     1     -41.321   2.652  77.645  1.00  0.00    -0.387 OA
ATOM     34  H   UNL     1     -41.002   1.990  76.981  1.00  0.00     0.211 HD
ENDBRANCH  28  33
BRANCH  29  35
ATOM     35  C   UNL     1     -41.546   3.881  81.165  1.00  0.00     0.191 C 
BRANCH  35  36
ATOM     36  O   UNL     1     -42.193   2.907  80.391  1.00  0.00    -0.394 OA
ATOM     37  H   UNL     1     -43.118   2.826  80.743  1.00  0.00     0.210 HD
ENDBRANCH  35  36
ENDBRANCH  29  35
BRANCH  30  38
ATOM     38  O   UNL     1     -41.994   5.029  78.572  1.00  0.00    -0.387 OA
ATOM     39  H   UNL     1     -42.358   5.457  79.390  1.00  0.00     0.211 HD
ENDBRANCH  30  38
ENDBRANCH   1  25
TORSDOF 11
ENDMDL
MODEL 6
REMARK VINA RESULT:    -6.301      2.148      6.108
REMARK INTER + INTRA:         -10.303
REMARK INTER:                  -9.016
REMARK INTRA:                  -1.288
REMARK UNBOUND:                -1.239
REMARK SMILES O=c1c(O[C@H]2O[C@H](CO)[C@H](O)[C@H](O)[C@H]2O)c(-c2ccc(O)cc2)oc2cc(O)cc(O)c12
REMARK SMILES IDX 4 1 3 2 16 3 24 4 2 5 25 6 1 7 32 8 26 9 30 10 27 11 29 12
REMARK SMILES IDX 17 13 18 14 19 15 20 16 23 17 22 18 21 19 31 21 28 23 5 25
REMARK SMILES IDX 14 26 6 27 12 28 7 29 10 30 15 31 13 33 8 35 9 36 11 38
REMARK H PARENT 21 20 31 22 28 24 15 32 13 34 9 37 11 39
REMARK Flexibility Score: inf
ROOT
ATOM      1  O   UNL     1     -38.234   4.798  80.421  1.00  0.00    -0.454 OA
ENDROOT
BRANCH   1   2
ATOM      2  C   UNL     1     -38.316   5.614  79.285  1.00  0.00     0.214 A 
ATOM      3  C   UNL     1     -39.401   5.538  78.393  1.00  0.00     0.180 A 
ATOM      4  O   UNL     1     -39.501   6.417  77.402  1.00  0.00    -0.452 OA
ATOM      5  C   UNL     1     -37.307   6.552  79.047  1.00  0.00     0.239 A 
ATOM      6  C   UNL     1     -38.584   7.343  77.155  1.00  0.00     0.146 A 
ATOM      7  O   UNL     1     -36.354   6.626  79.866  1.00  0.00    -0.285 OA
ATOM      8  C   UNL     1     -37.402   7.427  77.938  1.00  0.00     0.111 A 
ATOM      9  C   UNL     1     -38.804   8.238  76.105  1.00  0.00     0.094 A 
ATOM     10  C   UNL     1     -36.421   8.402  77.589  1.00  0.00     0.134 A 
ATOM     11  C   UNL     1     -37.867   9.225  75.810  1.00  0.00     0.123 A 
ATOM     12  C   UNL     1     -36.685   9.305  76.551  1.00  0.00     0.093 A 
BRANCH   3  13
ATOM     13  C   UNL     1     -40.442   4.497  78.512  1.00  0.00     0.021 A 
ATOM     14  C   UNL     1     -40.354   3.305  77.771  1.00  0.00     0.016 A 
ATOM     15  C   UNL     1     -41.350   2.330  77.883  1.00  0.00     0.047 A 
ATOM     16  C   UNL     1     -42.451   2.543  78.719  1.00  0.00     0.115 A 
ATOM     17  C   UNL     1     -41.562   4.717  79.329  1.00  0.00     0.016 A 
ATOM     18  C   UNL     1     -42.557   3.740  79.440  1.00  0.00     0.047 A 
BRANCH  16  19
ATOM     19  O   UNL     1     -43.435   1.562  78.824  1.00  0.00    -0.508 OA
ATOM     20  H   UNL     1     -44.127   1.427  78.096  1.00  0.00     0.293 HD
ENDBRANCH  16  19
ENDBRANCH   3  13
BRANCH  10  21
ATOM     21  O   UNL     1     -35.172   8.508  78.207  1.00  0.00    -0.507 OA
ATOM     22  H   UNL     1     -34.289   8.331  77.751  1.00  0.00     0.293 HD
ENDBRANCH  10  21
BRANCH  11  23
ATOM     23  O   UNL     1     -38.116  10.119  74.771  1.00  0.00    -0.508 OA
ATOM     24  H   UNL     1     -38.874   9.972  74.115  1.00  0.00     0.293 HD
ENDBRANCH  11  23
ENDBRANCH   1   2
BRANCH   1  25
ATOM     25  C   UNL     1     -38.663   5.229  81.718  1.00  0.00     0.339 C 
ATOM     26  C   UNL     1     -37.703   4.725  82.807  1.00  0.00     0.214 C 
ATOM     27  O   UNL     1     -39.997   4.817  81.961  1.00  0.00    -0.332 OA
ATOM     28  C   UNL     1     -37.622   3.186  82.788  1.00  0.00     0.180 C 
ATOM     29  C   UNL     1     -40.172   3.431  82.252  1.00  0.00     0.179 C 
ATOM     30  C   UNL     1     -38.891   2.532  82.181  1.00  0.00     0.177 C 
BRANCH  26  31
ATOM     31  O   UNL     1     -36.420   5.263  82.612  1.00  0.00    -0.384 OA
ATOM     32  H   UNL     1     -35.772   4.529  82.775  1.00  0.00     0.211 HD
ENDBRANCH  26  31
BRANCH  28  33
ATOM     33  O   UNL     1     -37.317   2.686  84.066  1.00  0.00    -0.387 OA
ATOM     34  H   UNL     1     -38.072   2.904  84.668  1.00  0.00     0.211 HD
ENDBRANCH  28  33
BRANCH  29  35
ATOM     35  C   UNL     1     -40.967   3.297  83.566  1.00  0.00     0.191 C 
BRANCH  35  36
ATOM     36  O   UNL     1     -42.104   2.494  83.404  1.00  0.00    -0.394 OA
ATOM     37  H   UNL     1     -42.349   2.532  82.442  1.00  0.00     0.210 HD
ENDBRANCH  35  36
ENDBRANCH  29  35
BRANCH  30  38
ATOM     38  O   UNL     1     -39.110   1.265  82.752  1.00  0.00    -0.387 OA
ATOM     39  H   UNL     1     -38.374   1.110  83.400  1.00  0.00     0.211 HD
ENDBRANCH  30  38
ENDBRANCH   1  25
TORSDOF 11
ENDMDL
MODEL 7
REMARK VINA RESULT:    -6.054      1.449      2.292
REMARK INTER + INTRA:          -9.947
REMARK INTER:                  -9.417
REMARK INTRA:                  -0.531
REMARK UNBOUND:                -1.239
REMARK SMILES O=c1c(O[C@H]2O[C@H](CO)[C@H](O)[C@H](O)[C@H]2O)c(-c2ccc(O)cc2)oc2cc(O)cc(O)c12
REMARK SMILES IDX 4 1 3 2 16 3 24 4 2 5 25 6 1 7 32 8 26 9 30 10 27 11 29 12
REMARK SMILES IDX 17 13 18 14 19 15 20 16 23 17 22 18 21 19 31 21 28 23 5 25
REMARK SMILES IDX 14 26 6 27 12 28 7 29 10 30 15 31 13 33 8 35 9 36 11 38
REMARK H PARENT 21 20 31 22 28 24 15 32 13 34 9 37 11 39
REMARK Flexibility Score: inf
ROOT
ATOM      1  O   UNL     1     -37.952   5.468  81.546  1.00  0.00    -0.454 OA
ENDROOT
BRANCH   1   2
ATOM      2  C   UNL     1     -38.740   5.010  80.482  1.00  0.00     0.214 A 
ATOM      3  C   UNL     1     -38.224   4.878  79.180  1.00  0.00     0.180 A 
ATOM      4  O   UNL     1     -38.968   4.321  78.231  1.00  0.00    -0.452 OA
ATOM      5  C   UNL     1     -40.068   4.647  80.725  1.00  0.00     0.239 A 
ATOM      6  C   UNL     1     -40.222   3.933  78.423  1.00  0.00     0.146 A 
ATOM      7  O   UNL     1     -40.509   4.748  81.900  1.00  0.00    -0.285 OA
ATOM      8  C   UNL     1     -40.862   4.126  79.676  1.00  0.00     0.111 A 
ATOM      9  C   UNL     1     -40.904   3.330  77.363  1.00  0.00     0.094 A 
ATOM     10  C   UNL     1     -42.231   3.747  79.808  1.00  0.00     0.134 A 
ATOM     11  C   UNL     1     -42.222   2.908  77.521  1.00  0.00     0.123 A 
ATOM     12  C   UNL     1     -42.878   3.115  78.737  1.00  0.00     0.093 A 
BRANCH   3  13
ATOM     13  C   UNL     1     -36.872   5.351  78.820  1.00  0.00     0.021 A 
ATOM     14  C   UNL     1     -35.728   4.677  79.285  1.00  0.00     0.016 A 
ATOM     15  C   UNL     1     -34.452   5.139  78.947  1.00  0.00     0.047 A 
ATOM     16  C   UNL     1     -34.305   6.286  78.160  1.00  0.00     0.115 A 
ATOM     17  C   UNL     1     -36.719   6.515  78.052  1.00  0.00     0.016 A 
ATOM     18  C   UNL     1     -35.441   6.976  77.716  1.00  0.00     0.047 A 
BRANCH  16  19
ATOM     19  O   UNL     1     -33.028   6.734  77.828  1.00  0.00    -0.508 OA
ATOM     20  H   UNL     1     -32.275   6.085  77.630  1.00  0.00     0.293 HD
ENDBRANCH  16  19
ENDBRANCH   3  13
BRANCH  10  21
ATOM     21  O   UNL     1     -43.001   3.989  80.948  1.00  0.00    -0.507 OA
ATOM     22  H   UNL     1     -42.653   3.957  81.894  1.00  0.00     0.293 HD
ENDBRANCH  10  21
BRANCH  11  23
ATOM     23  O   UNL     1     -42.878   2.292  76.457  1.00  0.00    -0.508 OA
ATOM     24  H   UNL     1     -43.199   1.334  76.515  1.00  0.00     0.293 HD
ENDBRANCH  11  23
ENDBRANCH   1   2
BRANCH   1  25
ATOM     25  C   UNL     1     -38.314   6.596  82.350  1.00  0.00     0.339 C 
ATOM     26  C   UNL     1     -38.330   7.884  81.510  1.00  0.00     0.214 C 
ATOM     27  O   UNL     1     -37.449   6.708  83.466  1.00  0.00    -0.332 OA
ATOM     28  C   UNL     1     -36.946   8.136  80.880  1.00  0.00     0.180 C 
ATOM     29  C   UNL     1     -36.138   7.199  83.186  1.00  0.00     0.179 C 
ATOM     30  C   UNL     1     -35.797   7.468  81.681  1.00  0.00     0.177 C 
BRANCH  26  31
ATOM     31  O   UNL     1     -39.296   7.790  80.494  1.00  0.00    -0.384 OA
ATOM     32  H   UNL     1     -39.618   8.712  80.318  1.00  0.00     0.211 HD
ENDBRANCH  26  31
BRANCH  28  33
ATOM     33  O   UNL     1     -36.733   9.511  80.676  1.00  0.00    -0.387 OA
ATOM     34  H   UNL     1     -36.365   9.891  81.514  1.00  0.00     0.211 HD
ENDBRANCH  28  33
BRANCH  29  35
ATOM     35  C   UNL     1     -35.843   8.386  84.124  1.00  0.00     0.191 C 
BRANCH  35  36
ATOM     36  O   UNL     1     -36.392   9.580  83.637  1.00  0.00    -0.394 OA
ATOM     37  H   UNL     1     -36.259  10.267  84.342  1.00  0.00     0.210 HD
ENDBRANCH  35  36
ENDBRANCH  29  35
BRANCH  30  38
ATOM     38  O   UNL     1     -34.608   8.207  81.540  1.00  0.00    -0.387 OA
ATOM     39  H   UNL     1     -34.771   8.882  80.831  1.00  0.00     0.211 HD
ENDBRANCH  30  38
ENDBRANCH   1  25
TORSDOF 11
ENDMDL
MODEL 8
REMARK VINA RESULT:    -6.051      2.634      4.858
REMARK INTER + INTRA:          -9.944
REMARK INTER:                  -8.736
REMARK INTRA:                  -1.208
REMARK UNBOUND:                -1.239
REMARK SMILES O=c1c(O[C@H]2O[C@H](CO)[C@H](O)[C@H](O)[C@H]2O)c(-c2ccc(O)cc2)oc2cc(O)cc(O)c12
REMARK SMILES IDX 4 1 3 2 16 3 24 4 2 5 25 6 1 7 32 8 26 9 30 10 27 11 29 12
REMARK SMILES IDX 17 13 18 14 19 15 20 16 23 17 22 18 21 19 31 21 28 23 5 25
REMARK SMILES IDX 14 26 6 27 12 28 7 29 10 30 15 31 13 33 8 35 9 36 11 38
REMARK H PARENT 21 20 31 22 28 24 15 32 13 34 9 37 11 39
REMARK Flexibility Score: inf
ROOT
ATOM      1  O   UNL     1     -36.810   6.830  79.353  1.00  0.00    -0.454 OA
ENDROOT
BRANCH   1   2
ATOM      2  C   UNL     1     -37.896   6.176  79.950  1.00  0.00     0.214 A 
ATOM      3  C   UNL     1     -39.200   6.278  79.431  1.00  0.00     0.180 A 
ATOM      4  O   UNL     1     -40.174   5.541  79.951  1.00  0.00    -0.452 OA
ATOM      5  C   UNL     1     -37.674   5.376  81.074  1.00  0.00     0.239 A 
ATOM      6  C   UNL     1     -40.004   4.744  80.999  1.00  0.00     0.146 A 
ATOM      7  O   UNL     1     -36.499   5.274  81.513  1.00  0.00    -0.285 OA
ATOM      8  C   UNL     1     -38.748   4.659  81.654  1.00  0.00     0.111 A 
ATOM      9  C   UNL     1     -41.091   3.989  81.446  1.00  0.00     0.094 A 
ATOM     10  C   UNL     1     -38.638   3.834  82.813  1.00  0.00     0.134 A 
ATOM     11  C   UNL     1     -40.958   3.140  82.542  1.00  0.00     0.123 A 
ATOM     12  C   UNL     1     -39.737   3.064  83.218  1.00  0.00     0.093 A 
BRANCH   3  13
ATOM     13  C   UNL     1     -39.533   7.195  78.322  1.00  0.00     0.021 A 
ATOM     14  C   UNL     1     -39.090   6.930  77.013  1.00  0.00     0.016 A 
ATOM     15  C   UNL     1     -39.402   7.809  75.972  1.00  0.00     0.047 A 
ATOM     16  C   UNL     1     -40.141   8.969  76.229  1.00  0.00     0.115 A 
ATOM     17  C   UNL     1     -40.251   8.372  78.578  1.00  0.00     0.016 A 
ATOM     18  C   UNL     1     -40.563   9.251  77.535  1.00  0.00     0.047 A 
BRANCH  16  19
ATOM     19  O   UNL     1     -40.448   9.835  75.182  1.00  0.00    -0.508 OA
ATOM     20  H   UNL     1     -41.390   9.909  74.815  1.00  0.00     0.293 HD
ENDBRANCH  16  19
ENDBRANCH   3  13
BRANCH  10  21
ATOM     21  O   UNL     1     -37.493   3.756  83.610  1.00  0.00    -0.507 OA
ATOM     22  H   UNL     1     -36.796   4.481  83.686  1.00  0.00     0.293 HD
ENDBRANCH  10  21
BRANCH  11  23
ATOM     23  O   UNL     1     -42.049   2.382  82.960  1.00  0.00    -0.508 OA
ATOM     24  H   UNL     1     -41.929   1.484  83.413  1.00  0.00     0.293 HD
ENDBRANCH  11  23
ENDBRANCH   1   2
BRANCH   1  25
ATOM     25  C   UNL     1     -36.311   8.088  79.820  1.00  0.00     0.339 C 
ATOM     26  C   UNL     1     -35.840   8.961  78.645  1.00  0.00     0.214 C 
ATOM     27  O   UNL     1     -35.282   7.891  80.773  1.00  0.00    -0.332 OA
ATOM     28  C   UNL     1     -34.733   8.244  77.848  1.00  0.00     0.180 C 
ATOM     29  C   UNL     1     -34.023   7.473  80.246  1.00  0.00     0.179 C 
ATOM     30  C   UNL     1     -33.963   7.204  78.704  1.00  0.00     0.177 C 
BRANCH  26  31
ATOM     31  O   UNL     1     -36.918   9.250  77.791  1.00  0.00    -0.384 OA
ATOM     32  H   UNL     1     -37.376  10.047  78.165  1.00  0.00     0.211 HD
ENDBRANCH  26  31
BRANCH  28  33
ATOM     33  O   UNL     1     -33.878   9.174  77.232  1.00  0.00    -0.387 OA
ATOM     34  H   UNL     1     -34.138  10.079  77.539  1.00  0.00     0.211 HD
ENDBRANCH  28  33
BRANCH  29  35
ATOM     35  C   UNL     1     -32.927   8.425  80.765  1.00  0.00     0.191 C 
BRANCH  35  36
ATOM     36  O   UNL     1     -32.703   9.488  79.880  1.00  0.00    -0.394 OA
ATOM     37  H   UNL     1     -32.081  10.115  80.334  1.00  0.00     0.210 HD
ENDBRANCH  35  36
ENDBRANCH  29  35
BRANCH  30  38
ATOM     38  O   UNL     1     -32.638   7.078  78.247  1.00  0.00    -0.387 OA
ATOM     39  H   UNL     1     -32.632   6.340  77.583  1.00  0.00     0.211 HD
ENDBRANCH  30  38
ENDBRANCH   1  25
TORSDOF 11
ENDMDL
MODEL 9
REMARK VINA RESULT:    -5.821      2.631      5.015
REMARK INTER + INTRA:          -9.613
REMARK INTER:                  -8.050
REMARK INTRA:                  -1.563
REMARK UNBOUND:                -1.239
REMARK SMILES O=c1c(O[C@H]2O[C@H](CO)[C@H](O)[C@H](O)[C@H]2O)c(-c2ccc(O)cc2)oc2cc(O)cc(O)c12
REMARK SMILES IDX 4 1 3 2 16 3 24 4 2 5 25 6 1 7 32 8 26 9 30 10 27 11 29 12
REMARK SMILES IDX 17 13 18 14 19 15 20 16 23 17 22 18 21 19 31 21 28 23 5 25
REMARK SMILES IDX 14 26 6 27 12 28 7 29 10 30 15 31 13 33 8 35 9 36 11 38
REMARK H PARENT 21 20 31 22 28 24 15 32 13 34 9 37 11 39
REMARK Flexibility Score: inf
ROOT
ATOM      1  O   UNL     1     -36.274   6.547  79.998  1.00  0.00    -0.454 OA
ENDROOT
BRANCH   1   2
ATOM      2  C   UNL     1     -37.389   5.859  80.494  1.00  0.00     0.214 A 
ATOM      3  C   UNL     1     -38.679   6.062  79.971  1.00  0.00     0.180 A 
ATOM      4  O   UNL     1     -39.684   5.297  80.383  1.00  0.00    -0.452 OA
ATOM      5  C   UNL     1     -37.211   4.923  81.517  1.00  0.00     0.239 A 
ATOM      6  C   UNL     1     -39.556   4.375  81.330  1.00  0.00     0.146 A 
ATOM      7  O   UNL     1     -36.048   4.734  81.959  1.00  0.00    -0.285 OA
ATOM      8  C   UNL     1     -38.315   4.174  81.990  1.00  0.00     0.111 A 
ATOM      9  C   UNL     1     -40.672   3.605  81.666  1.00  0.00     0.094 A 
ATOM     10  C   UNL     1     -38.251   3.213  83.043  1.00  0.00     0.134 A 
ATOM     11  C   UNL     1     -40.583   2.627  82.654  1.00  0.00     0.123 A 
ATOM     12  C   UNL     1     -39.378   2.434  83.334  1.00  0.00     0.093 A 
BRANCH   3  13
ATOM     13  C   UNL     1     -38.965   7.114  78.975  1.00  0.00     0.021 A 
ATOM     14  C   UNL     1     -39.109   6.795  77.613  1.00  0.00     0.016 A 
ATOM     15  C   UNL     1     -39.369   7.800  76.677  1.00  0.00     0.047 A 
ATOM     16  C   UNL     1     -39.470   9.134  77.087  1.00  0.00     0.115 A 
ATOM     17  C   UNL     1     -39.042   8.456  79.378  1.00  0.00     0.016 A 
ATOM     18  C   UNL     1     -39.303   9.461  78.440  1.00  0.00     0.047 A 
BRANCH  16  19
ATOM     19  O   UNL     1     -39.733  10.125  76.145  1.00  0.00    -0.508 OA
ATOM     20  H   UNL     1     -39.151  10.951  76.069  1.00  0.00     0.293 HD
ENDBRANCH  16  19
ENDBRANCH   3  13
BRANCH  10  21
ATOM     21  O   UNL     1     -37.124   3.006  83.842  1.00  0.00    -0.507 OA
ATOM     22  H   UNL     1     -36.725   2.103  84.049  1.00  0.00     0.293 HD
ENDBRANCH  10  21
BRANCH  11  23
ATOM     23  O   UNL     1     -41.703   1.857  82.960  1.00  0.00    -0.508 OA
ATOM     24  H   UNL     1     -42.461   2.224  83.525  1.00  0.00     0.293 HD
ENDBRANCH  11  23
ENDBRANCH   1   2
BRANCH   1  25
ATOM     25  C   UNL     1     -35.637   6.202  78.762  1.00  0.00     0.339 C 
ATOM     26  C   UNL     1     -34.134   5.956  78.971  1.00  0.00     0.214 C 
ATOM     27  O   UNL     1     -35.875   7.200  77.786  1.00  0.00    -0.332 OA
ATOM     28  C   UNL     1     -33.456   7.211  79.555  1.00  0.00     0.180 C 
ATOM     29  C   UNL     1     -35.136   8.411  77.946  1.00  0.00     0.179 C 
ATOM     30  C   UNL     1     -34.227   8.514  79.219  1.00  0.00     0.177 C 
BRANCH  26  31
ATOM     31  O   UNL     1     -33.934   4.870  79.840  1.00  0.00    -0.384 OA
ATOM     32  H   UNL     1     -33.781   4.071  79.271  1.00  0.00     0.211 HD
ENDBRANCH  26  31
BRANCH  28  33
ATOM     33  O   UNL     1     -32.104   7.272  79.174  1.00  0.00    -0.387 OA
ATOM     34  H   UNL     1     -31.644   6.479  79.550  1.00  0.00     0.211 HD
ENDBRANCH  28  33
BRANCH  29  35
ATOM     35  C   UNL     1     -34.411   8.728  76.623  1.00  0.00     0.191 C 
BRANCH  35  36
ATOM     36  O   UNL     1     -34.121  10.094  76.506  1.00  0.00    -0.394 OA
ATOM     37  H   UNL     1     -34.989  10.565  76.402  1.00  0.00     0.210 HD
ENDBRANCH  35  36
ENDBRANCH  29  35
BRANCH  30  38
ATOM     38  O   UNL     1     -33.340   9.602  79.138  1.00  0.00    -0.387 OA
ATOM     39  H   UNL     1     -32.460   9.281  79.468  1.00  0.00     0.211 HD
ENDBRANCH  30  38
ENDBRANCH   1  25
TORSDOF 11
ENDMDL
