MODEL 1
REMARK VINA RESULT:    -4.352      0.000      0.000
REMARK INTER + INTRA:          -4.071
REMARK INTER:                  -5.370
REMARK INTRA:                   1.299
REMARK UNBOUND:                 1.299
REMARK SMILES C=C1CC[C@@H]2[C@H]([C@@H]3[C@H](C)CC[C@@H]13)C2(C)C
REMARK SMILES IDX 3 1 2 2 1 3 12 4 9 5 8 6 10 7 7 8 11 9 4 11 5 12 6 13 13 14
REMARK SMILES IDX 14 16 15 17
REMARK H PARENT
REMARK Flexibility Score: 80.00
ROOT
ATOM      1  C   UNL     1       9.723   8.962  28.822  1.00  0.00     0.031 C 
ENDROOT
BRANCH   1   2
ATOM      2  C   UNL     1       9.597   7.786  29.780  1.00  0.00    -0.074 C 
ATOM      3  C   UNL     1       9.599   8.038  31.106  1.00  0.00     0.008 C 
BRANCH   2   4
ATOM      4  C   UNL     1       9.306   6.393  29.209  1.00  0.00     0.018 C 
ATOM      5  C   UNL     1      10.145   3.592  27.029  1.00  0.00     0.008 C 
ATOM      6  C   UNL     1      10.397   4.353  28.341  1.00  0.00    -0.010 C 
ATOM      7  C   UNL     1       9.353   3.994  29.403  1.00  0.00     0.004 C 
ATOM      8  C   UNL     1      10.406   5.906  28.250  1.00  0.00     0.003 CG0
ATOM      9  C   UNL     1       9.173   5.256  30.223  1.00  0.00     0.008 C 
ATOM     10  G   UNL     1      10.165   6.470  26.824  1.00  0.00     0.000 G0
ENDBRANCH   2   4
ENDBRANCH   1   2
BRANCH   1  11
ATOM     11  C   UNL     1      10.895   8.808  27.844  1.00  0.00     0.009 C 
BRANCH  11  12
ATOM     12  C   UNL     1      10.476   7.990  26.606  1.00  0.00    -0.001 C 
ATOM     13  C   UNL     1      10.188   6.493  26.812  1.00  0.00     0.002 CG0
ATOM     14  C   UNL     1      11.395   6.934  25.964  1.00  0.00    -0.029 C 
ATOM     15  G   UNL     1      10.401   5.919  28.238  1.00  0.00     0.000 G0
ATOM     16  C   UNL     1      11.194   6.724  24.458  1.00  0.00     0.011 C 
ATOM     17  C   UNL     1      12.821   6.659  26.480  1.00  0.00     0.011 C 
ENDBRANCH  11  12
ENDBRANCH   1  11
TORSDOF 0
ENDMDL
MODEL 2
REMARK VINA RESULT:    -4.159      3.318      5.635
REMARK INTER + INTRA:          -3.833
REMARK INTER:                  -5.130
REMARK INTRA:                   1.297
REMARK UNBOUND:                 1.299
REMARK SMILES C=C1CC[C@@H]2[C@H]([C@@H]3[C@H](C)CC[C@@H]13)C2(C)C
REMARK SMILES IDX 3 1 2 2 1 3 12 4 9 5 8 6 10 7 7 8 11 9 4 11 5 12 6 13 13 14
REMARK SMILES IDX 14 16 15 17
REMARK H PARENT
REMARK Flexibility Score: 80.00
ROOT
ATOM      1  C   UNL     1      12.761   8.142  22.121  1.00  0.00     0.031 C 
ENDROOT
BRANCH   1   2
ATOM      2  C   UNL     1      11.750   7.888  23.230  1.00  0.00    -0.074 C 
ATOM      3  C   UNL     1      10.467   8.253  23.021  1.00  0.00     0.008 C 
BRANCH   2   4
ATOM      4  C   UNL     1      12.186   7.084  24.461  1.00  0.00     0.018 C 
ATOM      5  C   UNL     1      14.370   6.572  27.336  1.00  0.00     0.008 C 
ATOM      6  C   UNL     1      13.175   7.312  26.713  1.00  0.00    -0.010 C 
ATOM      7  C   UNL     1      11.902   6.463  26.769  1.00  0.00     0.004 C 
ATOM      8  C   UNL     1      13.334   7.759  25.232  1.00  0.00     0.003 CG0
ATOM      9  C   UNL     1      11.118   6.843  25.529  1.00  0.00     0.008 C 
ATOM     10  G   UNL     1      14.699   7.395  24.590  1.00  0.00     0.000 G0
ENDBRANCH   2   4
ENDBRANCH   1   2
BRANCH   1  11
ATOM     11  C   UNL     1      13.968   8.963  22.595  1.00  0.00     0.009 C 
BRANCH  11  12
ATOM     12  C   UNL     1      15.042   8.052  23.222  1.00  0.00    -0.001 C 
ATOM     13  C   UNL     1      14.715   7.403  24.579  1.00  0.00     0.002 CG0
ATOM     14  C   UNL     1      15.835   8.454  24.480  1.00  0.00    -0.029 C 
ATOM     15  G   UNL     1      13.354   7.768  25.229  1.00  0.00     0.000 G0
ATOM     16  C   UNL     1      17.245   7.859  24.580  1.00  0.00     0.011 C 
ATOM     17  C   UNL     1      15.650   9.821  25.168  1.00  0.00     0.011 C 
ENDBRANCH  11  12
ENDBRANCH   1  11
TORSDOF 0
ENDMDL
MODEL 3
REMARK VINA RESULT:    -4.136      3.188      5.582
REMARK INTER + INTRA:          -3.804
REMARK INTER:                  -5.187
REMARK INTRA:                   1.383
REMARK UNBOUND:                 1.299
REMARK SMILES C=C1CC[C@@H]2[C@H]([C@@H]3[C@H](C)CC[C@@H]13)C2(C)C
REMARK SMILES IDX 3 1 2 2 1 3 12 4 9 5 8 6 10 7 7 8 11 9 4 11 5 12 6 13 13 14
REMARK SMILES IDX 14 16 15 17
REMARK H PARENT
REMARK Flexibility Score: 80.00
ROOT
ATOM      1  C   UNL     1      14.688   9.012  22.826  1.00  0.00     0.031 C 
ENDROOT
BRANCH   1   2
ATOM      2  C   UNL     1      15.040   8.115  24.004  1.00  0.00    -0.074 C 
ATOM      3  C   UNL     1      16.295   7.627  24.083  1.00  0.00     0.008 C 
BRANCH   2   4
ATOM      4  C   UNL     1      14.017   7.940  25.133  1.00  0.00     0.018 C 
ATOM      5  C   UNL     1      10.708   6.979  26.329  1.00  0.00     0.008 C 
ATOM      6  C   UNL     1      12.109   6.550  25.864  1.00  0.00    -0.010 C 
ATOM      7  C   UNL     1      13.137   6.687  26.990  1.00  0.00     0.004 C 
ATOM      8  C   UNL     1      12.698   7.316  24.645  1.00  0.00     0.003 CG0
ATOM      9  C   UNL     1      14.438   7.044  26.299  1.00  0.00     0.008 C 
ATOM     10  G   UNL     1      11.769   8.411  24.059  1.00  0.00     0.000 G0
ENDBRANCH   2   4
ENDBRANCH   1   2
BRANCH   1  11
ATOM     11  C   UNL     1      13.457   8.520  22.052  1.00  0.00     0.009 C 
BRANCH  11  12
ATOM     12  C   UNL     1      12.156   9.024  22.710  1.00  0.00    -0.001 C 
ATOM     13  C   UNL     1      11.772   8.420  24.072  1.00  0.00     0.002 CG0
ATOM     14  C   UNL     1      10.899   8.143  22.834  1.00  0.00    -0.029 C 
ATOM     15  G   UNL     1      12.696   7.311  24.642  1.00  0.00     0.000 G0
ATOM     16  C   UNL     1       9.567   8.904  22.841  1.00  0.00     0.011 C 
ATOM     17  C   UNL     1      10.834   6.713  22.262  1.00  0.00     0.011 C 
ENDBRANCH  11  12
ENDBRANCH   1  11
TORSDOF 0
ENDMDL
MODEL 4
REMARK VINA RESULT:    -4.057     10.100     12.230
REMARK INTER + INTRA:          -3.707
REMARK INTER:                  -5.010
REMARK INTRA:                   1.303
REMARK UNBOUND:                 1.299
REMARK SMILES C=C1CC[C@@H]2[C@H]([C@@H]3[C@H](C)CC[C@@H]13)C2(C)C
REMARK SMILES IDX 3 1 2 2 1 3 12 4 9 5 8 6 10 7 7 8 11 9 4 11 5 12 6 13 13 14
REMARK SMILES IDX 14 16 15 17
REMARK H PARENT
REMARK Flexibility Score: 80.00
ROOT
ATOM      1  C   UNL     1       2.355   9.909  19.713  1.00  0.00     0.031 C 
ENDROOT
BRANCH   1   2
ATOM      2  C   UNL     1       1.898   9.212  18.440  1.00  0.00    -0.074 C 
ATOM      3  C   UNL     1       0.598   8.865  18.332  1.00  0.00     0.008 C 
BRANCH   2   4
ATOM      4  C   UNL     1       2.883   9.084  17.271  1.00  0.00     0.018 C 
ATOM      5  C   UNL     1       6.053   7.947  15.871  1.00  0.00     0.008 C 
ATOM      6  C   UNL     1       4.619   7.611  16.311  1.00  0.00    -0.010 C 
ATOM      7  C   UNL     1       3.599   8.008  15.240  1.00  0.00     0.004 C 
ATOM      8  C   UNL     1       4.131   8.262  17.637  1.00  0.00     0.003 CG0
ATOM      9  C   UNL     1       2.353   8.404  16.007  1.00  0.00     0.008 C 
ATOM     10  G   UNL     1       5.181   9.162  18.339  1.00  0.00     0.000 G0
ENDBRANCH   2   4
ENDBRANCH   1   2
BRANCH   1  11
ATOM     11  C   UNL     1       3.520   9.184  20.402  1.00  0.00     0.009 C 
BRANCH  11  12
ATOM     12  C   UNL     1       4.871   9.617  19.798  1.00  0.00    -0.001 C 
ATOM     13  C   UNL     1       5.178   9.173  18.357  1.00  0.00     0.002 CG0
ATOM     14  C   UNL     1       6.012   8.619  19.527  1.00  0.00    -0.029 C 
ATOM     15  G   UNL     1       4.126   8.275  17.653  1.00  0.00     0.000 G0
ATOM     16  C   UNL     1       7.427   9.209  19.603  1.00  0.00     0.011 C 
ATOM     17  C   UNL     1       5.905   7.125  19.889  1.00  0.00     0.011 C 
ENDBRANCH  11  12
ENDBRANCH   1  11
TORSDOF 0
ENDMDL
MODEL 5
REMARK VINA RESULT:    -4.039      3.186      6.371
REMARK INTER + INTRA:          -3.684
REMARK INTER:                  -4.987
REMARK INTRA:                   1.302
REMARK UNBOUND:                 1.299
REMARK SMILES C=C1CC[C@@H]2[C@H]([C@@H]3[C@H](C)CC[C@@H]13)C2(C)C
REMARK SMILES IDX 3 1 2 2 1 3 12 4 9 5 8 6 10 7 7 8 11 9 4 11 5 12 6 13 13 14
REMARK SMILES IDX 14 16 15 17
REMARK H PARENT
REMARK Flexibility Score: 80.00
ROOT
ATOM      1  C   UNL     1      16.198   8.141  25.574  1.00  0.00     0.031 C 
ENDROOT
BRANCH   1   2
ATOM      2  C   UNL     1      15.728   8.891  24.336  1.00  0.00    -0.074 C 
ATOM      3  C   UNL     1      16.385  10.016  23.982  1.00  0.00     0.008 C 
BRANCH   2   4
ATOM      4  C   UNL     1      14.649   8.256  23.450  1.00  0.00     0.018 C 
ATOM      5  C   UNL     1      11.306   6.878  22.976  1.00  0.00     0.008 C 
ATOM      6  C   UNL     1      12.204   8.117  23.120  1.00  0.00    -0.010 C 
ATOM      7  C   UNL     1      12.907   8.453  21.801  1.00  0.00     0.004 C 
ATOM      8  C   UNL     1      13.322   8.040  24.198  1.00  0.00     0.003 CG0
ATOM      9  C   UNL     1      14.243   9.044  22.203  1.00  0.00     0.008 C 
ATOM     10  G   UNL     1      13.363   6.708  24.992  1.00  0.00     0.000 G0
ENDBRANCH   2   4
ENDBRANCH   1   2
BRANCH   1  11
ATOM     11  C   UNL     1      15.077   7.931  26.602  1.00  0.00     0.009 C 
BRANCH  11  12
ATOM     12  C   UNL     1      14.258   6.667  26.272  1.00  0.00    -0.001 C 
ATOM     13  C   UNL     1      13.375   6.705  25.012  1.00  0.00     0.002 CG0
ATOM     14  C   UNL     1      12.724   6.620  26.404  1.00  0.00    -0.029 C 
ATOM     15  G   UNL     1      13.340   8.033  24.211  1.00  0.00     0.000 G0
ATOM     16  C   UNL     1      12.139   5.238  26.724  1.00  0.00     0.011 C 
ATOM     17  C   UNL     1      11.904   7.815  26.928  1.00  0.00     0.011 C 
ENDBRANCH  11  12
ENDBRANCH   1  11
TORSDOF 0
ENDMDL
MODEL 6
REMARK VINA RESULT:    -3.989     10.151     12.183
REMARK INTER + INTRA:          -3.623
REMARK INTER:                  -4.935
REMARK INTRA:                   1.312
REMARK UNBOUND:                 1.299
REMARK SMILES C=C1CC[C@@H]2[C@H]([C@@H]3[C@H](C)CC[C@@H]13)C2(C)C
REMARK SMILES IDX 3 1 2 2 1 3 12 4 9 5 8 6 10 7 7 8 11 9 4 11 5 12 6 13 13 14
REMARK SMILES IDX 14 16 15 17
REMARK H PARENT
REMARK Flexibility Score: 80.00
ROOT
ATOM      1  C   UNL     1       1.858   8.478  16.706  1.00  0.00     0.031 C 
ENDROOT
BRANCH   1   2
ATOM      2  C   UNL     1       2.126   8.999  18.111  1.00  0.00    -0.074 C 
ATOM      3  C   UNL     1       1.291   9.929  18.618  1.00  0.00     0.008 C 
BRANCH   2   4
ATOM      4  C   UNL     1       3.221   8.330  18.952  1.00  0.00     0.018 C 
ATOM      5  C   UNL     1       6.684   7.306  19.460  1.00  0.00     0.008 C 
ATOM      6  C   UNL     1       5.632   8.427  19.480  1.00  0.00    -0.010 C 
ATOM      7  C   UNL     1       4.801   8.389  20.766  1.00  0.00     0.004 C 
ATOM      8  C   UNL     1       4.613   8.441  18.306  1.00  0.00     0.003 CG0
ATOM      9  C   UNL     1       3.426   8.882  20.364  1.00  0.00     0.008 C 
ATOM     10  G   UNL     1       4.813   7.310  17.263  1.00  0.00     0.000 G0
ENDBRANCH   2   4
ENDBRANCH   1   2
BRANCH   1  11
ATOM     11  C   UNL     1       3.071   8.625  15.777  1.00  0.00     0.009 C 
BRANCH  11  12
ATOM     12  C   UNL     1       4.026   7.424  15.925  1.00  0.00    -0.001 C 
ATOM     13  C   UNL     1       4.808   7.301  17.245  1.00  0.00     0.002 CG0
ATOM     14  C   UNL     1       5.558   7.583  15.930  1.00  0.00    -0.029 C 
ATOM     15  G   UNL     1       4.614   8.429  18.292  1.00  0.00     0.000 G0
ATOM     16  C   UNL     1       6.341   6.375  15.400  1.00  0.00     0.011 C 
ATOM     17  C   UNL     1       6.246   8.948  15.731  1.00  0.00     0.011 C 
ENDBRANCH  11  12
ENDBRANCH   1  11
TORSDOF 0
ENDMDL
MODEL 7
REMARK VINA RESULT:    -3.919     10.857     12.841
REMARK INTER + INTRA:          -3.537
REMARK INTER:                  -4.865
REMARK INTRA:                   1.329
REMARK UNBOUND:                 1.299
REMARK SMILES C=C1CC[C@@H]2[C@H]([C@@H]3[C@H](C)CC[C@@H]13)C2(C)C
REMARK SMILES IDX 3 1 2 2 1 3 12 4 9 5 8 6 10 7 7 8 11 9 4 11 5 12 6 13 13 14
REMARK SMILES IDX 14 16 15 17
REMARK H PARENT
REMARK Flexibility Score: 80.00
ROOT
ATOM      1  C   UNL     1       5.400   8.733  19.501  1.00  0.00     0.031 C 
ENDROOT
BRANCH   1   2
ATOM      2  C   UNL     1       3.948   9.120  19.748  1.00  0.00    -0.074 C 
ATOM      3  C   UNL     1       3.514   9.192  21.023  1.00  0.00     0.008 C 
BRANCH   2   4
ATOM      4  C   UNL     1       3.090   9.574  18.561  1.00  0.00     0.018 C 
ATOM      5  C   UNL     1       1.624   9.000  15.271  1.00  0.00     0.008 C 
ATOM      6  C   UNL     1       1.586   8.742  16.786  1.00  0.00    -0.010 C 
ATOM      7  C   UNL     1       0.939   9.911  17.535  1.00  0.00     0.004 C 
ATOM      8  C   UNL     1       2.954   8.488  17.480  1.00  0.00     0.003 CG0
ATOM      9  C   UNL     1       1.644   9.961  18.876  1.00  0.00     0.008 C 
ATOM     10  G   UNL     1       4.178   8.523  16.526  1.00  0.00     0.000 G0
ENDBRANCH   2   4
ENDBRANCH   1   2
BRANCH   1  11
ATOM     11  C   UNL     1       5.541   7.528  18.560  1.00  0.00     0.009 C 
BRANCH  11  12
ATOM     12  C   UNL     1       5.519   7.976  17.085  1.00  0.00    -0.001 C 
ATOM     13  C   UNL     1       4.185   8.500  16.525  1.00  0.00     0.002 CG0
ATOM     14  C   UNL     1       4.778   7.182  15.992  1.00  0.00    -0.029 C 
ATOM     15  G   UNL     1       2.959   8.479  17.475  1.00  0.00     0.000 G0
ATOM     16  C   UNL     1       5.372   7.303  14.583  1.00  0.00     0.011 C 
ATOM     17  C   UNL     1       4.052   5.855  16.286  1.00  0.00     0.011 C 
ENDBRANCH  11  12
ENDBRANCH   1  11
TORSDOF 0
ENDMDL
MODEL 8
REMARK VINA RESULT:    -3.824      9.819     12.223
REMARK INTER + INTRA:          -3.419
REMARK INTER:                  -4.769
REMARK INTRA:                   1.350
REMARK UNBOUND:                 1.299
REMARK SMILES C=C1CC[C@@H]2[C@H]([C@@H]3[C@H](C)CC[C@@H]13)C2(C)C
REMARK SMILES IDX 3 1 2 2 1 3 12 4 9 5 8 6 10 7 7 8 11 9 4 11 5 12 6 13 13 14
REMARK SMILES IDX 14 16 15 17
REMARK H PARENT
REMARK Flexibility Score: 80.00
ROOT
ATOM      1  C   UNL     1       4.942   7.064  15.904  1.00  0.00     0.031 C 
ENDROOT
BRANCH   1   2
ATOM      2  C   UNL     1       3.662   7.878  16.023  1.00  0.00    -0.074 C 
ATOM      3  C   UNL     1       3.008   8.210  14.890  1.00  0.00     0.008 C 
BRANCH   2   4
ATOM      4  C   UNL     1       3.078   8.142  17.416  1.00  0.00     0.018 C 
ATOM      5  C   UNL     1       3.367   9.449  20.809  1.00  0.00     0.008 C 
ATOM      6  C   UNL     1       3.147   9.725  19.313  1.00  0.00    -0.010 C 
ATOM      7  C   UNL     1       1.699   9.441  18.901  1.00  0.00     0.004 C 
ATOM      8  C   UNL     1       4.042   8.927  18.323  1.00  0.00     0.003 CG0
ATOM      9  C   UNL     1       1.783   8.954  17.468  1.00  0.00     0.008 C 
ATOM     10  G   UNL     1       5.051   7.961  18.999  1.00  0.00     0.000 G0
ENDBRANCH   2   4
ENDBRANCH   1   2
BRANCH   1  11
ATOM     11  C   UNL     1       6.134   7.725  16.611  1.00  0.00     0.009 C 
BRANCH  11  12
ATOM     12  C   UNL     1       6.157   7.359  18.109  1.00  0.00    -0.001 C 
ATOM     13  C   UNL     1       5.058   7.962  19.002  1.00  0.00     0.002 CG0
ATOM     14  C   UNL     1       6.526   8.379  19.203  1.00  0.00    -0.029 C 
ATOM     15  G   UNL     1       4.052   8.934  18.329  1.00  0.00     0.000 G0
ATOM     16  C   UNL     1       7.166   7.782  20.462  1.00  0.00     0.011 C 
ATOM     17  C   UNL     1       6.952   9.823  18.873  1.00  0.00     0.011 C 
ENDBRANCH  11  12
ENDBRANCH   1  11
TORSDOF 0
ENDMDL
MODEL 9
REMARK VINA RESULT:    -3.823      4.104      6.310
REMARK INTER + INTRA:          -3.419
REMARK INTER:                  -4.772
REMARK INTRA:                   1.354
REMARK UNBOUND:                 1.299
REMARK SMILES C=C1CC[C@@H]2[C@H]([C@@H]3[C@H](C)CC[C@@H]13)C2(C)C
REMARK SMILES IDX 3 1 2 2 1 3 12 4 9 5 8 6 10 7 7 8 11 9 4 11 5 12 6 13 13 14
REMARK SMILES IDX 14 16 15 17
REMARK H PARENT
REMARK Flexibility Score: 80.00
ROOT
ATOM      1  C   UNL     1      12.688   6.266  25.764  1.00  0.00     0.031 C 
ENDROOT
BRANCH   1   2
ATOM      2  C   UNL     1      13.932   7.128  25.931  1.00  0.00    -0.074 C 
ATOM      3  C   UNL     1      14.554   7.126  27.128  1.00  0.00     0.008 C 
BRANCH   2   4
ATOM      4  C   UNL     1      14.521   7.823  24.698  1.00  0.00     0.018 C 
ATOM      5  C   UNL     1      14.222  10.090  21.857  1.00  0.00     0.008 C 
ATOM      6  C   UNL     1      14.412   9.905  23.371  1.00  0.00    -0.010 C 
ATOM      7  C   UNL     1      15.864   9.561  23.713  1.00  0.00     0.004 C 
ATOM      8  C   UNL     1      13.537   8.812  24.050  1.00  0.00     0.003 CG0
ATOM      9  C   UNL     1      15.783   8.658  24.927  1.00  0.00     0.008 C 
ATOM     10  G   UNL     1      12.577   8.063  23.088  1.00  0.00     0.000 G0
ENDBRANCH   2   4
ENDBRANCH   1   2
BRANCH   1  11
ATOM     11  C   UNL     1      11.476   7.064  25.261  1.00  0.00     0.009 C 
BRANCH  11  12
ATOM     12  C   UNL     1      11.491   7.175  23.723  1.00  0.00    -0.001 C 
ATOM     13  C   UNL     1      12.576   8.062  23.088  1.00  0.00     0.002 CG0
ATOM     14  C   UNL     1      11.094   8.468  22.985  1.00  0.00    -0.029 C 
ATOM     15  G   UNL     1      13.529   8.817  24.053  1.00  0.00     0.000 G0
ATOM     16  C   UNL     1      10.499   8.263  21.586  1.00  0.00     0.011 C 
ATOM     17  C   UNL     1      10.603   9.725  23.730  1.00  0.00     0.011 C 
ENDBRANCH  11  12
ENDBRANCH   1  11
TORSDOF 0
ENDMDL
