MODEL 1
REMARK VINA RESULT:    -3.300      0.000      0.000
REMARK INTER + INTRA:          -5.361
REMARK INTER:                  -5.036
REMARK INTRA:                  -0.324
REMARK UNBOUND:                -0.324
REMARK SMILES CC1=CCC[C@H](C)C(=O)C[C@H](C(C)C)C(=O)C1
REMARK SMILES IDX 8 1 9 2 6 3 7 4 5 5 4 6 3 7 2 8 1 9 10 11 11 12 15 13 16 14
REMARK SMILES IDX 17 15 12 17 13 18 14 19
REMARK H PARENT
REMARK Flexibility Score: 70.00
ROOT
ATOM      1  C   UNL     1     -32.994  18.707  24.454  1.00  0.00     0.136 C 
ATOM      2  O   UNL     1     -33.509  19.790  24.207  1.00  0.00    -0.299 OA
ENDROOT
BRANCH   1   3
ATOM      3  C   UNL     1     -33.891  17.483  24.531  1.00  0.00     0.053 C 
ATOM      4  C   UNL     1     -33.205  16.261  23.904  1.00  0.00     0.016 C 
BRANCH   3   5
ATOM      5  C   UNL     1     -34.290  17.211  26.001  1.00  0.00     0.015 C 
BRANCH   5   6
ATOM      6  C   UNL     1     -33.832  15.822  26.499  1.00  0.00     0.028 C 
BRANCH   6   7
ATOM      7  C   UNL     1     -33.015  15.916  27.767  1.00  0.00    -0.028 C 
ATOM      8  C   UNL     1     -31.671  16.083  27.818  1.00  0.00    -0.070 CG0
ATOM      9  C   UNL     1     -31.014  16.129  29.175  1.00  0.00     0.039 C 
ATOM     10  G   UNL     1     -30.799  16.217  26.581  1.00  0.00     0.000 G0
ENDBRANCH   6   7
ENDBRANCH   5   6
ENDBRANCH   3   5
ENDBRANCH   1   3
BRANCH   1  11
ATOM     11  C   UNL     1     -31.486  18.672  24.635  1.00  0.00     0.087 C 
BRANCH  11  12
ATOM     12  C   UNL     1     -30.945  18.784  26.090  1.00  0.00     0.066 C 
BRANCH  12  13
ATOM     13  C   UNL     1     -30.116  17.569  26.478  1.00  0.00     0.140 C 
ATOM     14  O   UNL     1     -28.934  17.705  26.761  1.00  0.00    -0.299 OA
BRANCH  13  15
ATOM     15  C   UNL     1     -30.764  16.208  26.602  1.00  0.00     0.106 CG0
ATOM     16  G   UNL     1     -31.649  16.092  27.832  1.00  0.00     0.000 G0
ENDBRANCH  13  15
ENDBRANCH  12  13
BRANCH  12  17
ATOM     17  C   UNL     1     -30.142  20.098  26.356  1.00  0.00    -0.006 C 
ATOM     18  C   UNL     1     -29.770  20.882  25.085  1.00  0.00     0.008 C 
ATOM     19  C   UNL     1     -30.873  21.024  27.343  1.00  0.00     0.008 C 
ENDBRANCH  12  17
ENDBRANCH  11  12
ENDBRANCH   1  11
TORSDOF 1
ENDMDL
MODEL 2
REMARK VINA RESULT:    -3.240      2.323      3.628
REMARK INTER + INTRA:          -5.269
REMARK INTER:                  -5.119
REMARK INTRA:                  -0.149
REMARK UNBOUND:                -0.324
REMARK SMILES CC1=CCC[C@H](C)C(=O)C[C@H](C(C)C)C(=O)C1
REMARK SMILES IDX 8 1 9 2 6 3 7 4 5 5 4 6 3 7 2 8 1 9 10 11 11 12 15 13 16 14
REMARK SMILES IDX 17 15 12 17 13 18 14 19
REMARK H PARENT
REMARK Flexibility Score: 70.00
ROOT
ATOM      1  C   UNL     1     -33.849  16.635  25.988  1.00  0.00     0.136 C 
ATOM      2  O   UNL     1     -34.820  16.934  26.670  1.00  0.00    -0.299 OA
ENDROOT
BRANCH   1   3
ATOM      3  C   UNL     1     -32.953  15.504  26.465  1.00  0.00     0.053 C 
ATOM      4  C   UNL     1     -32.828  15.511  27.995  1.00  0.00     0.016 C 
BRANCH   3   5
ATOM      5  C   UNL     1     -33.492  14.148  25.951  1.00  0.00     0.015 C 
BRANCH   5   6
ATOM      6  C   UNL     1     -32.725  13.627  24.715  1.00  0.00     0.028 C 
BRANCH   6   7
ATOM      7  C   UNL     1     -31.285  14.087  24.708  1.00  0.00    -0.028 C 
ATOM      8  C   UNL     1     -30.790  15.085  23.938  1.00  0.00    -0.070 CG0
ATOM      9  C   UNL     1     -29.317  15.394  24.040  1.00  0.00     0.039 C 
ATOM     10  G   UNL     1     -31.640  15.898  22.977  1.00  0.00     0.000 G0
ENDBRANCH   6   7
ENDBRANCH   5   6
ENDBRANCH   3   5
ENDBRANCH   1   3
BRANCH   1  11
ATOM     11  C   UNL     1     -33.634  17.404  24.695  1.00  0.00     0.087 C 
BRANCH  11  12
ATOM     12  C   UNL     1     -32.222  18.011  24.459  1.00  0.00     0.066 C 
BRANCH  12  13
ATOM     13  C   UNL     1     -31.549  17.411  23.234  1.00  0.00     0.140 C 
ATOM     14  O   UNL     1     -30.882  18.124  22.496  1.00  0.00    -0.299 OA
BRANCH  13  15
ATOM     15  C   UNL     1     -31.624  15.924  22.970  1.00  0.00     0.106 CG0
ATOM     16  G   UNL     1     -30.789  15.113  23.947  1.00  0.00     0.000 G0
ENDBRANCH  13  15
ENDBRANCH  12  13
BRANCH  12  17
ATOM     17  C   UNL     1     -32.220  19.571  24.371  1.00  0.00    -0.006 C 
ATOM     18  C   UNL     1     -33.622  20.207  24.371  1.00  0.00     0.008 C 
ATOM     19  C   UNL     1     -31.362  20.205  25.478  1.00  0.00     0.008 C 
ENDBRANCH  12  17
ENDBRANCH  11  12
ENDBRANCH   1  11
TORSDOF 1
ENDMDL
MODEL 3
REMARK VINA RESULT:    -3.159      2.786      5.563
REMARK INTER + INTRA:          -5.145
REMARK INTER:                  -4.851
REMARK INTRA:                  -0.294
REMARK UNBOUND:                -0.324
REMARK SMILES CC1=CCC[C@H](C)C(=O)C[C@H](C(C)C)C(=O)C1
REMARK SMILES IDX 8 1 9 2 6 3 7 4 5 5 4 6 3 7 2 8 1 9 10 11 11 12 15 13 16 14
REMARK SMILES IDX 17 15 12 17 13 18 14 19
REMARK H PARENT
REMARK Flexibility Score: 70.00
ROOT
ATOM      1  C   UNL     1     -29.987  19.580  26.730  1.00  0.00     0.136 C 
ATOM      2  O   UNL     1     -29.093  18.883  27.189  1.00  0.00    -0.299 OA
ENDROOT
BRANCH   1   3
ATOM      3  C   UNL     1     -29.817  21.089  26.768  1.00  0.00     0.053 C 
ATOM      4  C   UNL     1     -30.015  21.628  28.192  1.00  0.00     0.016 C 
BRANCH   3   5
ATOM      5  C   UNL     1     -28.428  21.481  26.207  1.00  0.00     0.015 C 
BRANCH   5   6
ATOM      6  C   UNL     1     -28.376  21.450  24.663  1.00  0.00     0.028 C 
BRANCH   6   7
ATOM      7  C   UNL     1     -27.707  20.198  24.145  1.00  0.00    -0.028 C 
ATOM      8  C   UNL     1     -28.294  19.274  23.347  1.00  0.00    -0.070 CG0
ATOM      9  C   UNL     1     -27.484  18.067  22.945  1.00  0.00     0.039 C 
ATOM     10  G   UNL     1     -29.724  19.391  22.847  1.00  0.00     0.000 G0
ENDBRANCH   6   7
ENDBRANCH   5   6
ENDBRANCH   3   5
ENDBRANCH   1   3
BRANCH   1  11
ATOM     11  C   UNL     1     -31.190  18.873  26.126  1.00  0.00     0.087 C 
BRANCH  11  12
ATOM     12  C   UNL     1     -31.597  19.279  24.681  1.00  0.00     0.066 C 
BRANCH  12  13
ATOM     13  C   UNL     1     -30.730  18.591  23.637  1.00  0.00     0.140 C 
ATOM     14  O   UNL     1     -30.889  17.401  23.402  1.00  0.00    -0.299 OA
BRANCH  13  15
ATOM     15  C   UNL     1     -29.732  19.387  22.826  1.00  0.00     0.106 CG0
ATOM     16  G   UNL     1     -28.315  19.272  23.365  1.00  0.00     0.000 G0
ENDBRANCH  13  15
ENDBRANCH  12  13
BRANCH  12  17
ATOM     17  C   UNL     1     -33.110  19.043  24.371  1.00  0.00    -0.006 C 
ATOM     18  C   UNL     1     -33.788  18.002  25.278  1.00  0.00     0.008 C 
ATOM     19  C   UNL     1     -33.910  20.356  24.398  1.00  0.00     0.008 C 
ENDBRANCH  12  17
ENDBRANCH  11  12
ENDBRANCH   1  11
TORSDOF 1
ENDMDL
MODEL 4
REMARK VINA RESULT:    -3.158      5.871      7.069
REMARK INTER + INTRA:          -5.143
REMARK INTER:                  -4.865
REMARK INTRA:                  -0.278
REMARK UNBOUND:                -0.324
REMARK SMILES CC1=CCC[C@H](C)C(=O)C[C@H](C(C)C)C(=O)C1
REMARK SMILES IDX 8 1 9 2 6 3 7 4 5 5 4 6 3 7 2 8 1 9 10 11 11 12 15 13 16 14
REMARK SMILES IDX 17 15 12 17 13 18 14 19
REMARK H PARENT
REMARK Flexibility Score: 70.00
ROOT
ATOM      1  C   UNL     1     -31.455  22.790  30.133  1.00  0.00     0.136 C 
ATOM      2  O   UNL     1     -32.381  22.069  30.479  1.00  0.00    -0.299 OA
ENDROOT
BRANCH   1   3
ATOM      3  C   UNL     1     -31.151  24.023  30.966  1.00  0.00     0.053 C 
ATOM      4  C   UNL     1     -32.187  25.126  30.712  1.00  0.00     0.016 C 
BRANCH   3   5
ATOM      5  C   UNL     1     -31.086  23.647  32.466  1.00  0.00     0.015 C 
BRANCH   5   6
ATOM      6  C   UNL     1     -29.693  23.133  32.895  1.00  0.00     0.028 C 
BRANCH   6   7
ATOM      7  C   UNL     1     -29.721  21.671  33.272  1.00  0.00    -0.028 C 
ATOM      8  C   UNL     1     -29.101  20.678  32.590  1.00  0.00    -0.070 CG0
ATOM      9  C   UNL     1     -29.258  19.266  33.095  1.00  0.00     0.039 C 
ATOM     10  G   UNL     1     -28.268  20.917  31.342  1.00  0.00     0.000 G0
ENDBRANCH   6   7
ENDBRANCH   5   6
ENDBRANCH   3   5
ENDBRANCH   1   3
BRANCH   1  11
ATOM     11  C   UNL     1     -30.660  22.373  28.906  1.00  0.00     0.087 C 
BRANCH  11  12
ATOM     12  C   UNL     1     -29.167  21.997  29.125  1.00  0.00     0.066 C 
BRANCH  12  13
ATOM     13  C   UNL     1     -29.016  20.795  30.044  1.00  0.00     0.140 C 
ATOM     14  O   UNL     1     -29.458  19.707  29.700  1.00  0.00    -0.299 OA
BRANCH  13  15
ATOM     15  C   UNL     1     -28.248  20.914  31.341  1.00  0.00     0.106 CG0
ATOM     16  G   UNL     1     -29.121  20.677  32.562  1.00  0.00     0.000 G0
ENDBRANCH  13  15
ENDBRANCH  12  13
BRANCH  12  17
ATOM     17  C   UNL     1     -28.381  21.766  27.794  1.00  0.00    -0.006 C 
ATOM     18  C   UNL     1     -28.729  22.759  26.671  1.00  0.00     0.008 C 
ATOM     19  C   UNL     1     -26.860  21.753  28.023  1.00  0.00     0.008 C 
ENDBRANCH  12  17
ENDBRANCH  11  12
ENDBRANCH   1  11
TORSDOF 1
ENDMDL
MODEL 5
REMARK VINA RESULT:    -2.985      5.902      7.275
REMARK INTER + INTRA:          -4.880
REMARK INTER:                  -4.856
REMARK INTRA:                  -0.024
REMARK UNBOUND:                -0.324
REMARK SMILES CC1=CCC[C@H](C)C(=O)C[C@H](C(C)C)C(=O)C1
REMARK SMILES IDX 8 1 9 2 6 3 7 4 5 5 4 6 3 7 2 8 1 9 10 11 11 12 15 13 16 14
REMARK SMILES IDX 17 15 12 17 13 18 14 19
REMARK H PARENT
REMARK Flexibility Score: 70.00
ROOT
ATOM      1  C   UNL     1     -31.835  24.261  30.092  1.00  0.00     0.136 C 
ATOM      2  O   UNL     1     -31.158  25.184  29.660  1.00  0.00    -0.299 OA
ENDROOT
BRANCH   1   3
ATOM      3  C   UNL     1     -32.936  24.579  31.089  1.00  0.00     0.053 C 
ATOM      4  C   UNL     1     -34.170  25.153  30.379  1.00  0.00     0.016 C 
BRANCH   3   5
ATOM      5  C   UNL     1     -33.295  23.312  31.904  1.00  0.00     0.015 C 
BRANCH   5   6
ATOM      6  C   UNL     1     -32.480  23.190  33.210  1.00  0.00     0.028 C 
BRANCH   6   7
ATOM      7  C   UNL     1     -32.310  21.751  33.639  1.00  0.00    -0.028 C 
ATOM      8  C   UNL     1     -31.267  20.954  33.301  1.00  0.00    -0.070 CG0
ATOM      9  C   UNL     1     -31.274  19.530  33.796  1.00  0.00     0.039 C 
ATOM     10  G   UNL     1     -30.103  21.423  32.444  1.00  0.00     0.000 G0
ENDBRANCH   6   7
ENDBRANCH   5   6
ENDBRANCH   3   5
ENDBRANCH   1   3
BRANCH   1  11
ATOM     11  C   UNL     1     -31.535  22.865  29.570  1.00  0.00     0.087 C 
BRANCH  11  12
ATOM     12  C   UNL     1     -30.157  22.251  29.945  1.00  0.00     0.066 C 
BRANCH  12  13
ATOM     13  C   UNL     1     -30.297  21.134  30.969  1.00  0.00     0.140 C 
ATOM     14  O   UNL     1     -30.509  19.989  30.595  1.00  0.00    -0.299 OA
BRANCH  13  15
ATOM     15  C   UNL     1     -30.090  21.414  32.441  1.00  0.00     0.106 CG0
ATOM     16  G   UNL     1     -31.257  20.950  33.295  1.00  0.00     0.000 G0
ENDBRANCH  13  15
ENDBRANCH  12  13
BRANCH  12  17
ATOM     17  C   UNL     1     -29.338  21.755  28.710  1.00  0.00    -0.006 C 
ATOM     18  C   UNL     1     -29.804  22.340  27.365  1.00  0.00     0.008 C 
ATOM     19  C   UNL     1     -27.830  21.999  28.888  1.00  0.00     0.008 C 
ENDBRANCH  12  17
ENDBRANCH  11  12
ENDBRANCH   1  11
TORSDOF 1
ENDMDL
MODEL 6
REMARK VINA RESULT:    -2.968      2.398      4.615
REMARK INTER + INTRA:          -4.853
REMARK INTER:                  -4.749
REMARK INTRA:                  -0.105
REMARK UNBOUND:                -0.324
REMARK SMILES CC1=CCC[C@H](C)C(=O)C[C@H](C(C)C)C(=O)C1
REMARK SMILES IDX 8 1 9 2 6 3 7 4 5 5 4 6 3 7 2 8 1 9 10 11 11 12 15 13 16 14
REMARK SMILES IDX 17 15 12 17 13 18 14 19
REMARK H PARENT
REMARK Flexibility Score: 70.00
ROOT
ATOM      1  C   UNL     1     -29.139  21.731  26.103  1.00  0.00     0.136 C 
ATOM      2  O   UNL     1     -28.526  22.789  26.100  1.00  0.00    -0.299 OA
ENDROOT
BRANCH   1   3
ATOM      3  C   UNL     1     -29.312  21.000  27.424  1.00  0.00     0.053 C 
ATOM      4  C   UNL     1     -29.382  21.991  28.594  1.00  0.00     0.016 C 
BRANCH   3   5
ATOM      5  C   UNL     1     -30.571  20.101  27.372  1.00  0.00     0.015 C 
BRANCH   5   6
ATOM      6  C   UNL     1     -30.231  18.601  27.232  1.00  0.00     0.028 C 
BRANCH   6   7
ATOM      7  C   UNL     1     -31.291  17.849  26.462  1.00  0.00    -0.028 C 
ATOM      8  C   UNL     1     -31.173  17.430  25.179  1.00  0.00    -0.070 CG0
ATOM      9  C   UNL     1     -32.346  16.714  24.557  1.00  0.00     0.039 C 
ATOM     10  G   UNL     1     -29.926  17.652  24.340  1.00  0.00     0.000 G0
ENDBRANCH   6   7
ENDBRANCH   5   6
ENDBRANCH   3   5
ENDBRANCH   1   3
BRANCH   1  11
ATOM     11  C   UNL     1     -29.709  21.245  24.780  1.00  0.00     0.087 C 
BRANCH  11  12
ATOM     12  C   UNL     1     -28.952  20.088  24.066  1.00  0.00     0.066 C 
BRANCH  12  13
ATOM     13  C   UNL     1     -29.901  18.989  23.614  1.00  0.00     0.140 C 
ATOM     14  O   UNL     1     -30.611  19.164  22.632  1.00  0.00    -0.299 OA
BRANCH  13  15
ATOM     15  C   UNL     1     -29.911  17.649  24.315  1.00  0.00     0.106 CG0
ATOM     16  G   UNL     1     -31.153  17.442  25.165  1.00  0.00     0.000 G0
ENDBRANCH  13  15
ENDBRANCH  12  13
BRANCH  12  17
ATOM     17  C   UNL     1     -28.066  20.567  22.872  1.00  0.00    -0.006 C 
ATOM     18  C   UNL     1     -27.763  22.076  22.873  1.00  0.00     0.008 C 
ATOM     19  C   UNL     1     -26.752  19.773  22.781  1.00  0.00     0.008 C 
ENDBRANCH  12  17
ENDBRANCH  11  12
ENDBRANCH   1  11
TORSDOF 1
ENDMDL
MODEL 7
REMARK VINA RESULT:    -2.905      2.670      3.938
REMARK INTER + INTRA:          -4.758
REMARK INTER:                  -4.479
REMARK INTRA:                  -0.279
REMARK UNBOUND:                -0.324
REMARK SMILES CC1=CCC[C@H](C)C(=O)C[C@H](C(C)C)C(=O)C1
REMARK SMILES IDX 8 1 9 2 6 3 7 4 5 5 4 6 3 7 2 8 1 9 10 11 11 12 15 13 16 14
REMARK SMILES IDX 17 15 12 17 13 18 14 19
REMARK H PARENT
REMARK Flexibility Score: 70.00
ROOT
ATOM      1  C   UNL     1     -32.795  19.185  24.539  1.00  0.00     0.136 C 
ATOM      2  O   UNL     1     -33.757  19.942  24.568  1.00  0.00    -0.299 OA
ENDROOT
BRANCH   1   3
ATOM      3  C   UNL     1     -32.999  17.742  24.967  1.00  0.00     0.053 C 
ATOM      4  C   UNL     1     -34.241  17.604  25.858  1.00  0.00     0.016 C 
BRANCH   3   5
ATOM      5  C   UNL     1     -33.097  16.828  23.721  1.00  0.00     0.015 C 
BRANCH   5   6
ATOM      6  C   UNL     1     -31.838  15.956  23.517  1.00  0.00     0.028 C 
BRANCH   6   7
ATOM      7  C   UNL     1     -31.233  16.146  22.145  1.00  0.00    -0.028 C 
ATOM      8  C   UNL     1     -30.014  16.682  21.898  1.00  0.00    -0.070 CG0
ATOM      9  C   UNL     1     -29.580  16.822  20.461  1.00  0.00     0.039 C 
ATOM     10  G   UNL     1     -29.073  17.155  22.993  1.00  0.00     0.000 G0
ENDBRANCH   6   7
ENDBRANCH   5   6
ENDBRANCH   3   5
ENDBRANCH   1   3
BRANCH   1  11
ATOM     11  C   UNL     1     -31.473  19.749  24.044  1.00  0.00     0.087 C 
BRANCH  11  12
ATOM     12  C   UNL     1     -30.177  19.023  24.508  1.00  0.00     0.066 C 
BRANCH  12  13
ATOM     13  C   UNL     1     -29.299  18.630  23.330  1.00  0.00     0.140 C 
ATOM     14  O   UNL     1     -28.715  19.495  22.692  1.00  0.00    -0.299 OA
BRANCH  13  15
ATOM     15  C   UNL     1     -29.073  17.173  22.996  1.00  0.00     0.106 CG0
ATOM     16  G   UNL     1     -29.998  16.674  21.898  1.00  0.00     0.000 G0
ENDBRANCH  13  15
ENDBRANCH  12  13
BRANCH  12  17
ATOM     17  C   UNL     1     -29.350  19.835  25.556  1.00  0.00    -0.006 C 
ATOM     18  C   UNL     1     -29.706  21.330  25.623  1.00  0.00     0.008 C 
ATOM     19  C   UNL     1     -29.442  19.215  26.961  1.00  0.00     0.008 C 
ENDBRANCH  12  17
ENDBRANCH  11  12
ENDBRANCH   1  11
TORSDOF 1
ENDMDL
MODEL 8
REMARK VINA RESULT:    -2.882      1.877      4.036
REMARK INTER + INTRA:          -4.722
REMARK INTER:                  -4.384
REMARK INTRA:                  -0.338
REMARK UNBOUND:                -0.324
REMARK SMILES CC1=CCC[C@H](C)C(=O)C[C@H](C(C)C)C(=O)C1
REMARK SMILES IDX 8 1 9 2 6 3 7 4 5 5 4 6 3 7 2 8 1 9 10 11 11 12 15 13 16 14
REMARK SMILES IDX 17 15 12 17 13 18 14 19
REMARK H PARENT
REMARK Flexibility Score: 70.00
ROOT
ATOM      1  C   UNL     1     -30.196  20.120  28.196  1.00  0.00     0.136 C 
ATOM      2  O   UNL     1     -30.404  20.657  29.276  1.00  0.00    -0.299 OA
ENDROOT
BRANCH   1   3
ATOM      3  C   UNL     1     -29.326  18.876  28.164  1.00  0.00     0.053 C 
ATOM      4  C   UNL     1     -28.091  19.046  29.059  1.00  0.00     0.016 C 
BRANCH   3   5
ATOM      5  C   UNL     1     -30.157  17.638  28.583  1.00  0.00     0.015 C 
BRANCH   5   6
ATOM      6  C   UNL     1     -30.575  16.763  27.380  1.00  0.00     0.028 C 
BRANCH   6   7
ATOM      7  C   UNL     1     -32.076  16.680  27.235  1.00  0.00    -0.028 C 
ATOM      8  C   UNL     1     -32.787  17.169  26.191  1.00  0.00    -0.070 CG0
ATOM      9  C   UNL     1     -34.287  17.022  26.223  1.00  0.00     0.039 C 
ATOM     10  G   UNL     1     -32.148  17.862  24.999  1.00  0.00     0.000 G0
ENDBRANCH   6   7
ENDBRANCH   5   6
ENDBRANCH   3   5
ENDBRANCH   1   3
BRANCH   1  11
ATOM     11  C   UNL     1     -30.856  20.731  26.970  1.00  0.00     0.087 C 
BRANCH  11  12
ATOM     12  C   UNL     1     -30.691  19.968  25.625  1.00  0.00     0.066 C 
BRANCH  12  13
ATOM     13  C   UNL     1     -32.006  19.364  25.155  1.00  0.00     0.140 C 
ATOM     14  O   UNL     1     -32.933  20.096  24.839  1.00  0.00    -0.299 OA
BRANCH  13  15
ATOM     15  C   UNL     1     -32.145  17.867  24.992  1.00  0.00     0.106 CG0
ATOM     16  G   UNL     1     -32.794  17.205  26.197  1.00  0.00     0.000 G0
ENDBRANCH  13  15
ENDBRANCH  12  13
BRANCH  12  17
ATOM     17  C   UNL     1     -30.055  20.835  24.491  1.00  0.00    -0.006 C 
ATOM     18  C   UNL     1     -28.807  21.625  24.921  1.00  0.00     0.008 C 
ATOM     19  C   UNL     1     -29.734  19.996  23.242  1.00  0.00     0.008 C 
ENDBRANCH  12  17
ENDBRANCH  11  12
ENDBRANCH   1  11
TORSDOF 1
ENDMDL
MODEL 9
REMARK VINA RESULT:    -2.855      5.359      7.674
REMARK INTER + INTRA:          -4.682
REMARK INTER:                  -4.288
REMARK INTRA:                  -0.394
REMARK UNBOUND:                -0.324
REMARK SMILES CC1=CCC[C@H](C)C(=O)C[C@H](C(C)C)C(=O)C1
REMARK SMILES IDX 8 1 9 2 6 3 7 4 5 5 4 6 3 7 2 8 1 9 10 11 11 12 15 13 16 14
REMARK SMILES IDX 17 15 12 17 13 18 14 19
REMARK H PARENT
REMARK Flexibility Score: 70.00
ROOT
ATOM      1  C   UNL     1     -29.189  20.890  31.947  1.00  0.00     0.136 C 
ATOM      2  O   UNL     1     -28.265  20.883  32.748  1.00  0.00    -0.299 OA
ENDROOT
BRANCH   1   3
ATOM      3  C   UNL     1     -30.296  19.862  32.111  1.00  0.00     0.053 C 
ATOM      4  C   UNL     1     -29.726  18.437  32.101  1.00  0.00     0.016 C 
BRANCH   3   5
ATOM      5  C   UNL     1     -31.089  20.141  33.411  1.00  0.00     0.015 C 
BRANCH   5   6
ATOM      6  C   UNL     1     -32.459  20.805  33.145  1.00  0.00     0.028 C 
BRANCH   6   7
ATOM      7  C   UNL     1     -32.415  22.300  33.362  1.00  0.00    -0.028 C 
ATOM      8  C   UNL     1     -32.466  23.232  32.381  1.00  0.00    -0.070 CG0
ATOM      9  C   UNL     1     -32.383  24.684  32.778  1.00  0.00     0.039 C 
ATOM     10  G   UNL     1     -32.595  22.885  30.907  1.00  0.00     0.000 G0
ENDBRANCH   6   7
ENDBRANCH   5   6
ENDBRANCH   3   5
ENDBRANCH   1   3
BRANCH   1  11
ATOM     11  C   UNL     1     -29.170  21.955  30.862  1.00  0.00     0.087 C 
BRANCH  11  12
ATOM     12  C   UNL     1     -30.354  21.959  29.854  1.00  0.00     0.066 C 
BRANCH  12  13
ATOM     13  C   UNL     1     -31.311  23.112  30.113  1.00  0.00     0.140 C 
ATOM     14  O   UNL     1     -31.084  24.213  29.629  1.00  0.00    -0.299 OA
BRANCH  13  15
ATOM     15  C   UNL     1     -32.588  22.887  30.892  1.00  0.00     0.106 CG0
ATOM     16  G   UNL     1     -32.446  23.239  32.363  1.00  0.00     0.000 G0
ENDBRANCH  13  15
ENDBRANCH  12  13
BRANCH  12  17
ATOM     17  C   UNL     1     -29.900  21.956  28.358  1.00  0.00    -0.006 C 
ATOM     18  C   UNL     1     -28.434  21.539  28.142  1.00  0.00     0.008 C 
ATOM     19  C   UNL     1     -30.821  21.090  27.483  1.00  0.00     0.008 C 
ENDBRANCH  12  17
ENDBRANCH  11  12
ENDBRANCH   1  11
TORSDOF 1
ENDMDL
