MODEL 1
REMARK VINA RESULT:    -2.398      0.000      0.000
REMARK INTER + INTRA:          -2.749
REMARK INTER:                  -3.660
REMARK INTRA:                   0.911
REMARK UNBOUND:                 0.911
REMARK SMILES CC1=CCC[C@H](C)C(=O)C[C@H](C(C)C)C(=O)C1
REMARK SMILES IDX 8 1 9 2 6 3 7 4 5 5 4 6 3 7 2 8 1 9 10 11 11 12 15 13 16 14
REMARK SMILES IDX 17 15 12 17 13 18 14 19
REMARK H PARENT
REMARK Flexibility Score: 70.00
ROOT
ATOM      1  C   UNL     1       3.047  13.925  -5.121  1.00  0.00     0.136 C 
ATOM      2  O   UNL     1       3.831  13.261  -4.458  1.00  0.00    -0.299 OA
ENDROOT
BRANCH   1   3
ATOM      3  C   UNL     1       2.308  13.261  -6.286  1.00  0.00     0.053 C 
ATOM      4  C   UNL     1       1.782  14.295  -7.298  1.00  0.00     0.016 C 
BRANCH   3   5
ATOM      5  C   UNL     1       3.183  12.206  -7.020  1.00  0.00     0.015 C 
BRANCH   5   6
ATOM      6  C   UNL     1       3.573  12.539  -8.475  1.00  0.00     0.028 C 
BRANCH   6   7
ATOM      7  C   UNL     1       4.961  13.086  -8.744  1.00  0.00    -0.028 C 
ATOM      8  C   UNL     1       5.383  14.370  -8.626  1.00  0.00    -0.070 CG0
ATOM      9  C   UNL     1       6.770  14.694  -9.125  1.00  0.00     0.039 C 
ATOM     10  G   UNL     1       4.602  15.474  -7.931  1.00  0.00     0.000 G0
ENDBRANCH   6   7
ENDBRANCH   5   6
ENDBRANCH   3   5
ENDBRANCH   1   3
BRANCH   1  11
ATOM     11  C   UNL     1       2.932  15.411  -4.795  1.00  0.00     0.087 C 
BRANCH  11  12
ATOM     12  C   UNL     1       4.018  16.306  -5.447  1.00  0.00     0.066 C 
BRANCH  12  13
ATOM     13  C   UNL     1       4.892  15.536  -6.426  1.00  0.00     0.140 C 
ATOM     14  O   UNL     1       5.896  14.988  -5.989  1.00  0.00    -0.299 OA
BRANCH  13  15
ATOM     15  C   UNL     1       4.625  15.515  -7.921  1.00  0.00     0.106 CG0
ATOM     16  G   UNL     1       5.381  14.385  -8.602  1.00  0.00     0.000 G0
ENDBRANCH  13  15
ENDBRANCH  12  13
BRANCH  12  17
ATOM     17  C   UNL     1       3.414  17.571  -6.140  1.00  0.00    -0.006 C 
ATOM     18  C   UNL     1       1.913  17.742  -5.846  1.00  0.00     0.008 C 
ATOM     19  C   UNL     1       4.153  18.852  -5.707  1.00  0.00     0.008 C 
ENDBRANCH  12  17
ENDBRANCH  11  12
ENDBRANCH   1  11
TORSDOF 1
ENDMDL
MODEL 2
REMARK VINA RESULT:    -1.757      1.604      4.114
REMARK INTER + INTRA:          -1.771
REMARK INTER:                  -2.957
REMARK INTRA:                   1.187
REMARK UNBOUND:                 0.911
REMARK SMILES CC1=CCC[C@H](C)C(=O)C[C@H](C(C)C)C(=O)C1
REMARK SMILES IDX 8 1 9 2 6 3 7 4 5 5 4 6 3 7 2 8 1 9 10 11 11 12 15 13 16 14
REMARK SMILES IDX 17 15 12 17 13 18 14 19
REMARK H PARENT
REMARK Flexibility Score: 70.00
ROOT
ATOM      1  C   UNL     1       2.208  13.770  -7.569  1.00  0.00     0.136 C 
ATOM      2  O   UNL     1       1.509  14.758  -7.391  1.00  0.00    -0.299 OA
ENDROOT
BRANCH   1   3
ATOM      3  C   UNL     1       2.426  12.792  -6.412  1.00  0.00     0.053 C 
ATOM      4  C   UNL     1       2.632  11.350  -6.908  1.00  0.00     0.016 C 
BRANCH   3   5
ATOM      5  C   UNL     1       3.613  13.207  -5.499  1.00  0.00     0.015 C 
BRANCH   5   6
ATOM      6  C   UNL     1       3.321  14.312  -4.462  1.00  0.00     0.028 C 
BRANCH   6   7
ATOM      7  C   UNL     1       3.166  15.739  -4.951  1.00  0.00    -0.028 C 
ATOM      8  C   UNL     1       3.912  16.380  -5.886  1.00  0.00    -0.070 CG0
ATOM      9  C   UNL     1       3.674  17.859  -6.071  1.00  0.00     0.039 C 
ATOM     10  G   UNL     1       4.888  15.695  -6.830  1.00  0.00     0.000 G0
ENDBRANCH   6   7
ENDBRANCH   5   6
ENDBRANCH   3   5
ENDBRANCH   1   3
BRANCH   1  11
ATOM     11  C   UNL     1       2.899  13.632  -8.923  1.00  0.00     0.087 C 
BRANCH  11  12
ATOM     12  C   UNL     1       4.312  14.266  -9.000  1.00  0.00     0.066 C 
BRANCH  12  13
ATOM     13  C   UNL     1       4.398  15.582  -8.243  1.00  0.00     0.140 C 
ATOM     14  O   UNL     1       4.128  16.610  -8.850  1.00  0.00    -0.299 OA
BRANCH  13  15
ATOM     15  C   UNL     1       4.906  15.674  -6.814  1.00  0.00     0.106 CG0
ATOM     16  G   UNL     1       3.894  16.360  -5.911  1.00  0.00     0.000 G0
ENDBRANCH  13  15
ENDBRANCH  12  13
BRANCH  12  17
ATOM     17  C   UNL     1       5.432  13.288  -8.516  1.00  0.00    -0.006 C 
ATOM     18  C   UNL     1       5.126  11.821  -8.869  1.00  0.00     0.008 C 
ATOM     19  C   UNL     1       6.801  13.666  -9.113  1.00  0.00     0.008 C 
ENDBRANCH  12  17
ENDBRANCH  11  12
ENDBRANCH   1  11
TORSDOF 1
ENDMDL
MODEL 3
REMARK VINA RESULT:    -1.466      1.754      2.377
REMARK INTER + INTRA:          -1.327
REMARK INTER:                  -2.472
REMARK INTRA:                   1.145
REMARK UNBOUND:                 0.911
REMARK SMILES CC1=CCC[C@H](C)C(=O)C[C@H](C(C)C)C(=O)C1
REMARK SMILES IDX 8 1 9 2 6 3 7 4 5 5 4 6 3 7 2 8 1 9 10 11 11 12 15 13 16 14
REMARK SMILES IDX 17 15 12 17 13 18 14 19
REMARK H PARENT
REMARK Flexibility Score: 70.00
ROOT
ATOM      1  C   UNL     1       2.209  13.450  -7.288  1.00  0.00     0.136 C 
ATOM      2  O   UNL     1       2.268  12.406  -6.655  1.00  0.00    -0.299 OA
ENDROOT
BRANCH   1   3
ATOM      3  C   UNL     1       2.672  13.463  -8.748  1.00  0.00     0.053 C 
ATOM      4  C   UNL     1       3.358  14.789  -9.122  1.00  0.00     0.016 C 
BRANCH   3   5
ATOM      5  C   UNL     1       3.614  12.273  -9.083  1.00  0.00     0.015 C 
BRANCH   5   6
ATOM      6  C   UNL     1       5.110  12.479  -8.768  1.00  0.00     0.028 C 
BRANCH   6   7
ATOM      7  C   UNL     1       5.623  12.078  -7.399  1.00  0.00    -0.028 C 
ATOM      8  C   UNL     1       5.786  12.872  -6.310  1.00  0.00    -0.070 CG0
ATOM      9  C   UNL     1       6.483  12.273  -5.112  1.00  0.00     0.039 C 
ATOM     10  G   UNL     1       5.223  14.278  -6.175  1.00  0.00     0.000 G0
ENDBRANCH   6   7
ENDBRANCH   5   6
ENDBRANCH   3   5
ENDBRANCH   1   3
BRANCH   1  11
ATOM     11  C   UNL     1       1.763  14.703  -6.541  1.00  0.00     0.087 C 
BRANCH  11  12
ATOM     12  C   UNL     1       2.817  15.289  -5.565  1.00  0.00     0.066 C 
BRANCH  12  13
ATOM     13  C   UNL     1       3.965  14.325  -5.307  1.00  0.00     0.140 C 
ATOM     14  O   UNL     1       3.906  13.618  -4.309  1.00  0.00    -0.299 OA
BRANCH  13  15
ATOM     15  C   UNL     1       5.214  14.288  -6.171  1.00  0.00     0.106 CG0
ATOM     16  G   UNL     1       5.750  12.872  -6.307  1.00  0.00     0.000 G0
ENDBRANCH  13  15
ENDBRANCH  12  13
BRANCH  12  17
ATOM     17  C   UNL     1       3.367  16.673  -6.040  1.00  0.00    -0.006 C 
ATOM     18  C   UNL     1       2.271  17.751  -6.108  1.00  0.00     0.008 C 
ATOM     19  C   UNL     1       4.496  17.172  -5.118  1.00  0.00     0.008 C 
ENDBRANCH  12  17
ENDBRANCH  11  12
ENDBRANCH   1  11
TORSDOF 1
ENDMDL
MODEL 4
REMARK VINA RESULT:    -1.149      1.682      4.047
REMARK INTER + INTRA:          -0.842
REMARK INTER:                  -2.264
REMARK INTRA:                   1.421
REMARK UNBOUND:                 0.911
REMARK SMILES CC1=CCC[C@H](C)C(=O)C[C@H](C(C)C)C(=O)C1
REMARK SMILES IDX 8 1 9 2 6 3 7 4 5 5 4 6 3 7 2 8 1 9 10 11 11 12 15 13 16 14
REMARK SMILES IDX 17 15 12 17 13 18 14 19
REMARK H PARENT
REMARK Flexibility Score: 70.00
ROOT
ATOM      1  C   UNL     1       5.563  13.053  -7.226  1.00  0.00     0.136 C 
ATOM      2  O   UNL     1       5.898  11.927  -7.566  1.00  0.00    -0.299 OA
ENDROOT
BRANCH   1   3
ATOM      3  C   UNL     1       5.699  14.205  -8.225  1.00  0.00     0.053 C 
ATOM      4  C   UNL     1       6.936  14.044  -9.125  1.00  0.00     0.016 C 
BRANCH   3   5
ATOM      5  C   UNL     1       4.429  14.380  -9.105  1.00  0.00     0.015 C 
BRANCH   5   6
ATOM      6  C   UNL     1       3.651  15.700  -8.923  1.00  0.00     0.028 C 
BRANCH   6   7
ATOM      7  C   UNL     1       4.092  16.654  -7.831  1.00  0.00    -0.028 C 
ATOM      8  C   UNL     1       3.548  16.810  -6.598  1.00  0.00    -0.070 CG0
ATOM      9  C   UNL     1       4.055  17.954  -5.753  1.00  0.00     0.039 C 
ATOM     10  G   UNL     1       2.546  15.854  -5.969  1.00  0.00     0.000 G0
ENDBRANCH   6   7
ENDBRANCH   5   6
ENDBRANCH   3   5
ENDBRANCH   1   3
BRANCH   1  11
ATOM     11  C   UNL     1       5.118  13.247  -5.779  1.00  0.00     0.087 C 
BRANCH  11  12
ATOM     12  C   UNL     1       3.592  13.440  -5.588  1.00  0.00     0.066 C 
BRANCH  12  13
ATOM     13  C   UNL     1       3.243  14.834  -5.090  1.00  0.00     0.140 C 
ATOM     14  O   UNL     1       3.454  15.091  -3.912  1.00  0.00    -0.299 OA
BRANCH  13  15
ATOM     15  C   UNL     1       2.550  15.867  -5.963  1.00  0.00     0.106 CG0
ATOM     16  G   UNL     1       3.555  16.810  -6.605  1.00  0.00     0.000 G0
ENDBRANCH  13  15
ENDBRANCH  12  13
BRANCH  12  17
ATOM     17  C   UNL     1       2.781  13.108  -6.883  1.00  0.00    -0.006 C 
ATOM     18  C   UNL     1       2.640  11.594  -7.117  1.00  0.00     0.008 C 
ATOM     19  C   UNL     1       1.374  13.735  -6.839  1.00  0.00     0.008 C 
ENDBRANCH  12  17
ENDBRANCH  11  12
ENDBRANCH   1  11
TORSDOF 1
ENDMDL
MODEL 5
REMARK VINA RESULT:    -0.945      1.832      3.873
REMARK INTER + INTRA:          -0.531
REMARK INTER:                  -2.354
REMARK INTRA:                   1.823
REMARK UNBOUND:                 0.911
REMARK SMILES CC1=CCC[C@H](C)C(=O)C[C@H](C(C)C)C(=O)C1
REMARK SMILES IDX 8 1 9 2 6 3 7 4 5 5 4 6 3 7 2 8 1 9 10 11 11 12 15 13 16 14
REMARK SMILES IDX 17 15 12 17 13 18 14 19
REMARK H PARENT
REMARK Flexibility Score: 70.00
ROOT
ATOM      1  C   UNL     1       4.246  16.065  -5.106  1.00  0.00     0.136 C 
ATOM      2  O   UNL     1       4.126  15.830  -3.911  1.00  0.00    -0.299 OA
ENDROOT
BRANCH   1   3
ATOM      3  C   UNL     1       3.170  16.892  -5.815  1.00  0.00     0.053 C 
ATOM      4  C   UNL     1       3.749  18.175  -6.438  1.00  0.00     0.016 C 
BRANCH   3   5
ATOM      5  C   UNL     1       2.413  16.077  -6.900  1.00  0.00     0.015 C 
BRANCH   5   6
ATOM      6  C   UNL     1       1.777  14.750  -6.435  1.00  0.00     0.028 C 
BRANCH   6   7
ATOM      7  C   UNL     1       2.046  13.498  -7.245  1.00  0.00    -0.028 C 
ATOM      8  C   UNL     1       2.750  13.393  -8.400  1.00  0.00    -0.070 CG0
ATOM      9  C   UNL     1       2.724  12.061  -9.112  1.00  0.00     0.039 C 
ATOM     10  G   UNL     1       3.645  14.483  -8.967  1.00  0.00     0.000 G0
ENDBRANCH   6   7
ENDBRANCH   5   6
ENDBRANCH   3   5
ENDBRANCH   1   3
BRANCH   1  11
ATOM     11  C   UNL     1       5.425  15.426  -5.833  1.00  0.00     0.087 C 
BRANCH  11  12
ATOM     12  C   UNL     1       5.061  14.206  -6.719  1.00  0.00     0.066 C 
BRANCH  12  13
ATOM     13  C   UNL     1       4.956  14.572  -8.191  1.00  0.00     0.140 C 
ATOM     14  O   UNL     1       5.943  15.050  -8.735  1.00  0.00    -0.299 OA
BRANCH  13  15
ATOM     15  C   UNL     1       3.655  14.468  -8.971  1.00  0.00     0.106 CG0
ATOM     16  G   UNL     1       2.760  13.375  -8.408  1.00  0.00     0.000 G0
ENDBRANCH  13  15
ENDBRANCH  12  13
BRANCH  12  17
ATOM     17  C   UNL     1       6.049  13.010  -6.526  1.00  0.00    -0.006 C 
ATOM     18  C   UNL     1       6.373  12.747  -5.045  1.00  0.00     0.008 C 
ATOM     19  C   UNL     1       5.490  11.716  -7.148  1.00  0.00     0.008 C 
ENDBRANCH  12  17
ENDBRANCH  11  12
ENDBRANCH   1  11
TORSDOF 1
ENDMDL
MODEL 6
REMARK VINA RESULT:    -0.940      1.572      2.471
REMARK INTER + INTRA:          -0.524
REMARK INTER:                  -1.166
REMARK INTRA:                   0.642
REMARK UNBOUND:                 0.911
REMARK SMILES CC1=CCC[C@H](C)C(=O)C[C@H](C(C)C)C(=O)C1
REMARK SMILES IDX 8 1 9 2 6 3 7 4 5 5 4 6 3 7 2 8 1 9 10 11 11 12 15 13 16 14
REMARK SMILES IDX 17 15 12 17 13 18 14 19
REMARK H PARENT
REMARK Flexibility Score: 70.00
ROOT
ATOM      1  C   UNL     1       5.119  12.629  -5.773  1.00  0.00     0.136 C 
ATOM      2  O   UNL     1       6.240  12.876  -5.349  1.00  0.00    -0.299 OA
ENDROOT
BRANCH   1   3
ATOM      3  C   UNL     1       4.941  11.505  -6.797  1.00  0.00     0.053 C 
ATOM      4  C   UNL     1       3.460  11.265  -7.137  1.00  0.00     0.016 C 
BRANCH   3   5
ATOM      5  C   UNL     1       5.744  11.760  -8.104  1.00  0.00     0.015 C 
BRANCH   5   6
ATOM      6  C   UNL     1       5.097  12.718  -9.125  1.00  0.00     0.028 C 
BRANCH   6   7
ATOM      7  C   UNL     1       5.435  14.194  -9.046  1.00  0.00    -0.028 C 
ATOM      8  C   UNL     1       4.572  15.239  -8.987  1.00  0.00    -0.070 CG0
ATOM      9  C   UNL     1       5.154  16.628  -9.095  1.00  0.00     0.039 C 
ATOM     10  G   UNL     1       3.082  15.114  -8.711  1.00  0.00     0.000 G0
ENDBRANCH   6   7
ENDBRANCH   5   6
ENDBRANCH   3   5
ENDBRANCH   1   3
BRANCH   1  11
ATOM     11  C   UNL     1       3.979  13.533  -5.315  1.00  0.00     0.087 C 
BRANCH  11  12
ATOM     12  C   UNL     1       3.796  14.825  -6.154  1.00  0.00     0.066 C 
BRANCH  12  13
ATOM     13  C   UNL     1       2.801  14.642  -7.289  1.00  0.00     0.140 C 
ATOM     14  O   UNL     1       1.783  14.001  -7.062  1.00  0.00    -0.299 OA
BRANCH  13  15
ATOM     15  C   UNL     1       3.075  15.124  -8.704  1.00  0.00     0.106 CG0
ATOM     16  G   UNL     1       4.568  15.235  -8.971  1.00  0.00     0.000 G0
ENDBRANCH  13  15
ENDBRANCH  12  13
BRANCH  12  17
ATOM     17  C   UNL     1       3.397  16.056  -5.276  1.00  0.00    -0.006 C 
ATOM     18  C   UNL     1       3.391  17.371  -6.075  1.00  0.00     0.008 C 
ATOM     19  C   UNL     1       2.010  15.860  -4.635  1.00  0.00     0.008 C 
ENDBRANCH  12  17
ENDBRANCH  11  12
ENDBRANCH   1  11
TORSDOF 1
ENDMDL
MODEL 7
REMARK VINA RESULT:    -0.878      1.865      3.238
REMARK INTER + INTRA:          -0.429
REMARK INTER:                  -2.357
REMARK INTRA:                   1.928
REMARK UNBOUND:                 0.911
REMARK SMILES CC1=CCC[C@H](C)C(=O)C[C@H](C(C)C)C(=O)C1
REMARK SMILES IDX 8 1 9 2 6 3 7 4 5 5 4 6 3 7 2 8 1 9 10 11 11 12 15 13 16 14
REMARK SMILES IDX 17 15 12 17 13 18 14 19
REMARK H PARENT
REMARK Flexibility Score: 70.00
ROOT
ATOM      1  C   UNL     1       5.864  13.934  -7.289  1.00  0.00     0.136 C 
ATOM      2  O   UNL     1       5.972  14.234  -8.469  1.00  0.00    -0.299 OA
ENDROOT
BRANCH   1   3
ATOM      3  C   UNL     1       6.195  12.505  -6.849  1.00  0.00     0.053 C 
ATOM      4  C   UNL     1       6.507  12.424  -5.344  1.00  0.00     0.016 C 
BRANCH   3   5
ATOM      5  C   UNL     1       5.065  11.498  -7.206  1.00  0.00     0.015 C 
BRANCH   5   6
ATOM      6  C   UNL     1       4.529  11.560  -8.651  1.00  0.00     0.028 C 
BRANCH   6   7
ATOM      7  C   UNL     1       3.687  12.753  -9.059  1.00  0.00    -0.028 C 
ATOM      8  C   UNL     1       2.652  13.308  -8.379  1.00  0.00    -0.070 CG0
ATOM      9  C   UNL     1       1.856  14.382  -9.081  1.00  0.00     0.039 C 
ATOM     10  G   UNL     1       2.308  13.002  -6.930  1.00  0.00     0.000 G0
ENDBRANCH   6   7
ENDBRANCH   5   6
ENDBRANCH   3   5
ENDBRANCH   1   3
BRANCH   1  11
ATOM     11  C   UNL     1       5.309  14.994  -6.342  1.00  0.00     0.087 C 
BRANCH  11  12
ATOM     12  C   UNL     1       3.768  15.161  -6.384  1.00  0.00     0.066 C 
BRANCH  12  13
ATOM     13  C   UNL     1       3.037  13.900  -5.951  1.00  0.00     0.140 C 
ATOM     14  O   UNL     1       3.150  13.543  -4.786  1.00  0.00    -0.299 OA
BRANCH  13  15
ATOM     15  C   UNL     1       2.273  13.020  -6.927  1.00  0.00     0.106 CG0
ATOM     16  G   UNL     1       2.666  13.319  -8.365  1.00  0.00     0.000 G0
ENDBRANCH  13  15
ENDBRANCH  12  13
BRANCH  12  17
ATOM     17  C   UNL     1       3.276  16.387  -5.547  1.00  0.00    -0.006 C 
ATOM     18  C   UNL     1       3.791  17.726  -6.105  1.00  0.00     0.008 C 
ATOM     19  C   UNL     1       1.738  16.437  -5.479  1.00  0.00     0.008 C 
ENDBRANCH  12  17
ENDBRANCH  11  12
ENDBRANCH   1  11
TORSDOF 1
ENDMDL
MODEL 8
REMARK VINA RESULT:    -0.858      2.011      3.524
REMARK INTER + INTRA:          -0.398
REMARK INTER:                  -1.483
REMARK INTRA:                   1.085
REMARK UNBOUND:                 0.911
REMARK SMILES CC1=CCC[C@H](C)C(=O)C[C@H](C(C)C)C(=O)C1
REMARK SMILES IDX 8 1 9 2 6 3 7 4 5 5 4 6 3 7 2 8 1 9 10 11 11 12 15 13 16 14
REMARK SMILES IDX 17 15 12 17 13 18 14 19
REMARK H PARENT
REMARK Flexibility Score: 70.00
ROOT
ATOM      1  C   UNL     1       3.149  15.117  -8.482  1.00  0.00     0.136 C 
ATOM      2  O   UNL     1       2.588  14.234  -9.116  1.00  0.00    -0.299 OA
ENDROOT
BRANCH   1   3
ATOM      3  C   UNL     1       4.514  15.623  -8.956  1.00  0.00     0.053 C 
ATOM      4  C   UNL     1       4.660  17.144  -8.774  1.00  0.00     0.016 C 
BRANCH   3   5
ATOM      5  C   UNL     1       5.694  14.895  -8.253  1.00  0.00     0.015 C 
BRANCH   5   6
ATOM      6  C   UNL     1       6.151  13.565  -8.889  1.00  0.00     0.028 C 
BRANCH   6   7
ATOM      7  C   UNL     1       5.177  12.404  -8.913  1.00  0.00    -0.028 C 
ATOM      8  C   UNL     1       4.470  11.895  -7.873  1.00  0.00    -0.070 CG0
ATOM      9  C   UNL     1       3.700  10.618  -8.114  1.00  0.00     0.039 C 
ATOM     10  G   UNL     1       4.311  12.574  -6.522  1.00  0.00     0.000 G0
ENDBRANCH   6   7
ENDBRANCH   5   6
ENDBRANCH   3   5
ENDBRANCH   1   3
BRANCH   1  11
ATOM     11  C   UNL     1       2.482  15.589  -7.194  1.00  0.00     0.087 C 
BRANCH  11  12
ATOM     12  C   UNL     1       2.699  14.661  -5.970  1.00  0.00     0.066 C 
BRANCH  12  13
ATOM     13  C   UNL     1       2.906  13.210  -6.375  1.00  0.00     0.140 C 
ATOM     14  O   UNL     1       1.915  12.503  -6.500  1.00  0.00    -0.299 OA
BRANCH  13  15
ATOM     15  C   UNL     1       4.285  12.588  -6.518  1.00  0.00     0.106 CG0
ATOM     16  G   UNL     1       4.444  11.901  -7.865  1.00  0.00     0.000 G0
ENDBRANCH  13  15
ENDBRANCH  12  13
BRANCH  12  17
ATOM     17  C   UNL     1       3.873  15.142  -5.056  1.00  0.00    -0.006 C 
ATOM     18  C   UNL     1       4.374  16.549  -5.432  1.00  0.00     0.008 C 
ATOM     19  C   UNL     1       3.462  15.143  -3.571  1.00  0.00     0.008 C 
ENDBRANCH  12  17
ENDBRANCH  11  12
ENDBRANCH   1  11
TORSDOF 1
ENDMDL
MODEL 9
REMARK VINA RESULT:    -0.662      1.699      2.587
REMARK INTER + INTRA:          -0.100
REMARK INTER:                  -2.011
REMARK INTRA:                   1.911
REMARK UNBOUND:                 0.911
REMARK SMILES CC1=CCC[C@H](C)C(=O)C[C@H](C(C)C)C(=O)C1
REMARK SMILES IDX 8 1 9 2 6 3 7 4 5 5 4 6 3 7 2 8 1 9 10 11 11 12 15 13 16 14
REMARK SMILES IDX 17 15 12 17 13 18 14 19
REMARK H PARENT
REMARK Flexibility Score: 70.00
ROOT
ATOM      1  C   UNL     1       2.739  12.794  -7.860  1.00  0.00     0.136 C 
ATOM      2  O   UNL     1       2.763  13.503  -8.856  1.00  0.00    -0.299 OA
ENDROOT
BRANCH   1   3
ATOM      3  C   UNL     1       3.195  11.337  -7.971  1.00  0.00     0.053 C 
ATOM      4  C   UNL     1       2.038  10.400  -8.363  1.00  0.00     0.016 C 
BRANCH   3   5
ATOM      5  C   UNL     1       4.375  11.158  -8.967  1.00  0.00     0.015 C 
BRANCH   5   6
ATOM      6  C   UNL     1       5.709  11.824  -8.568  1.00  0.00     0.028 C 
BRANCH   6   7
ATOM      7  C   UNL     1       5.984  13.234  -9.050  1.00  0.00    -0.028 C 
ATOM      8  C   UNL     1       5.818  14.392  -8.363  1.00  0.00    -0.070 CG0
ATOM      9  C   UNL     1       5.993  15.684  -9.124  1.00  0.00     0.039 C 
ATOM     10  G   UNL     1       5.576  14.479  -6.864  1.00  0.00     0.000 G0
ENDBRANCH   6   7
ENDBRANCH   5   6
ENDBRANCH   3   5
ENDBRANCH   1   3
BRANCH   1  11
ATOM     11  C   UNL     1       2.158  13.395  -6.583  1.00  0.00     0.087 C 
BRANCH  11  12
ATOM     12  C   UNL     1       3.173  14.185  -5.716  1.00  0.00     0.066 C 
BRANCH  12  13
ATOM     13  C   UNL     1       4.162  14.975  -6.558  1.00  0.00     0.140 C 
ATOM     14  O   UNL     1       3.773  16.014  -7.075  1.00  0.00    -0.299 OA
BRANCH  13  15
ATOM     15  C   UNL     1       5.563  14.471  -6.865  1.00  0.00     0.106 CG0
ATOM     16  G   UNL     1       5.805  14.393  -8.364  1.00  0.00     0.000 G0
ENDBRANCH  13  15
ENDBRANCH  12  13
BRANCH  12  17
ATOM     17  C   UNL     1       2.471  15.123  -4.680  1.00  0.00    -0.006 C 
ATOM     18  C   UNL     1       3.383  15.475  -3.492  1.00  0.00     0.008 C 
ATOM     19  C   UNL     1       1.994  16.430  -5.343  1.00  0.00     0.008 C 
ENDBRANCH  12  17
ENDBRANCH  11  12
ENDBRANCH   1  11
TORSDOF 1
ENDMDL
