MODEL 1
REMARK VINA RESULT:    -3.145      0.000      0.000
REMARK INTER + INTRA:          -3.798
REMARK INTER:                  -4.248
REMARK INTRA:                   0.450
REMARK UNBOUND:                 0.450
REMARK SMILES C=C1C(=O)O[C@H]2[C@H]1CCC(C)=CCC[C@@]1(C)O[C@@H]21
REMARK SMILES IDX 6 1 7 2 2 3 1 4 3 5 4 6 5 7 8 8 9 9 10 10 11 11 12 12 18 14
REMARK SMILES IDX 15 15 17 16 16 17 14 18 13 19
REMARK H PARENT
REMARK Flexibility Score: 70.00
ROOT
ATOM      1  C   UNL     1      47.875  23.549  -1.709  1.00  0.00     0.216 C 
ATOM      2  C   UNL     1      47.757  23.763  -0.160  1.00  0.00     0.070 C 
ATOM      3  C   UNL     1      46.297  23.547   0.111  1.00  0.00     0.037 C 
ATOM      4  C   UNL     1      45.718  23.513   1.311  1.00  0.00     0.021 C 
ATOM      5  C   UNL     1      45.639  23.311  -1.147  1.00  0.00     0.334 C 
ATOM      6  O   UNL     1      44.406  23.111  -1.305  1.00  0.00    -0.247 OA
ATOM      7  O   UNL     1      46.548  23.322  -2.180  1.00  0.00    -0.455 OA
ENDROOT
BRANCH   2   8
ATOM      8  C   UNL     1      48.193  25.179   0.277  1.00  0.00     0.017 C 
BRANCH   8   9
ATOM      9  C   UNL     1      49.705  25.446   0.080  1.00  0.00     0.031 C 
BRANCH   9  10
ATOM     10  C   UNL     1      50.568  24.619   1.022  1.00  0.00    -0.077 C 
ATOM     11  C   UNL     1      50.215  24.624   2.489  1.00  0.00     0.039 C 
ATOM     12  C   UNL     1      51.610  23.844   0.633  1.00  0.00    -0.028 CG0
ATOM     13  G   UNL     1      52.116  23.639  -0.775  1.00  0.00     0.000 G0
ENDBRANCH   9  10
ENDBRANCH   8   9
ENDBRANCH   2   8
BRANCH   1  14
ATOM     14  C   UNL     1      48.731  22.313  -2.048  1.00  0.00     0.192 C 
ATOM     15  C   UNL     1      50.229  22.369  -2.056  1.00  0.00     0.096 C 
ATOM     16  O   UNL     1      49.506  21.923  -0.935  1.00  0.00    -0.362 OA
ATOM     17  C   UNL     1      50.961  21.217  -2.746  1.00  0.00     0.045 C 
BRANCH  15  18
ATOM     18  C   UNL     1      51.000  23.693  -1.829  1.00  0.00     0.042 C 
BRANCH  18  19
ATOM     19  C   UNL     1      52.125  23.630  -0.769  1.00  0.00     0.030 CG0
ATOM     20  G   UNL     1      51.593  23.830   0.631  1.00  0.00     0.000 G0
ENDBRANCH  18  19
ENDBRANCH  15  18
ENDBRANCH   1  14
TORSDOF 0
ENDMDL
MODEL 2
REMARK VINA RESULT:    -2.083      2.746      4.886
REMARK INTER + INTRA:          -2.364
REMARK INTER:                  -4.460
REMARK INTRA:                   2.096
REMARK UNBOUND:                 0.450
REMARK SMILES C=C1C(=O)O[C@H]2[C@H]1CCC(C)=CCC[C@@]1(C)O[C@@H]21
REMARK SMILES IDX 6 1 7 2 2 3 1 4 3 5 4 6 5 7 8 8 9 9 10 10 11 11 12 12 18 14
REMARK SMILES IDX 15 15 17 16 16 17 14 18 13 19
REMARK H PARENT
REMARK Flexibility Score: 70.00
ROOT
ATOM      1  C   UNL     1      50.992  24.288  -1.467  1.00  0.00     0.216 C 
ATOM      2  C   UNL     1      49.615  23.605  -1.779  1.00  0.00     0.070 C 
ATOM      3  C   UNL     1      50.007  22.246  -2.279  1.00  0.00     0.037 C 
ATOM      4  C   UNL     1      49.174  21.246  -2.571  1.00  0.00     0.021 C 
ATOM      5  C   UNL     1      51.444  22.182  -2.323  1.00  0.00     0.334 C 
ATOM      6  O   UNL     1      52.125  21.199  -2.714  1.00  0.00    -0.247 OA
ATOM      7  O   UNL     1      51.996  23.357  -1.865  1.00  0.00    -0.455 OA
ENDROOT
BRANCH   2   8
ATOM      8  C   UNL     1      48.802  24.370  -2.846  1.00  0.00     0.017 C 
BRANCH   8   9
ATOM      9  C   UNL     1      47.472  24.951  -2.307  1.00  0.00     0.031 C 
BRANCH   9  10
ATOM     10  C   UNL     1      46.585  23.886  -1.679  1.00  0.00    -0.077 C 
ATOM     11  C   UNL     1      45.573  23.199  -2.563  1.00  0.00     0.039 C 
ATOM     12  C   UNL     1      46.664  23.478  -0.389  1.00  0.00    -0.028 CG0
ATOM     13  G   UNL     1      47.624  23.977   0.666  1.00  0.00     0.000 G0
ENDBRANCH   9  10
ENDBRANCH   8   9
ENDBRANCH   2   8
BRANCH   1  14
ATOM     14  C   UNL     1      51.157  24.572   0.038  1.00  0.00     0.192 C 
ATOM     15  C   UNL     1      50.217  24.003   1.057  1.00  0.00     0.096 C 
ATOM     16  O   UNL     1      51.439  23.382   0.743  1.00  0.00    -0.362 OA
ATOM     17  C   UNL     1      50.247  24.627   2.453  1.00  0.00     0.045 C 
BRANCH  15  18
ATOM     18  C   UNL     1      48.965  23.185   0.650  1.00  0.00     0.042 C 
BRANCH  18  19
ATOM     19  C   UNL     1      47.627  23.961   0.690  1.00  0.00     0.030 CG0
ATOM     20  G   UNL     1      46.673  23.495  -0.384  1.00  0.00     0.000 G0
ENDBRANCH  18  19
ENDBRANCH  15  18
ENDBRANCH   1  14
TORSDOF 0
ENDMDL
MODEL 3
REMARK VINA RESULT:    -1.111      1.708      4.304
REMARK INTER + INTRA:          -1.050
REMARK INTER:                  -3.396
REMARK INTRA:                   2.346
REMARK UNBOUND:                 0.450
REMARK SMILES C=C1C(=O)O[C@H]2[C@H]1CCC(C)=CCC[C@@]1(C)O[C@@H]21
REMARK SMILES IDX 6 1 7 2 2 3 1 4 3 5 4 6 5 7 8 8 9 9 10 10 11 11 12 12 18 14
REMARK SMILES IDX 15 15 17 16 16 17 14 18 13 19
REMARK H PARENT
REMARK Flexibility Score: 70.00
ROOT
ATOM      1  C   UNL     1      49.206  22.604  -1.110  1.00  0.00     0.216 C 
ATOM      2  C   UNL     1      49.996  23.815  -1.718  1.00  0.00     0.070 C 
ATOM      3  C   UNL     1      51.179  23.165  -2.372  1.00  0.00     0.037 C 
ATOM      4  C   UNL     1      52.095  23.777  -3.125  1.00  0.00     0.021 C 
ATOM      5  C   UNL     1      51.117  21.752  -2.107  1.00  0.00     0.334 C 
ATOM      6  O   UNL     1      51.959  20.896  -2.484  1.00  0.00    -0.247 OA
ATOM      7  O   UNL     1      49.991  21.444  -1.379  1.00  0.00    -0.455 OA
ENDROOT
BRANCH   2   8
ATOM      8  C   UNL     1      50.450  24.826  -0.642  1.00  0.00     0.017 C 
BRANCH   8   9
ATOM      9  C   UNL     1      50.918  24.157   0.673  1.00  0.00     0.031 C 
BRANCH   9  10
ATOM     10  C   UNL     1      49.878  24.257   1.779  1.00  0.00    -0.077 C 
ATOM     11  C   UNL     1      50.343  24.082   3.203  1.00  0.00     0.039 C 
ATOM     12  C   UNL     1      48.565  24.532   1.580  1.00  0.00    -0.028 CG0
ATOM     13  G   UNL     1      47.880  24.795   0.260  1.00  0.00     0.000 G0
ENDBRANCH   9  10
ENDBRANCH   8   9
ENDBRANCH   2   8
BRANCH   1  14
ATOM     14  C   UNL     1      47.830  22.429  -1.781  1.00  0.00     0.192 C 
ATOM     15  C   UNL     1      46.601  23.103  -1.250  1.00  0.00     0.096 C 
ATOM     16  O   UNL     1      47.364  23.660  -2.292  1.00  0.00    -0.362 OA
ATOM     17  C   UNL     1      45.254  22.585  -1.756  1.00  0.00     0.045 C 
BRANCH  15  18
ATOM     18  C   UNL     1      46.621  23.926   0.062  1.00  0.00     0.042 C 
BRANCH  18  19
ATOM     19  C   UNL     1      47.871  24.814   0.266  1.00  0.00     0.030 CG0
ATOM     20  G   UNL     1      48.541  24.549   1.594  1.00  0.00     0.000 G0
ENDBRANCH  18  19
ENDBRANCH  15  18
ENDBRANCH   1  14
TORSDOF 0
ENDMDL
