MODEL 1
REMARK VINA RESULT:    -5.611      0.000      0.000
REMARK INTER + INTRA:          -6.300
REMARK INTER:                  -6.103
REMARK INTRA:                  -0.196
REMARK UNBOUND:                -0.196
REMARK SMILES Cc1ccc(C(C)C)c(O)c1
REMARK SMILES IDX 1 1 2 2 11 3 9 4 5 5 4 6 3 7 10 8 6 10 7 11 8 12
REMARK H PARENT 10 9
REMARK Flexibility Score: inf
ROOT
ATOM      1  C   UNL     1      -0.080  61.001  -8.932  1.00  0.00     0.044 C 
ATOM      2  C   UNL     1      -1.008  61.244 -10.086  1.00  0.00    -0.047 A 
ATOM      3  C   UNL     1      -0.840  62.371 -10.901  1.00  0.00     0.049 A 
ATOM      4  C   UNL     1      -1.679  62.588 -12.005  1.00  0.00     0.119 A 
ATOM      5  C   UNL     1      -2.700  61.656 -12.311  1.00  0.00    -0.004 A 
ATOM      6  C   UNL     1      -2.844  60.518 -11.495  1.00  0.00     0.008 A 
ATOM      7  C   UNL     1      -2.004  60.312 -10.399  1.00  0.00     0.004 A 
ENDROOT
BRANCH   4   8
ATOM      8  O   UNL     1      -1.493  63.724 -12.790  1.00  0.00    -0.508 OA
ATOM      9  H   UNL     1      -2.082  63.923 -13.591  1.00  0.00     0.293 HD
ENDBRANCH   4   8
BRANCH   5  10
ATOM     10  C   UNL     1      -3.643  61.836 -13.494  1.00  0.00     0.017 C 
ATOM     11  C   UNL     1      -5.065  61.364 -13.166  1.00  0.00     0.012 C 
ATOM     12  C   UNL     1      -3.103  61.160 -14.761  1.00  0.00     0.012 C 
ENDBRANCH   5  10
TORSDOF 2
ENDMDL
MODEL 2
REMARK VINA RESULT:    -5.402     13.739     16.459
REMARK INTER + INTRA:          -6.072
REMARK INTER:                  -5.880
REMARK INTRA:                  -0.192
REMARK UNBOUND:                -0.196
REMARK SMILES Cc1ccc(C(C)C)c(O)c1
REMARK SMILES IDX 1 1 2 2 11 3 9 4 5 5 4 6 3 7 10 8 6 10 7 11 8 12
REMARK H PARENT 10 9
REMARK Flexibility Score: inf
ROOT
ATOM      1  C   UNL     1      -6.583  67.387 -28.991  1.00  0.00     0.044 C 
ATOM      2  C   UNL     1      -5.668  67.662 -27.834  1.00  0.00    -0.047 A 
ATOM      3  C   UNL     1      -4.422  67.026 -27.751  1.00  0.00     0.049 A 
ATOM      4  C   UNL     1      -3.544  67.304 -26.692  1.00  0.00     0.119 A 
ATOM      5  C   UNL     1      -3.910  68.245 -25.699  1.00  0.00    -0.004 A 
ATOM      6  C   UNL     1      -5.156  68.891 -25.805  1.00  0.00     0.008 A 
ATOM      7  C   UNL     1      -6.022  68.606 -26.863  1.00  0.00     0.004 A 
ENDROOT
BRANCH   4   8
ATOM      8  O   UNL     1      -2.317  66.647 -26.634  1.00  0.00    -0.508 OA
ATOM      9  H   UNL     1      -2.095  65.995 -25.891  1.00  0.00     0.293 HD
ENDBRANCH   4   8
BRANCH   5  10
ATOM     10  C   UNL     1      -3.001  68.589 -24.526  1.00  0.00     0.017 C 
ATOM     11  C   UNL     1      -3.707  68.380 -23.180  1.00  0.00     0.012 C 
ATOM     12  C   UNL     1      -2.425  70.005 -24.647  1.00  0.00     0.012 C 
ENDBRANCH   5  10
TORSDOF 2
ENDMDL
MODEL 3
REMARK VINA RESULT:    -5.290      1.740      4.506
REMARK INTER + INTRA:          -5.950
REMARK INTER:                  -5.756
REMARK INTRA:                  -0.195
REMARK UNBOUND:                -0.196
REMARK SMILES Cc1ccc(C(C)C)c(O)c1
REMARK SMILES IDX 1 1 2 2 11 3 9 4 5 5 4 6 3 7 10 8 6 10 7 11 8 12
REMARK H PARENT 10 9
REMARK Flexibility Score: inf
ROOT
ATOM      1  C   UNL     1      -3.274  61.878 -15.615  1.00  0.00     0.044 C 
ATOM      2  C   UNL     1      -2.817  61.918 -14.187  1.00  0.00    -0.047 A 
ATOM      3  C   UNL     1      -3.232  60.930 -13.285  1.00  0.00     0.049 A 
ATOM      4  C   UNL     1      -2.781  60.938 -11.956  1.00  0.00     0.119 A 
ATOM      5  C   UNL     1      -1.888  61.945 -11.518  1.00  0.00    -0.004 A 
ATOM      6  C   UNL     1      -1.464  62.920 -12.440  1.00  0.00     0.008 A 
ATOM      7  C   UNL     1      -1.919  62.904 -13.761  1.00  0.00     0.004 A 
ENDROOT
BRANCH   4   8
ATOM      8  O   UNL     1      -3.221  59.946 -11.081  1.00  0.00    -0.508 OA
ATOM      9  H   UNL     1      -2.662  59.125 -10.879  1.00  0.00     0.293 HD
ENDBRANCH   4   8
BRANCH   5  10
ATOM     10  C   UNL     1      -1.364  62.008 -10.089  1.00  0.00     0.017 C 
ATOM     11  C   UNL     1      -1.165  63.454  -9.619  1.00  0.00     0.012 C 
ATOM     12  C   UNL     1      -0.087  61.177  -9.913  1.00  0.00     0.012 C 
ENDBRANCH   5  10
TORSDOF 2
ENDMDL
MODEL 4
REMARK VINA RESULT:    -5.265      1.179      4.064
REMARK INTER + INTRA:          -5.923
REMARK INTER:                  -5.730
REMARK INTRA:                  -0.193
REMARK UNBOUND:                -0.196
REMARK SMILES Cc1ccc(C(C)C)c(O)c1
REMARK SMILES IDX 1 1 2 2 11 3 9 4 5 5 4 6 3 7 10 8 6 10 7 11 8 12
REMARK H PARENT 10 9
REMARK Flexibility Score: inf
ROOT
ATOM      1  C   UNL     1      -4.891  60.234 -14.892  1.00  0.00     0.044 C 
ATOM      2  C   UNL     1      -3.894  60.768 -13.906  1.00  0.00    -0.047 A 
ATOM      3  C   UNL     1      -2.948  61.721 -14.304  1.00  0.00     0.049 A 
ATOM      4  C   UNL     1      -2.035  62.254 -13.381  1.00  0.00     0.119 A 
ATOM      5  C   UNL     1      -2.073  61.837 -12.029  1.00  0.00    -0.004 A 
ATOM      6  C   UNL     1      -3.042  60.894 -11.638  1.00  0.00     0.008 A 
ATOM      7  C   UNL     1      -3.945  60.369 -12.565  1.00  0.00     0.004 A 
ENDROOT
BRANCH   4   8
ATOM      8  O   UNL     1      -1.099  63.193 -13.811  1.00  0.00    -0.508 OA
ATOM      9  H   UNL     1      -0.466  63.002 -14.579  1.00  0.00     0.293 HD
ENDBRANCH   4   8
BRANCH   5  10
ATOM     10  C   UNL     1      -1.109  62.378 -10.980  1.00  0.00     0.017 C 
ATOM     11  C   UNL     1      -0.767  61.321  -9.923  1.00  0.00     0.012 C 
ATOM     12  C   UNL     1      -1.631  63.669 -10.338  1.00  0.00     0.012 C 
ENDBRANCH   5  10
TORSDOF 2
ENDMDL
MODEL 5
REMARK VINA RESULT:    -5.135     12.688     15.379
REMARK INTER + INTRA:          -5.782
REMARK INTER:                  -5.591
REMARK INTRA:                  -0.191
REMARK UNBOUND:                -0.196
REMARK SMILES Cc1ccc(C(C)C)c(O)c1
REMARK SMILES IDX 1 1 2 2 11 3 9 4 5 5 4 6 3 7 10 8 6 10 7 11 8 12
REMARK H PARENT 10 9
REMARK Flexibility Score: inf
ROOT
ATOM      1  C   UNL     1      -6.562  68.944 -27.474  1.00  0.00     0.044 C 
ATOM      2  C   UNL     1      -5.526  68.487 -26.489  1.00  0.00    -0.047 A 
ATOM      3  C   UNL     1      -4.425  67.736 -26.920  1.00  0.00     0.049 A 
ATOM      4  C   UNL     1      -3.433  67.334 -26.012  1.00  0.00     0.119 A 
ATOM      5  C   UNL     1      -3.533  67.698 -24.648  1.00  0.00    -0.004 A 
ATOM      6  C   UNL     1      -4.635  68.470 -24.233  1.00  0.00     0.008 A 
ATOM      7  C   UNL     1      -5.617  68.864 -25.144  1.00  0.00     0.004 A 
ENDROOT
BRANCH   4   8
ATOM      8  O   UNL     1      -2.355  66.579 -26.471  1.00  0.00    -0.508 OA
ATOM      9  H   UNL     1      -2.078  66.579 -27.445  1.00  0.00     0.293 HD
ENDBRANCH   4   8
BRANCH   5  10
ATOM     10  C   UNL     1      -2.489  67.293 -23.615  1.00  0.00     0.017 C 
ATOM     11  C   UNL     1      -3.049  66.283 -22.607  1.00  0.00     0.012 C 
ATOM     12  C   UNL     1      -1.879  68.512 -22.912  1.00  0.00     0.012 C 
ENDBRANCH   5  10
TORSDOF 2
ENDMDL
MODEL 6
REMARK VINA RESULT:    -5.088     11.096     13.320
REMARK INTER + INTRA:          -5.731
REMARK INTER:                  -5.553
REMARK INTRA:                  -0.178
REMARK UNBOUND:                -0.196
REMARK SMILES Cc1ccc(C(C)C)c(O)c1
REMARK SMILES IDX 1 1 2 2 11 3 9 4 5 5 4 6 3 7 10 8 6 10 7 11 8 12
REMARK H PARENT 10 9
REMARK Flexibility Score: inf
ROOT
ATOM      1  C   UNL     1      -2.867  66.984 -26.080  1.00  0.00     0.044 C 
ATOM      2  C   UNL     1      -3.274  67.419 -24.703  1.00  0.00    -0.047 A 
ATOM      3  C   UNL     1      -4.481  68.103 -24.506  1.00  0.00     0.049 A 
ATOM      4  C   UNL     1      -4.888  68.483 -23.218  1.00  0.00     0.119 A 
ATOM      5  C   UNL     1      -4.082  68.164 -22.099  1.00  0.00    -0.004 A 
ATOM      6  C   UNL     1      -2.882  67.458 -22.309  1.00  0.00     0.008 A 
ATOM      7  C   UNL     1      -2.486  67.086 -23.595  1.00  0.00     0.004 A 
ENDROOT
BRANCH   4   8
ATOM      8  O   UNL     1      -6.089  69.172 -23.058  1.00  0.00    -0.508 OA
ATOM      9  H   UNL     1      -6.984  68.696 -23.071  1.00  0.00     0.293 HD
ENDBRANCH   4   8
BRANCH   5  10
ATOM     10  C   UNL     1      -4.469  68.548 -20.677  1.00  0.00     0.017 C 
ATOM     11  C   UNL     1      -3.237  68.746 -19.786  1.00  0.00     0.012 C 
ATOM     12  C   UNL     1      -5.453  67.545 -20.063  1.00  0.00     0.012 C 
ENDBRANCH   5  10
TORSDOF 2
ENDMDL
MODEL 7
REMARK VINA RESULT:    -5.085     10.651     12.402
REMARK INTER + INTRA:          -5.728
REMARK INTER:                  -5.541
REMARK INTRA:                  -0.187
REMARK UNBOUND:                -0.196
REMARK SMILES Cc1ccc(C(C)C)c(O)c1
REMARK SMILES IDX 1 1 2 2 11 3 9 4 5 5 4 6 3 7 10 8 6 10 7 11 8 12
REMARK H PARENT 10 9
REMARK Flexibility Score: inf
ROOT
ATOM      1  C   UNL     1      -7.957  66.989 -18.604  1.00  0.00     0.044 C 
ATOM      2  C   UNL     1      -7.184  67.436 -19.810  1.00  0.00    -0.047 A 
ATOM      3  C   UNL     1      -5.910  68.000 -19.662  1.00  0.00     0.049 A 
ATOM      4  C   UNL     1      -5.163  68.387 -20.786  1.00  0.00     0.119 A 
ATOM      5  C   UNL     1      -5.692  68.198 -22.085  1.00  0.00    -0.004 A 
ATOM      6  C   UNL     1      -6.964  67.611 -22.219  1.00  0.00     0.008 A 
ATOM      7  C   UNL     1      -7.700  67.230 -21.095  1.00  0.00     0.004 A 
ENDROOT
BRANCH   4   8
ATOM      8  O   UNL     1      -3.903  68.955 -20.605  1.00  0.00    -0.508 OA
ATOM      9  H   UNL     1      -3.245  69.049 -21.369  1.00  0.00     0.293 HD
ENDBRANCH   4   8
BRANCH   5  10
ATOM     10  C   UNL     1      -4.931  68.597 -23.343  1.00  0.00     0.017 C 
ATOM     11  C   UNL     1      -5.879  69.011 -24.475  1.00  0.00     0.012 C 
ATOM     12  C   UNL     1      -3.960  67.499 -23.795  1.00  0.00     0.012 C 
ENDBRANCH   5  10
TORSDOF 2
ENDMDL
MODEL 8
REMARK VINA RESULT:    -4.983     10.554     13.023
REMARK INTER + INTRA:          -5.617
REMARK INTER:                  -5.425
REMARK INTRA:                  -0.191
REMARK UNBOUND:                -0.196
REMARK SMILES Cc1ccc(C(C)C)c(O)c1
REMARK SMILES IDX 1 1 2 2 11 3 9 4 5 5 4 6 3 7 10 8 6 10 7 11 8 12
REMARK H PARENT 10 9
REMARK Flexibility Score: inf
ROOT
ATOM      1  C   UNL     1      -5.688  69.037 -24.995  1.00  0.00     0.044 C 
ATOM      2  C   UNL     1      -4.832  68.711 -23.806  1.00  0.00    -0.047 A 
ATOM      3  C   UNL     1      -3.447  68.558 -23.953  1.00  0.00     0.049 A 
ATOM      4  C   UNL     1      -2.634  68.290 -22.841  1.00  0.00     0.119 A 
ATOM      5  C   UNL     1      -3.210  68.183 -21.553  1.00  0.00    -0.004 A 
ATOM      6  C   UNL     1      -4.600  68.360 -21.417  1.00  0.00     0.008 A 
ATOM      7  C   UNL     1      -5.401  68.626 -22.530  1.00  0.00     0.004 A 
ENDROOT
BRANCH   4   8
ATOM      8  O   UNL     1      -1.261  68.132 -23.023  1.00  0.00    -0.508 OA
ATOM      9  H   UNL     1      -0.607  68.216 -22.254  1.00  0.00     0.293 HD
ENDBRANCH   4   8
BRANCH   5  10
ATOM     10  C   UNL     1      -2.381  67.893 -20.309  1.00  0.00     0.017 C 
ATOM     11  C   UNL     1      -2.875  66.641 -19.574  1.00  0.00     0.012 C 
ATOM     12  C   UNL     1      -2.315  69.106 -19.372  1.00  0.00     0.012 C 
ENDBRANCH   5  10
TORSDOF 2
ENDMDL
MODEL 9
REMARK VINA RESULT:    -4.964     10.090     12.456
REMARK INTER + INTRA:          -5.596
REMARK INTER:                  -5.405
REMARK INTRA:                  -0.191
REMARK UNBOUND:                -0.196
REMARK SMILES Cc1ccc(C(C)C)c(O)c1
REMARK SMILES IDX 1 1 2 2 11 3 9 4 5 5 4 6 3 7 10 8 6 10 7 11 8 12
REMARK H PARENT 10 9
REMARK Flexibility Score: inf
ROOT
ATOM      1  C   UNL     1      -8.464  68.850 -21.987  1.00  0.00     0.044 C 
ATOM      2  C   UNL     1      -7.031  68.593 -21.624  1.00  0.00    -0.047 A 
ATOM      3  C   UNL     1      -6.030  68.666 -22.602  1.00  0.00     0.049 A 
ATOM      4  C   UNL     1      -4.683  68.464 -22.265  1.00  0.00     0.119 A 
ATOM      5  C   UNL     1      -4.323  68.193 -20.923  1.00  0.00    -0.004 A 
ATOM      6  C   UNL     1      -5.336  68.142 -19.948  1.00  0.00     0.008 A 
ATOM      7  C   UNL     1      -6.674  68.344 -20.294  1.00  0.00     0.004 A 
ENDROOT
BRANCH   4   8
ATOM      8  O   UNL     1      -3.713  68.533 -23.264  1.00  0.00    -0.508 OA
ATOM      9  H   UNL     1      -3.916  68.284 -24.225  1.00  0.00     0.293 HD
ENDBRANCH   4   8
BRANCH   5  10
ATOM     10  C   UNL     1      -2.879  67.963 -20.496  1.00  0.00     0.017 C 
ATOM     11  C   UNL     1      -2.685  66.578 -19.868  1.00  0.00     0.012 C 
ATOM     12  C   UNL     1      -2.375  69.077 -19.570  1.00  0.00     0.012 C 
ENDBRANCH   5  10
TORSDOF 2
ENDMDL
