MODEL 1
REMARK VINA RESULT:    35.168      0.000      0.000
REMARK INTER + INTRA:          44.436
REMARK INTER:                  44.420
REMARK INTRA:                   0.016
REMARK UNBOUND:                 0.016
REMARK SMILES COc1cc(O)c2c(=O)c(OC)c(-c3ccc(O)c(O)c3)oc2c1
REMARK SMILES IDX 3 1 4 2 5 3 7 4 23 5 24 6 22 7 13 8 10 9 8 10 9 11 2 12 1 13
REMARK SMILES IDX 6 14 14 16 21 17 15 18 19 19 16 20 17 21 20 22 18 24 11 26
REMARK SMILES IDX 12 27
REMARK H PARENT 6 15 20 23 18 25
REMARK Flexibility Score: inf
ROOT
ATOM      1  C   UNL     1     -23.300   1.451 -13.889  1.00  0.00     0.126 A 
ATOM      2  C   UNL     1     -24.240   2.397 -13.453  1.00  0.00     0.093 A 
ATOM      3  C   UNL     1     -23.936   3.764 -13.431  1.00  0.00     0.134 A 
ATOM      4  C   UNL     1     -22.677   4.216 -13.929  1.00  0.00     0.111 A 
ATOM      5  C   UNL     1     -21.730   3.246 -14.338  1.00  0.00     0.146 A 
ATOM      6  C   UNL     1     -22.045   1.886 -14.312  1.00  0.00     0.094 A 
ATOM      7  O   UNL     1     -20.526   3.609 -14.759  1.00  0.00    -0.452 OA
ATOM      8  C   UNL     1     -20.129   4.872 -14.847  1.00  0.00     0.180 A 
ATOM      9  C   UNL     1     -21.022   5.917 -14.541  1.00  0.00     0.210 A 
ATOM     10  C   UNL     1     -22.320   5.577 -14.089  1.00  0.00     0.239 A 
ATOM     11  O   UNL     1     -23.163   6.485 -13.877  1.00  0.00    -0.285 OA
ENDROOT
BRANCH   1  12
ATOM     12  O   UNL     1     -23.568   0.074 -13.908  1.00  0.00    -0.496 OA
ATOM     13  C   UNL     1     -23.825  -0.679 -15.088  1.00  0.00     0.278 C 
ENDBRANCH   1  12
BRANCH   3  14
ATOM     14  O   UNL     1     -24.902   4.610 -12.878  1.00  0.00    -0.507 OA
ATOM     15  H   UNL     1     -24.787   5.604 -12.753  1.00  0.00     0.293 HD
ENDBRANCH   3  14
BRANCH   8  16
ATOM     16  C   UNL     1     -18.744   5.132 -15.300  1.00  0.00     0.025 A 
ATOM     17  C   UNL     1     -18.313   4.758 -16.584  1.00  0.00     0.062 A 
ATOM     18  C   UNL     1     -17.859   5.818 -14.458  1.00  0.00     0.016 A 
ATOM     19  C   UNL     1     -17.007   5.029 -17.013  1.00  0.00     0.158 A 
ATOM     20  C   UNL     1     -16.555   6.090 -14.875  1.00  0.00     0.051 A 
ATOM     21  C   UNL     1     -16.114   5.700 -16.143  1.00  0.00     0.157 A 
BRANCH  19  22
ATOM     22  O   UNL     1     -16.646   4.625 -18.300  1.00  0.00    -0.504 OA
ATOM     23  H   UNL     1     -15.833   4.063 -18.507  1.00  0.00     0.293 HD
ENDBRANCH  19  22
BRANCH  21  24
ATOM     24  O   UNL     1     -14.796   5.996 -16.497  1.00  0.00    -0.504 OA
ATOM     25  H   UNL     1     -14.483   6.128 -17.448  1.00  0.00     0.293 HD
ENDBRANCH  21  24
ENDBRANCH   8  16
BRANCH   9  26
ATOM     26  O   UNL     1     -20.587   7.243 -14.736  1.00  0.00    -0.490 OA
ATOM     27  C   UNL     1     -20.027   8.108 -13.753  1.00  0.00     0.278 C 
ENDBRANCH   9  26
TORSDOF 6
ENDMDL
MODEL 2
REMARK VINA RESULT:    37.115      2.539      3.395
REMARK INTER + INTRA:          46.895
REMARK INTER:                  47.348
REMARK INTRA:                  -0.453
REMARK UNBOUND:                 0.016
REMARK SMILES COc1cc(O)c2c(=O)c(OC)c(-c3ccc(O)c(O)c3)oc2c1
REMARK SMILES IDX 3 1 4 2 5 3 7 4 23 5 24 6 22 7 13 8 10 9 8 10 9 11 2 12 1 13
REMARK SMILES IDX 6 14 14 16 21 17 15 18 19 19 16 20 17 21 20 22 18 24 11 26
REMARK SMILES IDX 12 27
REMARK H PARENT 6 15 20 23 18 25
REMARK Flexibility Score: inf
ROOT
ATOM      1  C   UNL     1     -23.814   0.064 -14.813  1.00  0.00     0.126 A 
ATOM      2  C   UNL     1     -23.725   0.353 -13.442  1.00  0.00     0.093 A 
ATOM      3  C   UNL     1     -23.216   1.577 -12.992  1.00  0.00     0.134 A 
ATOM      4  C   UNL     1     -22.850   2.581 -13.938  1.00  0.00     0.111 A 
ATOM      5  C   UNL     1     -22.920   2.263 -15.315  1.00  0.00     0.146 A 
ATOM      6  C   UNL     1     -23.393   1.019 -15.737  1.00  0.00     0.094 A 
ATOM      7  O   UNL     1     -22.541   3.140 -16.235  1.00  0.00    -0.452 OA
ATOM      8  C   UNL     1     -22.098   4.357 -15.948  1.00  0.00     0.180 A 
ATOM      9  C   UNL     1     -22.065   4.803 -14.613  1.00  0.00     0.210 A 
ATOM     10  C   UNL     1     -22.462   3.900 -13.597  1.00  0.00     0.239 A 
ATOM     11  O   UNL     1     -22.513   4.290 -12.403  1.00  0.00    -0.285 OA
ENDROOT
BRANCH   1  12
ATOM     12  O   UNL     1     -24.305  -1.159 -15.296  1.00  0.00    -0.496 OA
ATOM     13  C   UNL     1     -24.928  -1.331 -16.565  1.00  0.00     0.278 C 
ENDBRANCH   1  12
BRANCH   3  14
ATOM     14  O   UNL     1     -23.069   1.722 -11.609  1.00  0.00    -0.507 OA
ATOM     15  H   UNL     1     -22.251   2.102 -11.157  1.00  0.00     0.293 HD
ENDBRANCH   3  14
BRANCH   8  16
ATOM     16  C   UNL     1     -21.675   5.222 -17.074  1.00  0.00     0.025 A 
ATOM     17  C   UNL     1     -20.383   5.130 -17.620  1.00  0.00     0.062 A 
ATOM     18  C   UNL     1     -22.596   6.108 -17.649  1.00  0.00     0.016 A 
ATOM     19  C   UNL     1     -19.999   5.936 -18.700  1.00  0.00     0.158 A 
ATOM     20  C   UNL     1     -22.222   6.917 -18.723  1.00  0.00     0.051 A 
ATOM     21  C   UNL     1     -20.931   6.846 -19.255  1.00  0.00     0.157 A 
BRANCH  19  22
ATOM     22  O   UNL     1     -18.699   5.795 -19.188  1.00  0.00    -0.504 OA
ATOM     23  H   UNL     1     -18.059   6.565 -19.320  1.00  0.00     0.293 HD
ENDBRANCH  19  22
BRANCH  21  24
ATOM     24  O   UNL     1     -20.617   7.686 -20.326  1.00  0.00    -0.504 OA
ATOM     25  H   UNL     1     -21.037   8.592 -20.473  1.00  0.00     0.293 HD
ENDBRANCH  21  24
ENDBRANCH   8  16
BRANCH   9  26
ATOM     26  O   UNL     1     -21.674   6.134 -14.364  1.00  0.00    -0.490 OA
ATOM     27  C   UNL     1     -20.349   6.602 -14.134  1.00  0.00     0.278 C 
ENDBRANCH   9  26
TORSDOF 6
ENDMDL
MODEL 3
REMARK VINA RESULT:    37.137      1.336      6.660
REMARK INTER + INTRA:          46.923
REMARK INTER:                  46.203
REMARK INTRA:                   0.720
REMARK UNBOUND:                 0.016
REMARK SMILES COc1cc(O)c2c(=O)c(OC)c(-c3ccc(O)c(O)c3)oc2c1
REMARK SMILES IDX 3 1 4 2 5 3 7 4 23 5 24 6 22 7 13 8 10 9 8 10 9 11 2 12 1 13
REMARK SMILES IDX 6 14 14 16 21 17 15 18 19 19 16 20 17 21 20 22 18 24 11 26
REMARK SMILES IDX 12 27
REMARK H PARENT 6 15 20 23 18 25
REMARK Flexibility Score: inf
ROOT
ATOM      1  C   UNL     1     -17.522   5.808 -15.239  1.00  0.00     0.126 A 
ATOM      2  C   UNL     1     -18.100   7.080 -15.110  1.00  0.00     0.093 A 
ATOM      3  C   UNL     1     -19.467   7.230 -14.844  1.00  0.00     0.134 A 
ATOM      4  C   UNL     1     -20.276   6.074 -14.628  1.00  0.00     0.111 A 
ATOM      5  C   UNL     1     -19.683   4.799 -14.791  1.00  0.00     0.146 A 
ATOM      6  C   UNL     1     -18.325   4.678 -15.095  1.00  0.00     0.094 A 
ATOM      7  O   UNL     1     -20.401   3.694 -14.654  1.00  0.00    -0.452 OA
ATOM      8  C   UNL     1     -21.691   3.691 -14.344  1.00  0.00     0.180 A 
ATOM      9  C   UNL     1     -22.358   4.903 -14.081  1.00  0.00     0.210 A 
ATOM     10  C   UNL     1     -21.630   6.110 -14.214  1.00  0.00     0.239 A 
ATOM     11  O   UNL     1     -22.176   7.202 -13.916  1.00  0.00    -0.285 OA
ENDROOT
BRANCH   1  12
ATOM     12  O   UNL     1     -16.159   5.624 -15.520  1.00  0.00    -0.496 OA
ATOM     13  C   UNL     1     -15.121   5.699 -14.549  1.00  0.00     0.278 C 
ENDBRANCH   1  12
BRANCH   3  14
ATOM     14  O   UNL     1     -19.963   8.538 -14.842  1.00  0.00    -0.507 OA
ATOM     15  H   UNL     1     -20.912   8.789 -14.609  1.00  0.00     0.293 HD
ENDBRANCH   3  14
BRANCH   8  16
ATOM     16  C   UNL     1     -22.379   2.383 -14.258  1.00  0.00     0.025 A 
ATOM     17  C   UNL     1     -22.993   1.805 -15.382  1.00  0.00     0.062 A 
ATOM     18  C   UNL     1     -22.368   1.674 -13.049  1.00  0.00     0.016 A 
ATOM     19  C   UNL     1     -23.621   0.555 -15.297  1.00  0.00     0.158 A 
ATOM     20  C   UNL     1     -22.994   0.430 -12.953  1.00  0.00     0.051 A 
ATOM     21  C   UNL     1     -23.626  -0.138 -14.063  1.00  0.00     0.157 A 
BRANCH  19  22
ATOM     22  O   UNL     1     -24.215   0.044 -16.452  1.00  0.00    -0.504 OA
ATOM     23  H   UNL     1     -25.193   0.152 -16.679  1.00  0.00     0.293 HD
ENDBRANCH  19  22
BRANCH  21  24
ATOM     24  O   UNL     1     -24.240  -1.382 -13.900  1.00  0.00    -0.504 OA
ATOM     25  H   UNL     1     -24.128  -2.155 -14.540  1.00  0.00     0.293 HD
ENDBRANCH  21  24
ENDBRANCH   8  16
BRANCH   9  26
ATOM     26  O   UNL     1     -23.704   4.846 -13.666  1.00  0.00    -0.490 OA
ATOM     27  C   UNL     1     -24.260   3.959 -12.701  1.00  0.00     0.278 C 
ENDBRANCH   9  26
TORSDOF 6
ENDMDL
MODEL 4
REMARK VINA RESULT:    37.303      4.973      8.518
REMARK INTER + INTRA:          47.133
REMARK INTER:                  47.612
REMARK INTRA:                  -0.479
REMARK UNBOUND:                 0.016
REMARK SMILES COc1cc(O)c2c(=O)c(OC)c(-c3ccc(O)c(O)c3)oc2c1
REMARK SMILES IDX 3 1 4 2 5 3 7 4 23 5 24 6 22 7 13 8 10 9 8 10 9 11 2 12 1 13
REMARK SMILES IDX 6 14 14 16 21 17 15 18 19 19 16 20 17 21 20 22 18 24 11 26
REMARK SMILES IDX 12 27
REMARK H PARENT 6 15 20 23 18 25
REMARK Flexibility Score: inf
ROOT
ATOM      1  C   UNL     1     -21.326  10.874 -20.776  1.00  0.00     0.126 A 
ATOM      2  C   UNL     1     -20.144  10.658 -21.502  1.00  0.00     0.093 A 
ATOM      3  C   UNL     1     -19.387   9.494 -21.323  1.00  0.00     0.134 A 
ATOM      4  C   UNL     1     -19.857   8.473 -20.444  1.00  0.00     0.111 A 
ATOM      5  C   UNL     1     -21.035   8.719 -19.698  1.00  0.00     0.146 A 
ATOM      6  C   UNL     1     -21.750   9.907 -19.866  1.00  0.00     0.094 A 
ATOM      7  O   UNL     1     -21.487   7.827 -18.828  1.00  0.00    -0.452 OA
ATOM      8  C   UNL     1     -20.901   6.658 -18.606  1.00  0.00     0.180 A 
ATOM      9  C   UNL     1     -19.769   6.280 -19.353  1.00  0.00     0.210 A 
ATOM     10  C   UNL     1     -19.252   7.201 -20.295  1.00  0.00     0.239 A 
ATOM     11  O   UNL     1     -18.287   6.866 -21.029  1.00  0.00    -0.285 OA
ENDROOT
BRANCH   1  12
ATOM     12  O   UNL     1     -22.099  12.036 -20.920  1.00  0.00    -0.496 OA
ATOM     13  C   UNL     1     -23.482  12.127 -20.597  1.00  0.00     0.278 C 
ENDBRANCH   1  12
BRANCH   3  14
ATOM     14  O   UNL     1     -18.173   9.426 -22.014  1.00  0.00    -0.507 OA
ATOM     15  H   UNL     1     -17.959   8.747 -22.728  1.00  0.00     0.293 HD
ENDBRANCH   3  14
BRANCH   8  16
ATOM     16  C   UNL     1     -21.494   5.771 -17.579  1.00  0.00     0.025 A 
ATOM     17  C   UNL     1     -21.203   5.937 -16.214  1.00  0.00     0.062 A 
ATOM     18  C   UNL     1     -22.411   4.784 -17.964  1.00  0.00     0.016 A 
ATOM     19  C   UNL     1     -21.787   5.108 -15.247  1.00  0.00     0.158 A 
ATOM     20  C   UNL     1     -22.996   3.952 -17.009  1.00  0.00     0.051 A 
ATOM     21  C   UNL     1     -22.692   4.098 -15.652  1.00  0.00     0.157 A 
BRANCH  19  22
ATOM     22  O   UNL     1     -21.448   5.327 -13.910  1.00  0.00    -0.504 OA
ATOM     23  H   UNL     1     -20.726   5.966 -13.609  1.00  0.00     0.293 HD
ENDBRANCH  19  22
BRANCH  21  24
ATOM     24  O   UNL     1     -23.306   3.229 -14.746  1.00  0.00    -0.504 OA
ATOM     25  H   UNL     1     -24.239   2.862 -14.861  1.00  0.00     0.293 HD
ENDBRANCH  21  24
ENDBRANCH   8  16
BRANCH   9  26
ATOM     26  O   UNL     1     -19.234   4.992 -19.148  1.00  0.00    -0.490 OA
ATOM     27  C   UNL     1     -18.158   4.646 -18.282  1.00  0.00     0.278 C 
ENDBRANCH   9  26
TORSDOF 6
ENDMDL
MODEL 5
REMARK VINA RESULT:    37.886      2.600      3.165
REMARK INTER + INTRA:          47.869
REMARK INTER:                  48.326
REMARK INTRA:                  -0.458
REMARK UNBOUND:                 0.016
REMARK SMILES COc1cc(O)c2c(=O)c(OC)c(-c3ccc(O)c(O)c3)oc2c1
REMARK SMILES IDX 3 1 4 2 5 3 7 4 23 5 24 6 22 7 13 8 10 9 8 10 9 11 2 12 1 13
REMARK SMILES IDX 6 14 14 16 21 17 15 18 19 19 16 20 17 21 20 22 18 24 11 26
REMARK SMILES IDX 12 27
REMARK H PARENT 6 15 20 23 18 25
REMARK Flexibility Score: inf
ROOT
ATOM      1  C   UNL     1     -23.630   2.142 -14.063  1.00  0.00     0.126 A 
ATOM      2  C   UNL     1     -23.316   2.722 -12.824  1.00  0.00     0.093 A 
ATOM      3  C   UNL     1     -22.452   3.821 -12.737  1.00  0.00     0.134 A 
ATOM      4  C   UNL     1     -21.936   4.410 -13.931  1.00  0.00     0.111 A 
ATOM      5  C   UNL     1     -22.240   3.795 -15.169  1.00  0.00     0.146 A 
ATOM      6  C   UNL     1     -23.073   2.675 -15.224  1.00  0.00     0.094 A 
ATOM      7  O   UNL     1     -21.743   4.269 -16.303  1.00  0.00    -0.452 OA
ATOM      8  C   UNL     1     -20.962   5.339 -16.370  1.00  0.00     0.180 A 
ATOM      9  C   UNL     1     -20.664   6.073 -15.205  1.00  0.00     0.210 A 
ATOM     10  C   UNL     1     -21.174   5.603 -13.971  1.00  0.00     0.239 A 
ATOM     11  O   UNL     1     -20.988   6.275 -12.925  1.00  0.00    -0.285 OA
ENDROOT
BRANCH   1  12
ATOM     12  O   UNL     1     -24.480   1.032 -14.182  1.00  0.00    -0.496 OA
ATOM     13  C   UNL     1     -24.062  -0.259 -14.612  1.00  0.00     0.278 C 
ENDBRANCH   1  12
BRANCH   3  14
ATOM     14  O   UNL     1     -22.120   4.255 -11.450  1.00  0.00    -0.507 OA
ATOM     15  H   UNL     1     -22.052   3.653 -10.644  1.00  0.00     0.293 HD
ENDBRANCH   3  14
BRANCH   8  16
ATOM     16  C   UNL     1     -20.449   5.739 -17.701  1.00  0.00     0.025 A 
ATOM     17  C   UNL     1     -21.062   6.763 -18.442  1.00  0.00     0.062 A 
ATOM     18  C   UNL     1     -19.294   5.129 -18.208  1.00  0.00     0.016 A 
ATOM     19  C   UNL     1     -20.556   7.151 -19.690  1.00  0.00     0.158 A 
ATOM     20  C   UNL     1     -18.783   5.506 -19.451  1.00  0.00     0.051 A 
ATOM     21  C   UNL     1     -19.403   6.509 -20.203  1.00  0.00     0.157 A 
BRANCH  19  22
ATOM     22  O   UNL     1     -21.218   8.172 -20.373  1.00  0.00    -0.504 OA
ATOM     23  H   UNL     1     -22.030   8.026 -20.956  1.00  0.00     0.293 HD
ENDBRANCH  19  22
BRANCH  21  24
ATOM     24  O   UNL     1     -18.847   6.835 -21.442  1.00  0.00    -0.504 OA
ATOM     25  H   UNL     1     -19.070   6.359 -22.304  1.00  0.00     0.293 HD
ENDBRANCH  21  24
ENDBRANCH   8  16
BRANCH   9  26
ATOM     26  O   UNL     1     -19.906   7.254 -15.337  1.00  0.00    -0.490 OA
ATOM     27  C   UNL     1     -18.506   7.393 -15.122  1.00  0.00     0.278 C 
ENDBRANCH   9  26
TORSDOF 6
ENDMDL
MODEL 6
REMARK VINA RESULT:    38.120      1.737      7.196
REMARK INTER + INTRA:          48.164
REMARK INTER:                  48.154
REMARK INTRA:                   0.010
REMARK UNBOUND:                 0.016
REMARK SMILES COc1cc(O)c2c(=O)c(OC)c(-c3ccc(O)c(O)c3)oc2c1
REMARK SMILES IDX 3 1 4 2 5 3 7 4 23 5 24 6 22 7 13 8 10 9 8 10 9 11 2 12 1 13
REMARK SMILES IDX 6 14 14 16 21 17 15 18 19 19 16 20 17 21 20 22 18 24 11 26
REMARK SMILES IDX 12 27
REMARK H PARENT 6 15 20 23 18 25
REMARK Flexibility Score: inf
ROOT
ATOM      1  C   UNL     1     -15.747   5.624 -15.519  1.00  0.00     0.126 A 
ATOM      2  C   UNL     1     -15.637   5.629 -16.918  1.00  0.00     0.093 A 
ATOM      3  C   UNL     1     -16.755   5.404 -17.732  1.00  0.00     0.134 A 
ATOM      4  C   UNL     1     -18.042   5.240 -17.136  1.00  0.00     0.111 A 
ATOM      5  C   UNL     1     -18.129   5.210 -15.724  1.00  0.00     0.146 A 
ATOM      6  C   UNL     1     -16.992   5.397 -14.935  1.00  0.00     0.094 A 
ATOM      7  O   UNL     1     -19.291   5.007 -15.120  1.00  0.00    -0.452 OA
ATOM      8  C   UNL     1     -20.436   4.841 -15.769  1.00  0.00     0.180 A 
ATOM      9  C   UNL     1     -20.473   4.934 -17.174  1.00  0.00     0.210 A 
ATOM     10  C   UNL     1     -19.255   5.151 -17.862  1.00  0.00     0.239 A 
ATOM     11  O   UNL     1     -19.264   5.312 -19.108  1.00  0.00    -0.285 OA
ENDROOT
BRANCH   1  12
ATOM     12  O   UNL     1     -14.644   5.830 -14.675  1.00  0.00    -0.496 OA
ATOM     13  C   UNL     1     -14.739   6.196 -13.303  1.00  0.00     0.278 C 
ENDBRANCH   1  12
BRANCH   3  14
ATOM     14  O   UNL     1     -16.519   5.322 -19.108  1.00  0.00    -0.507 OA
ATOM     15  H   UNL     1     -17.241   5.253 -19.808  1.00  0.00     0.293 HD
ENDBRANCH   3  14
BRANCH   8  16
ATOM     16  C   UNL     1     -21.656   4.588 -14.968  1.00  0.00     0.025 A 
ATOM     17  C   UNL     1     -22.190   3.295 -14.840  1.00  0.00     0.062 A 
ATOM     18  C   UNL     1     -22.257   5.645 -14.272  1.00  0.00     0.016 A 
ATOM     19  C   UNL     1     -23.331   3.061 -14.061  1.00  0.00     0.158 A 
ATOM     20  C   UNL     1     -23.395   5.423 -13.495  1.00  0.00     0.051 A 
ATOM     21  C   UNL     1     -23.945   4.142 -13.384  1.00  0.00     0.157 A 
BRANCH  19  22
ATOM     22  O   UNL     1     -23.810   1.752 -13.983  1.00  0.00    -0.504 OA
ATOM     23  H   UNL     1     -23.541   1.095 -13.264  1.00  0.00     0.293 HD
ENDBRANCH  19  22
BRANCH  21  24
ATOM     24  O   UNL     1     -25.088   3.987 -12.597  1.00  0.00    -0.504 OA
ATOM     25  H   UNL     1     -25.161   3.335 -11.830  1.00  0.00     0.293 HD
ENDBRANCH  21  24
ENDBRANCH   8  16
BRANCH   9  26
ATOM     26  O   UNL     1     -21.725   4.843 -17.815  1.00  0.00    -0.490 OA
ATOM     27  C   UNL     1     -22.840   5.708 -17.630  1.00  0.00     0.278 C 
ENDBRANCH   9  26
TORSDOF 6
ENDMDL
MODEL 7
REMARK VINA RESULT:    38.126      4.783      7.470
REMARK INTER + INTRA:          48.173
REMARK INTER:                  47.652
REMARK INTRA:                   0.521
REMARK UNBOUND:                 0.016
REMARK SMILES COc1cc(O)c2c(=O)c(OC)c(-c3ccc(O)c(O)c3)oc2c1
REMARK SMILES IDX 3 1 4 2 5 3 7 4 23 5 24 6 22 7 13 8 10 9 8 10 9 11 2 12 1 13
REMARK SMILES IDX 6 14 14 16 21 17 15 18 19 19 16 20 17 21 20 22 18 24 11 26
REMARK SMILES IDX 12 27
REMARK H PARENT 6 15 20 23 18 25
REMARK Flexibility Score: inf
ROOT
ATOM      1  C   UNL     1     -17.338   5.505 -15.417  1.00  0.00     0.126 A 
ATOM      2  C   UNL     1     -17.508   4.204 -15.917  1.00  0.00     0.093 A 
ATOM      3  C   UNL     1     -18.140   3.979 -17.146  1.00  0.00     0.134 A 
ATOM      4  C   UNL     1     -18.555   5.089 -17.942  1.00  0.00     0.111 A 
ATOM      5  C   UNL     1     -18.403   6.392 -17.409  1.00  0.00     0.146 A 
ATOM      6  C   UNL     1     -17.804   6.586 -16.162  1.00  0.00     0.094 A 
ATOM      7  O   UNL     1     -18.820   7.454 -18.083  1.00  0.00    -0.452 OA
ATOM      8  C   UNL     1     -19.380   7.388 -19.283  1.00  0.00     0.180 A 
ATOM      9  C   UNL     1     -19.505   6.147 -19.938  1.00  0.00     0.210 A 
ATOM     10  C   UNL     1     -19.072   4.985 -19.257  1.00  0.00     0.239 A 
ATOM     11  O   UNL     1     -19.103   3.872 -19.841  1.00  0.00    -0.285 OA
ENDROOT
BRANCH   1  12
ATOM     12  O   UNL     1     -16.723   5.763 -14.182  1.00  0.00    -0.496 OA
ATOM     13  C   UNL     1     -15.316   5.743 -13.965  1.00  0.00     0.278 C 
ENDBRANCH   1  12
BRANCH   3  14
ATOM     14  O   UNL     1     -18.355   2.644 -17.502  1.00  0.00    -0.507 OA
ATOM     15  H   UNL     1     -17.918   2.184 -18.286  1.00  0.00     0.293 HD
ENDBRANCH   3  14
BRANCH   8  16
ATOM     16  C   UNL     1     -19.832   8.652 -19.907  1.00  0.00     0.025 A 
ATOM     17  C   UNL     1     -21.142   9.129 -19.726  1.00  0.00     0.062 A 
ATOM     18  C   UNL     1     -18.922   9.424 -20.643  1.00  0.00     0.016 A 
ATOM     19  C   UNL     1     -21.553  10.338 -20.301  1.00  0.00     0.158 A 
ATOM     20  C   UNL     1     -19.324  10.629 -21.221  1.00  0.00     0.051 A 
ATOM     21  C   UNL     1     -20.633  11.096 -21.064  1.00  0.00     0.157 A 
BRANCH  19  22
ATOM     22  O   UNL     1     -22.870  10.748 -20.083  1.00  0.00    -0.504 OA
ATOM     23  H   UNL     1     -23.680  10.200 -20.337  1.00  0.00     0.293 HD
ENDBRANCH  19  22
BRANCH  21  24
ATOM     24  O   UNL     1     -20.973  12.305 -21.673  1.00  0.00    -0.504 OA
ATOM     25  H   UNL     1     -21.079  13.177 -21.177  1.00  0.00     0.293 HD
ENDBRANCH  21  24
ENDBRANCH   8  16
BRANCH   9  26
ATOM     26  O   UNL     1     -20.022   6.135 -21.249  1.00  0.00    -0.490 OA
ATOM     27  C   UNL     1     -19.612   6.962 -22.333  1.00  0.00     0.278 C 
ENDBRANCH   9  26
TORSDOF 6
ENDMDL
MODEL 8
REMARK VINA RESULT:    38.135      4.502      7.377
REMARK INTER + INTRA:          48.183
REMARK INTER:                  48.270
REMARK INTRA:                  -0.087
REMARK UNBOUND:                 0.016
REMARK SMILES COc1cc(O)c2c(=O)c(OC)c(-c3ccc(O)c(O)c3)oc2c1
REMARK SMILES IDX 3 1 4 2 5 3 7 4 23 5 24 6 22 7 13 8 10 9 8 10 9 11 2 12 1 13
REMARK SMILES IDX 6 14 14 16 21 17 15 18 19 19 16 20 17 21 20 22 18 24 11 26
REMARK SMILES IDX 12 27
REMARK H PARENT 6 15 20 23 18 25
REMARK Flexibility Score: inf
ROOT
ATOM      1  C   UNL     1     -20.165   9.511 -20.755  1.00  0.00     0.126 A 
ATOM      2  C   UNL     1     -20.387   8.540 -21.744  1.00  0.00     0.093 A 
ATOM      3  C   UNL     1     -20.084   7.192 -21.515  1.00  0.00     0.134 A 
ATOM      4  C   UNL     1     -19.611   6.782 -20.232  1.00  0.00     0.111 A 
ATOM      5  C   UNL     1     -19.366   7.778 -19.256  1.00  0.00     0.146 A 
ATOM      6  C   UNL     1     -19.640   9.121 -19.524  1.00  0.00     0.094 A 
ATOM      7  O   UNL     1     -18.877   7.458 -18.067  1.00  0.00    -0.452 OA
ATOM      8  C   UNL     1     -18.603   6.213 -17.697  1.00  0.00     0.180 A 
ATOM      9  C   UNL     1     -18.885   5.140 -18.564  1.00  0.00     0.210 A 
ATOM     10  C   UNL     1     -19.410   5.434 -19.845  1.00  0.00     0.239 A 
ATOM     11  O   UNL     1     -19.741   4.495 -20.613  1.00  0.00    -0.285 OA
ENDROOT
BRANCH   1  12
ATOM     12  O   UNL     1     -20.444  10.871 -20.958  1.00  0.00    -0.496 OA
ATOM     13  C   UNL     1     -21.666  11.505 -20.596  1.00  0.00     0.278 C 
ENDBRANCH   1  12
BRANCH   3  14
ATOM     14  O   UNL     1     -20.240   6.323 -22.600  1.00  0.00    -0.507 OA
ATOM     15  H   UNL     1     -19.524   5.700 -22.941  1.00  0.00     0.293 HD
ENDBRANCH   3  14
BRANCH   8  16
ATOM     16  C   UNL     1     -18.026   6.003 -16.350  1.00  0.00     0.025 A 
ATOM     17  C   UNL     1     -16.658   5.735 -16.174  1.00  0.00     0.062 A 
ATOM     18  C   UNL     1     -18.845   6.131 -15.220  1.00  0.00     0.016 A 
ATOM     19  C   UNL     1     -16.117   5.561 -14.894  1.00  0.00     0.158 A 
ATOM     20  C   UNL     1     -18.316   5.957 -13.940  1.00  0.00     0.051 A 
ATOM     21  C   UNL     1     -16.959   5.668 -13.762  1.00  0.00     0.157 A 
BRANCH  19  22
ATOM     22  O   UNL     1     -14.750   5.294 -14.795  1.00  0.00    -0.504 OA
ATOM     23  H   UNL     1     -14.229   5.330 -13.930  1.00  0.00     0.293 HD
ENDBRANCH  19  22
BRANCH  21  24
ATOM     24  O   UNL     1     -16.493   5.497 -12.456  1.00  0.00    -0.504 OA
ATOM     25  H   UNL     1     -16.507   4.618 -11.962  1.00  0.00     0.293 HD
ENDBRANCH  21  24
ENDBRANCH   8  16
BRANCH   9  26
ATOM     26  O   UNL     1     -18.663   3.829 -18.094  1.00  0.00    -0.490 OA
ATOM     27  C   UNL     1     -17.416   3.146 -18.037  1.00  0.00     0.278 C 
ENDBRANCH   9  26
TORSDOF 6
ENDMDL
