MODEL 1
REMARK VINA RESULT:    -2.960      0.000      0.000
REMARK INTER + INTRA:          -3.444
REMARK INTER:                  -3.393
REMARK INTRA:                  -0.051
REMARK UNBOUND:                -0.051
REMARK SMILES O=C([O-])c1cc(O)c(O)c(O)c1
REMARK SMILES IDX 4 1 5 2 12 3 6 4 10 5 8 6 2 7 1 8 3 9 7 10 11 12 9 14
REMARK H PARENT 7 11 11 13 9 15
REMARK Flexibility Score: inf
ROOT
ATOM      1  C   UNL     1       8.473  17.009  38.930  1.00  0.00     0.005 A 
ATOM      2  C   UNL     1       8.525  15.901  39.791  1.00  0.00     0.060 A 
ATOM      3  C   UNL     1       8.067  18.253  39.442  1.00  0.00     0.060 A 
ATOM      4  C   UNL     1       8.178  16.029  41.140  1.00  0.00     0.162 A 
ATOM      5  C   UNL     1       7.718  18.389  40.793  1.00  0.00     0.162 A 
ATOM      6  C   UNL     1       7.773  17.275  41.647  1.00  0.00     0.200 A 
ENDROOT
BRANCH   1   7
ATOM      7  C   UNL     1       8.843  16.864  37.504  1.00  0.00     0.072 C 
ATOM      8  O   UNL     1       9.251  17.856  36.843  1.00  0.00    -0.545 OA
ATOM      9  O   UNL     1       8.743  15.630  36.871  1.00  0.00    -0.545 OA
ENDBRANCH   1   7
BRANCH   4  10
ATOM     10  O   UNL     1       8.242  14.903  41.963  1.00  0.00    -0.504 OA
ATOM     11  H   UNL     1       7.900  13.998  41.664  1.00  0.00     0.293 HD
ENDBRANCH   4  10
BRANCH   5  12
ATOM     12  O   UNL     1       7.317  19.629  41.289  1.00  0.00    -0.504 OA
ATOM     13  H   UNL     1       7.324  19.831  42.282  1.00  0.00     0.293 HD
ENDBRANCH   5  12
BRANCH   6  14
ATOM     14  O   UNL     1       7.428  17.393  42.993  1.00  0.00    -0.502 OA
ATOM     15  H   UNL     1       6.981  18.222  43.366  1.00  0.00     0.293 HD
ENDBRANCH   6  14
TORSDOF 4
ENDMDL
MODEL 2
REMARK VINA RESULT:    -2.939      0.037      2.429
REMARK INTER + INTRA:          -3.420
REMARK INTER:                  -3.368
REMARK INTRA:                  -0.051
REMARK UNBOUND:                -0.051
REMARK SMILES O=C([O-])c1cc(O)c(O)c(O)c1
REMARK SMILES IDX 4 1 5 2 12 3 6 4 10 5 8 6 2 7 1 8 3 9 7 10 11 12 9 14
REMARK H PARENT 7 11 11 13 9 15
REMARK Flexibility Score: inf
ROOT
ATOM      1  C   UNL     1       8.502  17.018  38.925  1.00  0.00     0.005 A 
ATOM      2  C   UNL     1       8.088  18.255  39.444  1.00  0.00     0.060 A 
ATOM      3  C   UNL     1       8.553  15.903  39.778  1.00  0.00     0.060 A 
ATOM      4  C   UNL     1       7.730  18.381  40.790  1.00  0.00     0.162 A 
ATOM      5  C   UNL     1       8.196  16.021  41.129  1.00  0.00     0.162 A 
ATOM      6  C   UNL     1       7.782  17.263  41.639  1.00  0.00     0.200 A 
ENDROOT
BRANCH   1   7
ATOM      7  C   UNL     1       8.879  16.895  37.499  1.00  0.00     0.072 C 
ATOM      8  O   UNL     1       9.257  17.905  36.847  1.00  0.00    -0.545 OA
ATOM      9  O   UNL     1       8.819  15.664  36.857  1.00  0.00    -0.545 OA
ENDBRANCH   1   7
BRANCH   4  10
ATOM     10  O   UNL     1       7.324  19.628  41.267  1.00  0.00    -0.504 OA
ATOM     11  H   UNL     1       6.348  19.861  41.404  1.00  0.00     0.293 HD
ENDBRANCH   4  10
BRANCH   5  12
ATOM     12  O   UNL     1       8.249  14.906  41.965  1.00  0.00    -0.504 OA
ATOM     13  H   UNL     1       8.110  13.968  41.610  1.00  0.00     0.293 HD
ENDBRANCH   5  12
BRANCH   6  14
ATOM     14  O   UNL     1       7.424  17.397  42.980  1.00  0.00    -0.502 OA
ATOM     15  H   UNL     1       8.113  17.453  43.721  1.00  0.00     0.293 HD
ENDBRANCH   6  14
TORSDOF 4
ENDMDL
MODEL 3
REMARK VINA RESULT:    -2.865      1.422      4.600
REMARK INTER + INTRA:          -3.335
REMARK INTER:                  -3.287
REMARK INTRA:                  -0.048
REMARK UNBOUND:                -0.051
REMARK SMILES O=C([O-])c1cc(O)c(O)c(O)c1
REMARK SMILES IDX 4 1 5 2 12 3 6 4 10 5 8 6 2 7 1 8 3 9 7 10 11 12 9 14
REMARK H PARENT 7 11 11 13 9 15
REMARK Flexibility Score: inf
ROOT
ATOM      1  C   UNL     1       7.427  18.404  41.600  1.00  0.00     0.005 A 
ATOM      2  C   UNL     1       7.774  18.554  40.248  1.00  0.00     0.060 A 
ATOM      3  C   UNL     1       7.571  17.144  42.206  1.00  0.00     0.060 A 
ATOM      4  C   UNL     1       8.257  17.468  39.509  1.00  0.00     0.162 A 
ATOM      5  C   UNL     1       8.054  16.051  41.473  1.00  0.00     0.162 A 
ATOM      6  C   UNL     1       8.399  16.211  40.120  1.00  0.00     0.200 A 
ENDROOT
BRANCH   1   7
ATOM      7  C   UNL     1       6.918  19.559  42.373  1.00  0.00     0.072 C 
ATOM      8  O   UNL     1       5.876  19.453  43.072  1.00  0.00    -0.545 OA
ATOM      9  O   UNL     1       7.582  20.780  42.336  1.00  0.00    -0.545 OA
ENDBRANCH   1   7
BRANCH   4  10
ATOM     10  O   UNL     1       8.590  17.659  38.168  1.00  0.00    -0.504 OA
ATOM     11  H   UNL     1       9.270  18.349  37.874  1.00  0.00     0.293 HD
ENDBRANCH   4  10
BRANCH   5  12
ATOM     12  O   UNL     1       8.193  14.806  42.085  1.00  0.00    -0.504 OA
ATOM     13  H   UNL     1       9.097  14.459  42.383  1.00  0.00     0.293 HD
ENDBRANCH   5  12
BRANCH   6  14
ATOM     14  O   UNL     1       8.880  15.134  39.376  1.00  0.00    -0.502 OA
ATOM     15  H   UNL     1       9.517  15.256  38.597  1.00  0.00     0.293 HD
ENDBRANCH   6  14
TORSDOF 4
ENDMDL
MODEL 4
REMARK VINA RESULT:    -2.853      1.415      4.155
REMARK INTER + INTRA:          -3.321
REMARK INTER:                  -3.273
REMARK INTRA:                  -0.048
REMARK UNBOUND:                -0.051
REMARK SMILES O=C([O-])c1cc(O)c(O)c(O)c1
REMARK SMILES IDX 4 1 5 2 12 3 6 4 10 5 8 6 2 7 1 8 3 9 7 10 11 12 9 14
REMARK H PARENT 7 11 11 13 9 15
REMARK Flexibility Score: inf
ROOT
ATOM      1  C   UNL     1       7.422  18.405  41.595  1.00  0.00     0.005 A 
ATOM      2  C   UNL     1       7.564  17.141  42.191  1.00  0.00     0.060 A 
ATOM      3  C   UNL     1       7.771  18.564  40.243  1.00  0.00     0.060 A 
ATOM      4  C   UNL     1       8.044  16.053  41.454  1.00  0.00     0.162 A 
ATOM      5  C   UNL     1       8.253  17.479  39.497  1.00  0.00     0.162 A 
ATOM      6  C   UNL     1       8.391  16.219  40.102  1.00  0.00     0.200 A 
ENDROOT
BRANCH   1   7
ATOM      7  C   UNL     1       6.913  19.549  42.383  1.00  0.00     0.072 C 
ATOM      8  O   UNL     1       5.876  19.430  43.089  1.00  0.00    -0.545 OA
ATOM      9  O   UNL     1       7.570  20.773  42.356  1.00  0.00    -0.545 OA
ENDBRANCH   1   7
BRANCH   4  10
ATOM     10  O   UNL     1       8.171  14.814  42.083  1.00  0.00    -0.504 OA
ATOM     11  H   UNL     1       7.366  14.284  42.395  1.00  0.00     0.293 HD
ENDBRANCH   4  10
BRANCH   5  12
ATOM     12  O   UNL     1       8.594  17.650  38.156  1.00  0.00    -0.504 OA
ATOM     13  H   UNL     1       8.817  16.861  37.560  1.00  0.00     0.293 HD
ENDBRANCH   5  12
BRANCH   6  14
ATOM     14  O   UNL     1       8.869  15.129  39.375  1.00  0.00    -0.502 OA
ATOM     15  H   UNL     1       9.713  15.181  38.816  1.00  0.00     0.293 HD
ENDBRANCH   6  14
TORSDOF 4
ENDMDL
MODEL 5
REMARK VINA RESULT:    -2.707      1.849      3.283
REMARK INTER + INTRA:          -3.154
REMARK INTER:                  -3.110
REMARK INTRA:                  -0.045
REMARK UNBOUND:                -0.051
REMARK SMILES O=C([O-])c1cc(O)c(O)c(O)c1
REMARK SMILES IDX 4 1 5 2 12 3 6 4 10 5 8 6 2 7 1 8 3 9 7 10 11 12 9 14
REMARK H PARENT 7 11 11 13 9 15
REMARK Flexibility Score: inf
ROOT
ATOM      1  C   UNL     1       8.546  16.807  36.779  1.00  0.00     0.005 A 
ATOM      2  C   UNL     1       8.034  17.982  37.353  1.00  0.00     0.060 A 
ATOM      3  C   UNL     1       8.937  15.751  37.619  1.00  0.00     0.060 A 
ATOM      4  C   UNL     1       7.913  18.104  38.741  1.00  0.00     0.162 A 
ATOM      5  C   UNL     1       8.818  15.865  39.011  1.00  0.00     0.162 A 
ATOM      6  C   UNL     1       8.305  17.045  39.577  1.00  0.00     0.200 A 
ENDROOT
BRANCH   1   7
ATOM      7  C   UNL     1       8.669  16.687  35.308  1.00  0.00     0.072 C 
ATOM      8  O   UNL     1       9.747  16.989  34.729  1.00  0.00    -0.545 OA
ATOM      9  O   UNL     1       7.597  16.242  34.544  1.00  0.00    -0.545 OA
ENDBRANCH   1   7
BRANCH   4  10
ATOM     10  O   UNL     1       7.401  19.288  39.273  1.00  0.00    -0.504 OA
ATOM     11  H   UNL     1       7.194  19.391  40.259  1.00  0.00     0.293 HD
ENDBRANCH   4  10
BRANCH   5  12
ATOM     12  O   UNL     1       9.209  14.810  39.834  1.00  0.00    -0.504 OA
ATOM     13  H   UNL     1       9.592  13.953  39.454  1.00  0.00     0.293 HD
ENDBRANCH   5  12
BRANCH   6  14
ATOM     14  O   UNL     1       8.182  17.175  40.960  1.00  0.00    -0.502 OA
ATOM     15  H   UNL     1       8.409  16.420  41.597  1.00  0.00     0.293 HD
ENDBRANCH   6  14
TORSDOF 4
ENDMDL
MODEL 6
REMARK VINA RESULT:    -2.625      1.750      2.107
REMARK INTER + INTRA:          -3.060
REMARK INTER:                  -3.015
REMARK INTRA:                  -0.045
REMARK UNBOUND:                -0.051
REMARK SMILES O=C([O-])c1cc(O)c(O)c(O)c1
REMARK SMILES IDX 4 1 5 2 12 3 6 4 10 5 8 6 2 7 1 8 3 9 7 10 11 12 9 14
REMARK H PARENT 7 11 11 13 9 15
REMARK Flexibility Score: inf
ROOT
ATOM      1  C   UNL     1       8.514  16.809  36.907  1.00  0.00     0.005 A 
ATOM      2  C   UNL     1       8.893  15.749  37.747  1.00  0.00     0.060 A 
ATOM      3  C   UNL     1       8.017  17.991  37.482  1.00  0.00     0.060 A 
ATOM      4  C   UNL     1       8.781  15.864  39.137  1.00  0.00     0.162 A 
ATOM      5  C   UNL     1       7.901  18.113  38.874  1.00  0.00     0.162 A 
ATOM      6  C   UNL     1       8.283  17.048  39.706  1.00  0.00     0.200 A 
ENDROOT
BRANCH   1   7
ATOM      7  C   UNL     1       8.638  16.678  35.438  1.00  0.00     0.072 C 
ATOM      8  O   UNL     1       9.717  16.968  34.857  1.00  0.00    -0.545 OA
ATOM      9  O   UNL     1       7.563  16.234  34.676  1.00  0.00    -0.545 OA
ENDBRANCH   1   7
BRANCH   4  10
ATOM     10  O   UNL     1       9.168  14.788  39.936  1.00  0.00    -0.504 OA
ATOM     11  H   UNL     1       9.961  14.842  40.565  1.00  0.00     0.293 HD
ENDBRANCH   4  10
BRANCH   5  12
ATOM     12  O   UNL     1       7.407  19.291  39.432  1.00  0.00    -0.504 OA
ATOM     13  H   UNL     1       6.779  19.280  40.228  1.00  0.00     0.293 HD
ENDBRANCH   5  12
BRANCH   6  14
ATOM     14  O   UNL     1       8.174  17.153  41.093  1.00  0.00    -0.502 OA
ATOM     15  H   UNL     1       8.735  17.803  41.631  1.00  0.00     0.293 HD
ENDBRANCH   6  14
TORSDOF 4
ENDMDL
MODEL 7
REMARK VINA RESULT:    -2.176      1.139      3.988
REMARK INTER + INTRA:          -2.545
REMARK INTER:                  -2.499
REMARK INTRA:                  -0.046
REMARK UNBOUND:                -0.051
REMARK SMILES O=C([O-])c1cc(O)c(O)c(O)c1
REMARK SMILES IDX 4 1 5 2 12 3 6 4 10 5 8 6 2 7 1 8 3 9 7 10 11 12 9 14
REMARK H PARENT 7 11 11 13 9 15
REMARK Flexibility Score: inf
ROOT
ATOM      1  C   UNL     1       7.724  18.306  40.531  1.00  0.00     0.005 A 
ATOM      2  C   UNL     1       8.036  16.998  40.938  1.00  0.00     0.060 A 
ATOM      3  C   UNL     1       7.960  18.680  39.197  1.00  0.00     0.060 A 
ATOM      4  C   UNL     1       8.574  16.077  40.032  1.00  0.00     0.162 A 
ATOM      5  C   UNL     1       8.499  17.763  38.283  1.00  0.00     0.162 A 
ATOM      6  C   UNL     1       8.807  16.457  38.699  1.00  0.00     0.200 A 
ENDROOT
BRANCH   1   7
ATOM      7  C   UNL     1       7.155  19.272  41.497  1.00  0.00     0.072 C 
ATOM      8  O   UNL     1       7.823  20.272  41.873  1.00  0.00    -0.545 OA
ATOM      9  O   UNL     1       5.875  19.089  42.006  1.00  0.00    -0.545 OA
ENDBRANCH   1   7
BRANCH   4  10
ATOM     10  O   UNL     1       8.871  14.788  40.475  1.00  0.00    -0.504 OA
ATOM     11  H   UNL     1       8.408  13.969  40.100  1.00  0.00     0.293 HD
ENDBRANCH   4  10
BRANCH   5  12
ATOM     12  O   UNL     1       8.728  18.147  36.963  1.00  0.00    -0.504 OA
ATOM     13  H   UNL     1       8.533  17.524  36.187  1.00  0.00     0.293 HD
ENDBRANCH   5  12
BRANCH   6  14
ATOM     14  O   UNL     1       9.345  15.533  37.803  1.00  0.00    -0.502 OA
ATOM     15  H   UNL     1       9.977  14.798  38.098  1.00  0.00     0.293 HD
ENDBRANCH   6  14
TORSDOF 4
ENDMDL
MODEL 8
REMARK VINA RESULT:    -0.102      1.067      4.533
REMARK INTER + INTRA:          -0.168
REMARK INTER:                  -0.117
REMARK INTRA:                  -0.051
REMARK UNBOUND:                -0.051
REMARK SMILES O=C([O-])c1cc(O)c(O)c(O)c1
REMARK SMILES IDX 4 1 5 2 12 3 6 4 10 5 8 6 2 7 1 8 3 9 7 10 11 12 9 14
REMARK H PARENT 7 11 11 13 9 15
REMARK Flexibility Score: inf
ROOT
ATOM      1  C   UNL     1       8.247  16.017  40.675  1.00  0.00     0.005 A 
ATOM      2  C   UNL     1       7.825  17.356  40.692  1.00  0.00     0.060 A 
ATOM      3  C   UNL     1       8.812  15.494  39.499  1.00  0.00     0.060 A 
ATOM      4  C   UNL     1       7.964  18.163  39.558  1.00  0.00     0.162 A 
ATOM      5  C   UNL     1       8.954  16.296  38.358  1.00  0.00     0.162 A 
ATOM      6  C   UNL     1       8.530  17.635  38.385  1.00  0.00     0.200 A 
ENDROOT
BRANCH   1   7
ATOM      7  C   UNL     1       8.097  15.172  41.881  1.00  0.00     0.072 C 
ATOM      8  O   UNL     1       8.867  14.194  42.079  1.00  0.00    -0.545 OA
ATOM      9  O   UNL     1       7.102  15.443  42.813  1.00  0.00    -0.545 OA
ENDBRANCH   1   7
BRANCH   4  10
ATOM     10  O   UNL     1       7.532  19.489  39.616  1.00  0.00    -0.504 OA
ATOM     11  H   UNL     1       7.614  20.117  38.825  1.00  0.00     0.293 HD
ENDBRANCH   4  10
BRANCH   5  12
ATOM     12  O   UNL     1       9.517  15.767  37.198  1.00  0.00    -0.504 OA
ATOM     13  H   UNL     1      10.289  16.223  36.726  1.00  0.00     0.293 HD
ENDBRANCH   5  12
BRANCH   6  14
ATOM     14  O   UNL     1       8.663  18.447  37.258  1.00  0.00    -0.502 OA
ATOM     15  H   UNL     1       9.449  19.075  37.135  1.00  0.00     0.293 HD
ENDBRANCH   6  14
TORSDOF 4
ENDMDL
MODEL 9
REMARK VINA RESULT:    -0.058      1.271      4.838
REMARK INTER + INTRA:          -0.117
REMARK INTER:                  -0.069
REMARK INTRA:                  -0.049
REMARK UNBOUND:                -0.051
REMARK SMILES O=C([O-])c1cc(O)c(O)c(O)c1
REMARK SMILES IDX 4 1 5 2 12 3 6 4 10 5 8 6 2 7 1 8 3 9 7 10 11 12 9 14
REMARK H PARENT 7 11 11 13 9 15
REMARK Flexibility Score: inf
ROOT
ATOM      1  C   UNL     1       7.748  17.510  40.985  1.00  0.00     0.005 A 
ATOM      2  C   UNL     1       7.374  18.540  40.107  1.00  0.00     0.060 A 
ATOM      3  C   UNL     1       8.488  16.425  40.488  1.00  0.00     0.060 A 
ATOM      4  C   UNL     1       7.731  18.491  38.755  1.00  0.00     0.162 A 
ATOM      5  C   UNL     1       8.851  16.368  39.135  1.00  0.00     0.162 A 
ATOM      6  C   UNL     1       8.472  17.404  38.264  1.00  0.00     0.200 A 
ENDROOT
BRANCH   1   7
ATOM      7  C   UNL     1       7.365  17.572  42.414  1.00  0.00     0.072 C 
ATOM      8  O   UNL     1       6.926  16.549  43.004  1.00  0.00    -0.545 OA
ATOM      9  O   UNL     1       7.482  18.760  43.125  1.00  0.00    -0.545 OA
ENDBRANCH   1   7
BRANCH   4  10
ATOM     10  O   UNL     1       7.340  19.534  37.915  1.00  0.00    -0.504 OA
ATOM     11  H   UNL     1       8.012  20.106  37.417  1.00  0.00     0.293 HD
ENDBRANCH   4  10
BRANCH   5  12
ATOM     12  O   UNL     1       9.586  15.286  38.653  1.00  0.00    -0.504 OA
ATOM     13  H   UNL     1      10.268  15.395  37.912  1.00  0.00     0.293 HD
ENDBRANCH   5  12
BRANCH   6  14
ATOM     14  O   UNL     1       8.824  17.363  36.914  1.00  0.00    -0.502 OA
ATOM     15  H   UNL     1       9.345  16.590  36.515  1.00  0.00     0.293 HD
ENDBRANCH   6  14
TORSDOF 4
ENDMDL
