MODEL 1
REMARK VINA RESULT:    -4.091      0.000      0.000
REMARK INTER + INTRA:          -9.010
REMARK INTER:                  -7.440
REMARK INTRA:                  -1.570
REMARK UNBOUND:                -1.570
REMARK SMILES CCCCCCCCCCCCCCCC(=O)[O-]
REMARK SMILES IDX 9 1 10 2 11 3 12 4 13 5 14 6 15 7 16 8 17 9 18 10 8 11 7 12
REMARK SMILES IDX 6 13 5 14 4 15 3 16 2 17 1 18
REMARK H PARENT
REMARK Flexibility Score: inf
ROOT
ATOM      1  C   UNL     1       3.090 124.776 111.732  1.00  0.00     0.000 C 
ENDROOT
BRANCH   1   2
ATOM      2  C   UNL     1       3.407 125.831 112.803  1.00  0.00     0.000 C 
BRANCH   2   3
ATOM      3  C   UNL     1       4.064 127.067 112.178  1.00  0.00     0.000 C 
BRANCH   3   4
ATOM      4  C   UNL     1       5.063 127.709 113.149  1.00  0.00     0.000 C 
BRANCH   4   5
ATOM      5  C   UNL     1       4.352 128.241 114.400  1.00  0.00     0.000 C 
BRANCH   5   6
ATOM      6  C   UNL     1       4.833 129.653 114.749  1.00  0.00     0.006 C 
BRANCH   6   7
ATOM      7  C   UNL     1       5.834 130.165 113.709  1.00  0.00     0.053 C 
BRANCH   7   8
ATOM      8  C   UNL     1       7.131 130.523 114.364  1.00  0.00     0.041 C 
ATOM      9  O   UNL     1       7.179 130.727 115.605  1.00  0.00    -0.550 OA
ATOM     10  O   UNL     1       8.278 130.679 113.596  1.00  0.00    -0.550 OA
ENDBRANCH   7   8
ENDBRANCH   6   7
ENDBRANCH   5   6
ENDBRANCH   4   5
ENDBRANCH   3   4
ENDBRANCH   2   3
ENDBRANCH   1   2
BRANCH   1  11
ATOM     11  C   UNL     1       4.352 124.127 111.134  1.00  0.00     0.000 C 
BRANCH  11  12
ATOM     12  C   UNL     1       5.241 123.370 112.138  1.00  0.00    -0.000 C 
BRANCH  12  13
ATOM     13  C   UNL     1       6.743 123.508 111.833  1.00  0.00    -0.000 C 
BRANCH  13  14
ATOM     14  C   UNL     1       7.263 124.946 112.017  1.00  0.00    -0.000 C 
BRANCH  14  15
ATOM     15  C   UNL     1       7.731 125.643 110.727  1.00  0.00    -0.000 C 
BRANCH  15  16
ATOM     16  C   UNL     1       7.680 124.723 109.496  1.00  0.00    -0.000 C 
BRANCH  16  17
ATOM     17  C   UNL     1       6.882 125.335 108.335  1.00  0.00    -0.003 C 
ATOM     18  C   UNL     1       7.415 124.913 106.966  1.00  0.00     0.004 C 
ENDBRANCH  16  17
ENDBRANCH  15  16
ENDBRANCH  14  15
ENDBRANCH  13  14
ENDBRANCH  12  13
ENDBRANCH  11  12
ENDBRANCH   1  11
TORSDOF 14
ENDMDL
MODEL 2
REMARK VINA RESULT:    -4.085      3.006      5.816
REMARK INTER + INTRA:          -8.999
REMARK INTER:                  -6.474
REMARK INTRA:                  -2.525
REMARK UNBOUND:                -1.570
REMARK SMILES CCCCCCCCCCCCCCCC(=O)[O-]
REMARK SMILES IDX 9 1 10 2 11 3 12 4 13 5 14 6 15 7 16 8 17 9 18 10 8 11 7 12
REMARK SMILES IDX 6 13 5 14 4 15 3 16 2 17 1 18
REMARK H PARENT
REMARK Flexibility Score: inf
ROOT
ATOM      1  C   UNL     1       1.347 127.061 114.187  1.00  0.00     0.000 C 
ENDROOT
BRANCH   1   2
ATOM      2  C   UNL     1       1.629 125.553 114.120  1.00  0.00     0.000 C 
BRANCH   2   3
ATOM      3  C   UNL     1       1.541 125.042 112.678  1.00  0.00     0.000 C 
BRANCH   3   4
ATOM      4  C   UNL     1       2.759 124.179 112.325  1.00  0.00     0.000 C 
BRANCH   4   5
ATOM      5  C   UNL     1       3.347 124.583 110.967  1.00  0.00     0.000 C 
BRANCH   5   6
ATOM      6  C   UNL     1       4.859 124.808 111.066  1.00  0.00     0.006 C 
BRANCH   6   7
ATOM      7  C   UNL     1       5.537 123.663 111.824  1.00  0.00     0.053 C 
BRANCH   7   8
ATOM      8  C   UNL     1       6.868 124.099 112.351  1.00  0.00     0.041 C 
ATOM      9  O   UNL     1       7.107 125.321 112.532  1.00  0.00    -0.550 OA
ATOM     10  O   UNL     1       7.860 123.159 112.597  1.00  0.00    -0.550 OA
ENDBRANCH   7   8
ENDBRANCH   6   7
ENDBRANCH   5   6
ENDBRANCH   4   5
ENDBRANCH   3   4
ENDBRANCH   2   3
ENDBRANCH   1   2
BRANCH   1  11
ATOM     11  C   UNL     1       2.574 127.886 114.618  1.00  0.00     0.000 C 
BRANCH  11  12
ATOM     12  C   UNL     1       3.932 127.350 114.126  1.00  0.00    -0.000 C 
BRANCH  12  13
ATOM     13  C   UNL     1       4.318 127.880 112.735  1.00  0.00    -0.000 C 
BRANCH  13  14
ATOM     14  C   UNL     1       3.784 129.298 112.463  1.00  0.00    -0.000 C 
BRANCH  14  15
ATOM     15  C   UNL     1       2.887 129.432 111.219  1.00  0.00    -0.000 C 
BRANCH  15  16
ATOM     16  C   UNL     1       2.645 128.091 110.507  1.00  0.00    -0.000 C 
BRANCH  16  17
ATOM     17  C   UNL     1       1.152 127.792 110.304  1.00  0.00    -0.003 C 
ATOM     18  C   UNL     1       0.248 128.736 111.098  1.00  0.00     0.004 C 
ENDBRANCH  16  17
ENDBRANCH  15  16
ENDBRANCH  14  15
ENDBRANCH  13  14
ENDBRANCH  12  13
ENDBRANCH  11  12
ENDBRANCH   1  11
TORSDOF 14
ENDMDL
MODEL 3
REMARK VINA RESULT:    -3.957      1.765      2.301
REMARK INTER + INTRA:          -8.765
REMARK INTER:                  -7.168
REMARK INTRA:                  -1.597
REMARK UNBOUND:                -1.570
REMARK SMILES CCCCCCCCCCCCCCCC(=O)[O-]
REMARK SMILES IDX 9 1 10 2 11 3 12 4 13 5 14 6 15 7 16 8 17 9 18 10 8 11 7 12
REMARK SMILES IDX 6 13 5 14 4 15 3 16 2 17 1 18
REMARK H PARENT
REMARK Flexibility Score: inf
ROOT
ATOM      1  C   UNL     1       3.265 124.779 112.418  1.00  0.00     0.000 C 
ENDROOT
BRANCH   1   2
ATOM      2  C   UNL     1       3.178 125.023 110.904  1.00  0.00     0.000 C 
BRANCH   2   3
ATOM      3  C   UNL     1       2.853 126.490 110.602  1.00  0.00     0.000 C 
BRANCH   3   4
ATOM      4  C   UNL     1       1.642 126.964 111.415  1.00  0.00     0.000 C 
BRANCH   4   5
ATOM      5  C   UNL     1       1.993 128.193 112.262  1.00  0.00     0.000 C 
BRANCH   5   6
ATOM      6  C   UNL     1       3.260 128.878 111.740  1.00  0.00     0.006 C 
BRANCH   6   7
ATOM      7  C   UNL     1       4.028 129.555 112.879  1.00  0.00     0.053 C 
BRANCH   7   8
ATOM      8  C   UNL     1       5.224 128.741 113.260  1.00  0.00     0.041 C 
ATOM      9  O   UNL     1       5.423 127.619 112.725  1.00  0.00    -0.550 OA
ATOM     10  O   UNL     1       6.092 129.198 114.243  1.00  0.00    -0.550 OA
ENDBRANCH   7   8
ENDBRANCH   6   7
ENDBRANCH   5   6
ENDBRANCH   4   5
ENDBRANCH   3   4
ENDBRANCH   2   3
ENDBRANCH   1   2
BRANCH   1  11
ATOM     11  C   UNL     1       4.628 124.217 112.862  1.00  0.00     0.000 C 
BRANCH  11  12
ATOM     12  C   UNL     1       5.094 122.955 112.112  1.00  0.00    -0.000 C 
BRANCH  12  13
ATOM     13  C   UNL     1       6.365 123.188 111.276  1.00  0.00    -0.000 C 
BRANCH  13  14
ATOM     14  C   UNL     1       7.072 124.513 111.615  1.00  0.00    -0.000 C 
BRANCH  14  15
ATOM     15  C   UNL     1       7.371 125.422 110.410  1.00  0.00    -0.000 C 
BRANCH  15  16
ATOM     16  C   UNL     1       8.409 124.821 109.448  1.00  0.00    -0.000 C 
BRANCH  16  17
ATOM     17  C   UNL     1       7.814 124.483 108.073  1.00  0.00    -0.003 C 
ATOM     18  C   UNL     1       6.717 125.460 107.649  1.00  0.00     0.004 C 
ENDBRANCH  16  17
ENDBRANCH  15  16
ENDBRANCH  14  15
ENDBRANCH  13  14
ENDBRANCH  12  13
ENDBRANCH  11  12
ENDBRANCH   1  11
TORSDOF 14
ENDMDL
MODEL 4
REMARK VINA RESULT:    -3.937      1.466      2.738
REMARK INTER + INTRA:          -8.730
REMARK INTER:                  -6.982
REMARK INTRA:                  -1.748
REMARK UNBOUND:                -1.570
REMARK SMILES CCCCCCCCCCCCCCCC(=O)[O-]
REMARK SMILES IDX 9 1 10 2 11 3 12 4 13 5 14 6 15 7 16 8 17 9 18 10 8 11 7 12
REMARK SMILES IDX 6 13 5 14 4 15 3 16 2 17 1 18
REMARK H PARENT
REMARK Flexibility Score: inf
ROOT
ATOM      1  C   UNL     1       1.191 127.377 112.448  1.00  0.00     0.000 C 
ENDROOT
BRANCH   1   2
ATOM      2  C   UNL     1       2.156 128.318 113.184  1.00  0.00     0.000 C 
BRANCH   2   3
ATOM      3  C   UNL     1       3.022 127.544 114.184  1.00  0.00     0.000 C 
BRANCH   3   4
ATOM      4  C   UNL     1       4.506 127.890 114.011  1.00  0.00     0.000 C 
BRANCH   4   5
ATOM      5  C   UNL     1       4.708 128.899 112.873  1.00  0.00     0.000 C 
BRANCH   5   6
ATOM      6  C   UNL     1       5.311 130.207 113.397  1.00  0.00     0.006 C 
BRANCH   6   7
ATOM      7  C   UNL     1       5.921 130.012 114.789  1.00  0.00     0.053 C 
BRANCH   7   8
ATOM      8  C   UNL     1       7.247 130.699 114.880  1.00  0.00     0.041 C 
ATOM      9  O   UNL     1       7.565 131.325 115.925  1.00  0.00    -0.550 OA
ATOM     10  O   UNL     1       8.112 130.689 113.794  1.00  0.00    -0.550 OA
ENDBRANCH   7   8
ENDBRANCH   6   7
ENDBRANCH   5   6
ENDBRANCH   4   5
ENDBRANCH   3   4
ENDBRANCH   2   3
ENDBRANCH   1   2
BRANCH   1  11
ATOM     11  C   UNL     1       1.467 127.294 110.935  1.00  0.00     0.000 C 
BRANCH  11  12
ATOM     12  C   UNL     1       2.802 126.634 110.545  1.00  0.00    -0.000 C 
BRANCH  12  13
ATOM     13  C   UNL     1       2.824 125.118 110.811  1.00  0.00    -0.000 C 
BRANCH  13  14
ATOM     14  C   UNL     1       3.859 124.710 111.875  1.00  0.00    -0.000 C 
BRANCH  14  15
ATOM     15  C   UNL     1       5.253 124.353 111.329  1.00  0.00    -0.000 C 
BRANCH  15  16
ATOM     16  C   UNL     1       6.256 125.514 111.438  1.00  0.00    -0.000 C 
BRANCH  16  17
ATOM     17  C   UNL     1       7.715 125.041 111.368  1.00  0.00    -0.003 C 
ATOM     18  C   UNL     1       8.259 125.015 109.940  1.00  0.00     0.004 C 
ENDBRANCH  16  17
ENDBRANCH  15  16
ENDBRANCH  14  15
ENDBRANCH  13  14
ENDBRANCH  12  13
ENDBRANCH  11  12
ENDBRANCH   1  11
TORSDOF 14
ENDMDL
MODEL 5
REMARK VINA RESULT:    -3.886      2.805      6.187
REMARK INTER + INTRA:          -8.636
REMARK INTER:                  -6.540
REMARK INTRA:                  -2.096
REMARK UNBOUND:                -1.570
REMARK SMILES CCCCCCCCCCCCCCCC(=O)[O-]
REMARK SMILES IDX 9 1 10 2 11 3 12 4 13 5 14 6 15 7 16 8 17 9 18 10 8 11 7 12
REMARK SMILES IDX 6 13 5 14 4 15 3 16 2 17 1 18
REMARK H PARENT
REMARK Flexibility Score: inf
ROOT
ATOM      1  C   UNL     1       2.537 125.825 114.114  1.00  0.00     0.000 C 
ENDROOT
BRANCH   1   2
ATOM      2  C   UNL     1       1.402 126.383 113.243  1.00  0.00     0.000 C 
BRANCH   2   3
ATOM      3  C   UNL     1       1.770 126.324 111.756  1.00  0.00     0.000 C 
BRANCH   3   4
ATOM      4  C   UNL     1       2.453 124.995 111.411  1.00  0.00     0.000 C 
BRANCH   4   5
ATOM      5  C   UNL     1       3.722 125.226 110.583  1.00  0.00     0.000 C 
BRANCH   5   6
ATOM      6  C   UNL     1       4.932 124.541 111.227  1.00  0.00     0.006 C 
BRANCH   6   7
ATOM      7  C   UNL     1       6.240 125.026 110.594  1.00  0.00     0.053 C 
BRANCH   7   8
ATOM      8  C   UNL     1       7.369 124.115 110.961  1.00  0.00     0.041 C 
ATOM      9  O   UNL     1       7.242 122.869 110.839  1.00  0.00    -0.550 OA
ATOM     10  O   UNL     1       8.544 124.639 111.483  1.00  0.00    -0.550 OA
ENDBRANCH   7   8
ENDBRANCH   6   7
ENDBRANCH   5   6
ENDBRANCH   4   5
ENDBRANCH   3   4
ENDBRANCH   2   3
ENDBRANCH   1   2
BRANCH   1  11
ATOM     11  C   UNL     1       3.490 126.917 114.635  1.00  0.00     0.000 C 
BRANCH  11  12
ATOM     12  C   UNL     1       4.915 126.878 114.054  1.00  0.00    -0.000 C 
BRANCH  12  13
ATOM     13  C   UNL     1       5.169 127.979 113.010  1.00  0.00    -0.000 C 
BRANCH  13  14
ATOM     14  C   UNL     1       4.225 129.185 113.169  1.00  0.00    -0.000 C 
BRANCH  14  15
ATOM     15  C   UNL     1       4.908 130.501 113.582  1.00  0.00    -0.000 C 
BRANCH  15  16
ATOM     16  C   UNL     1       6.399 130.324 113.914  1.00  0.00    -0.000 C 
BRANCH  16  17
ATOM     17  C   UNL     1       6.726 130.687 115.371  1.00  0.00    -0.003 C 
ATOM     18  C   UNL     1       5.759 130.050 116.369  1.00  0.00     0.004 C 
ENDBRANCH  16  17
ENDBRANCH  15  16
ENDBRANCH  14  15
ENDBRANCH  13  14
ENDBRANCH  12  13
ENDBRANCH  11  12
ENDBRANCH   1  11
TORSDOF 14
ENDMDL
MODEL 6
REMARK VINA RESULT:    -3.886      3.032      6.181
REMARK INTER + INTRA:          -8.636
REMARK INTER:                  -6.114
REMARK INTRA:                  -2.522
REMARK UNBOUND:                -1.570
REMARK SMILES CCCCCCCCCCCCCCCC(=O)[O-]
REMARK SMILES IDX 9 1 10 2 11 3 12 4 13 5 14 6 15 7 16 8 17 9 18 10 8 11 7 12
REMARK SMILES IDX 6 13 5 14 4 15 3 16 2 17 1 18
REMARK H PARENT
REMARK Flexibility Score: inf
ROOT
ATOM      1  C   UNL     1       1.313 127.131 111.553  1.00  0.00     0.000 C 
ENDROOT
BRANCH   1   2
ATOM      2  C   UNL     1       1.540 125.822 112.324  1.00  0.00     0.000 C 
BRANCH   2   3
ATOM      3  C   UNL     1       2.605 124.959 111.638  1.00  0.00     0.000 C 
BRANCH   3   4
ATOM      4  C   UNL     1       3.543 124.320 112.669  1.00  0.00     0.000 C 
BRANCH   4   5
ATOM      5  C   UNL     1       4.837 123.829 112.008  1.00  0.00     0.000 C 
BRANCH   5   6
ATOM      6  C   UNL     1       5.441 124.912 111.108  1.00  0.00     0.006 C 
BRANCH   6   7
ATOM      7  C   UNL     1       6.697 125.517 111.742  1.00  0.00     0.053 C 
BRANCH   7   8
ATOM      8  C   UNL     1       7.922 125.064 111.014  1.00  0.00     0.041 C 
ATOM      9  O   UNL     1       8.026 125.250 109.773  1.00  0.00    -0.550 OA
ATOM     10  O   UNL     1       8.928 124.392 111.696  1.00  0.00    -0.550 OA
ENDBRANCH   7   8
ENDBRANCH   6   7
ENDBRANCH   5   6
ENDBRANCH   4   5
ENDBRANCH   3   4
ENDBRANCH   2   3
ENDBRANCH   1   2
BRANCH   1  11
ATOM     11  C   UNL     1       2.608 127.710 110.954  1.00  0.00     0.000 C 
BRANCH  11  12
ATOM     12  C   UNL     1       2.847 129.207 111.228  1.00  0.00    -0.000 C 
BRANCH  12  13
ATOM     13  C   UNL     1       3.692 129.459 112.489  1.00  0.00    -0.000 C 
BRANCH  13  14
ATOM     14  C   UNL     1       4.544 128.241 112.893  1.00  0.00    -0.000 C 
BRANCH  14  15
ATOM     15  C   UNL     1       4.214 127.641 114.272  1.00  0.00    -0.000 C 
BRANCH  15  16
ATOM     16  C   UNL     1       3.290 128.539 115.111  1.00  0.00    -0.000 C 
BRANCH  16  17
ATOM     17  C   UNL     1       1.936 127.877 115.409  1.00  0.00    -0.003 C 
ATOM     18  C   UNL     1       0.755 128.673 114.854  1.00  0.00     0.004 C 
ENDBRANCH  16  17
ENDBRANCH  15  16
ENDBRANCH  14  15
ENDBRANCH  13  14
ENDBRANCH  12  13
ENDBRANCH  11  12
ENDBRANCH   1  11
TORSDOF 14
ENDMDL
MODEL 7
REMARK VINA RESULT:    -3.836      1.430      2.266
REMARK INTER + INTRA:          -8.545
REMARK INTER:                  -7.416
REMARK INTRA:                  -1.128
REMARK UNBOUND:                -1.570
REMARK SMILES CCCCCCCCCCCCCCCC(=O)[O-]
REMARK SMILES IDX 9 1 10 2 11 3 12 4 13 5 14 6 15 7 16 8 17 9 18 10 8 11 7 12
REMARK SMILES IDX 6 13 5 14 4 15 3 16 2 17 1 18
REMARK H PARENT
REMARK Flexibility Score: inf
ROOT
ATOM      1  C   UNL     1       2.031 126.053 111.607  1.00  0.00     0.000 C 
ENDROOT
BRANCH   1   2
ATOM      2  C   UNL     1       1.504 127.419 111.141  1.00  0.00     0.000 C 
BRANCH   2   3
ATOM      3  C   UNL     1       2.656 128.334 110.710  1.00  0.00     0.000 C 
BRANCH   3   4
ATOM      4  C   UNL     1       2.957 129.384 111.786  1.00  0.00     0.000 C 
BRANCH   4   5
ATOM      5  C   UNL     1       4.144 128.955 112.657  1.00  0.00     0.000 C 
BRANCH   5   6
ATOM      6  C   UNL     1       4.840 130.172 113.277  1.00  0.00     0.006 C 
BRANCH   6   7
ATOM      7  C   UNL     1       5.763 129.751 114.425  1.00  0.00     0.053 C 
BRANCH   7   8
ATOM      8  C   UNL     1       7.071 130.472 114.337  1.00  0.00     0.041 C 
ATOM      9  O   UNL     1       7.652 130.596 113.226  1.00  0.00    -0.550 OA
ATOM     10  O   UNL     1       7.672 130.966 115.487  1.00  0.00    -0.550 OA
ENDBRANCH   7   8
ENDBRANCH   6   7
ENDBRANCH   5   6
ENDBRANCH   4   5
ENDBRANCH   3   4
ENDBRANCH   2   3
ENDBRANCH   1   2
BRANCH   1  11
ATOM     11  C   UNL     1       3.118 125.478 110.680  1.00  0.00     0.000 C 
BRANCH  11  12
ATOM     12  C   UNL     1       4.560 125.593 111.208  1.00  0.00    -0.000 C 
BRANCH  12  13
ATOM     13  C   UNL     1       4.879 124.571 112.312  1.00  0.00    -0.000 C 
BRANCH  13  14
ATOM     14  C   UNL     1       5.240 123.181 111.758  1.00  0.00    -0.000 C 
BRANCH  14  15
ATOM     15  C   UNL     1       6.661 123.056 111.180  1.00  0.00    -0.000 C 
BRANCH  15  16
ATOM     16  C   UNL     1       7.635 124.098 111.753  1.00  0.00    -0.000 C 
BRANCH  16  17
ATOM     17  C   UNL     1       8.454 124.803 110.661  1.00  0.00    -0.003 C 
ATOM     18  C   UNL     1       7.724 124.860 109.320  1.00  0.00     0.004 C 
ENDBRANCH  16  17
ENDBRANCH  15  16
ENDBRANCH  14  15
ENDBRANCH  13  14
ENDBRANCH  12  13
ENDBRANCH  11  12
ENDBRANCH   1  11
TORSDOF 14
ENDMDL
MODEL 8
REMARK VINA RESULT:    -3.813      2.050      2.733
REMARK INTER + INTRA:          -8.503
REMARK INTER:                  -6.714
REMARK INTRA:                  -1.789
REMARK UNBOUND:                -1.570
REMARK SMILES CCCCCCCCCCCCCCCC(=O)[O-]
REMARK SMILES IDX 9 1 10 2 11 3 12 4 13 5 14 6 15 7 16 8 17 9 18 10 8 11 7 12
REMARK SMILES IDX 6 13 5 14 4 15 3 16 2 17 1 18
REMARK H PARENT
REMARK Flexibility Score: inf
ROOT
ATOM      1  C   UNL     1       1.907 126.952 110.600  1.00  0.00     0.000 C 
ENDROOT
BRANCH   1   2
ATOM      2  C   UNL     1       0.947 127.871 111.370  1.00  0.00     0.000 C 
BRANCH   2   3
ATOM      3  C   UNL     1       1.581 129.246 111.614  1.00  0.00     0.000 C 
BRANCH   3   4
ATOM      4  C   UNL     1       3.105 129.185 111.453  1.00  0.00     0.000 C 
BRANCH   4   5
ATOM      5  C   UNL     1       3.801 129.116 112.818  1.00  0.00     0.000 C 
BRANCH   5   6
ATOM      6  C   UNL     1       4.840 127.990 112.850  1.00  0.00     0.006 C 
BRANCH   6   7
ATOM      7  C   UNL     1       4.633 127.085 114.068  1.00  0.00     0.053 C 
BRANCH   7   8
ATOM      8  C   UNL     1       5.246 127.698 115.287  1.00  0.00     0.041 C 
ATOM      9  O   UNL     1       4.524 128.005 116.272  1.00  0.00    -0.550 OA
ATOM     10  O   UNL     1       6.606 127.975 115.317  1.00  0.00    -0.550 OA
ENDBRANCH   7   8
ENDBRANCH   6   7
ENDBRANCH   5   6
ENDBRANCH   4   5
ENDBRANCH   3   4
ENDBRANCH   2   3
ENDBRANCH   1   2
BRANCH   1  11
ATOM     11  C   UNL     1       2.229 125.649 111.355  1.00  0.00     0.000 C 
BRANCH  11  12
ATOM     12  C   UNL     1       3.253 124.727 110.667  1.00  0.00    -0.000 C 
BRANCH  12  13
ATOM     13  C   UNL     1       4.564 125.448 110.307  1.00  0.00    -0.000 C 
BRANCH  13  14
ATOM     14  C   UNL     1       5.802 124.804 110.959  1.00  0.00    -0.000 C 
BRANCH  14  15
ATOM     15  C   UNL     1       7.061 125.689 110.989  1.00  0.00    -0.000 C 
BRANCH  15  16
ATOM     16  C   UNL     1       8.225 125.103 110.172  1.00  0.00    -0.000 C 
BRANCH  16  17
ATOM     17  C   UNL     1       7.744 124.241 108.995  1.00  0.00    -0.003 C 
ATOM     18  C   UNL     1       7.597 125.038 107.700  1.00  0.00     0.004 C 
ENDBRANCH  16  17
ENDBRANCH  15  16
ENDBRANCH  14  15
ENDBRANCH  13  14
ENDBRANCH  12  13
ENDBRANCH  11  12
ENDBRANCH   1  11
TORSDOF 14
ENDMDL
MODEL 9
REMARK VINA RESULT:    -3.777      1.798      3.143
REMARK INTER + INTRA:          -8.439
REMARK INTER:                  -6.245
REMARK INTRA:                  -2.193
REMARK UNBOUND:                -1.570
REMARK SMILES CCCCCCCCCCCCCCCC(=O)[O-]
REMARK SMILES IDX 9 1 10 2 11 3 12 4 13 5 14 6 15 7 16 8 17 9 18 10 8 11 7 12
REMARK SMILES IDX 6 13 5 14 4 15 3 16 2 17 1 18
REMARK H PARENT
REMARK Flexibility Score: inf
ROOT
ATOM      1  C   UNL     1       1.668 124.829 114.072  1.00  0.00     0.000 C 
ENDROOT
BRANCH   1   2
ATOM      2  C   UNL     1       3.096 124.626 114.599  1.00  0.00     0.000 C 
BRANCH   2   3
ATOM      3  C   UNL     1       3.631 125.909 115.244  1.00  0.00     0.000 C 
BRANCH   3   4
ATOM      4  C   UNL     1       4.651 126.600 114.331  1.00  0.00     0.000 C 
BRANCH   4   5
ATOM      5  C   UNL     1       4.433 128.118 114.311  1.00  0.00     0.000 C 
BRANCH   5   6
ATOM      6  C   UNL     1       5.230 128.774 113.178  1.00  0.00     0.006 C 
BRANCH   6   7
ATOM      7  C   UNL     1       5.568 130.230 113.515  1.00  0.00     0.053 C 
BRANCH   7   8
ATOM      8  C   UNL     1       7.026 130.373 113.816  1.00  0.00     0.041 C 
ATOM      9  O   UNL     1       7.845 130.599 112.887  1.00  0.00    -0.550 OA
ATOM     10  O   UNL     1       7.487 130.210 115.116  1.00  0.00    -0.550 OA
ENDBRANCH   7   8
ENDBRANCH   6   7
ENDBRANCH   5   6
ENDBRANCH   4   5
ENDBRANCH   3   4
ENDBRANCH   2   3
ENDBRANCH   1   2
BRANCH   1  11
ATOM     11  C   UNL     1       1.606 124.987 112.542  1.00  0.00     0.000 C 
BRANCH  11  12
ATOM     12  C   UNL     1       1.695 126.436 112.027  1.00  0.00    -0.000 C 
BRANCH  12  13
ATOM     13  C   UNL     1       2.775 126.625 110.948  1.00  0.00    -0.000 C 
BRANCH  13  14
ATOM     14  C   UNL     1       3.436 125.301 110.523  1.00  0.00    -0.000 C 
BRANCH  14  15
ATOM     15  C   UNL     1       4.917 125.153 110.918  1.00  0.00    -0.000 C 
BRANCH  15  16
ATOM     16  C   UNL     1       5.202 123.862 111.704  1.00  0.00    -0.000 C 
BRANCH  16  17
ATOM     17  C   UNL     1       6.521 123.929 112.488  1.00  0.00    -0.003 C 
ATOM     18  C   UNL     1       7.740 124.084 111.579  1.00  0.00     0.004 C 
ENDBRANCH  16  17
ENDBRANCH  15  16
ENDBRANCH  14  15
ENDBRANCH  13  14
ENDBRANCH  12  13
ENDBRANCH  11  12
ENDBRANCH   1  11
TORSDOF 14
ENDMDL
