MODEL 1
REMARK VINA RESULT:    -2.384      0.000      0.000
REMARK INTER + INTRA:          -3.148
REMARK INTER:                  -2.872
REMARK INTRA:                  -0.276
REMARK UNBOUND:                -0.276
REMARK SMILES O=c1c(O)c(-c2ccc(O)c(O)c2)oc2cc(O)cc(O)c12
REMARK SMILES IDX 5 1 3 2 2 3 1 4 22 5 20 6 19 7 17 8 16 9 15 10 14 11 6 12
REMARK SMILES IDX 7 13 8 14 9 15 13 16 11 17 10 18 12 20 4 22 21 24 18 26
REMARK H PARENT 10 19 12 21 4 23 21 25 18 27
REMARK Flexibility Score: inf
ROOT
ATOM      1  C   UNL     1      54.957  67.867  57.893  1.00  0.00     0.180 A 
ATOM      2  C   UNL     1      55.791  68.434  56.911  1.00  0.00     0.208 A 
ATOM      3  C   UNL     1      56.596  67.587  56.134  1.00  0.00     0.238 A 
ATOM      4  O   UNL     1      57.356  68.085  55.258  1.00  0.00    -0.285 OA
ATOM      5  C   UNL     1      56.540  66.193  56.335  1.00  0.00     0.111 A 
ATOM      6  C   UNL     1      57.316  65.271  55.591  1.00  0.00     0.134 A 
ATOM      7  C   UNL     1      57.195  63.897  55.845  1.00  0.00     0.093 A 
ATOM      8  C   UNL     1      56.318  63.427  56.825  1.00  0.00     0.123 A 
ATOM      9  C   UNL     1      55.550  64.334  57.564  1.00  0.00     0.094 A 
ATOM     10  C   UNL     1      55.656  65.707  57.327  1.00  0.00     0.146 A 
ATOM     11  O   UNL     1      54.919  66.546  58.045  1.00  0.00    -0.452 OA
ENDROOT
BRANCH   1  12
ATOM     12  C   UNL     1      54.094  68.695  58.766  1.00  0.00     0.025 A 
ATOM     13  C   UNL     1      54.668  69.399  59.837  1.00  0.00     0.016 A 
ATOM     14  C   UNL     1      53.877  70.201  60.662  1.00  0.00     0.051 A 
ATOM     15  C   UNL     1      52.503  70.326  60.418  1.00  0.00     0.157 A 
ATOM     16  C   UNL     1      52.718  68.840  58.513  1.00  0.00     0.062 A 
ATOM     17  C   UNL     1      51.924  69.647  59.340  1.00  0.00     0.158 A 
BRANCH  15  18
ATOM     18  O   UNL     1      51.710  71.125  61.239  1.00  0.00    -0.504 OA
ATOM     19  H   UNL     1      51.066  71.807  60.854  1.00  0.00     0.293 HD
ENDBRANCH  15  18
BRANCH  17  20
ATOM     20  O   UNL     1      50.559  69.785  59.090  1.00  0.00    -0.504 OA
ATOM     21  H   UNL     1      49.865  69.506  59.774  1.00  0.00     0.293 HD
ENDBRANCH  17  20
ENDBRANCH   1  12
BRANCH   2  22
ATOM     22  O   UNL     1      55.792  69.815  56.697  1.00  0.00    -0.502 OA
ATOM     23  H   UNL     1      55.914  70.222  55.777  1.00  0.00     0.293 HD
ENDBRANCH   2  22
BRANCH   6  24
ATOM     24  O   UNL     1      58.201  65.708  54.605  1.00  0.00    -0.507 OA
ATOM     25  H   UNL     1      57.877  66.181  53.770  1.00  0.00     0.293 HD
ENDBRANCH   6  24
BRANCH   8  26
ATOM     26  O   UNL     1      56.217  62.058  57.058  1.00  0.00    -0.508 OA
ATOM     27  H   UNL     1      55.411  61.525  56.750  1.00  0.00     0.293 HD
ENDBRANCH   8  26
TORSDOF 6
ENDMDL
MODEL 2
REMARK VINA RESULT:    -1.955      2.769      5.925
REMARK INTER + INTRA:          -2.631
REMARK INTER:                  -2.497
REMARK INTRA:                  -0.134
REMARK UNBOUND:                -0.276
REMARK SMILES O=c1c(O)c(-c2ccc(O)c(O)c2)oc2cc(O)cc(O)c12
REMARK SMILES IDX 5 1 3 2 2 3 1 4 22 5 20 6 19 7 17 8 16 9 15 10 14 11 6 12
REMARK SMILES IDX 7 13 8 14 9 15 13 16 11 17 10 18 12 20 4 22 21 24 18 26
REMARK H PARENT 10 19 12 21 4 23 21 25 18 27
REMARK Flexibility Score: inf
ROOT
ATOM      1  C   UNL     1      57.242  67.598  55.743  1.00  0.00     0.180 A 
ATOM      2  C   UNL     1      56.262  68.079  56.632  1.00  0.00     0.208 A 
ATOM      3  C   UNL     1      55.449  67.156  57.309  1.00  0.00     0.238 A 
ATOM      4  O   UNL     1      54.560  67.575  58.100  1.00  0.00    -0.285 OA
ATOM      5  C   UNL     1      55.642  65.775  57.104  1.00  0.00     0.111 A 
ATOM      6  C   UNL     1      54.869  64.780  57.750  1.00  0.00     0.134 A 
ATOM      7  C   UNL     1      55.129  63.425  57.500  1.00  0.00     0.093 A 
ATOM      8  C   UNL     1      56.143  63.045  56.619  1.00  0.00     0.123 A 
ATOM      9  C   UNL     1      56.910  64.023  55.977  1.00  0.00     0.094 A 
ATOM     10  C   UNL     1      56.666  65.379  56.211  1.00  0.00     0.146 A 
ATOM     11  O   UNL     1      57.405  66.287  55.585  1.00  0.00    -0.452 OA
ENDROOT
BRANCH   1  12
ATOM     12  C   UNL     1      58.123  68.508  54.978  1.00  0.00     0.025 A 
ATOM     13  C   UNL     1      58.034  68.538  53.576  1.00  0.00     0.016 A 
ATOM     14  C   UNL     1      58.842  69.402  52.834  1.00  0.00     0.051 A 
ATOM     15  C   UNL     1      59.739  70.262  53.482  1.00  0.00     0.157 A 
ATOM     16  C   UNL     1      59.010  69.387  55.625  1.00  0.00     0.062 A 
ATOM     17  C   UNL     1      59.820  70.257  54.880  1.00  0.00     0.158 A 
BRANCH  15  18
ATOM     18  O   UNL     1      60.547  71.125  52.745  1.00  0.00    -0.504 OA
ATOM     19  H   UNL     1      61.081  71.862  53.192  1.00  0.00     0.293 HD
ENDBRANCH  15  18
BRANCH  17  20
ATOM     20  O   UNL     1      60.702  71.123  55.523  1.00  0.00    -0.504 OA
ATOM     21  H   UNL     1      60.424  71.653  56.340  1.00  0.00     0.293 HD
ENDBRANCH  17  20
ENDBRANCH   1  12
BRANCH   2  22
ATOM     22  O   UNL     1      56.123  69.451  56.856  1.00  0.00    -0.502 OA
ATOM     23  H   UNL     1      55.854  69.830  57.756  1.00  0.00     0.293 HD
ENDBRANCH   2  22
BRANCH   6  24
ATOM     24  O   UNL     1      53.848  65.126  58.637  1.00  0.00    -0.507 OA
ATOM     25  H   UNL     1      52.988  65.557  58.319  1.00  0.00     0.293 HD
ENDBRANCH   6  24
BRANCH   8  26
ATOM     26  O   UNL     1      56.381  61.692  56.387  1.00  0.00    -0.508 OA
ATOM     27  H   UNL     1      56.518  61.040  57.152  1.00  0.00     0.293 HD
ENDBRANCH   8  26
TORSDOF 6
ENDMDL
MODEL 3
REMARK VINA RESULT:    -1.573      2.649      8.050
REMARK INTER + INTRA:          -2.170
REMARK INTER:                  -1.846
REMARK INTRA:                  -0.324
REMARK UNBOUND:                -0.276
REMARK SMILES O=c1c(O)c(-c2ccc(O)c(O)c2)oc2cc(O)cc(O)c12
REMARK SMILES IDX 5 1 3 2 2 3 1 4 22 5 20 6 19 7 17 8 16 9 15 10 14 11 6 12
REMARK SMILES IDX 7 13 8 14 9 15 13 16 11 17 10 18 12 20 4 22 21 24 18 26
REMARK H PARENT 10 19 12 21 4 23 21 25 18 27
REMARK Flexibility Score: inf
ROOT
ATOM      1  C   UNL     1      52.896  69.960  60.143  1.00  0.00     0.180 A 
ATOM      2  C   UNL     1      53.384  70.289  61.422  1.00  0.00     0.208 A 
ATOM      3  C   UNL     1      52.466  70.570  62.445  1.00  0.00     0.238 A 
ATOM      4  O   UNL     1      52.891  70.877  63.593  1.00  0.00    -0.285 OA
ATOM      5  C   UNL     1      51.083  70.498  62.181  1.00  0.00     0.111 A 
ATOM      6  C   UNL     1      50.093  70.763  63.159  1.00  0.00     0.134 A 
ATOM      7  C   UNL     1      48.736  70.661  62.820  1.00  0.00     0.093 A 
ATOM      8  C   UNL     1      48.350  70.301  61.527  1.00  0.00     0.123 A 
ATOM      9  C   UNL     1      49.323  70.039  60.557  1.00  0.00     0.094 A 
ATOM     10  C   UNL     1      50.681  70.137  60.874  1.00  0.00     0.146 A 
ATOM     11  O   UNL     1      51.584  69.887  59.934  1.00  0.00    -0.452 OA
ENDROOT
BRANCH   1  12
ATOM     12  C   UNL     1      53.800  69.670  59.007  1.00  0.00     0.025 A 
ATOM     13  C   UNL     1      54.276  70.729  58.216  1.00  0.00     0.016 A 
ATOM     14  C   UNL     1      55.146  70.482  57.151  1.00  0.00     0.051 A 
ATOM     15  C   UNL     1      55.566  69.175  56.872  1.00  0.00     0.157 A 
ATOM     16  C   UNL     1      54.241  68.362  58.735  1.00  0.00     0.062 A 
ATOM     17  C   UNL     1      55.115  68.114  57.667  1.00  0.00     0.158 A 
BRANCH  15  18
ATOM     18  O   UNL     1      56.432  68.924  55.809  1.00  0.00    -0.504 OA
ATOM     19  H   UNL     1      57.307  69.427  55.708  1.00  0.00     0.293 HD
ENDBRANCH  15  18
BRANCH  17  20
ATOM     20  O   UNL     1      55.546  66.817  57.395  1.00  0.00    -0.504 OA
ATOM     21  H   UNL     1      56.062  66.275  58.079  1.00  0.00     0.293 HD
ENDBRANCH  17  20
ENDBRANCH   1  12
BRANCH   2  22
ATOM     22  O   UNL     1      54.758  70.305  61.671  1.00  0.00    -0.502 OA
ATOM     23  H   UNL     1      55.430  69.886  61.038  1.00  0.00     0.293 HD
ENDBRANCH   2  22
BRANCH   6  24
ATOM     24  O   UNL     1      50.446  71.124  64.460  1.00  0.00    -0.507 OA
ATOM     25  H   UNL     1      51.392  71.016  64.805  1.00  0.00     0.293 HD
ENDBRANCH   6  24
BRANCH   8  26
ATOM     26  O   UNL     1      46.995  70.206  61.216  1.00  0.00    -0.508 OA
ATOM     27  H   UNL     1      46.675  69.738  60.375  1.00  0.00     0.293 HD
ENDBRANCH   8  26
TORSDOF 6
ENDMDL
MODEL 4
REMARK VINA RESULT:    -1.471     13.548     17.049
REMARK INTER + INTRA:          -2.048
REMARK INTER:                  -1.843
REMARK INTRA:                  -0.204
REMARK UNBOUND:                -0.276
REMARK SMILES O=c1c(O)c(-c2ccc(O)c(O)c2)oc2cc(O)cc(O)c12
REMARK SMILES IDX 5 1 3 2 2 3 1 4 22 5 20 6 19 7 17 8 16 9 15 10 14 11 6 12
REMARK SMILES IDX 7 13 8 14 9 15 13 16 11 17 10 18 12 20 4 22 21 24 18 26
REMARK H PARENT 10 19 12 21 4 23 21 25 18 27
REMARK Flexibility Score: inf
ROOT
ATOM      1  C   UNL     1      52.418  52.240  52.688  1.00  0.00     0.180 A 
ATOM      2  C   UNL     1      51.034  52.051  52.868  1.00  0.00     0.208 A 
ATOM      3  C   UNL     1      50.254  51.671  51.765  1.00  0.00     0.238 A 
ATOM      4  O   UNL     1      49.011  51.509  51.911  1.00  0.00    -0.285 OA
ATOM      5  C   UNL     1      50.868  51.466  50.513  1.00  0.00     0.111 A 
ATOM      6  C   UNL     1      50.154  51.079  49.353  1.00  0.00     0.134 A 
ATOM      7  C   UNL     1      50.840  50.886  48.145  1.00  0.00     0.093 A 
ATOM      8  C   UNL     1      52.222  51.073  48.073  1.00  0.00     0.123 A 
ATOM      9  C   UNL     1      52.933  51.457  49.215  1.00  0.00     0.094 A 
ATOM     10  C   UNL     1      52.268  51.655  50.428  1.00  0.00     0.146 A 
ATOM     11  O   UNL     1      52.966  52.024  51.496  1.00  0.00    -0.452 OA
ENDROOT
BRANCH   1  12
ATOM     12  C   UNL     1      53.305  52.660  53.797  1.00  0.00     0.025 A 
ATOM     13  C   UNL     1      53.587  51.757  54.836  1.00  0.00     0.016 A 
ATOM     14  C   UNL     1      54.436  52.125  55.882  1.00  0.00     0.051 A 
ATOM     15  C   UNL     1      55.029  53.394  55.897  1.00  0.00     0.157 A 
ATOM     16  C   UNL     1      53.919  53.925  53.806  1.00  0.00     0.062 A 
ATOM     17  C   UNL     1      54.773  54.294  54.856  1.00  0.00     0.158 A 
BRANCH  15  18
ATOM     18  O   UNL     1      55.876  53.765  56.940  1.00  0.00    -0.504 OA
ATOM     19  H   UNL     1      56.828  54.070  56.768  1.00  0.00     0.293 HD
ENDBRANCH  15  18
BRANCH  17  20
ATOM     20  O   UNL     1      55.377  55.550  54.866  1.00  0.00    -0.504 OA
ATOM     21  H   UNL     1      56.361  55.668  54.655  1.00  0.00     0.293 HD
ENDBRANCH  17  20
ENDBRANCH   1  12
BRANCH   2  22
ATOM     22  O   UNL     1      50.457  52.212  54.130  1.00  0.00    -0.502 OA
ATOM     23  H   UNL     1      50.925  52.704  54.882  1.00  0.00     0.293 HD
ENDBRANCH   2  22
BRANCH   6  24
ATOM     24  O   UNL     1      48.772  50.883  49.392  1.00  0.00    -0.507 OA
ATOM     25  H   UNL     1      48.365  49.955  49.395  1.00  0.00     0.293 HD
ENDBRANCH   6  24
BRANCH   8  26
ATOM     26  O   UNL     1      52.879  50.875  46.861  1.00  0.00    -0.508 OA
ATOM     27  H   UNL     1      53.466  51.594  46.453  1.00  0.00     0.293 HD
ENDBRANCH   8  26
TORSDOF 6
ENDMDL
MODEL 5
REMARK VINA RESULT:    -1.431     14.292     17.358
REMARK INTER + INTRA:          -1.999
REMARK INTER:                  -1.735
REMARK INTRA:                  -0.264
REMARK UNBOUND:                -0.276
REMARK SMILES O=c1c(O)c(-c2ccc(O)c(O)c2)oc2cc(O)cc(O)c12
REMARK SMILES IDX 5 1 3 2 2 3 1 4 22 5 20 6 19 7 17 8 16 9 15 10 14 11 6 12
REMARK SMILES IDX 7 13 8 14 9 15 13 16 11 17 10 18 12 20 4 22 21 24 18 26
REMARK H PARENT 10 19 12 21 4 23 21 25 18 27
REMARK Flexibility Score: inf
ROOT
ATOM      1  C   UNL     1      60.585  51.785  59.039  1.00  0.00     0.180 A 
ATOM      2  C   UNL     1      60.515  51.538  60.423  1.00  0.00     0.208 A 
ATOM      3  C   UNL     1      61.704  51.316  61.133  1.00  0.00     0.238 A 
ATOM      4  O   UNL     1      61.654  51.082  62.372  1.00  0.00    -0.285 OA
ATOM      5  C   UNL     1      62.940  51.364  60.456  1.00  0.00     0.111 A 
ATOM      6  C   UNL     1      64.185  51.154  61.099  1.00  0.00     0.134 A 
ATOM      7  C   UNL     1      65.372  51.228  60.357  1.00  0.00     0.093 A 
ATOM      8  C   UNL     1      65.341  51.506  58.988  1.00  0.00     0.123 A 
ATOM      9  C   UNL     1      64.115  51.713  58.348  1.00  0.00     0.094 A 
ATOM     10  C   UNL     1      62.920  51.642  59.069  1.00  0.00     0.146 A 
ATOM     11  O   UNL     1      61.769  51.838  58.436  1.00  0.00    -0.452 OA
ENDROOT
BRANCH   1  12
ATOM     12  C   UNL     1      59.374  52.009  58.218  1.00  0.00     0.025 A 
ATOM     13  C   UNL     1      58.884  50.969  57.411  1.00  0.00     0.016 A 
ATOM     14  C   UNL     1      57.732  51.150  56.643  1.00  0.00     0.051 A 
ATOM     15  C   UNL     1      57.042  52.369  56.682  1.00  0.00     0.157 A 
ATOM     16  C   UNL     1      58.666  53.224  58.269  1.00  0.00     0.062 A 
ATOM     17  C   UNL     1      57.509  53.406  57.499  1.00  0.00     0.158 A 
BRANCH  15  18
ATOM     18  O   UNL     1      55.893  52.556  55.916  1.00  0.00    -0.504 OA
ATOM     19  H   UNL     1      55.801  52.152  54.990  1.00  0.00     0.293 HD
ENDBRANCH  15  18
BRANCH  17  20
ATOM     20  O   UNL     1      56.813  54.613  57.547  1.00  0.00    -0.504 OA
ATOM     21  H   UNL     1      56.264  54.940  56.760  1.00  0.00     0.293 HD
ENDBRANCH  17  20
ENDBRANCH   1  12
BRANCH   2  22
ATOM     22  O   UNL     1      59.282  51.545  61.080  1.00  0.00    -0.502 OA
ATOM     23  H   UNL     1      58.543  52.197  60.843  1.00  0.00     0.293 HD
ENDBRANCH   2  22
BRANCH   6  24
ATOM     24  O   UNL     1      64.250  50.876  62.465  1.00  0.00    -0.507 OA
ATOM     25  H   UNL     1      65.096  50.526  62.898  1.00  0.00     0.293 HD
ENDBRANCH   6  24
BRANCH   8  26
ATOM     26  O   UNL     1      66.535  51.574  58.274  1.00  0.00    -0.508 OA
ATOM     27  H   UNL     1      67.079  50.742  58.071  1.00  0.00     0.293 HD
ENDBRANCH   8  26
TORSDOF 6
ENDMDL
MODEL 6
REMARK VINA RESULT:    -0.501      1.463      2.219
REMARK INTER + INTRA:          -0.880
REMARK INTER:                  -0.856
REMARK INTRA:                  -0.024
REMARK UNBOUND:                -0.276
REMARK SMILES O=c1c(O)c(-c2ccc(O)c(O)c2)oc2cc(O)cc(O)c12
REMARK SMILES IDX 5 1 3 2 2 3 1 4 22 5 20 6 19 7 17 8 16 9 15 10 14 11 6 12
REMARK SMILES IDX 7 13 8 14 9 15 13 16 11 17 10 18 12 20 4 22 21 24 18 26
REMARK H PARENT 10 19 12 21 4 23 21 25 18 27
REMARK Flexibility Score: inf
ROOT
ATOM      1  C   UNL     1      53.432  68.926  58.843  1.00  0.00     0.180 A 
ATOM      2  C   UNL     1      54.242  69.750  58.038  1.00  0.00     0.208 A 
ATOM      3  C   UNL     1      55.274  69.162  57.290  1.00  0.00     0.238 A 
ATOM      4  O   UNL     1      56.014  69.890  56.573  1.00  0.00    -0.285 OA
ATOM      5  C   UNL     1      55.465  67.766  57.342  1.00  0.00     0.111 A 
ATOM      6  C   UNL     1      56.480  67.095  56.616  1.00  0.00     0.134 A 
ATOM      7  C   UNL     1      56.599  65.701  56.714  1.00  0.00     0.093 A 
ATOM      8  C   UNL     1      55.728  64.966  57.521  1.00  0.00     0.123 A 
ATOM      9  C   UNL     1      54.725  65.623  58.242  1.00  0.00     0.094 A 
ATOM     10  C   UNL     1      54.590  67.012  58.159  1.00  0.00     0.146 A 
ATOM     11  O   UNL     1      53.633  67.611  58.857  1.00  0.00    -0.452 OA
ENDROOT
BRANCH   1  12
ATOM     12  C   UNL     1      52.338  69.474  59.676  1.00  0.00     0.025 A 
ATOM     13  C   UNL     1      52.608  70.525  60.568  1.00  0.00     0.016 A 
ATOM     14  C   UNL     1      51.587  71.071  61.349  1.00  0.00     0.051 A 
ATOM     15  C   UNL     1      50.277  70.585  61.240  1.00  0.00     0.157 A 
ATOM     16  C   UNL     1      51.017  69.003  59.555  1.00  0.00     0.062 A 
ATOM     17  C   UNL     1      49.992  69.552  60.338  1.00  0.00     0.158 A 
BRANCH  15  18
ATOM     18  O   UNL     1      49.256  71.125  62.019  1.00  0.00    -0.504 OA
ATOM     19  H   UNL     1      49.078  70.797  62.962  1.00  0.00     0.293 HD
ENDBRANCH  15  18
BRANCH  17  20
ATOM     20  O   UNL     1      48.685  69.080  60.221  1.00  0.00    -0.504 OA
ATOM     21  H   UNL     1      48.409  68.467  59.463  1.00  0.00     0.293 HD
ENDBRANCH  17  20
ENDBRANCH   1  12
BRANCH   2  22
ATOM     22  O   UNL     1      54.001  71.124  57.965  1.00  0.00    -0.502 OA
ATOM     23  H   UNL     1      53.483  71.544  57.203  1.00  0.00     0.293 HD
ENDBRANCH   2  22
BRANCH   6  24
ATOM     24  O   UNL     1      57.365  67.800  55.799  1.00  0.00    -0.507 OA
ATOM     25  H   UNL     1      58.308  67.472  55.628  1.00  0.00     0.293 HD
ENDBRANCH   6  24
BRANCH   8  26
ATOM     26  O   UNL     1      55.869  63.583  57.601  1.00  0.00    -0.508 OA
ATOM     27  H   UNL     1      55.769  62.991  56.783  1.00  0.00     0.293 HD
ENDBRANCH   8  26
TORSDOF 6
ENDMDL
MODEL 7
REMARK VINA RESULT:     0.009     12.480     15.846
REMARK INTER + INTRA:          -0.264
REMARK INTER:                   0.060
REMARK INTRA:                  -0.324
REMARK UNBOUND:                -0.276
REMARK SMILES O=c1c(O)c(-c2ccc(O)c(O)c2)oc2cc(O)cc(O)c12
REMARK SMILES IDX 5 1 3 2 2 3 1 4 22 5 20 6 19 7 17 8 16 9 15 10 14 11 6 12
REMARK SMILES IDX 7 13 8 14 9 15 13 16 11 17 10 18 12 20 4 22 21 24 18 26
REMARK H PARENT 10 19 12 21 4 23 21 25 18 27
REMARK Flexibility Score: inf
ROOT
ATOM      1  C   UNL     1      53.258  53.087  53.777  1.00  0.00     0.180 A 
ATOM      2  C   UNL     1      53.596  52.342  52.632  1.00  0.00     0.208 A 
ATOM      3  C   UNL     1      52.566  51.842  51.820  1.00  0.00     0.238 A 
ATOM      4  O   UNL     1      52.856  51.162  50.797  1.00  0.00    -0.285 OA
ATOM      5  C   UNL     1      51.222  52.110  52.153  1.00  0.00     0.111 A 
ATOM      6  C   UNL     1      50.126  51.646  51.386  1.00  0.00     0.134 A 
ATOM      7  C   UNL     1      48.818  51.964  51.778  1.00  0.00     0.093 A 
ATOM      8  C   UNL     1      48.584  52.735  52.919  1.00  0.00     0.123 A 
ATOM      9  C   UNL     1      49.663  53.196  53.682  1.00  0.00     0.094 A 
ATOM     10  C   UNL     1      50.974  52.888  53.308  1.00  0.00     0.146 A 
ATOM     11  O   UNL     1      51.980  53.334  54.052  1.00  0.00    -0.452 OA
ENDROOT
BRANCH   1  12
ATOM     12  C   UNL     1      54.285  53.631  54.693  1.00  0.00     0.025 A 
ATOM     13  C   UNL     1      54.740  52.846  55.765  1.00  0.00     0.016 A 
ATOM     14  C   UNL     1      55.724  53.330  56.631  1.00  0.00     0.051 A 
ATOM     15  C   UNL     1      56.279  54.600  56.428  1.00  0.00     0.157 A 
ATOM     16  C   UNL     1      54.861  54.898  54.482  1.00  0.00     0.062 A 
ATOM     17  C   UNL     1      55.849  55.383  55.350  1.00  0.00     0.158 A 
BRANCH  15  18
ATOM     18  O   UNL     1      57.259  55.088  57.290  1.00  0.00    -0.504 OA
ATOM     19  H   UNL     1      57.243  56.045  57.625  1.00  0.00     0.293 HD
ENDBRANCH  15  18
BRANCH  17  20
ATOM     20  O   UNL     1      56.414  56.641  55.142  1.00  0.00    -0.504 OA
ATOM     21  H   UNL     1      55.844  57.478  55.100  1.00  0.00     0.293 HD
ENDBRANCH  17  20
ENDBRANCH   1  12
BRANCH   2  22
ATOM     22  O   UNL     1      54.936  52.131  52.297  1.00  0.00    -0.502 OA
ATOM     23  H   UNL     1      55.345  51.205  52.253  1.00  0.00     0.293 HD
ENDBRANCH   2  22
BRANCH   6  24
ATOM     24  O   UNL     1      50.327  50.875  50.240  1.00  0.00    -0.507 OA
ATOM     25  H   UNL     1      50.109  49.886  50.218  1.00  0.00     0.293 HD
ENDBRANCH   6  24
BRANCH   8  26
ATOM     26  O   UNL     1      47.275  53.037  53.287  1.00  0.00    -0.508 OA
ATOM     27  H   UNL     1      46.551  52.326  53.304  1.00  0.00     0.293 HD
ENDBRANCH   8  26
TORSDOF 6
ENDMDL
MODEL 8
REMARK VINA RESULT:     0.297     11.991     15.631
REMARK INTER + INTRA:           0.082
REMARK INTER:                   0.344
REMARK INTRA:                  -0.261
REMARK UNBOUND:                -0.276
REMARK SMILES O=c1c(O)c(-c2ccc(O)c(O)c2)oc2cc(O)cc(O)c12
REMARK SMILES IDX 5 1 3 2 2 3 1 4 22 5 20 6 19 7 17 8 16 9 15 10 14 11 6 12
REMARK SMILES IDX 7 13 8 14 9 15 13 16 11 17 10 18 12 20 4 22 21 24 18 26
REMARK H PARENT 10 19 12 21 4 23 21 25 18 27
REMARK Flexibility Score: inf
ROOT
ATOM      1  C   UNL     1      54.186  53.181  54.126  1.00  0.00     0.180 A 
ATOM      2  C   UNL     1      52.879  52.859  54.538  1.00  0.00     0.208 A 
ATOM      3  C   UNL     1      52.023  52.213  53.632  1.00  0.00     0.238 A 
ATOM      4  O   UNL     1      50.846  51.929  53.985  1.00  0.00    -0.285 OA
ATOM      5  C   UNL     1      52.492  51.883  52.344  1.00  0.00     0.111 A 
ATOM      6  C   UNL     1      51.694  51.228  51.374  1.00  0.00     0.134 A 
ATOM      7  C   UNL     1      52.237  50.925  50.117  1.00  0.00     0.093 A 
ATOM      8  C   UNL     1      53.557  51.263  49.811  1.00  0.00     0.123 A 
ATOM      9  C   UNL     1      54.350  51.910  50.765  1.00  0.00     0.094 A 
ATOM     10  C   UNL     1      53.827  52.222  52.023  1.00  0.00     0.146 A 
ATOM     11  O   UNL     1      54.599  52.841  52.908  1.00  0.00    -0.452 OA
ENDROOT
BRANCH   1  12
ATOM     12  C   UNL     1      55.141  53.880  55.016  1.00  0.00     0.025 A 
ATOM     13  C   UNL     1      55.777  53.165  56.044  1.00  0.00     0.016 A 
ATOM     14  C   UNL     1      56.696  53.799  56.884  1.00  0.00     0.051 A 
ATOM     15  C   UNL     1      57.005  55.152  56.698  1.00  0.00     0.157 A 
ATOM     16  C   UNL     1      55.471  55.234  54.821  1.00  0.00     0.062 A 
ATOM     17  C   UNL     1      56.395  55.869  55.662  1.00  0.00     0.158 A 
BRANCH  15  18
ATOM     18  O   UNL     1      57.921  55.789  57.534  1.00  0.00    -0.504 OA
ATOM     19  H   UNL     1      57.652  56.577  58.113  1.00  0.00     0.293 HD
ENDBRANCH  15  18
BRANCH  17  20
ATOM     20  O   UNL     1      56.716  57.212  55.470  1.00  0.00    -0.504 OA
ATOM     21  H   UNL     1      57.364  57.504  54.748  1.00  0.00     0.293 HD
ENDBRANCH  17  20
ENDBRANCH   1  12
BRANCH   2  22
ATOM     22  O   UNL     1      52.454  53.153  55.836  1.00  0.00    -0.502 OA
ATOM     23  H   UNL     1      51.475  53.250  56.078  1.00  0.00     0.293 HD
ENDBRANCH   2  22
BRANCH   6  24
ATOM     24  O   UNL     1      50.372  50.876  51.649  1.00  0.00    -0.507 OA
ATOM     25  H   UNL     1      49.704  51.550  52.004  1.00  0.00     0.293 HD
ENDBRANCH   6  24
BRANCH   8  26
ATOM     26  O   UNL     1      54.073  50.950  48.555  1.00  0.00    -0.508 OA
ATOM     27  H   UNL     1      53.838  50.082  48.087  1.00  0.00     0.293 HD
ENDBRANCH   8  26
TORSDOF 6
ENDMDL
MODEL 9
REMARK VINA RESULT:     0.347     12.679     16.060
REMARK INTER + INTRA:           0.143
REMARK INTER:                   0.475
REMARK INTRA:                  -0.332
REMARK UNBOUND:                -0.276
REMARK SMILES O=c1c(O)c(-c2ccc(O)c(O)c2)oc2cc(O)cc(O)c12
REMARK SMILES IDX 5 1 3 2 2 3 1 4 22 5 20 6 19 7 17 8 16 9 15 10 14 11 6 12
REMARK SMILES IDX 7 13 8 14 9 15 13 16 11 17 10 18 12 20 4 22 21 24 18 26
REMARK H PARENT 10 19 12 21 4 23 21 25 18 27
REMARK Flexibility Score: inf
ROOT
ATOM      1  C   UNL     1      59.225  52.622  58.241  1.00  0.00     0.180 A 
ATOM      2  C   UNL     1      60.486  52.384  57.662  1.00  0.00     0.208 A 
ATOM      3  C   UNL     1      61.522  51.893  58.472  1.00  0.00     0.238 A 
ATOM      4  O   UNL     1      62.660  51.686  57.967  1.00  0.00    -0.285 OA
ATOM      5  C   UNL     1      61.277  51.630  59.835  1.00  0.00     0.111 A 
ATOM      6  C   UNL     1      62.265  51.130  60.718  1.00  0.00     0.134 A 
ATOM      7  C   UNL     1      61.939  50.885  62.060  1.00  0.00     0.093 A 
ATOM      8  C   UNL     1      60.649  51.129  62.536  1.00  0.00     0.123 A 
ATOM      9  C   UNL     1      59.669  51.623  61.668  1.00  0.00     0.094 A 
ATOM     10  C   UNL     1      59.974  51.875  60.328  1.00  0.00     0.146 A 
ATOM     11  O   UNL     1      59.026  52.349  59.527  1.00  0.00    -0.452 OA
ENDROOT
BRANCH   1  12
ATOM     12  C   UNL     1      58.089  53.158  57.458  1.00  0.00     0.025 A 
ATOM     13  C   UNL     1      57.137  52.272  56.927  1.00  0.00     0.016 A 
ATOM     14  C   UNL     1      56.046  52.756  56.201  1.00  0.00     0.051 A 
ATOM     15  C   UNL     1      55.881  54.134  56.010  1.00  0.00     0.157 A 
ATOM     16  C   UNL     1      57.908  54.542  57.281  1.00  0.00     0.062 A 
ATOM     17  C   UNL     1      56.812  55.028  56.554  1.00  0.00     0.158 A 
BRANCH  15  18
ATOM     18  O   UNL     1      54.795  54.622  55.286  1.00  0.00    -0.504 OA
ATOM     19  H   UNL     1      54.426  55.552  55.445  1.00  0.00     0.293 HD
ENDBRANCH  15  18
BRANCH  17  20
ATOM     20  O   UNL     1      56.637  56.400  56.375  1.00  0.00    -0.504 OA
ATOM     21  H   UNL     1      57.063  56.891  55.598  1.00  0.00     0.293 HD
ENDBRANCH  17  20
ENDBRANCH   1  12
BRANCH   2  22
ATOM     22  O   UNL     1      60.691  52.606  56.298  1.00  0.00    -0.502 OA
ATOM     23  H   UNL     1      59.946  52.906  55.679  1.00  0.00     0.293 HD
ENDBRANCH   2  22
BRANCH   6  24
ATOM     24  O   UNL     1      63.563  50.875  60.273  1.00  0.00    -0.507 OA
ATOM     25  H   UNL     1      64.311  50.642  60.916  1.00  0.00     0.293 HD
ENDBRANCH   6  24
BRANCH   8  26
ATOM     26  O   UNL     1      60.351  50.877  63.873  1.00  0.00    -0.508 OA
ATOM     27  H   UNL     1      60.955  50.303  64.452  1.00  0.00     0.293 HD
ENDBRANCH   8  26
TORSDOF 6
ENDMDL
