MODEL 1
REMARK VINA RESULT:    -4.660      0.000      0.000
REMARK INTER + INTRA:          -5.025
REMARK INTER:                  -4.932
REMARK INTRA:                  -0.093
REMARK UNBOUND:                -0.093
REMARK SMILES C=C(C)[C@@H]1CC=C(C)C(=O)C1
REMARK SMILES IDX 8 1 7 2 6 3 5 4 4 5 11 6 9 7 10 8 2 9 1 10 3 11
REMARK H PARENT
REMARK Flexibility Score: inf
ROOT
ATOM      1  C   UNL     1       6.751 -14.333  18.356  1.00  0.00     0.048 C 
ATOM      2  C   UNL     1       6.746 -14.683  19.818  1.00  0.00    -0.012 C 
ATOM      3  C   UNL     1       6.015 -13.959  20.684  1.00  0.00    -0.019 C 
ATOM      4  C   UNL     1       5.916 -14.319  22.143  1.00  0.00     0.036 C 
ATOM      5  C   UNL     1       7.204 -15.008  22.635  1.00  0.00     0.025 C 
ATOM      6  C   UNL     1       7.527 -16.228  21.753  1.00  0.00     0.089 C 
ATOM      7  C   UNL     1       7.533 -15.845  20.298  1.00  0.00     0.158 C 
ATOM      8  O   UNL     1       8.178 -16.553  19.479  1.00  0.00    -0.295 OA
ENDROOT
BRANCH   5   9
ATOM      9  C   UNL     1       7.110 -15.388  24.107  1.00  0.00    -0.077 C 
ATOM     10  C   UNL     1       6.183 -16.254  24.548  1.00  0.00     0.008 C 
ATOM     11  C   UNL     1       8.069 -14.789  25.104  1.00  0.00     0.039 C 
ENDBRANCH   5   9
TORSDOF 1
ENDMDL
MODEL 2
REMARK VINA RESULT:    -4.619      5.636      6.814
REMARK INTER + INTRA:          -4.981
REMARK INTER:                  -4.893
REMARK INTRA:                  -0.089
REMARK UNBOUND:                -0.093
REMARK SMILES C=C(C)[C@@H]1CC=C(C)C(=O)C1
REMARK SMILES IDX 8 1 7 2 6 3 5 4 4 5 11 6 9 7 10 8 2 9 1 10 3 11
REMARK H PARENT
REMARK Flexibility Score: inf
ROOT
ATOM      1  C   UNL     1       9.469 -22.808  21.374  1.00  0.00     0.048 C 
ATOM      2  C   UNL     1       8.978 -22.067  22.586  1.00  0.00    -0.012 C 
ATOM      3  C   UNL     1       9.576 -22.246  23.777  1.00  0.00    -0.019 C 
ATOM      4  C   UNL     1       9.171 -21.467  25.000  1.00  0.00     0.036 C 
ATOM      5  C   UNL     1       7.675 -21.099  24.957  1.00  0.00     0.025 C 
ATOM      6  C   UNL     1       7.348 -20.349  23.651  1.00  0.00     0.089 C 
ATOM      7  C   UNL     1       7.844 -21.118  22.458  1.00  0.00     0.158 C 
ATOM      8  O   UNL     1       7.315 -20.914  21.333  1.00  0.00    -0.295 OA
ENDROOT
BRANCH   5   9
ATOM      9  C   UNL     1       7.257 -20.300  26.184  1.00  0.00    -0.077 C 
ATOM     10  C   UNL     1       6.707 -20.899  27.254  1.00  0.00     0.008 C 
ATOM     11  C   UNL     1       7.455 -18.807  26.216  1.00  0.00     0.039 C 
ENDBRANCH   5   9
TORSDOF 1
ENDMDL
MODEL 3
REMARK VINA RESULT:    -4.599      1.075      1.390
REMARK INTER + INTRA:          -4.961
REMARK INTER:                  -4.867
REMARK INTRA:                  -0.094
REMARK UNBOUND:                -0.093
REMARK SMILES C=C(C)[C@@H]1CC=C(C)C(=O)C1
REMARK SMILES IDX 8 1 7 2 6 3 5 4 4 5 11 6 9 7 10 8 2 9 1 10 3 11
REMARK H PARENT
REMARK Flexibility Score: inf
ROOT
ATOM      1  C   UNL     1       6.010 -13.529  19.267  1.00  0.00     0.048 C 
ATOM      2  C   UNL     1       6.360 -14.327  20.492  1.00  0.00    -0.012 C 
ATOM      3  C   UNL     1       5.921 -13.936  21.702  1.00  0.00    -0.019 C 
ATOM      4  C   UNL     1       6.179 -14.744  22.945  1.00  0.00     0.036 C 
ATOM      5  C   UNL     1       7.506 -15.521  22.840  1.00  0.00     0.025 C 
ATOM      6  C   UNL     1       7.518 -16.388  21.567  1.00  0.00     0.089 C 
ATOM      7  C   UNL     1       7.173 -15.561  20.359  1.00  0.00     0.158 C 
ATOM      8  O   UNL     1       7.543 -15.953  19.220  1.00  0.00    -0.295 OA
ENDROOT
BRANCH   5   9
ATOM      9  C   UNL     1       7.771 -16.352  24.089  1.00  0.00    -0.077 C 
ATOM     10  C   UNL     1       8.991 -16.852  24.350  1.00  0.00     0.008 C 
ATOM     11  C   UNL     1       6.654 -16.631  25.061  1.00  0.00     0.039 C 
ENDBRANCH   5   9
TORSDOF 1
ENDMDL
MODEL 4
REMARK VINA RESULT:    -4.510      1.921      2.955
REMARK INTER + INTRA:          -4.866
REMARK INTER:                  -4.770
REMARK INTRA:                  -0.096
REMARK UNBOUND:                -0.093
REMARK SMILES C=C(C)[C@@H]1CC=C(C)C(=O)C1
REMARK SMILES IDX 8 1 7 2 6 3 5 4 4 5 11 6 9 7 10 8 2 9 1 10 3 11
REMARK H PARENT
REMARK Flexibility Score: inf
ROOT
ATOM      1  C   UNL     1       6.799 -15.140  20.073  1.00  0.00     0.048 C 
ATOM      2  C   UNL     1       7.091 -15.463  21.512  1.00  0.00    -0.012 C 
ATOM      3  C   UNL     1       7.650 -16.642  21.840  1.00  0.00    -0.019 C 
ATOM      4  C   UNL     1       8.033 -16.978  23.257  1.00  0.00     0.036 C 
ATOM      5  C   UNL     1       7.103 -16.277  24.267  1.00  0.00     0.025 C 
ATOM      6  C   UNL     1       7.085 -14.758  24.011  1.00  0.00     0.089 C 
ATOM      7  C   UNL     1       6.782 -14.467  22.567  1.00  0.00     0.158 C 
ATOM      8  O   UNL     1       6.304 -13.344  22.255  1.00  0.00    -0.295 OA
ENDROOT
BRANCH   5   9
ATOM      9  C   UNL     1       7.490 -16.600  25.705  1.00  0.00    -0.077 C 
ATOM     10  C   UNL     1       8.039 -15.672  26.506  1.00  0.00     0.008 C 
ATOM     11  C   UNL     1       7.259 -17.984  26.255  1.00  0.00     0.039 C 
ENDBRANCH   5   9
TORSDOF 1
ENDMDL
MODEL 5
REMARK VINA RESULT:    -4.486      1.485      4.261
REMARK INTER + INTRA:          -4.841
REMARK INTER:                  -4.745
REMARK INTRA:                  -0.095
REMARK UNBOUND:                -0.093
REMARK SMILES C=C(C)[C@@H]1CC=C(C)C(=O)C1
REMARK SMILES IDX 8 1 7 2 6 3 5 4 4 5 11 6 9 7 10 8 2 9 1 10 3 11
REMARK H PARENT
REMARK Flexibility Score: inf
ROOT
ATOM      1  C   UNL     1       6.705 -16.382  24.961  1.00  0.00     0.048 C 
ATOM      2  C   UNL     1       6.815 -15.834  23.565  1.00  0.00    -0.012 C 
ATOM      3  C   UNL     1       6.135 -14.728  23.217  1.00  0.00    -0.019 C 
ATOM      4  C   UNL     1       6.275 -14.098  21.857  1.00  0.00     0.036 C 
ATOM      5  C   UNL     1       6.592 -15.156  20.782  1.00  0.00     0.025 C 
ATOM      6  C   UNL     1       7.839 -15.967  21.182  1.00  0.00     0.089 C 
ATOM      7  C   UNL     1       7.696 -16.508  22.579  1.00  0.00     0.158 C 
ATOM      8  O   UNL     1       8.370 -17.516  22.919  1.00  0.00    -0.295 OA
ENDROOT
BRANCH   5   9
ATOM      9  C   UNL     1       6.748 -14.529  19.403  1.00  0.00    -0.077 C 
ATOM     10  C   UNL     1       6.069 -13.421  19.058  1.00  0.00     0.008 C 
ATOM     11  C   UNL     1       7.677 -15.149  18.393  1.00  0.00     0.039 C 
ENDBRANCH   5   9
TORSDOF 1
ENDMDL
MODEL 6
REMARK VINA RESULT:    -4.427      5.361      6.165
REMARK INTER + INTRA:          -4.778
REMARK INTER:                  -4.689
REMARK INTRA:                  -0.089
REMARK UNBOUND:                -0.093
REMARK SMILES C=C(C)[C@@H]1CC=C(C)C(=O)C1
REMARK SMILES IDX 8 1 7 2 6 3 5 4 4 5 11 6 9 7 10 8 2 9 1 10 3 11
REMARK H PARENT
REMARK Flexibility Score: inf
ROOT
ATOM      1  C   UNL     1       8.304 -21.731  20.157  1.00  0.00     0.048 C 
ATOM      2  C   UNL     1       7.996 -21.324  21.572  1.00  0.00    -0.012 C 
ATOM      3  C   UNL     1       7.054 -20.396  21.818  1.00  0.00    -0.019 C 
ATOM      4  C   UNL     1       6.656 -20.014  23.219  1.00  0.00     0.036 C 
ATOM      5  C   UNL     1       7.839 -20.166  24.196  1.00  0.00     0.025 C 
ATOM      6  C   UNL     1       8.414 -21.593  24.120  1.00  0.00     0.089 C 
ATOM      7  C   UNL     1       8.719 -21.968  22.696  1.00  0.00     0.158 C 
ATOM      8  O   UNL     1       9.566 -22.872  22.467  1.00  0.00    -0.295 OA
ENDROOT
BRANCH   5   9
ATOM      9  C   UNL     1       7.444 -19.794  25.619  1.00  0.00    -0.077 C 
ATOM     10  C   UNL     1       7.453 -18.516  26.036  1.00  0.00     0.008 C 
ATOM     11  C   UNL     1       7.033 -20.867  26.593  1.00  0.00     0.039 C 
ENDBRANCH   5   9
TORSDOF 1
ENDMDL
MODEL 7
REMARK VINA RESULT:    -4.369      3.763      5.357
REMARK INTER + INTRA:          -4.717
REMARK INTER:                  -4.621
REMARK INTRA:                  -0.096
REMARK UNBOUND:                -0.093
REMARK SMILES C=C(C)[C@@H]1CC=C(C)C(=O)C1
REMARK SMILES IDX 8 1 7 2 6 3 5 4 4 5 11 6 9 7 10 8 2 9 1 10 3 11
REMARK H PARENT
REMARK Flexibility Score: inf
ROOT
ATOM      1  C   UNL     1       7.118 -14.652  24.008  1.00  0.00     0.048 C 
ATOM      2  C   UNL     1       7.314 -16.096  24.376  1.00  0.00    -0.012 C 
ATOM      3  C   UNL     1       7.140 -17.058  23.453  1.00  0.00    -0.019 C 
ATOM      4  C   UNL     1       7.402 -18.511  23.753  1.00  0.00     0.036 C 
ATOM      5  C   UNL     1       7.131 -18.831  25.236  1.00  0.00     0.025 C 
ATOM      6  C   UNL     1       7.948 -17.890  26.143  1.00  0.00     0.089 C 
ATOM      7  C   UNL     1       7.724 -16.454  25.756  1.00  0.00     0.158 C 
ATOM      8  O   UNL     1       7.935 -15.549  26.607  1.00  0.00    -0.295 OA
ENDROOT
BRANCH   5   9
ATOM      9  C   UNL     1       7.405 -20.295  25.554  1.00  0.00    -0.077 C 
ATOM     10  C   UNL     1       7.898 -21.132  24.625  1.00  0.00     0.008 C 
ATOM     11  C   UNL     1       7.123 -20.833  26.933  1.00  0.00     0.039 C 
ENDBRANCH   5   9
TORSDOF 1
ENDMDL
MODEL 8
REMARK VINA RESULT:    -4.347      3.409      4.916
REMARK INTER + INTRA:          -4.694
REMARK INTER:                  -4.601
REMARK INTRA:                  -0.092
REMARK UNBOUND:                -0.093
REMARK SMILES C=C(C)[C@@H]1CC=C(C)C(=O)C1
REMARK SMILES IDX 8 1 7 2 6 3 5 4 4 5 11 6 9 7 10 8 2 9 1 10 3 11
REMARK H PARENT
REMARK Flexibility Score: inf
ROOT
ATOM      1  C   UNL     1       7.146 -14.512  23.978  1.00  0.00     0.048 C 
ATOM      2  C   UNL     1       7.297 -15.977  23.674  1.00  0.00    -0.012 C 
ATOM      3  C   UNL     1       7.682 -16.376  22.449  1.00  0.00    -0.019 C 
ATOM      4  C   UNL     1       7.923 -17.826  22.120  1.00  0.00     0.036 C 
ATOM      5  C   UNL     1       7.020 -18.746  22.964  1.00  0.00     0.025 C 
ATOM      6  C   UNL     1       7.207 -18.448  24.464  1.00  0.00     0.089 C 
ATOM      7  C   UNL     1       7.042 -16.979  24.738  1.00  0.00     0.158 C 
ATOM      8  O   UNL     1       6.729 -16.602  25.899  1.00  0.00    -0.295 OA
ENDROOT
BRANCH   5   9
ATOM      9  C   UNL     1       7.265 -20.216  22.649  1.00  0.00    -0.077 C 
ATOM     10  C   UNL     1       6.992 -20.726  21.435  1.00  0.00     0.008 C 
ATOM     11  C   UNL     1       7.822 -21.133  23.707  1.00  0.00     0.039 C 
ENDBRANCH   5   9
TORSDOF 1
ENDMDL
MODEL 9
REMARK VINA RESULT:    -4.304      3.208      4.968
REMARK INTER + INTRA:          -4.649
REMARK INTER:                  -4.551
REMARK INTRA:                  -0.098
REMARK UNBOUND:                -0.093
REMARK SMILES C=C(C)[C@@H]1CC=C(C)C(=O)C1
REMARK SMILES IDX 8 1 7 2 6 3 5 4 4 5 11 6 9 7 10 8 2 9 1 10 3 11
REMARK H PARENT
REMARK Flexibility Score: inf
ROOT
ATOM      1  C   UNL     1       7.782 -14.420  24.486  1.00  0.00     0.048 C 
ATOM      2  C   UNL     1       7.569 -15.885  24.748  1.00  0.00    -0.012 C 
ATOM      3  C   UNL     1       7.420 -16.331  26.008  1.00  0.00    -0.019 C 
ATOM      4  C   UNL     1       7.126 -17.776  26.315  1.00  0.00     0.036 C 
ATOM      5  C   UNL     1       7.743 -18.708  25.253  1.00  0.00     0.025 C 
ATOM      6  C   UNL     1       7.269 -18.301  23.845  1.00  0.00     0.089 C 
ATOM      7  C   UNL     1       7.502 -16.833  23.609  1.00  0.00     0.158 C 
ATOM      8  O   UNL     1       7.593 -16.408  22.427  1.00  0.00    -0.295 OA
ENDROOT
BRANCH   5   9
ATOM      9  C   UNL     1       7.442 -20.171  25.546  1.00  0.00    -0.077 C 
ATOM     10  C   UNL     1       7.663 -21.128  24.629  1.00  0.00     0.008 C 
ATOM     11  C   UNL     1       6.885 -20.573  26.888  1.00  0.00     0.039 C 
ENDBRANCH   5   9
TORSDOF 1
ENDMDL
