MODEL 1
REMARK VINA RESULT:    -2.996      0.000      0.000
REMARK INTER + INTRA:          -4.907
REMARK INTER:                  -4.572
REMARK INTRA:                  -0.334
REMARK UNBOUND:                -0.334
REMARK SMILES CC1=CCC[C@@H](C)C(=O)C[C@@H](C(C)C)C(=O)C1
REMARK SMILES IDX 8 1 9 2 6 3 7 4 5 5 4 6 3 7 2 8 1 9 10 11 11 12 15 13 16 14
REMARK SMILES IDX 17 15 12 17 13 18 14 19
REMARK H PARENT
REMARK Flexibility Score: 70.00
ROOT
ATOM      1  C   UNL     1     151.548 159.001 201.129  1.00  0.00     0.136 C 
ATOM      2  O   UNL     1     151.821 158.497 202.206  1.00  0.00    -0.299 OA
ENDROOT
BRANCH   1   3
ATOM      3  C   UNL     1     150.796 160.329 201.135  1.00  0.00     0.053 C 
ATOM      4  C   UNL     1     150.591 160.959 202.524  1.00  0.00     0.016 C 
BRANCH   3   5
ATOM      5  C   UNL     1     149.461 160.246 200.348  1.00  0.00     0.015 C 
BRANCH   5   6
ATOM      6  C   UNL     1     149.468 160.941 198.972  1.00  0.00     0.028 C 
BRANCH   6   7
ATOM      7  C   UNL     1     149.040 159.991 197.875  1.00  0.00    -0.028 C 
ATOM      8  C   UNL     1     149.849 159.481 196.919  1.00  0.00    -0.070 CG0
ATOM      9  C   UNL     1     149.270 158.479 195.948  1.00  0.00     0.039 C 
ATOM     10  G   UNL     1     151.307 159.877 196.773  1.00  0.00     0.000 G0
ENDBRANCH   6   7
ENDBRANCH   5   6
ENDBRANCH   3   5
ENDBRANCH   1   3
BRANCH   1  11
ATOM     11  C   UNL     1     151.944 158.243 199.879  1.00  0.00     0.087 C 
BRANCH  11  12
ATOM     12  C   UNL     1     152.734 159.137 198.891  1.00  0.00     0.066 C 
BRANCH  12  13
ATOM     13  C   UNL     1     152.264 158.916 197.458  1.00  0.00     0.140 C 
ATOM     14  O   UNL     1     152.720 157.981 196.812  1.00  0.00    -0.299 OA
BRANCH  13  15
ATOM     15  C   UNL     1     151.320 159.876 196.772  1.00  0.00     0.106 CG0
ATOM     16  G   UNL     1     149.861 159.485 196.925  1.00  0.00     0.000 G0
ENDBRANCH  13  15
ENDBRANCH  12  13
BRANCH  12  17
ATOM     17  C   UNL     1     154.277 158.980 199.057  1.00  0.00    -0.006 C 
ATOM     18  C   UNL     1     154.630 157.731 199.885  1.00  0.00     0.008 C 
ATOM     19  C   UNL     1     154.982 160.217 199.641  1.00  0.00     0.008 C 
ENDBRANCH  12  17
ENDBRANCH  11  12
ENDBRANCH   1  11
TORSDOF 1
ENDMDL
MODEL 2
REMARK VINA RESULT:    -2.871      1.678      2.036
REMARK INTER + INTRA:          -4.716
REMARK INTER:                  -4.545
REMARK INTRA:                  -0.171
REMARK UNBOUND:                -0.334
REMARK SMILES CC1=CCC[C@@H](C)C(=O)C[C@@H](C(C)C)C(=O)C1
REMARK SMILES IDX 8 1 9 2 6 3 7 4 5 5 4 6 3 7 2 8 1 9 10 11 11 12 15 13 16 14
REMARK SMILES IDX 17 15 12 17 13 18 14 19
REMARK H PARENT
REMARK Flexibility Score: 70.00
ROOT
ATOM      1  C   UNL     1     151.765 159.847 201.457  1.00  0.00     0.136 C 
ATOM      2  O   UNL     1     152.801 160.484 201.547  1.00  0.00    -0.299 OA
ENDROOT
BRANCH   1   3
ATOM      3  C   UNL     1     150.448 160.613 201.551  1.00  0.00     0.053 C 
ATOM      4  C   UNL     1     149.701 160.469 202.888  1.00  0.00     0.016 C 
BRANCH   3   5
ATOM      5  C   UNL     1     149.515 160.318 200.346  1.00  0.00     0.015 C 
BRANCH   5   6
ATOM      6  C   UNL     1     150.185 160.414 198.961  1.00  0.00     0.028 C 
BRANCH   6   7
ATOM      7  C   UNL     1     149.877 159.197 198.117  1.00  0.00    -0.028 C 
ATOM      8  C   UNL     1     150.775 158.261 197.733  1.00  0.00    -0.070 CG0
ATOM      9  C   UNL     1     150.276 157.064 196.958  1.00  0.00     0.039 C 
ATOM     10  G   UNL     1     152.258 158.365 198.037  1.00  0.00     0.000 G0
ENDBRANCH   6   7
ENDBRANCH   5   6
ENDBRANCH   3   5
ENDBRANCH   1   3
BRANCH   1  11
ATOM     11  C   UNL     1     151.876 158.344 201.300  1.00  0.00     0.087 C 
BRANCH  11  12
ATOM     12  C   UNL     1     153.131 157.943 200.486  1.00  0.00     0.066 C 
BRANCH  12  13
ATOM     13  C   UNL     1     152.745 157.429 199.104  1.00  0.00     0.140 C 
ATOM     14  O   UNL     1     152.891 156.243 198.839  1.00  0.00    -0.299 OA
BRANCH  13  15
ATOM     15  C   UNL     1     152.275 158.360 198.010  1.00  0.00     0.106 CG0
ATOM     16  G   UNL     1     150.789 158.236 197.724  1.00  0.00     0.000 G0
ENDBRANCH  13  15
ENDBRANCH  12  13
BRANCH  12  17
ATOM     17  C   UNL     1     154.051 156.955 201.268  1.00  0.00    -0.006 C 
ATOM     18  C   UNL     1     153.368 156.445 202.550  1.00  0.00     0.008 C 
ATOM     19  C   UNL     1     155.446 157.515 201.600  1.00  0.00     0.008 C 
ENDBRANCH  12  17
ENDBRANCH  11  12
ENDBRANCH   1  11
TORSDOF 1
ENDMDL
MODEL 3
REMARK VINA RESULT:    -2.807      6.268      8.551
REMARK INTER + INTRA:          -4.618
REMARK INTER:                  -4.614
REMARK INTRA:                  -0.005
REMARK UNBOUND:                -0.334
REMARK SMILES CC1=CCC[C@@H](C)C(=O)C[C@@H](C(C)C)C(=O)C1
REMARK SMILES IDX 8 1 9 2 6 3 7 4 5 5 4 6 3 7 2 8 1 9 10 11 11 12 15 13 16 14
REMARK SMILES IDX 17 15 12 17 13 18 14 19
REMARK H PARENT
REMARK Flexibility Score: 70.00
ROOT
ATOM      1  C   UNL     1     156.915 165.269 197.622  1.00  0.00     0.136 C 
ATOM      2  O   UNL     1     155.771 165.337 198.041  1.00  0.00    -0.299 OA
ENDROOT
BRANCH   1   3
ATOM      3  C   UNL     1     158.005 165.989 198.410  1.00  0.00     0.053 C 
ATOM      4  C   UNL     1     159.213 166.456 197.580  1.00  0.00     0.016 C 
BRANCH   3   5
ATOM      5  C   UNL     1     158.453 165.180 199.656  1.00  0.00     0.015 C 
BRANCH   5   6
ATOM      6  C   UNL     1     157.863 163.760 199.763  1.00  0.00     0.028 C 
BRANCH   6   7
ATOM      7  C   UNL     1     158.927 162.706 199.552  1.00  0.00    -0.028 C 
ATOM      8  C   UNL     1     158.827 161.645 198.718  1.00  0.00    -0.070 CG0
ATOM      9  C   UNL     1     160.023 160.734 198.569  1.00  0.00     0.039 C 
ATOM     10  G   UNL     1     157.566 161.325 197.936  1.00  0.00     0.000 G0
ENDBRANCH   6   7
ENDBRANCH   5   6
ENDBRANCH   3   5
ENDBRANCH   1   3
BRANCH   1  11
ATOM     11  C   UNL     1     157.145 164.509 196.331  1.00  0.00     0.087 C 
BRANCH  11  12
ATOM     12  C   UNL     1     156.450 163.125 196.348  1.00  0.00     0.066 C 
BRANCH  12  13
ATOM     13  C   UNL     1     157.460 162.010 196.597  1.00  0.00     0.140 C 
ATOM     14  O   UNL     1     158.156 161.610 195.673  1.00  0.00    -0.299 OA
BRANCH  13  15
ATOM     15  C   UNL     1     157.562 161.311 197.933  1.00  0.00     0.106 CG0
ATOM     16  G   UNL     1     158.829 161.663 198.691  1.00  0.00     0.000 G0
ENDBRANCH  13  15
ENDBRANCH  12  13
BRANCH  12  17
ATOM     17  C   UNL     1     155.580 162.887 195.076  1.00  0.00    -0.006 C 
ATOM     18  C   UNL     1     155.444 164.170 194.238  1.00  0.00     0.008 C 
ATOM     19  C   UNL     1     154.190 162.291 195.360  1.00  0.00     0.008 C 
ENDBRANCH  12  17
ENDBRANCH  11  12
ENDBRANCH   1  11
TORSDOF 1
ENDMDL
MODEL 4
REMARK VINA RESULT:    -2.798      6.876      9.119
REMARK INTER + INTRA:          -4.605
REMARK INTER:                  -4.435
REMARK INTRA:                  -0.169
REMARK UNBOUND:                -0.334
REMARK SMILES CC1=CCC[C@@H](C)C(=O)C[C@@H](C(C)C)C(=O)C1
REMARK SMILES IDX 8 1 9 2 6 3 7 4 5 5 4 6 3 7 2 8 1 9 10 11 11 12 15 13 16 14
REMARK SMILES IDX 17 15 12 17 13 18 14 19
REMARK H PARENT
REMARK Flexibility Score: 70.00
ROOT
ATOM      1  C   UNL     1     156.303 164.585 197.263  1.00  0.00     0.136 C 
ATOM      2  O   UNL     1     155.400 165.357 197.539  1.00  0.00    -0.299 OA
ENDROOT
BRANCH   1   3
ATOM      3  C   UNL     1     156.126 163.692 196.038  1.00  0.00     0.053 C 
ATOM      4  C   UNL     1     155.221 164.267 194.934  1.00  0.00     0.016 C 
BRANCH   3   5
ATOM      5  C   UNL     1     155.701 162.250 196.424  1.00  0.00     0.015 C 
BRANCH   5   6
ATOM      6  C   UNL     1     156.862 161.294 196.764  1.00  0.00     0.028 C 
BRANCH   6   7
ATOM      7  C   UNL     1     158.007 161.452 195.789  1.00  0.00    -0.028 C 
ATOM      8  C   UNL     1     159.212 161.997 196.075  1.00  0.00    -0.070 CG0
ATOM      9  C   UNL     1     160.272 162.000 194.999  1.00  0.00     0.039 C 
ATOM     10  G   UNL     1     159.541 162.613 197.423  1.00  0.00     0.000 G0
ENDBRANCH   6   7
ENDBRANCH   5   6
ENDBRANCH   3   5
ENDBRANCH   1   3
BRANCH   1  11
ATOM     11  C   UNL     1     157.505 164.552 198.184  1.00  0.00     0.087 C 
BRANCH  11  12
ATOM     12  C   UNL     1     158.766 165.143 197.506  1.00  0.00     0.066 C 
BRANCH  12  13
ATOM     13  C   UNL     1     159.860 164.091 197.376  1.00  0.00     0.140 C 
ATOM     14  O   UNL     1     161.007 164.441 197.127  1.00  0.00    -0.299 OA
BRANCH  13  15
ATOM     15  C   UNL     1     159.557 162.612 197.447  1.00  0.00     0.106 CG0
ATOM     16  G   UNL     1     159.196 162.014 196.099  1.00  0.00     0.000 G0
ENDBRANCH  13  15
ENDBRANCH  12  13
BRANCH  12  17
ATOM     17  C   UNL     1     159.255 166.448 198.206  1.00  0.00    -0.006 C 
ATOM     18  C   UNL     1     158.894 166.454 199.702  1.00  0.00     0.008 C 
ATOM     19  C   UNL     1     158.767 167.747 197.539  1.00  0.00     0.008 C 
ENDBRANCH  12  17
ENDBRANCH  11  12
ENDBRANCH   1  11
TORSDOF 1
ENDMDL
MODEL 5
REMARK VINA RESULT:    -2.790      2.003      4.028
REMARK INTER + INTRA:          -4.593
REMARK INTER:                  -4.834
REMARK INTRA:                   0.241
REMARK UNBOUND:                -0.334
REMARK SMILES CC1=CCC[C@@H](C)C(=O)C[C@@H](C(C)C)C(=O)C1
REMARK SMILES IDX 8 1 9 2 6 3 7 4 5 5 4 6 3 7 2 8 1 9 10 11 11 12 15 13 16 14
REMARK SMILES IDX 17 15 12 17 13 18 14 19
REMARK H PARENT
REMARK Flexibility Score: 70.00
ROOT
ATOM      1  C   UNL     1     149.717 160.263 200.325  1.00  0.00     0.136 C 
ATOM      2  O   UNL     1     148.506 160.397 200.261  1.00  0.00    -0.299 OA
ENDROOT
BRANCH   1   3
ATOM      3  C   UNL     1     150.345 160.120 201.708  1.00  0.00     0.053 C 
ATOM      4  C   UNL     1     149.430 160.500 202.885  1.00  0.00     0.016 C 
BRANCH   3   5
ATOM      5  C   UNL     1     151.717 160.838 201.802  1.00  0.00     0.015 C 
BRANCH   5   6
ATOM      6  C   UNL     1     152.924 160.014 201.310  1.00  0.00     0.028 C 
BRANCH   6   7
ATOM      7  C   UNL     1     152.654 158.530 201.415  1.00  0.00    -0.028 C 
ATOM      8  C   UNL     1     152.476 157.688 200.370  1.00  0.00    -0.070 CG0
ATOM      9  C   UNL     1     152.299 156.216 200.657  1.00  0.00     0.039 C 
ATOM     10  G   UNL     1     152.436 158.160 198.928  1.00  0.00     0.000 G0
ENDBRANCH   6   7
ENDBRANCH   5   6
ENDBRANCH   3   5
ENDBRANCH   1   3
BRANCH   1  11
ATOM     11  C   UNL     1     150.496 160.290 199.025  1.00  0.00     0.087 C 
BRANCH  11  12
ATOM     12  C   UNL     1     150.115 159.105 198.102  1.00  0.00     0.066 C 
BRANCH  12  13
ATOM     13  C   UNL     1     151.125 157.970 198.226  1.00  0.00     0.140 C 
ATOM     14  O   UNL     1     150.826 156.851 197.831  1.00  0.00    -0.299 OA
BRANCH  13  15
ATOM     15  C   UNL     1     152.458 158.160 198.914  1.00  0.00     0.106 CG0
ATOM     16  G   UNL     1     152.453 157.690 200.358  1.00  0.00     0.000 G0
ENDBRANCH  13  15
ENDBRANCH  12  13
BRANCH  12  17
ATOM     17  C   UNL     1     149.883 159.556 196.628  1.00  0.00    -0.006 C 
ATOM     18  C   UNL     1     151.178 160.095 195.994  1.00  0.00     0.008 C 
ATOM     19  C   UNL     1     148.743 160.574 196.448  1.00  0.00     0.008 C 
ENDBRANCH  12  17
ENDBRANCH  11  12
ENDBRANCH   1  11
TORSDOF 1
ENDMDL
MODEL 6
REMARK VINA RESULT:    -2.661      6.005      7.956
REMARK INTER + INTRA:          -4.396
REMARK INTER:                  -4.040
REMARK INTRA:                  -0.356
REMARK UNBOUND:                -0.334
REMARK SMILES CC1=CCC[C@@H](C)C(=O)C[C@@H](C(C)C)C(=O)C1
REMARK SMILES IDX 8 1 9 2 6 3 7 4 5 5 4 6 3 7 2 8 1 9 10 11 11 12 15 13 16 14
REMARK SMILES IDX 17 15 12 17 13 18 14 19
REMARK H PARENT
REMARK Flexibility Score: 70.00
ROOT
ATOM      1  C   UNL     1     158.527 163.693 199.187  1.00  0.00     0.136 C 
ATOM      2  O   UNL     1     157.750 163.323 200.052  1.00  0.00    -0.299 OA
ENDROOT
BRANCH   1   3
ATOM      3  C   UNL     1     158.334 165.092 198.609  1.00  0.00     0.053 C 
ATOM      4  C   UNL     1     158.747 166.246 199.538  1.00  0.00     0.016 C 
BRANCH   3   5
ATOM      5  C   UNL     1     156.902 165.299 198.048  1.00  0.00     0.015 C 
BRANCH   5   6
ATOM      6  C   UNL     1     156.682 164.795 196.608  1.00  0.00     0.028 C 
BRANCH   6   7
ATOM      7  C   UNL     1     155.762 163.596 196.580  1.00  0.00    -0.028 C 
ATOM      8  C   UNL     1     156.113 162.345 196.204  1.00  0.00    -0.070 CG0
ATOM      9  C   UNL     1     155.083 161.246 196.316  1.00  0.00     0.039 C 
ATOM     10  G   UNL     1     157.490 162.001 195.665  1.00  0.00     0.000 G0
ENDBRANCH   6   7
ENDBRANCH   5   6
ENDBRANCH   3   5
ENDBRANCH   1   3
BRANCH   1  11
ATOM     11  C   UNL     1     159.590 162.714 198.734  1.00  0.00     0.087 C 
BRANCH  11  12
ATOM     12  C   UNL     1     159.601 162.549 197.193  1.00  0.00     0.066 C 
BRANCH  12  13
ATOM     13  C   UNL     1     158.496 161.605 196.737  1.00  0.00     0.140 C 
ATOM     14  O   UNL     1     158.450 160.468 197.189  1.00  0.00    -0.299 OA
BRANCH  13  15
ATOM     15  C   UNL     1     157.504 161.996 195.665  1.00  0.00     0.106 CG0
ATOM     16  G   UNL     1     156.129 162.321 196.219  1.00  0.00     0.000 G0
ENDBRANCH  13  15
ENDBRANCH  12  13
BRANCH  12  17
ATOM     17  C   UNL     1     161.008 162.147 196.653  1.00  0.00    -0.006 C 
ATOM     18  C   UNL     1     161.978 161.815 197.801  1.00  0.00     0.008 C 
ATOM     19  C   UNL     1     161.643 163.182 195.706  1.00  0.00     0.008 C 
ENDBRANCH  12  17
ENDBRANCH  11  12
ENDBRANCH   1  11
TORSDOF 1
ENDMDL
MODEL 7
REMARK VINA RESULT:    -2.639      2.163      4.210
REMARK INTER + INTRA:          -4.361
REMARK INTER:                  -4.143
REMARK INTRA:                  -0.219
REMARK UNBOUND:                -0.334
REMARK SMILES CC1=CCC[C@@H](C)C(=O)C[C@@H](C(C)C)C(=O)C1
REMARK SMILES IDX 8 1 9 2 6 3 7 4 5 5 4 6 3 7 2 8 1 9 10 11 11 12 15 13 16 14
REMARK SMILES IDX 17 15 12 17 13 18 14 19
REMARK H PARENT
REMARK Flexibility Score: 70.00
ROOT
ATOM      1  C   UNL     1     154.061 158.444 201.554  1.00  0.00     0.136 C 
ATOM      2  O   UNL     1     155.271 158.582 201.635  1.00  0.00    -0.299 OA
ENDROOT
BRANCH   1   3
ATOM      3  C   UNL     1     153.493 157.038 201.724  1.00  0.00     0.053 C 
ATOM      4  C   UNL     1     153.634 156.441 203.135  1.00  0.00     0.016 C 
BRANCH   3   5
ATOM      5  C   UNL     1     154.021 156.061 200.640  1.00  0.00     0.015 C 
BRANCH   5   6
ATOM      6  C   UNL     1     153.018 155.721 199.520  1.00  0.00     0.028 C 
BRANCH   6   7
ATOM      7  C   UNL     1     153.520 156.189 198.172  1.00  0.00    -0.028 C 
ATOM      8  C   UNL     1     153.074 157.277 197.503  1.00  0.00    -0.070 CG0
ATOM      9  C   UNL     1     153.748 157.646 196.203  1.00  0.00     0.039 C 
ATOM     10  G   UNL     1     151.923 158.135 197.995  1.00  0.00     0.000 G0
ENDBRANCH   6   7
ENDBRANCH   5   6
ENDBRANCH   3   5
ENDBRANCH   1   3
BRANCH   1  11
ATOM     11  C   UNL     1     153.233 159.676 201.252  1.00  0.00     0.087 C 
BRANCH  11  12
ATOM     12  C   UNL     1     152.003 159.340 200.373  1.00  0.00     0.066 C 
BRANCH  12  13
ATOM     13  C   UNL     1     152.385 159.280 198.899  1.00  0.00     0.140 C 
ATOM     14  O   UNL     1     153.022 160.200 198.403  1.00  0.00    -0.299 OA
BRANCH  13  15
ATOM     15  C   UNL     1     151.918 158.158 197.999  1.00  0.00     0.106 CG0
ATOM     16  G   UNL     1     153.053 157.276 197.513  1.00  0.00     0.000 G0
ENDBRANCH  13  15
ENDBRANCH  12  13
BRANCH  12  17
ATOM     17  C   UNL     1     150.800 160.293 200.652  1.00  0.00    -0.006 C 
ATOM     18  C   UNL     1     150.652 160.587 202.156  1.00  0.00     0.008 C 
ATOM     19  C   UNL     1     149.459 159.809 200.073  1.00  0.00     0.008 C 
ENDBRANCH  12  17
ENDBRANCH  11  12
ENDBRANCH   1  11
TORSDOF 1
ENDMDL
MODEL 8
REMARK VINA RESULT:    -2.624      3.195      5.047
REMARK INTER + INTRA:          -4.339
REMARK INTER:                  -4.056
REMARK INTRA:                  -0.283
REMARK UNBOUND:                -0.334
REMARK SMILES CC1=CCC[C@@H](C)C(=O)C[C@@H](C(C)C)C(=O)C1
REMARK SMILES IDX 8 1 9 2 6 3 7 4 5 5 4 6 3 7 2 8 1 9 10 11 11 12 15 13 16 14
REMARK SMILES IDX 17 15 12 17 13 18 14 19
REMARK H PARENT
REMARK Flexibility Score: 70.00
ROOT
ATOM      1  C   UNL     1     151.463 158.315 200.449  1.00  0.00     0.136 C 
ATOM      2  O   UNL     1     151.153 158.594 199.302  1.00  0.00    -0.299 OA
ENDROOT
BRANCH   1   3
ATOM      3  C   UNL     1     151.971 159.443 201.342  1.00  0.00     0.053 C 
ATOM      4  C   UNL     1     150.915 160.490 201.738  1.00  0.00     0.016 C 
BRANCH   3   5
ATOM      5  C   UNL     1     153.247 160.114 200.767  1.00  0.00     0.015 C 
BRANCH   5   6
ATOM      6  C   UNL     1     154.547 159.303 200.936  1.00  0.00     0.028 C 
BRANCH   6   7
ATOM      7  C   UNL     1     154.902 158.563 199.666  1.00  0.00    -0.028 C 
ATOM      8  C   UNL     1     155.063 157.224 199.555  1.00  0.00    -0.070 CG0
ATOM      9  C   UNL     1     155.337 156.645 198.188  1.00  0.00     0.039 C 
ATOM     10  G   UNL     1     154.991 156.283 200.744  1.00  0.00     0.000 G0
ENDBRANCH   6   7
ENDBRANCH   5   6
ENDBRANCH   3   5
ENDBRANCH   1   3
BRANCH   1  11
ATOM     11  C   UNL     1     151.355 156.865 200.872  1.00  0.00     0.087 C 
BRANCH  11  12
ATOM     12  C   UNL     1     152.549 156.434 201.759  1.00  0.00     0.066 C 
BRANCH  12  13
ATOM     13  C   UNL     1     153.601 155.697 200.939  1.00  0.00     0.140 C 
ATOM     14  O   UNL     1     153.350 154.581 200.501  1.00  0.00    -0.299 OA
BRANCH  13  15
ATOM     15  C   UNL     1     154.988 156.259 200.729  1.00  0.00     0.106 CG0
ATOM     16  G   UNL     1     155.065 157.229 199.564  1.00  0.00     0.000 G0
ENDBRANCH  13  15
ENDBRANCH  12  13
BRANCH  12  17
ATOM     17  C   UNL     1     152.091 155.639 203.020  1.00  0.00    -0.006 C 
ATOM     18  C   UNL     1     150.935 154.678 202.690  1.00  0.00     0.008 C 
ATOM     19  C   UNL     1     151.719 156.520 204.226  1.00  0.00     0.008 C 
ENDBRANCH  12  17
ENDBRANCH  11  12
ENDBRANCH   1  11
TORSDOF 1
ENDMDL
MODEL 9
REMARK VINA RESULT:    -2.542      2.217      4.521
REMARK INTER + INTRA:          -4.214
REMARK INTER:                  -4.000
REMARK INTRA:                  -0.213
REMARK UNBOUND:                -0.334
REMARK SMILES CC1=CCC[C@@H](C)C(=O)C[C@@H](C(C)C)C(=O)C1
REMARK SMILES IDX 8 1 9 2 6 3 7 4 5 5 4 6 3 7 2 8 1 9 10 11 11 12 15 13 16 14
REMARK SMILES IDX 17 15 12 17 13 18 14 19
REMARK H PARENT
REMARK Flexibility Score: 70.00
ROOT
ATOM      1  C   UNL     1     150.961 159.794 199.838  1.00  0.00     0.136 C 
ATOM      2  O   UNL     1     149.748 159.711 199.745  1.00  0.00    -0.299 OA
ENDROOT
BRANCH   1   3
ATOM      3  C   UNL     1     151.576 159.697 201.232  1.00  0.00     0.053 C 
ATOM      4  C   UNL     1     150.843 160.491 202.327  1.00  0.00     0.016 C 
BRANCH   3   5
ATOM      5  C   UNL     1     153.095 160.013 201.221  1.00  0.00     0.015 C 
BRANCH   5   6
ATOM      6  C   UNL     1     154.021 158.782 201.275  1.00  0.00     0.028 C 
BRANCH   6   7
ATOM      7  C   UNL     1     155.323 159.042 200.550  1.00  0.00    -0.028 C 
ATOM      8  C   UNL     1     155.602 158.671 199.279  1.00  0.00    -0.070 CG0
ATOM      9  C   UNL     1     156.926 159.086 198.684  1.00  0.00     0.039 C 
ATOM     10  G   UNL     1     154.649 157.848 198.431  1.00  0.00     0.000 G0
ENDBRANCH   6   7
ENDBRANCH   5   6
ENDBRANCH   3   5
ENDBRANCH   1   3
BRANCH   1  11
ATOM     11  C   UNL     1     151.748 160.027 198.565  1.00  0.00     0.087 C 
BRANCH  11  12
ATOM     12  C   UNL     1     152.195 158.695 197.913  1.00  0.00     0.066 C 
BRANCH  12  13
ATOM     13  C   UNL     1     153.690 158.703 197.622  1.00  0.00     0.140 C 
ATOM     14  O   UNL     1     154.116 159.351 196.674  1.00  0.00    -0.299 OA
BRANCH  13  15
ATOM     15  C   UNL     1     154.661 157.855 198.411  1.00  0.00     0.106 CG0
ATOM     16  G   UNL     1     155.604 158.676 199.271  1.00  0.00     0.000 G0
ENDBRANCH  13  15
ENDBRANCH  12  13
BRANCH  12  17
ATOM     17  C   UNL     1     151.333 158.330 196.665  1.00  0.00    -0.006 C 
ATOM     18  C   UNL     1     150.653 159.575 196.068  1.00  0.00     0.008 C 
ATOM     19  C   UNL     1     150.289 157.227 196.915  1.00  0.00     0.008 C 
ENDBRANCH  12  17
ENDBRANCH  11  12
ENDBRANCH   1  11
TORSDOF 1
ENDMDL
