MODEL 1
REMARK VINA RESULT:    -4.313      0.000      0.000
REMARK INTER + INTRA:         -10.536
REMARK INTER:                  -8.348
REMARK INTRA:                  -2.188
REMARK UNBOUND:                -2.188
REMARK SMILES CCCCCCCCCCCCCCCCCC(=O)[O-]
REMARK SMILES IDX 10 1 11 2 12 3 13 4 14 5 15 6 16 7 17 8 18 9 19 10 20 11
REMARK SMILES IDX 9 12 8 13 7 14 6 15 5 16 4 17 3 18 2 19 1 20
REMARK H PARENT
REMARK Flexibility Score: inf
ROOT
ATOM      1  C   UNL     1      21.631  22.421  18.673  1.00  0.00     0.000 C 
ENDROOT
BRANCH   1   2
ATOM      2  C   UNL     1      22.649  22.441  19.832  1.00  0.00     0.000 C 
BRANCH   2   3
ATOM      3  C   UNL     1      22.221  21.658  21.087  1.00  0.00     0.000 C 
BRANCH   3   4
ATOM      4  C   UNL     1      22.929  20.303  21.275  1.00  0.00     0.000 C 
BRANCH   4   5
ATOM      5  C   UNL     1      21.965  19.136  21.581  1.00  0.00     0.000 C 
BRANCH   5   6
ATOM      6  C   UNL     1      22.570  17.768  21.224  1.00  0.00     0.000 C 
BRANCH   6   7
ATOM      7  C   UNL     1      24.093  17.828  20.988  1.00  0.00     0.006 C 
BRANCH   7   8
ATOM      8  C   UNL     1      24.554  17.088  19.722  1.00  0.00     0.053 C 
BRANCH   8   9
ATOM      9  C   UNL     1      26.023  17.233  19.476  1.00  0.00     0.041 C 
ATOM     10  O   UNL     1      26.698  18.066  20.137  1.00  0.00    -0.550 OA
ATOM     11  O   UNL     1      26.651  16.444  18.520  1.00  0.00    -0.550 OA
ENDBRANCH   8   9
ENDBRANCH   7   8
ENDBRANCH   6   7
ENDBRANCH   5   6
ENDBRANCH   4   5
ENDBRANCH   3   4
ENDBRANCH   2   3
ENDBRANCH   1   2
BRANCH   1  12
ATOM     12  C   UNL     1      21.318  23.797  18.050  1.00  0.00     0.000 C 
BRANCH  12  13
ATOM     13  C   UNL     1      20.742  24.836  19.028  1.00  0.00    -0.000 C 
BRANCH  13  14
ATOM     14  C   UNL     1      19.437  24.367  19.695  1.00  0.00    -0.000 C 
BRANCH  14  15
ATOM     15  C   UNL     1      19.598  24.176  21.218  1.00  0.00    -0.000 C 
BRANCH  15  16
ATOM     16  C   UNL     1      18.845  22.952  21.764  1.00  0.00    -0.000 C 
BRANCH  16  17
ATOM     17  C   UNL     1      18.095  22.175  20.669  1.00  0.00    -0.000 C 
BRANCH  17  18
ATOM     18  C   UNL     1      18.799  20.850  20.307  1.00  0.00    -0.000 C 
BRANCH  18  19
ATOM     19  C   UNL     1      18.299  20.226  18.993  1.00  0.00    -0.003 C 
ATOM     20  C   UNL     1      18.365  21.190  17.810  1.00  0.00     0.004 C 
ENDBRANCH  18  19
ENDBRANCH  17  18
ENDBRANCH  16  17
ENDBRANCH  15  16
ENDBRANCH  14  15
ENDBRANCH  13  14
ENDBRANCH  12  13
ENDBRANCH   1  12
TORSDOF 16
ENDMDL
MODEL 2
REMARK VINA RESULT:    -4.279      0.927      2.354
REMARK INTER + INTRA:         -10.469
REMARK INTER:                  -8.360
REMARK INTRA:                  -2.110
REMARK UNBOUND:                -2.188
REMARK SMILES CCCCCCCCCCCCCCCCCC(=O)[O-]
REMARK SMILES IDX 10 1 11 2 12 3 13 4 14 5 15 6 16 7 17 8 18 9 19 10 20 11
REMARK SMILES IDX 9 12 8 13 7 14 6 15 5 16 4 17 3 18 2 19 1 20
REMARK H PARENT
REMARK Flexibility Score: inf
ROOT
ATOM      1  C   UNL     1      21.296  23.134  18.327  1.00  0.00     0.000 C 
ENDROOT
BRANCH   1   2
ATOM      2  C   UNL     1      22.438  22.649  19.243  1.00  0.00     0.000 C 
BRANCH   2   3
ATOM      3  C   UNL     1      22.040  22.411  20.711  1.00  0.00     0.000 C 
BRANCH   3   4
ATOM      4  C   UNL     1      21.811  20.935  21.086  1.00  0.00     0.000 C 
BRANCH   4   5
ATOM      5  C   UNL     1      23.089  20.209  21.561  1.00  0.00     0.000 C 
BRANCH   5   6
ATOM      6  C   UNL     1      22.961  18.679  21.470  1.00  0.00     0.000 C 
BRANCH   6   7
ATOM      7  C   UNL     1      24.314  17.976  21.239  1.00  0.00     0.006 C 
BRANCH   7   8
ATOM      8  C   UNL     1      24.931  18.258  19.860  1.00  0.00     0.053 C 
BRANCH   8   9
ATOM      9  C   UNL     1      26.242  17.561  19.665  1.00  0.00     0.041 C 
ATOM     10  O   UNL     1      26.366  16.680  18.774  1.00  0.00    -0.550 OA
ATOM     11  O   UNL     1      27.330  17.887  20.465  1.00  0.00    -0.550 OA
ENDBRANCH   8   9
ENDBRANCH   7   8
ENDBRANCH   6   7
ENDBRANCH   5   6
ENDBRANCH   4   5
ENDBRANCH   3   4
ENDBRANCH   2   3
ENDBRANCH   1   2
BRANCH   1  12
ATOM     12  C   UNL     1      20.345  24.172  18.957  1.00  0.00     0.000 C 
BRANCH  12  13
ATOM     13  C   UNL     1      18.847  23.908  18.722  1.00  0.00    -0.000 C 
BRANCH  13  14
ATOM     14  C   UNL     1      18.589  22.625  17.913  1.00  0.00    -0.000 C 
BRANCH  14  15
ATOM     15  C   UNL     1      17.734  21.606  18.696  1.00  0.00    -0.000 C 
BRANCH  15  16
ATOM     16  C   UNL     1      18.568  20.539  19.423  1.00  0.00    -0.000 C 
BRANCH  16  17
ATOM     17  C   UNL     1      18.298  20.498  20.936  1.00  0.00    -0.000 C 
BRANCH  17  18
ATOM     18  C   UNL     1      17.290  21.580  21.379  1.00  0.00    -0.000 C 
BRANCH  18  19
ATOM     19  C   UNL     1      17.734  22.359  22.629  1.00  0.00    -0.003 C 
ATOM     20  C   UNL     1      18.897  23.312  22.357  1.00  0.00     0.004 C 
ENDBRANCH  18  19
ENDBRANCH  17  18
ENDBRANCH  16  17
ENDBRANCH  15  16
ENDBRANCH  14  15
ENDBRANCH  13  14
ENDBRANCH  12  13
ENDBRANCH   1  12
TORSDOF 16
ENDMDL
MODEL 3
REMARK VINA RESULT:    -4.197      2.951      5.996
REMARK INTER + INTRA:         -10.310
REMARK INTER:                  -8.058
REMARK INTRA:                  -2.252
REMARK UNBOUND:                -2.188
REMARK SMILES CCCCCCCCCCCCCCCCCC(=O)[O-]
REMARK SMILES IDX 10 1 11 2 12 3 13 4 14 5 15 6 16 7 17 8 18 9 19 10 20 11
REMARK SMILES IDX 9 12 8 13 7 14 6 15 5 16 4 17 3 18 2 19 1 20
REMARK H PARENT
REMARK Flexibility Score: inf
ROOT
ATOM      1  C   UNL     1      20.616  25.011  19.927  1.00  0.00     0.000 C 
ENDROOT
BRANCH   1   2
ATOM      2  C   UNL     1      20.565  24.923  18.388  1.00  0.00     0.000 C 
BRANCH   2   3
ATOM      3  C   UNL     1      21.361  23.755  17.776  1.00  0.00     0.000 C 
BRANCH   3   4
ATOM      4  C   UNL     1      20.513  22.740  16.988  1.00  0.00     0.000 C 
BRANCH   4   5
ATOM      5  C   UNL     1      19.004  22.809  17.309  1.00  0.00     0.000 C 
BRANCH   5   6
ATOM      6  C   UNL     1      18.381  21.415  17.499  1.00  0.00     0.000 C 
BRANCH   6   7
ATOM      7  C   UNL     1      18.056  21.098  18.973  1.00  0.00     0.006 C 
BRANCH   7   8
ATOM      8  C   UNL     1      18.857  19.918  19.545  1.00  0.00     0.053 C 
BRANCH   8   9
ATOM      9  C   UNL     1      18.418  19.543  20.926  1.00  0.00     0.041 C 
ATOM     10  O   UNL     1      18.849  18.489  21.465  1.00  0.00    -0.550 OA
ATOM     11  O   UNL     1      17.535  20.359  21.622  1.00  0.00    -0.550 OA
ENDBRANCH   8   9
ENDBRANCH   7   8
ENDBRANCH   6   7
ENDBRANCH   5   6
ENDBRANCH   4   5
ENDBRANCH   3   4
ENDBRANCH   2   3
ENDBRANCH   1   2
BRANCH   1  12
ATOM     12  C   UNL     1      19.492  24.256  20.665  1.00  0.00     0.000 C 
BRANCH  12  13
ATOM     13  C   UNL     1      19.945  22.992  21.417  1.00  0.00    -0.000 C 
BRANCH  13  14
ATOM     14  C   UNL     1      21.472  22.803  21.399  1.00  0.00    -0.000 C 
BRANCH  14  15
ATOM     15  C   UNL     1      21.885  21.473  20.734  1.00  0.00    -0.000 C 
BRANCH  15  16
ATOM     16  C   UNL     1      22.843  20.631  21.593  1.00  0.00    -0.000 C 
BRANCH  16  17
ATOM     17  C   UNL     1      22.632  19.118  21.414  1.00  0.00    -0.000 C 
BRANCH  17  18
ATOM     18  C   UNL     1      23.968  18.347  21.350  1.00  0.00    -0.000 C 
BRANCH  18  19
ATOM     19  C   UNL     1      24.803  18.667  20.098  1.00  0.00    -0.003 C 
ATOM     20  C   UNL     1      25.172  17.424  19.291  1.00  0.00     0.004 C 
ENDBRANCH  18  19
ENDBRANCH  17  18
ENDBRANCH  16  17
ENDBRANCH  15  16
ENDBRANCH  14  15
ENDBRANCH  13  14
ENDBRANCH  12  13
ENDBRANCH   1  12
TORSDOF 16
ENDMDL
MODEL 4
REMARK VINA RESULT:    -4.129      3.599      7.282
REMARK INTER + INTRA:         -10.179
REMARK INTER:                  -8.205
REMARK INTRA:                  -1.974
REMARK UNBOUND:                -2.188
REMARK SMILES CCCCCCCCCCCCCCCCCC(=O)[O-]
REMARK SMILES IDX 10 1 11 2 12 3 13 4 14 5 15 6 16 7 17 8 18 9 19 10 20 11
REMARK SMILES IDX 9 12 8 13 7 14 6 15 5 16 4 17 3 18 2 19 1 20
REMARK H PARENT
REMARK Flexibility Score: inf
ROOT
ATOM      1  C   UNL     1      22.149  21.894  21.338  1.00  0.00     0.000 C 
ENDROOT
BRANCH   1   2
ATOM      2  C   UNL     1      22.483  22.765  20.111  1.00  0.00     0.000 C 
BRANCH   2   3
ATOM      3  C   UNL     1      21.919  22.250  18.773  1.00  0.00     0.000 C 
BRANCH   3   4
ATOM      4  C   UNL     1      21.363  23.344  17.843  1.00  0.00     0.000 C 
BRANCH   4   5
ATOM      5  C   UNL     1      20.909  24.619  18.587  1.00  0.00     0.000 C 
BRANCH   5   6
ATOM      6  C   UNL     1      19.410  24.592  18.935  1.00  0.00     0.000 C 
BRANCH   6   7
ATOM      7  C   UNL     1      19.137  24.109  20.374  1.00  0.00     0.006 C 
BRANCH   7   8
ATOM      8  C   UNL     1      18.578  22.680  20.453  1.00  0.00     0.053 C 
BRANCH   8   9
ATOM      9  C   UNL     1      18.010  22.359  21.800  1.00  0.00     0.041 C 
ATOM     10  O   UNL     1      17.206  21.400  21.937  1.00  0.00    -0.550 OA
ATOM     11  O   UNL     1      18.372  23.117  22.907  1.00  0.00    -0.550 OA
ENDBRANCH   8   9
ENDBRANCH   7   8
ENDBRANCH   6   7
ENDBRANCH   5   6
ENDBRANCH   4   5
ENDBRANCH   3   4
ENDBRANCH   2   3
ENDBRANCH   1   2
BRANCH   1  12
ATOM     12  C   UNL     1      21.545  20.511  21.017  1.00  0.00     0.000 C 
BRANCH  12  13
ATOM     13  C   UNL     1      22.409  19.311  21.445  1.00  0.00    -0.000 C 
BRANCH  13  14
ATOM     14  C   UNL     1      23.850  19.393  20.912  1.00  0.00    -0.000 C 
BRANCH  14  15
ATOM     15  C   UNL     1      24.659  18.117  21.226  1.00  0.00    -0.000 C 
BRANCH  15  16
ATOM     16  C   UNL     1      25.702  17.774  20.149  1.00  0.00    -0.000 C 
BRANCH  16  17
ATOM     17  C   UNL     1      25.105  16.986  18.970  1.00  0.00    -0.000 C 
BRANCH  17  18
ATOM     18  C   UNL     1      24.149  15.869  19.439  1.00  0.00    -0.000 C 
BRANCH  18  19
ATOM     19  C   UNL     1      22.712  16.027  18.910  1.00  0.00    -0.003 C 
ATOM     20  C   UNL     1      21.657  15.933  20.010  1.00  0.00     0.004 C 
ENDBRANCH  18  19
ENDBRANCH  17  18
ENDBRANCH  16  17
ENDBRANCH  15  16
ENDBRANCH  14  15
ENDBRANCH  13  14
ENDBRANCH  12  13
ENDBRANCH   1  12
TORSDOF 16
ENDMDL
MODEL 5
REMARK VINA RESULT:    -4.113      2.316      2.785
REMARK INTER + INTRA:         -10.148
REMARK INTER:                  -7.412
REMARK INTRA:                  -2.736
REMARK UNBOUND:                -2.188
REMARK SMILES CCCCCCCCCCCCCCCCCC(=O)[O-]
REMARK SMILES IDX 10 1 11 2 12 3 13 4 14 5 15 6 16 7 17 8 18 9 19 10 20 11
REMARK SMILES IDX 9 12 8 13 7 14 6 15 5 16 4 17 3 18 2 19 1 20
REMARK H PARENT
REMARK Flexibility Score: inf
ROOT
ATOM      1  C   UNL     1      21.789  22.302  18.853  1.00  0.00     0.000 C 
ENDROOT
BRANCH   1   2
ATOM      2  C   UNL     1      22.599  22.659  20.116  1.00  0.00     0.000 C 
BRANCH   2   3
ATOM      3  C   UNL     1      22.268  21.816  21.362  1.00  0.00     0.000 C 
BRANCH   3   4
ATOM      4  C   UNL     1      22.256  20.294  21.126  1.00  0.00     0.000 C 
BRANCH   4   5
ATOM      5  C   UNL     1      23.660  19.686  20.917  1.00  0.00     0.000 C 
BRANCH   5   6
ATOM      6  C   UNL     1      23.770  18.258  21.479  1.00  0.00     0.000 C 
BRANCH   6   7
ATOM      7  C   UNL     1      23.056  17.211  20.600  1.00  0.00     0.006 C 
BRANCH   7   8
ATOM      8  C   UNL     1      21.893  16.498  21.306  1.00  0.00     0.053 C 
BRANCH   8   9
ATOM      9  C   UNL     1      20.557  17.040  20.901  1.00  0.00     0.041 C 
ATOM     10  O   UNL     1      20.114  16.832  19.741  1.00  0.00    -0.550 OA
ATOM     11  O   UNL     1      19.799  17.771  21.806  1.00  0.00    -0.550 OA
ENDBRANCH   8   9
ENDBRANCH   7   8
ENDBRANCH   6   7
ENDBRANCH   5   6
ENDBRANCH   4   5
ENDBRANCH   3   4
ENDBRANCH   2   3
ENDBRANCH   1   2
BRANCH   1  12
ATOM     12  C   UNL     1      21.342  23.505  17.998  1.00  0.00     0.000 C 
BRANCH  12  13
ATOM     13  C   UNL     1      20.892  24.739  18.801  1.00  0.00    -0.000 C 
BRANCH  13  14
ATOM     14  C   UNL     1      19.514  24.551  19.460  1.00  0.00    -0.000 C 
BRANCH  14  15
ATOM     15  C   UNL     1      19.613  24.460  20.998  1.00  0.00    -0.000 C 
BRANCH  15  16
ATOM     16  C   UNL     1      18.966  23.193  21.578  1.00  0.00    -0.000 C 
BRANCH  16  17
ATOM     17  C   UNL     1      18.239  22.352  20.514  1.00  0.00    -0.000 C 
BRANCH  17  18
ATOM     18  C   UNL     1      18.671  20.871  20.546  1.00  0.00    -0.000 C 
BRANCH  18  19
ATOM     19  C   UNL     1      18.728  20.217  19.155  1.00  0.00    -0.003 C 
ATOM     20  C   UNL     1      18.352  21.176  18.027  1.00  0.00     0.004 C 
ENDBRANCH  18  19
ENDBRANCH  17  18
ENDBRANCH  16  17
ENDBRANCH  15  16
ENDBRANCH  14  15
ENDBRANCH  13  14
ENDBRANCH  12  13
ENDBRANCH   1  12
TORSDOF 16
ENDMDL
MODEL 6
REMARK VINA RESULT:    -4.066      3.158      6.142
REMARK INTER + INTRA:         -10.058
REMARK INTER:                  -8.115
REMARK INTRA:                  -1.943
REMARK UNBOUND:                -2.188
REMARK SMILES CCCCCCCCCCCCCCCCCC(=O)[O-]
REMARK SMILES IDX 10 1 11 2 12 3 13 4 14 5 15 6 16 7 17 8 18 9 19 10 20 11
REMARK SMILES IDX 9 12 8 13 7 14 6 15 5 16 4 17 3 18 2 19 1 20
REMARK H PARENT
REMARK Flexibility Score: inf
ROOT
ATOM      1  C   UNL     1      21.178  24.333  18.729  1.00  0.00     0.000 C 
ENDROOT
BRANCH   1   2
ATOM      2  C   UNL     1      20.217  24.873  19.808  1.00  0.00     0.000 C 
BRANCH   2   3
ATOM      3  C   UNL     1      19.120  23.889  20.255  1.00  0.00     0.000 C 
BRANCH   3   4
ATOM      4  C   UNL     1      19.089  23.602  21.767  1.00  0.00     0.000 C 
BRANCH   4   5
ATOM      5  C   UNL     1      18.146  22.443  22.160  1.00  0.00     0.000 C 
BRANCH   5   6
ATOM      6  C   UNL     1      17.531  21.748  20.934  1.00  0.00     0.000 C 
BRANCH   6   7
ATOM      7  C   UNL     1      18.110  20.340  20.689  1.00  0.00     0.006 C 
BRANCH   7   8
ATOM      8  C   UNL     1      18.908  20.216  19.381  1.00  0.00     0.053 C 
BRANCH   8   9
ATOM      9  C   UNL     1      18.093  20.571  18.177  1.00  0.00     0.041 C 
ATOM     10  O   UNL     1      17.129  19.841  17.826  1.00  0.00    -0.550 OA
ATOM     11  O   UNL     1      18.396  21.711  17.442  1.00  0.00    -0.550 OA
ENDBRANCH   8   9
ENDBRANCH   7   8
ENDBRANCH   6   7
ENDBRANCH   5   6
ENDBRANCH   4   5
ENDBRANCH   3   4
ENDBRANCH   2   3
ENDBRANCH   1   2
BRANCH   1  12
ATOM     12  C   UNL     1      21.424  22.811  18.772  1.00  0.00     0.000 C 
BRANCH  12  13
ATOM     13  C   UNL     1      22.477  22.353  19.796  1.00  0.00    -0.000 C 
BRANCH  13  14
ATOM     14  C   UNL     1      21.862  21.591  20.983  1.00  0.00    -0.000 C 
BRANCH  14  15
ATOM     15  C   UNL     1      22.868  20.616  21.632  1.00  0.00    -0.000 C 
BRANCH  15  16
ATOM     16  C   UNL     1      22.447  19.142  21.525  1.00  0.00    -0.000 C 
BRANCH  16  17
ATOM     17  C   UNL     1      23.638  18.195  21.297  1.00  0.00    -0.000 C 
BRANCH  17  18
ATOM     18  C   UNL     1      23.246  16.953  20.468  1.00  0.00    -0.000 C 
BRANCH  18  19
ATOM     19  C   UNL     1      24.241  16.628  19.341  1.00  0.00    -0.003 C 
ATOM     20  C   UNL     1      25.451  17.560  19.324  1.00  0.00     0.004 C 
ENDBRANCH  18  19
ENDBRANCH  17  18
ENDBRANCH  16  17
ENDBRANCH  15  16
ENDBRANCH  14  15
ENDBRANCH  13  14
ENDBRANCH  12  13
ENDBRANCH   1  12
TORSDOF 16
ENDMDL
MODEL 7
REMARK VINA RESULT:    -4.043      1.687      2.852
REMARK INTER + INTRA:         -10.013
REMARK INTER:                  -7.808
REMARK INTRA:                  -2.205
REMARK UNBOUND:                -2.188
REMARK SMILES CCCCCCCCCCCCCCCCCC(=O)[O-]
REMARK SMILES IDX 10 1 11 2 12 3 13 4 14 5 15 6 16 7 17 8 18 9 19 10 20 11
REMARK SMILES IDX 9 12 8 13 7 14 6 15 5 16 4 17 3 18 2 19 1 20
REMARK H PARENT
REMARK Flexibility Score: inf
ROOT
ATOM      1  C   UNL     1      20.819  24.897  19.460  1.00  0.00     0.000 C 
ENDROOT
BRANCH   1   2
ATOM      2  C   UNL     1      19.901  24.569  20.656  1.00  0.00     0.000 C 
BRANCH   2   3
ATOM      3  C   UNL     1      20.443  23.495  21.617  1.00  0.00     0.000 C 
BRANCH   3   4
ATOM      4  C   UNL     1      21.750  22.821  21.162  1.00  0.00     0.000 C 
BRANCH   4   5
ATOM      5  C   UNL     1      21.628  21.294  20.969  1.00  0.00     0.000 C 
BRANCH   5   6
ATOM      6  C   UNL     1      22.821  20.531  21.570  1.00  0.00     0.000 C 
BRANCH   6   7
ATOM      7  C   UNL     1      22.705  19.003  21.397  1.00  0.00     0.006 C 
BRANCH   7   8
ATOM      8  C   UNL     1      24.058  18.274  21.389  1.00  0.00     0.053 C 
BRANCH   8   9
ATOM      9  C   UNL     1      24.284  17.498  20.129  1.00  0.00     0.041 C 
ATOM     10  O   UNL     1      25.074  17.932  19.250  1.00  0.00    -0.550 OA
ATOM     11  O   UNL     1      23.625  16.292  19.927  1.00  0.00    -0.550 OA
ENDBRANCH   8   9
ENDBRANCH   7   8
ENDBRANCH   6   7
ENDBRANCH   5   6
ENDBRANCH   4   5
ENDBRANCH   3   4
ENDBRANCH   2   3
ENDBRANCH   1   2
BRANCH   1  12
ATOM     12  C   UNL     1      20.300  24.425  18.086  1.00  0.00     0.000 C 
BRANCH  12  13
ATOM     13  C   UNL     1      19.087  23.480  18.141  1.00  0.00    -0.000 C 
BRANCH  13  14
ATOM     14  C   UNL     1      19.484  21.995  18.073  1.00  0.00    -0.000 C 
BRANCH  14  15
ATOM     15  C   UNL     1      18.390  21.073  18.653  1.00  0.00    -0.000 C 
BRANCH  15  16
ATOM     16  C   UNL     1      17.686  21.661  19.886  1.00  0.00    -0.000 C 
BRANCH  16  17
ATOM     17  C   UNL     1      17.925  20.835  21.161  1.00  0.00    -0.000 C 
BRANCH  17  18
ATOM     18  C   UNL     1      18.582  19.471  20.858  1.00  0.00    -0.000 C 
BRANCH  18  19
ATOM     19  C   UNL     1      17.743  18.268  21.322  1.00  0.00    -0.003 C 
ATOM     20  C   UNL     1      18.151  17.750  22.700  1.00  0.00     0.004 C 
ENDBRANCH  18  19
ENDBRANCH  17  18
ENDBRANCH  16  17
ENDBRANCH  15  16
ENDBRANCH  14  15
ENDBRANCH  13  14
ENDBRANCH  12  13
ENDBRANCH   1  12
TORSDOF 16
ENDMDL
MODEL 8
REMARK VINA RESULT:    -4.031      2.293      4.157
REMARK INTER + INTRA:          -9.989
REMARK INTER:                  -7.664
REMARK INTRA:                  -2.325
REMARK UNBOUND:                -2.188
REMARK SMILES CCCCCCCCCCCCCCCCCC(=O)[O-]
REMARK SMILES IDX 10 1 11 2 12 3 13 4 14 5 15 6 16 7 17 8 18 9 19 10 20 11
REMARK SMILES IDX 9 12 8 13 7 14 6 15 5 16 4 17 3 18 2 19 1 20
REMARK H PARENT
REMARK Flexibility Score: inf
ROOT
ATOM      1  C   UNL     1      20.046  23.950  21.741  1.00  0.00     0.000 C 
ENDROOT
BRANCH   1   2
ATOM      2  C   UNL     1      18.777  23.306  21.145  1.00  0.00     0.000 C 
BRANCH   2   3
ATOM      3  C   UNL     1      18.002  22.386  22.106  1.00  0.00     0.000 C 
BRANCH   3   4
ATOM      4  C   UNL     1      17.156  21.299  21.417  1.00  0.00     0.000 C 
BRANCH   4   5
ATOM      5  C   UNL     1      17.705  19.869  21.610  1.00  0.00     0.000 C 
BRANCH   5   6
ATOM      6  C   UNL     1      18.954  19.601  20.753  1.00  0.00     0.000 C 
BRANCH   6   7
ATOM      7  C   UNL     1      19.551  18.198  20.986  1.00  0.00     0.006 C 
BRANCH   7   8
ATOM      8  C   UNL     1      21.042  18.212  21.358  1.00  0.00     0.053 C 
BRANCH   8   9
ATOM      9  C   UNL     1      21.643  16.841  21.368  1.00  0.00     0.041 C 
ATOM     10  O   UNL     1      21.176  15.949  22.124  1.00  0.00    -0.550 OA
ATOM     11  O   UNL     1      22.718  16.545  20.539  1.00  0.00    -0.550 OA
ENDBRANCH   8   9
ENDBRANCH   7   8
ENDBRANCH   6   7
ENDBRANCH   5   6
ENDBRANCH   4   5
ENDBRANCH   3   4
ENDBRANCH   2   3
ENDBRANCH   1   2
BRANCH   1  12
ATOM     12  C   UNL     1      21.306  23.061  21.718  1.00  0.00     0.000 C 
BRANCH  12  13
ATOM     13  C   UNL     1      21.388  22.083  20.532  1.00  0.00    -0.000 C 
BRANCH  13  14
ATOM     14  C   UNL     1      22.373  22.546  19.445  1.00  0.00    -0.000 C 
BRANCH  14  15
ATOM     15  C   UNL     1      21.660  22.877  18.116  1.00  0.00    -0.000 C 
BRANCH  15  16
ATOM     16  C   UNL     1      20.937  24.233  18.132  1.00  0.00    -0.000 C 
BRANCH  16  17
ATOM     17  C   UNL     1      19.515  24.159  17.552  1.00  0.00    -0.000 C 
BRANCH  17  18
ATOM     18  C   UNL     1      19.173  22.750  17.023  1.00  0.00    -0.000 C 
BRANCH  18  19
ATOM     19  C   UNL     1      18.264  21.943  17.967  1.00  0.00    -0.003 C 
ATOM     20  C   UNL     1      17.481  20.845  17.249  1.00  0.00     0.004 C 
ENDBRANCH  18  19
ENDBRANCH  17  18
ENDBRANCH  16  17
ENDBRANCH  15  16
ENDBRANCH  14  15
ENDBRANCH  13  14
ENDBRANCH  12  13
ENDBRANCH   1  12
TORSDOF 16
ENDMDL
MODEL 9
REMARK VINA RESULT:    -4.027      1.675      3.492
REMARK INTER + INTRA:          -9.981
REMARK INTER:                  -7.373
REMARK INTRA:                  -2.608
REMARK UNBOUND:                -2.188
REMARK SMILES CCCCCCCCCCCCCCCCCC(=O)[O-]
REMARK SMILES IDX 10 1 11 2 12 3 13 4 14 5 15 6 16 7 17 8 18 9 19 10 20 11
REMARK SMILES IDX 9 12 8 13 7 14 6 15 5 16 4 17 3 18 2 19 1 20
REMARK H PARENT
REMARK Flexibility Score: inf
ROOT
ATOM      1  C   UNL     1      19.010  21.147  18.475  1.00  0.00     0.000 C 
ENDROOT
BRANCH   1   2
ATOM      2  C   UNL     1      17.764  21.220  19.381  1.00  0.00     0.000 C 
BRANCH   2   3
ATOM      3  C   UNL     1      17.880  20.454  20.712  1.00  0.00     0.000 C 
BRANCH   3   4
ATOM      4  C   UNL     1      18.775  19.202  20.659  1.00  0.00     0.000 C 
BRANCH   4   5
ATOM      5  C   UNL     1      18.551  18.228  21.836  1.00  0.00     0.000 C 
BRANCH   5   6
ATOM      6  C   UNL     1      19.791  17.365  22.127  1.00  0.00     0.000 C 
BRANCH   6   7
ATOM      7  C   UNL     1      21.070  17.909  21.461  1.00  0.00     0.006 C 
BRANCH   7   8
ATOM      8  C   UNL     1      22.083  16.818  21.078  1.00  0.00     0.053 C 
BRANCH   8   9
ATOM      9  C   UNL     1      23.439  17.375  20.777  1.00  0.00     0.041 C 
ATOM     10  O   UNL     1      24.178  16.818  19.923  1.00  0.00    -0.550 OA
ATOM     11  O   UNL     1      23.887  18.513  21.436  1.00  0.00    -0.550 OA
ENDBRANCH   8   9
ENDBRANCH   7   8
ENDBRANCH   6   7
ENDBRANCH   5   6
ENDBRANCH   4   5
ENDBRANCH   3   4
ENDBRANCH   2   3
ENDBRANCH   1   2
BRANCH   1  12
ATOM     12  C   UNL     1      19.244  22.381  17.580  1.00  0.00     0.000 C 
BRANCH  12  13
ATOM     13  C   UNL     1      20.721  22.767  17.381  1.00  0.00    -0.000 C 
BRANCH  13  14
ATOM     14  C   UNL     1      21.005  24.238  17.731  1.00  0.00    -0.000 C 
BRANCH  14  15
ATOM     15  C   UNL     1      19.884  24.857  18.593  1.00  0.00    -0.000 C 
BRANCH  15  16
ATOM     16  C   UNL     1      20.271  25.023  20.072  1.00  0.00    -0.000 C 
BRANCH  16  17
ATOM     17  C   UNL     1      19.361  24.225  21.021  1.00  0.00    -0.000 C 
BRANCH  17  18
ATOM     18  C   UNL     1      20.079  23.000  21.625  1.00  0.00    -0.000 C 
BRANCH  18  19
ATOM     19  C   UNL     1      21.558  22.890  21.216  1.00  0.00    -0.003 C 
ATOM     20  C   UNL     1      21.962  21.474  20.808  1.00  0.00     0.004 C 
ENDBRANCH  18  19
ENDBRANCH  17  18
ENDBRANCH  16  17
ENDBRANCH  15  16
ENDBRANCH  14  15
ENDBRANCH  13  14
ENDBRANCH  12  13
ENDBRANCH   1  12
TORSDOF 16
ENDMDL
