MODEL 1
REMARK VINA RESULT:    -4.192      0.000      0.000
REMARK INTER + INTRA:          -5.658
REMARK INTER:                  -5.417
REMARK INTRA:                  -0.240
REMARK UNBOUND:                -0.240
REMARK SMILES CCCCCCC(=O)[O-]
REMARK SMILES IDX 5 1 6 2 7 3 8 4 9 5 4 6 3 7 2 8 1 9
REMARK H PARENT
REMARK Flexibility Score: inf
ROOT
ATOM      1  C   UNL     1       8.024   7.751   6.090  1.00  0.00     0.006 C 
ENDROOT
BRANCH   1   2
ATOM      2  C   UNL     1       6.854   8.384   5.334  1.00  0.00     0.053 C 
BRANCH   2   3
ATOM      3  C   UNL     1       5.871   7.335   4.918  1.00  0.00     0.041 C 
ATOM      4  O   UNL     1       4.674   7.399   5.304  1.00  0.00    -0.550 OA
ATOM      5  O   UNL     1       6.265   6.313   4.064  1.00  0.00    -0.550 OA
ENDBRANCH   2   3
ENDBRANCH   1   2
BRANCH   1   6
ATOM      6  C   UNL     1       7.532   6.982   7.323  1.00  0.00     0.000 C 
BRANCH   6   7
ATOM      7  C   UNL     1       8.687   6.245   8.009  1.00  0.00    -0.000 C 
BRANCH   7   8
ATOM      8  C   UNL     1       8.287   4.809   8.369  1.00  0.00    -0.003 C 
ATOM      9  C   UNL     1       6.942   4.439   7.748  1.00  0.00     0.004 C 
ENDBRANCH   7   8
ENDBRANCH   6   7
ENDBRANCH   1   6
TORSDOF 5
ENDMDL
MODEL 2
REMARK VINA RESULT:    -4.052      2.117      3.764
REMARK INTER + INTRA:          -5.477
REMARK INTER:                  -5.236
REMARK INTRA:                  -0.241
REMARK UNBOUND:                -0.240
REMARK SMILES CCCCCCC(=O)[O-]
REMARK SMILES IDX 5 1 6 2 7 3 8 4 9 5 4 6 3 7 2 8 1 9
REMARK H PARENT
REMARK Flexibility Score: inf
ROOT
ATOM      1  C   UNL     1       6.875   4.699   7.304  1.00  0.00     0.006 C 
ENDROOT
BRANCH   1   2
ATOM      2  C   UNL     1       5.792   4.007   8.137  1.00  0.00     0.053 C 
BRANCH   2   3
ATOM      3  C   UNL     1       4.435   4.304   7.583  1.00  0.00     0.041 C 
ATOM      4  O   UNL     1       4.176   5.445   7.116  1.00  0.00    -0.550 OA
ATOM      5  O   UNL     1       3.470   3.305   7.536  1.00  0.00    -0.550 OA
ENDBRANCH   2   3
ENDBRANCH   1   2
BRANCH   1   6
ATOM      6  C   UNL     1       7.955   5.311   8.206  1.00  0.00     0.000 C 
BRANCH   6   7
ATOM      7  C   UNL     1       8.473   6.632   7.625  1.00  0.00    -0.000 C 
BRANCH   7   8
ATOM      8  C   UNL     1       7.419   7.287   6.725  1.00  0.00    -0.003 C 
ATOM      9  C   UNL     1       8.071   8.030   5.562  1.00  0.00     0.004 C 
ENDBRANCH   7   8
ENDBRANCH   6   7
ENDBRANCH   1   6
TORSDOF 5
ENDMDL
MODEL 3
REMARK VINA RESULT:    -3.993      6.912      7.459
REMARK INTER + INTRA:          -5.400
REMARK INTER:                  -5.143
REMARK INTRA:                  -0.257
REMARK UNBOUND:                -0.240
REMARK SMILES CCCCCCC(=O)[O-]
REMARK SMILES IDX 5 1 6 2 7 3 8 4 9 5 4 6 3 7 2 8 1 9
REMARK H PARENT
REMARK Flexibility Score: inf
ROOT
ATOM      1  C   UNL     1       0.927   8.756  10.720  1.00  0.00     0.006 C 
ENDROOT
BRANCH   1   2
ATOM      2  C   UNL     1       2.141   9.338   9.991  1.00  0.00     0.053 C 
BRANCH   2   3
ATOM      3  C   UNL     1       2.194   8.840   8.582  1.00  0.00     0.041 C 
ATOM      4  O   UNL     1       1.970   7.628   8.328  1.00  0.00    -0.550 OA
ATOM      5  O   UNL     1       2.443   9.727   7.541  1.00  0.00    -0.550 OA
ENDBRANCH   2   3
ENDBRANCH   1   2
BRANCH   1   6
ATOM      6  C   UNL     1       1.270   8.416  12.176  1.00  0.00     0.000 C 
BRANCH   6   7
ATOM      7  C   UNL     1       0.739   7.030  12.558  1.00  0.00    -0.000 C 
BRANCH   7   8
ATOM      8  C   UNL     1       0.404   6.206  11.309  1.00  0.00    -0.003 C 
ATOM      9  C   UNL     1      -0.944   5.506  11.455  1.00  0.00     0.004 C 
ENDBRANCH   7   8
ENDBRANCH   6   7
ENDBRANCH   1   6
TORSDOF 5
ENDMDL
MODEL 4
REMARK VINA RESULT:    -3.929      7.557      8.563
REMARK INTER + INTRA:          -5.318
REMARK INTER:                  -5.070
REMARK INTRA:                  -0.248
REMARK UNBOUND:                -0.240
REMARK SMILES CCCCCCC(=O)[O-]
REMARK SMILES IDX 5 1 6 2 7 3 8 4 9 5 4 6 3 7 2 8 1 9
REMARK H PARENT
REMARK Flexibility Score: inf
ROOT
ATOM      1  C   UNL     1       0.550   6.748  12.249  1.00  0.00     0.006 C 
ENDROOT
BRANCH   1   2
ATOM      2  C   UNL     1       0.719   5.952  10.952  1.00  0.00     0.053 C 
BRANCH   2   3
ATOM      3  C   UNL     1      -0.575   5.315  10.557  1.00  0.00     0.041 C 
ATOM      4  O   UNL     1      -0.751   4.915   9.376  1.00  0.00    -0.550 OA
ATOM      5  O   UNL     1      -1.570   5.116  11.506  1.00  0.00    -0.550 OA
ENDBRANCH   2   3
ENDBRANCH   1   2
BRANCH   1   6
ATOM      6  C   UNL     1       1.327   8.069  12.190  1.00  0.00     0.000 C 
BRANCH   6   7
ATOM      7  C   UNL     1       0.968   8.862  10.927  1.00  0.00    -0.000 C 
BRANCH   7   8
ATOM      8  C   UNL     1       2.220   9.479  10.292  1.00  0.00    -0.003 C 
ATOM      9  C   UNL     1       2.456   8.927   8.889  1.00  0.00     0.004 C 
ENDBRANCH   7   8
ENDBRANCH   6   7
ENDBRANCH   1   6
TORSDOF 5
ENDMDL
MODEL 5
REMARK VINA RESULT:    -3.895      7.980      8.895
REMARK INTER + INTRA:          -5.274
REMARK INTER:                  -4.953
REMARK INTRA:                  -0.321
REMARK UNBOUND:                -0.240
REMARK SMILES CCCCCCC(=O)[O-]
REMARK SMILES IDX 5 1 6 2 7 3 8 4 9 5 4 6 3 7 2 8 1 9
REMARK H PARENT
REMARK Flexibility Score: inf
ROOT
ATOM      1  C   UNL     1      -0.625   6.791   9.380  1.00  0.00     0.006 C 
ENDROOT
BRANCH   1   2
ATOM      2  C   UNL     1      -0.684   5.291   9.678  1.00  0.00     0.053 C 
BRANCH   2   3
ATOM      3  C   UNL     1      -1.087   5.055  11.099  1.00  0.00     0.041 C 
ATOM      4  O   UNL     1      -1.820   4.075  11.396  1.00  0.00    -0.550 OA
ATOM      5  O   UNL     1      -0.614   5.890  12.104  1.00  0.00    -0.550 OA
ENDBRANCH   2   3
ENDBRANCH   1   2
BRANCH   1   6
ATOM      6  C   UNL     1       0.777   7.205   8.915  1.00  0.00     0.000 C 
BRANCH   6   7
ATOM      7  C   UNL     1       1.665   7.576  10.108  1.00  0.00    -0.000 C 
BRANCH   7   8
ATOM      8  C   UNL     1       1.099   8.787  10.859  1.00  0.00    -0.003 C 
ATOM      9  C   UNL     1       1.583   8.813  12.307  1.00  0.00     0.004 C 
ENDBRANCH   7   8
ENDBRANCH   6   7
ENDBRANCH   1   6
TORSDOF 5
ENDMDL
MODEL 6
REMARK VINA RESULT:    -3.883      1.933      2.854
REMARK INTER + INTRA:          -5.259
REMARK INTER:                  -5.006
REMARK INTRA:                  -0.253
REMARK UNBOUND:                -0.240
REMARK SMILES CCCCCCC(=O)[O-]
REMARK SMILES IDX 5 1 6 2 7 3 8 4 9 5 4 6 3 7 2 8 1 9
REMARK H PARENT
REMARK Flexibility Score: inf
ROOT
ATOM      1  C   UNL     1       5.681   8.520   7.179  1.00  0.00     0.006 C 
ENDROOT
BRANCH   1   2
ATOM      2  C   UNL     1       4.188   8.734   6.921  1.00  0.00     0.053 C 
BRANCH   2   3
ATOM      3  C   UNL     1       3.509   7.427   6.659  1.00  0.00     0.041 C 
ATOM      4  O   UNL     1       2.399   7.395   6.065  1.00  0.00    -0.550 OA
ATOM      5  O   UNL     1       4.126   6.237   7.028  1.00  0.00    -0.550 OA
ENDBRANCH   2   3
ENDBRANCH   1   2
BRANCH   1   6
ATOM      6  C   UNL     1       6.475   8.543   5.866  1.00  0.00     0.000 C 
BRANCH   6   7
ATOM      7  C   UNL     1       7.826   7.837   6.028  1.00  0.00    -0.000 C 
BRANCH   7   8
ATOM      8  C   UNL     1       7.780   6.816   7.171  1.00  0.00    -0.003 C 
ATOM      9  C   UNL     1       9.133   6.709   7.870  1.00  0.00     0.004 C 
ENDBRANCH   7   8
ENDBRANCH   6   7
ENDBRANCH   1   6
TORSDOF 5
ENDMDL
MODEL 7
REMARK VINA RESULT:    -3.880      2.025      3.795
REMARK INTER + INTRA:          -5.254
REMARK INTER:                  -4.825
REMARK INTRA:                  -0.429
REMARK UNBOUND:                -0.240
REMARK SMILES CCCCCCC(=O)[O-]
REMARK SMILES IDX 5 1 6 2 7 3 8 4 9 5 4 6 3 7 2 8 1 9
REMARK H PARENT
REMARK Flexibility Score: inf
ROOT
ATOM      1  C   UNL     1       8.149   7.007   7.633  1.00  0.00     0.006 C 
ENDROOT
BRANCH   1   2
ATOM      2  C   UNL     1       7.989   5.494   7.802  1.00  0.00     0.053 C 
BRANCH   2   3
ATOM      3  C   UNL     1       6.554   5.143   8.043  1.00  0.00     0.041 C 
ATOM      4  O   UNL     1       6.185   3.940   8.031  1.00  0.00    -0.550 OA
ATOM      5  O   UNL     1       5.634   6.144   8.331  1.00  0.00    -0.550 OA
ENDBRANCH   2   3
ENDBRANCH   1   2
BRANCH   1   6
ATOM      6  C   UNL     1       8.173   7.396   6.149  1.00  0.00     0.000 C 
BRANCH   6   7
ATOM      7  C   UNL     1       7.159   8.507   5.856  1.00  0.00    -0.000 C 
BRANCH   7   8
ATOM      8  C   UNL     1       5.896   7.940   5.198  1.00  0.00    -0.003 C 
ATOM      9  C   UNL     1       6.188   6.618   4.492  1.00  0.00     0.004 C 
ENDBRANCH   7   8
ENDBRANCH   6   7
ENDBRANCH   1   6
TORSDOF 5
ENDMDL
MODEL 8
REMARK VINA RESULT:    -3.858      1.983      2.614
REMARK INTER + INTRA:          -5.227
REMARK INTER:                  -4.873
REMARK INTRA:                  -0.354
REMARK UNBOUND:                -0.240
REMARK SMILES CCCCCCC(=O)[O-]
REMARK SMILES IDX 5 1 6 2 7 3 8 4 9 5 4 6 3 7 2 8 1 9
REMARK H PARENT
REMARK Flexibility Score: inf
ROOT
ATOM      1  C   UNL     1       6.122   6.207   5.486  1.00  0.00     0.006 C 
ENDROOT
BRANCH   1   2
ATOM      2  C   UNL     1       6.357   7.656   5.053  1.00  0.00     0.053 C 
BRANCH   2   3
ATOM      3  C   UNL     1       7.705   8.124   5.501  1.00  0.00     0.041 C 
ATOM      4  O   UNL     1       8.375   7.441   6.320  1.00  0.00    -0.550 OA
ATOM      5  O   UNL     1       8.245   9.292   4.976  1.00  0.00    -0.550 OA
ENDBRANCH   2   3
ENDBRANCH   1   2
BRANCH   1   6
ATOM      6  C   UNL     1       5.080   6.131   6.610  1.00  0.00     0.000 C 
BRANCH   6   7
ATOM      7  C   UNL     1       5.681   5.514   7.877  1.00  0.00    -0.000 C 
BRANCH   7   8
ATOM      8  C   UNL     1       6.759   4.481   7.528  1.00  0.00    -0.003 C 
ATOM      9  C   UNL     1       7.986   4.640   8.422  1.00  0.00     0.004 C 
ENDBRANCH   7   8
ENDBRANCH   6   7
ENDBRANCH   1   6
TORSDOF 5
ENDMDL
MODEL 9
REMARK VINA RESULT:    -3.805      1.400      2.216
REMARK INTER + INTRA:          -5.157
REMARK INTER:                  -4.808
REMARK INTRA:                  -0.349
REMARK UNBOUND:                -0.240
REMARK SMILES CCCCCCC(=O)[O-]
REMARK SMILES IDX 5 1 6 2 7 3 8 4 9 5 4 6 3 7 2 8 1 9
REMARK H PARENT
REMARK Flexibility Score: inf
ROOT
ATOM      1  C   UNL     1       4.803   5.721   6.810  1.00  0.00     0.006 C 
ENDROOT
BRANCH   1   2
ATOM      2  C   UNL     1       4.654   7.126   6.220  1.00  0.00     0.053 C 
BRANCH   2   3
ATOM      3  C   UNL     1       5.678   7.357   5.154  1.00  0.00     0.041 C 
ATOM      4  O   UNL     1       6.181   8.500   4.994  1.00  0.00    -0.550 OA
ATOM      5  O   UNL     1       6.113   6.297   4.367  1.00  0.00    -0.550 OA
ENDBRANCH   2   3
ENDBRANCH   1   2
BRANCH   1   6
ATOM      6  C   UNL     1       5.819   5.712   7.959  1.00  0.00     0.000 C 
BRANCH   6   7
ATOM      7  C   UNL     1       6.957   4.724   7.680  1.00  0.00    -0.000 C 
BRANCH   7   8
ATOM      8  C   UNL     1       8.292   5.259   8.212  1.00  0.00    -0.003 C 
ATOM      9  C   UNL     1       8.615   6.627   7.617  1.00  0.00     0.004 C 
ENDBRANCH   7   8
ENDBRANCH   6   7
ENDBRANCH   1   6
TORSDOF 5
ENDMDL
