MODEL 1
REMARK VINA RESULT:    -4.424      0.000      0.000
REMARK INTER + INTRA:          -5.927
REMARK INTER:                  -5.717
REMARK INTRA:                  -0.210
REMARK UNBOUND:                -0.210
REMARK SMILES CCCCCCC(=O)[O-]
REMARK SMILES IDX 5 1 6 2 7 3 8 4 9 5 4 6 3 7 2 8 1 9
REMARK H PARENT
REMARK Flexibility Score: inf
ROOT
ATOM      1  C   UNL     1     -15.241   0.667 -20.375  1.00  0.00     0.006 C 
ENDROOT
BRANCH   1   2
ATOM      2  C   UNL     1     -15.478  -0.511 -19.426  1.00  0.00     0.053 C 
BRANCH   2   3
ATOM      3  C   UNL     1     -16.943  -0.720 -19.205  1.00  0.00     0.041 C 
ATOM      4  O   UNL     1     -17.739   0.253 -19.272  1.00  0.00    -0.550 OA
ATOM      5  O   UNL     1     -17.436  -1.999 -18.977  1.00  0.00    -0.550 OA
ENDBRANCH   2   3
ENDBRANCH   1   2
BRANCH   1   6
ATOM      6  C   UNL     1     -14.581   1.841 -19.641  1.00  0.00     0.000 C 
BRANCH   6   7
ATOM      7  C   UNL     1     -13.796   1.351 -18.416  1.00  0.00    -0.000 C 
BRANCH   7   8
ATOM      8  C   UNL     1     -13.618   2.445 -17.351  1.00  0.00    -0.003 C 
ATOM      9  C   UNL     1     -12.875   3.670 -17.882  1.00  0.00     0.004 C 
ENDBRANCH   7   8
ENDBRANCH   6   7
ENDBRANCH   1   6
TORSDOF 5
ENDMDL
MODEL 2
REMARK VINA RESULT:    -4.407     17.463     18.766
REMARK INTER + INTRA:          -5.905
REMARK INTER:                  -5.570
REMARK INTRA:                  -0.335
REMARK UNBOUND:                -0.210
REMARK SMILES CCCCCCC(=O)[O-]
REMARK SMILES IDX 5 1 6 2 7 3 8 4 9 5 4 6 3 7 2 8 1 9
REMARK H PARENT
REMARK Flexibility Score: inf
ROOT
ATOM      1  C   UNL     1     -28.876  -2.331  -5.796  1.00  0.00     0.006 C 
ENDROOT
BRANCH   1   2
ATOM      2  C   UNL     1     -29.901  -3.365  -6.269  1.00  0.00     0.053 C 
BRANCH   2   3
ATOM      3  C   UNL     1     -31.106  -2.686  -6.839  1.00  0.00     0.041 C 
ATOM      4  O   UNL     1     -31.064  -2.182  -7.992  1.00  0.00    -0.550 OA
ATOM      5  O   UNL     1     -32.292  -2.653  -6.117  1.00  0.00    -0.550 OA
ENDBRANCH   2   3
ENDBRANCH   1   2
BRANCH   1   6
ATOM      6  C   UNL     1     -27.498  -2.598  -6.414  1.00  0.00     0.000 C 
BRANCH   6   7
ATOM      7  C   UNL     1     -26.992  -1.368  -7.182  1.00  0.00    -0.000 C 
BRANCH   7   8
ATOM      8  C   UNL     1     -28.069  -0.282  -7.333  1.00  0.00    -0.003 C 
ATOM      9  C   UNL     1     -28.271   0.152  -8.784  1.00  0.00     0.004 C 
ENDBRANCH   7   8
ENDBRANCH   6   7
ENDBRANCH   1   6
TORSDOF 5
ENDMDL
MODEL 3
REMARK VINA RESULT:    -4.401      4.961      6.174
REMARK INTER + INTRA:          -5.898
REMARK INTER:                  -5.784
REMARK INTRA:                  -0.114
REMARK UNBOUND:                -0.210
REMARK SMILES CCCCCCC(=O)[O-]
REMARK SMILES IDX 5 1 6 2 7 3 8 4 9 5 4 6 3 7 2 8 1 9
REMARK H PARENT
REMARK Flexibility Score: inf
ROOT
ATOM      1  C   UNL     1     -15.399   2.573 -14.171  1.00  0.00     0.006 C 
ENDROOT
BRANCH   1   2
ATOM      2  C   UNL     1     -15.420   3.132 -12.746  1.00  0.00     0.053 C 
BRANCH   2   3
ATOM      3  C   UNL     1     -15.986   2.125 -11.795  1.00  0.00     0.041 C 
ATOM      4  O   UNL     1     -15.282   1.157 -11.404  1.00  0.00    -0.550 OA
ATOM      5  O   UNL     1     -17.275   2.282 -11.302  1.00  0.00    -0.550 OA
ENDBRANCH   2   3
ENDBRANCH   1   2
BRANCH   1   6
ATOM      6  C   UNL     1     -13.963   2.471 -14.701  1.00  0.00     0.000 C 
BRANCH   6   7
ATOM      7  C   UNL     1     -13.949   2.370 -16.234  1.00  0.00    -0.000 C 
BRANCH   7   8
ATOM      8  C   UNL     1     -13.098   3.469 -16.891  1.00  0.00    -0.003 C 
ATOM      9  C   UNL     1     -13.397   3.636 -18.380  1.00  0.00     0.004 C 
ENDBRANCH   7   8
ENDBRANCH   6   7
ENDBRANCH   1   6
TORSDOF 5
ENDMDL
MODEL 4
REMARK VINA RESULT:    -4.394      5.373      6.682
REMARK INTER + INTRA:          -5.889
REMARK INTER:                  -5.658
REMARK INTRA:                  -0.231
REMARK UNBOUND:                -0.210
REMARK SMILES CCCCCCC(=O)[O-]
REMARK SMILES IDX 5 1 6 2 7 3 8 4 9 5 4 6 3 7 2 8 1 9
REMARK H PARENT
REMARK Flexibility Score: inf
ROOT
ATOM      1  C   UNL     1     -14.644   1.787 -13.599  1.00  0.00     0.006 C 
ENDROOT
BRANCH   1   2
ATOM      2  C   UNL     1     -15.080   1.957 -15.057  1.00  0.00     0.053 C 
BRANCH   2   3
ATOM      3  C   UNL     1     -13.909   2.316 -15.916  1.00  0.00     0.041 C 
ATOM      4  O   UNL     1     -13.010   3.078 -15.474  1.00  0.00    -0.550 OA
ATOM      5  O   UNL     1     -13.785   1.768 -17.186  1.00  0.00    -0.550 OA
ENDBRANCH   2   3
ENDBRANCH   1   2
BRANCH   1   6
ATOM      6  C   UNL     1     -15.438   2.718 -12.674  1.00  0.00     0.000 C 
BRANCH   6   7
ATOM      7  C   UNL     1     -15.843   1.994 -11.382  1.00  0.00    -0.000 C 
BRANCH   7   8
ATOM      8  C   UNL     1     -17.364   1.810 -11.260  1.00  0.00    -0.003 C 
ATOM      9  C   UNL     1     -17.877   0.599 -12.037  1.00  0.00     0.004 C 
ENDBRANCH   7   8
ENDBRANCH   6   7
ENDBRANCH   1   6
TORSDOF 5
ENDMDL
MODEL 5
REMARK VINA RESULT:    -4.353      5.371      6.755
REMARK INTER + INTRA:          -5.835
REMARK INTER:                  -5.530
REMARK INTRA:                  -0.305
REMARK UNBOUND:                -0.210
REMARK SMILES CCCCCCC(=O)[O-]
REMARK SMILES IDX 5 1 6 2 7 3 8 4 9 5 4 6 3 7 2 8 1 9
REMARK H PARENT
REMARK Flexibility Score: inf
ROOT
ATOM      1  C   UNL     1     -15.519   2.899 -13.139  1.00  0.00     0.006 C 
ENDROOT
BRANCH   1   2
ATOM      2  C   UNL     1     -14.946   1.956 -14.201  1.00  0.00     0.053 C 
BRANCH   2   3
ATOM      3  C   UNL     1     -15.706   2.087 -15.483  1.00  0.00     0.041 C 
ATOM      4  O   UNL     1     -16.586   1.240 -15.787  1.00  0.00    -0.550 OA
ATOM      5  O   UNL     1     -15.479   3.174 -16.318  1.00  0.00    -0.550 OA
ENDBRANCH   2   3
ENDBRANCH   1   2
BRANCH   1   6
ATOM      6  C   UNL     1     -15.606   2.204 -11.775  1.00  0.00     0.000 C 
BRANCH   6   7
ATOM      7  C   UNL     1     -17.069   2.012 -11.348  1.00  0.00    -0.000 C 
BRANCH   7   8
ATOM      8  C   UNL     1     -17.502   0.537 -11.368  1.00  0.00    -0.003 C 
ATOM      9  C   UNL     1     -17.999   0.086 -12.740  1.00  0.00     0.004 C 
ENDBRANCH   7   8
ENDBRANCH   6   7
ENDBRANCH   1   6
TORSDOF 5
ENDMDL
MODEL 6
REMARK VINA RESULT:    -4.345     17.794     19.139
REMARK INTER + INTRA:          -5.825
REMARK INTER:                  -5.500
REMARK INTRA:                  -0.326
REMARK UNBOUND:                -0.210
REMARK SMILES CCCCCCC(=O)[O-]
REMARK SMILES IDX 5 1 6 2 7 3 8 4 9 5 4 6 3 7 2 8 1 9
REMARK H PARENT
REMARK Flexibility Score: inf
ROOT
ATOM      1  C   UNL     1     -30.666  -1.948  -5.834  1.00  0.00     0.006 C 
ENDROOT
BRANCH   1   2
ATOM      2  C   UNL     1     -30.731  -3.015  -6.931  1.00  0.00     0.053 C 
BRANCH   2   3
ATOM      3  C   UNL     1     -31.574  -2.541  -8.073  1.00  0.00     0.041 C 
ATOM      4  O   UNL     1     -31.215  -1.545  -8.755  1.00  0.00    -0.550 OA
ATOM      5  O   UNL     1     -32.729  -3.231  -8.418  1.00  0.00    -0.550 OA
ENDBRANCH   2   3
ENDBRANCH   1   2
BRANCH   1   6
ATOM      6  C   UNL     1     -29.213  -1.636  -5.456  1.00  0.00     0.000 C 
BRANCH   6   7
ATOM      7  C   UNL     1     -28.266  -2.736  -5.957  1.00  0.00    -0.000 C 
BRANCH   7   8
ATOM      8  C   UNL     1     -27.040  -2.171  -6.692  1.00  0.00    -0.003 C 
ATOM      9  C   UNL     1     -27.393  -1.014  -7.626  1.00  0.00     0.004 C 
ENDBRANCH   7   8
ENDBRANCH   6   7
ENDBRANCH   1   6
TORSDOF 5
ENDMDL
MODEL 7
REMARK VINA RESULT:    -4.248      5.133      5.897
REMARK INTER + INTRA:          -5.700
REMARK INTER:                  -5.378
REMARK INTRA:                  -0.322
REMARK UNBOUND:                -0.210
REMARK SMILES CCCCCCC(=O)[O-]
REMARK SMILES IDX 5 1 6 2 7 3 8 4 9 5 4 6 3 7 2 8 1 9
REMARK H PARENT
REMARK Flexibility Score: inf
ROOT
ATOM      1  C   UNL     1     -15.823   1.422 -14.758  1.00  0.00     0.006 C 
ENDROOT
BRANCH   1   2
ATOM      2  C   UNL     1     -16.381   0.021 -14.490  1.00  0.00     0.053 C 
BRANCH   2   3
ATOM      3  C   UNL     1     -17.873   0.022 -14.600  1.00  0.00     0.041 C 
ATOM      4  O   UNL     1     -18.583  -0.221 -13.590  1.00  0.00    -0.550 OA
ATOM      5  O   UNL     1     -18.481   0.341 -15.808  1.00  0.00    -0.550 OA
ENDBRANCH   2   3
ENDBRANCH   1   2
BRANCH   1   6
ATOM      6  C   UNL     1     -14.778   1.809 -13.705  1.00  0.00     0.000 C 
BRANCH   6   7
ATOM      7  C   UNL     1     -15.399   2.692 -12.612  1.00  0.00    -0.000 C 
BRANCH   7   8
ATOM      8  C   UNL     1     -15.853   1.884 -11.386  1.00  0.00    -0.003 C 
ATOM      9  C   UNL     1     -17.358   1.976 -11.142  1.00  0.00     0.004 C 
ENDBRANCH   7   8
ENDBRANCH   6   7
ENDBRANCH   1   6
TORSDOF 5
ENDMDL
MODEL 8
REMARK VINA RESULT:    -4.238      2.507      4.270
REMARK INTER + INTRA:          -5.687
REMARK INTER:                  -5.257
REMARK INTRA:                  -0.430
REMARK UNBOUND:                -0.210
REMARK SMILES CCCCCCC(=O)[O-]
REMARK SMILES IDX 5 1 6 2 7 3 8 4 9 5 4 6 3 7 2 8 1 9
REMARK H PARENT
REMARK Flexibility Score: inf
ROOT
ATOM      1  C   UNL     1     -15.802   0.117 -19.945  1.00  0.00     0.006 C 
ENDROOT
BRANCH   1   2
ATOM      2  C   UNL     1     -15.020   1.294 -19.355  1.00  0.00     0.053 C 
BRANCH   2   3
ATOM      3  C   UNL     1     -14.030   0.811 -18.343  1.00  0.00     0.041 C 
ATOM      4  O   UNL     1     -13.550  -0.349 -18.430  1.00  0.00    -0.550 OA
ATOM      5  O   UNL     1     -13.599   1.661 -17.332  1.00  0.00    -0.550 OA
ENDBRANCH   2   3
ENDBRANCH   1   2
BRANCH   1   6
ATOM      6  C   UNL     1     -17.106  -0.119 -19.174  1.00  0.00     0.000 C 
BRANCH   6   7
ATOM      7  C   UNL     1     -17.288  -1.608 -18.842  1.00  0.00    -0.000 C 
BRANCH   7   8
ATOM      8  C   UNL     1     -16.502  -2.034 -17.592  1.00  0.00    -0.003 C 
ATOM      9  C   UNL     1     -16.662  -1.055 -16.430  1.00  0.00     0.004 C 
ENDBRANCH   7   8
ENDBRANCH   6   7
ENDBRANCH   1   6
TORSDOF 5
ENDMDL
MODEL 9
REMARK VINA RESULT:    -4.237      1.134      1.389
REMARK INTER + INTRA:          -5.686
REMARK INTER:                  -5.525
REMARK INTRA:                  -0.162
REMARK UNBOUND:                -0.210
REMARK SMILES CCCCCCC(=O)[O-]
REMARK SMILES IDX 5 1 6 2 7 3 8 4 9 5 4 6 3 7 2 8 1 9
REMARK H PARENT
REMARK Flexibility Score: inf
ROOT
ATOM      1  C   UNL     1     -15.359   0.352 -20.192  1.00  0.00     0.006 C 
ENDROOT
BRANCH   1   2
ATOM      2  C   UNL     1     -16.472   0.157 -19.158  1.00  0.00     0.053 C 
BRANCH   2   3
ATOM      3  C   UNL     1     -16.421  -1.225 -18.588  1.00  0.00     0.041 C 
ATOM      4  O   UNL     1     -15.329  -1.703 -18.182  1.00  0.00    -0.550 OA
ATOM      5  O   UNL     1     -17.588  -1.966 -18.456  1.00  0.00    -0.550 OA
ENDBRANCH   2   3
ENDBRANCH   1   2
BRANCH   1   6
ATOM      6  C   UNL     1     -14.768   1.765 -20.105  1.00  0.00     0.000 C 
BRANCH   6   7
ATOM      7  C   UNL     1     -14.050   1.979 -18.764  1.00  0.00    -0.000 C 
BRANCH   7   8
ATOM      8  C   UNL     1     -13.636   3.442 -18.543  1.00  0.00    -0.003 C 
ATOM      9  C   UNL     1     -12.892   3.653 -17.225  1.00  0.00     0.004 C 
ENDBRANCH   7   8
ENDBRANCH   6   7
ENDBRANCH   1   6
TORSDOF 5
ENDMDL
