MODEL 1
REMARK VINA RESULT:    -4.028      0.000      0.000
REMARK INTER + INTRA:          -4.432
REMARK INTER:                  -4.381
REMARK INTRA:                  -0.051
REMARK UNBOUND:                -0.051
REMARK SMILES COc1cc2ccc(=O)oc2cc1O
REMARK SMILES IDX 3 1 13 2 12 3 11 4 5 5 4 6 6 7 7 8 8 9 9 10 10 11 2 12 1 13
REMARK SMILES IDX 14 14
REMARK H PARENT 14 15
REMARK Flexibility Score: inf
ROOT
ATOM      1  C   UNL     1      42.984  32.404   3.031  1.00  0.00     0.161 A 
ATOM      2  C   UNL     1      41.682  32.793   3.404  1.00  0.00     0.161 A 
ATOM      3  C   UNL     1      40.723  33.076   2.424  1.00  0.00     0.098 A 
ATOM      4  C   UNL     1      41.045  32.977   1.069  1.00  0.00     0.142 A 
ATOM      5  C   UNL     1      42.346  32.589   0.685  1.00  0.00     0.022 A 
ATOM      6  C   UNL     1      43.309  32.304   1.662  1.00  0.00     0.062 A 
ATOM      7  C   UNL     1      42.639  32.499  -0.679  1.00  0.00     0.019 A 
ATOM      8  C   UNL     1      41.646  32.793  -1.614  1.00  0.00     0.094 A 
ATOM      9  C   UNL     1      40.379  33.172  -1.159  1.00  0.00     0.336 A 
ATOM     10  O   UNL     1      39.468  33.441  -1.986  1.00  0.00    -0.246 OA
ATOM     11  O   UNL     1      40.127  33.249   0.145  1.00  0.00    -0.423 OA
ENDROOT
BRANCH   1  12
ATOM     12  O   UNL     1      43.920  32.126   4.038  1.00  0.00    -0.493 OA
ATOM     13  C   UNL     1      44.124  30.844   4.623  1.00  0.00     0.278 C 
ENDBRANCH   1  12
BRANCH   2  14
ATOM     14  O   UNL     1      41.321  32.902   4.746  1.00  0.00    -0.504 OA
ATOM     15  H   UNL     1      41.988  33.151   5.467  1.00  0.00     0.293 HD
ENDBRANCH   2  14
TORSDOF 2
ENDMDL
MODEL 2
REMARK VINA RESULT:    -4.027     15.725     17.699
REMARK INTER + INTRA:          -4.431
REMARK INTER:                  -4.388
REMARK INTRA:                  -0.044
REMARK UNBOUND:                -0.051
REMARK SMILES COc1cc2ccc(=O)oc2cc1O
REMARK SMILES IDX 3 1 13 2 12 3 11 4 5 5 4 6 6 7 7 8 8 9 9 10 10 11 2 12 1 13
REMARK SMILES IDX 14 14
REMARK H PARENT 14 15
REMARK Flexibility Score: inf
ROOT
ATOM      1  C   UNL     1      27.310  39.170  -0.364  1.00  0.00     0.161 A 
ATOM      2  C   UNL     1      26.005  39.466  -0.804  1.00  0.00     0.161 A 
ATOM      3  C   UNL     1      25.065  40.000   0.086  1.00  0.00     0.098 A 
ATOM      4  C   UNL     1      25.410  40.245   1.416  1.00  0.00     0.142 A 
ATOM      5  C   UNL     1      26.714  39.952   1.867  1.00  0.00     0.022 A 
ATOM      6  C   UNL     1      27.659  39.417   0.981  1.00  0.00     0.062 A 
ATOM      7  C   UNL     1      27.030  40.208   3.205  1.00  0.00     0.019 A 
ATOM      8  C   UNL     1      26.055  40.741   4.050  1.00  0.00     0.094 A 
ATOM      9  C   UNL     1      24.783  41.005   3.532  1.00  0.00     0.336 A 
ATOM     10  O   UNL     1      23.889  41.487   4.277  1.00  0.00    -0.246 OA
ATOM     11  O   UNL     1      24.510  40.753   2.255  1.00  0.00    -0.423 OA
ENDROOT
BRANCH   1  12
ATOM     12  O   UNL     1      28.228  38.636  -1.281  1.00  0.00    -0.493 OA
ATOM     13  C   UNL     1      29.515  38.134  -0.939  1.00  0.00     0.278 C 
ENDBRANCH   1  12
BRANCH   2  14
ATOM     14  O   UNL     1      25.623  39.237  -2.124  1.00  0.00    -0.504 OA
ATOM     15  H   UNL     1      25.140  38.393  -2.409  1.00  0.00     0.293 HD
ENDBRANCH   2  14
TORSDOF 2
ENDMDL
MODEL 3
REMARK VINA RESULT:    -3.952     17.101     18.524
REMARK INTER + INTRA:          -4.350
REMARK INTER:                  -4.285
REMARK INTRA:                  -0.065
REMARK UNBOUND:                -0.051
REMARK SMILES COc1cc2ccc(=O)oc2cc1O
REMARK SMILES IDX 3 1 13 2 12 3 11 4 5 5 4 6 6 7 7 8 8 9 9 10 10 11 2 12 1 13
REMARK SMILES IDX 14 14
REMARK H PARENT 14 15
REMARK Flexibility Score: inf
ROOT
ATOM      1  C   UNL     1      24.992  41.846   4.240  1.00  0.00     0.161 A 
ATOM      2  C   UNL     1      26.391  41.707   4.149  1.00  0.00     0.161 A 
ATOM      3  C   UNL     1      26.962  41.004   3.081  1.00  0.00     0.098 A 
ATOM      4  C   UNL     1      26.153  40.435   2.096  1.00  0.00     0.142 A 
ATOM      5  C   UNL     1      24.751  40.568   2.177  1.00  0.00     0.022 A 
ATOM      6  C   UNL     1      24.175  41.271   3.244  1.00  0.00     0.062 A 
ATOM      7  C   UNL     1      23.967  39.987   1.175  1.00  0.00     0.019 A 
ATOM      8  C   UNL     1      24.588  39.298   0.133  1.00  0.00     0.094 A 
ATOM      9  C   UNL     1      25.983  39.206   0.119  1.00  0.00     0.336 A 
ATOM     10  O   UNL     1      26.563  38.588  -0.813  1.00  0.00    -0.246 OA
ATOM     11  O   UNL     1      26.705  39.768   1.084  1.00  0.00    -0.423 OA
ENDROOT
BRANCH   1  12
ATOM     12  O   UNL     1      24.452  42.557   5.323  1.00  0.00    -0.493 OA
ATOM     13  C   UNL     1      23.877  41.956   6.479  1.00  0.00     0.278 C 
ENDBRANCH   1  12
BRANCH   2  14
ATOM     14  O   UNL     1      27.232  42.261   5.113  1.00  0.00    -0.504 OA
ATOM     15  H   UNL     1      28.233  42.108   5.110  1.00  0.00     0.293 HD
ENDBRANCH   2  14
TORSDOF 2
ENDMDL
MODEL 4
REMARK VINA RESULT:    -3.931     16.636     18.569
REMARK INTER + INTRA:          -4.326
REMARK INTER:                  -4.269
REMARK INTRA:                  -0.057
REMARK UNBOUND:                -0.051
REMARK SMILES COc1cc2ccc(=O)oc2cc1O
REMARK SMILES IDX 3 1 13 2 12 3 11 4 5 5 4 6 6 7 7 8 8 9 9 10 10 11 2 12 1 13
REMARK SMILES IDX 14 14
REMARK H PARENT 14 15
REMARK Flexibility Score: inf
ROOT
ATOM      1  C   UNL     1      25.857  39.782   0.920  1.00  0.00     0.161 A 
ATOM      2  C   UNL     1      27.150  39.761   1.479  1.00  0.00     0.161 A 
ATOM      3  C   UNL     1      27.379  40.317   2.744  1.00  0.00     0.098 A 
ATOM      4  C   UNL     1      26.332  40.896   3.463  1.00  0.00     0.142 A 
ATOM      5  C   UNL     1      25.034  40.921   2.911  1.00  0.00     0.022 A 
ATOM      6  C   UNL     1      24.799  40.367   1.646  1.00  0.00     0.062 A 
ATOM      7  C   UNL     1      24.005  41.508   3.655  1.00  0.00     0.019 A 
ATOM      8  C   UNL     1      24.289  42.048   4.910  1.00  0.00     0.094 A 
ATOM      9  C   UNL     1      25.600  41.987   5.392  1.00  0.00     0.336 A 
ATOM     10  O   UNL     1      25.878  42.467   6.523  1.00  0.00    -0.246 OA
ATOM     11  O   UNL     1      26.560  41.422   4.664  1.00  0.00    -0.423 OA
ENDROOT
BRANCH   1  12
ATOM     12  O   UNL     1      25.661  39.215  -0.349  1.00  0.00    -0.493 OA
ATOM     13  C   UNL     1      25.738  39.934  -1.576  1.00  0.00     0.278 C 
ENDBRANCH   1  12
BRANCH   2  14
ATOM     14  O   UNL     1      28.221  39.192   0.793  1.00  0.00    -0.504 OA
ATOM     15  H   UNL     1      28.829  39.735   0.193  1.00  0.00     0.293 HD
ENDBRANCH   2  14
TORSDOF 2
ENDMDL
MODEL 5
REMARK VINA RESULT:    -3.926     16.509     17.838
REMARK INTER + INTRA:          -4.321
REMARK INTER:                  -4.257
REMARK INTRA:                  -0.064
REMARK UNBOUND:                -0.051
REMARK SMILES COc1cc2ccc(=O)oc2cc1O
REMARK SMILES IDX 3 1 13 2 12 3 11 4 5 5 4 6 6 7 7 8 8 9 9 10 10 11 2 12 1 13
REMARK SMILES IDX 14 14
REMARK H PARENT 14 15
REMARK Flexibility Score: inf
ROOT
ATOM      1  C   UNL     1      26.126  40.906   4.209  1.00  0.00     0.161 A 
ATOM      2  C   UNL     1      24.815  41.180   3.771  1.00  0.00     0.161 A 
ATOM      3  C   UNL     1      24.434  40.883   2.457  1.00  0.00     0.098 A 
ATOM      4  C   UNL     1      25.345  40.312   1.568  1.00  0.00     0.142 A 
ATOM      5  C   UNL     1      26.660  40.034   1.996  1.00  0.00     0.022 A 
ATOM      6  C   UNL     1      27.047  40.329   3.310  1.00  0.00     0.062 A 
ATOM      7  C   UNL     1      27.551  39.462   1.082  1.00  0.00     0.019 A 
ATOM      8  C   UNL     1      27.119  39.186  -0.216  1.00  0.00     0.094 A 
ATOM      9  C   UNL     1      25.801  39.491  -0.569  1.00  0.00     0.336 A 
ATOM     10  O   UNL     1      25.391  39.250  -1.735  1.00  0.00    -0.246 OA
ATOM     11  O   UNL     1      24.974  40.034   0.320  1.00  0.00    -0.423 OA
ENDROOT
BRANCH   1  12
ATOM     12  O   UNL     1      26.475  41.215   5.532  1.00  0.00    -0.493 OA
ATOM     13  C   UNL     1      27.320  42.295   5.914  1.00  0.00     0.278 C 
ENDBRANCH   1  12
BRANCH   2  14
ATOM     14  O   UNL     1      23.875  41.748   4.630  1.00  0.00    -0.504 OA
ATOM     15  H   UNL     1      24.047  41.861   5.621  1.00  0.00     0.293 HD
ENDBRANCH   2  14
TORSDOF 2
ENDMDL
MODEL 6
REMARK VINA RESULT:    -3.915      1.289      5.023
REMARK INTER + INTRA:          -4.309
REMARK INTER:                  -4.249
REMARK INTRA:                  -0.060
REMARK UNBOUND:                -0.051
REMARK SMILES COc1cc2ccc(=O)oc2cc1O
REMARK SMILES IDX 3 1 13 2 12 3 11 4 5 5 4 6 6 7 7 8 8 9 9 10 10 11 2 12 1 13
REMARK SMILES IDX 14 14
REMARK H PARENT 14 15
REMARK Flexibility Score: inf
ROOT
ATOM      1  C   UNL     1      41.992  32.859   0.746  1.00  0.00     0.161 A 
ATOM      2  C   UNL     1      40.753  32.951   1.411  1.00  0.00     0.161 A 
ATOM      3  C   UNL     1      40.629  32.512   2.734  1.00  0.00     0.098 A 
ATOM      4  C   UNL     1      41.729  31.981   3.409  1.00  0.00     0.142 A 
ATOM      5  C   UNL     1      42.974  31.885   2.753  1.00  0.00     0.022 A 
ATOM      6  C   UNL     1      43.104  32.322   1.429  1.00  0.00     0.062 A 
ATOM      7  C   UNL     1      44.058  31.348   3.455  1.00  0.00     0.019 A 
ATOM      8  C   UNL     1      43.879  30.925   4.773  1.00  0.00     0.094 A 
ATOM      9  C   UNL     1      42.616  31.051   5.358  1.00  0.00     0.336 A 
ATOM     10  O   UNL     1      42.433  30.676   6.547  1.00  0.00    -0.246 OA
ATOM     11  O   UNL     1      41.602  31.566   4.668  1.00  0.00    -0.423 OA
ENDROOT
BRANCH   1  12
ATOM     12  O   UNL     1      42.082  33.309  -0.580  1.00  0.00    -0.493 OA
ATOM     13  C   UNL     1      41.917  32.481  -1.728  1.00  0.00     0.278 C 
ENDBRANCH   1  12
BRANCH   2  14
ATOM     14  O   UNL     1      39.632  33.476   0.771  1.00  0.00    -0.504 OA
ATOM     15  H   UNL     1      39.609  33.646  -0.227  1.00  0.00     0.293 HD
ENDBRANCH   2  14
TORSDOF 2
ENDMDL
MODEL 7
REMARK VINA RESULT:    -3.908      1.355      5.378
REMARK INTER + INTRA:          -4.301
REMARK INTER:                  -4.279
REMARK INTRA:                  -0.022
REMARK UNBOUND:                -0.051
REMARK SMILES COc1cc2ccc(=O)oc2cc1O
REMARK SMILES IDX 3 1 13 2 12 3 11 4 5 5 4 6 6 7 7 8 8 9 9 10 10 11 2 12 1 13
REMARK SMILES IDX 14 14
REMARK H PARENT 14 15
REMARK Flexibility Score: inf
ROOT
ATOM      1  C   UNL     1      40.458  33.551  -0.228  1.00  0.00     0.161 A 
ATOM      2  C   UNL     1      41.675  33.087  -0.766  1.00  0.00     0.161 A 
ATOM      3  C   UNL     1      42.626  32.481   0.063  1.00  0.00     0.098 A 
ATOM      4  C   UNL     1      42.381  32.329   1.428  1.00  0.00     0.142 A 
ATOM      5  C   UNL     1      41.166  32.790   1.977  1.00  0.00     0.022 A 
ATOM      6  C   UNL     1      40.210  33.397   1.152  1.00  0.00     0.062 A 
ATOM      7  C   UNL     1      40.949  32.623   3.348  1.00  0.00     0.019 A 
ATOM      8  C   UNL     1      41.931  32.013   4.129  1.00  0.00     0.094 A 
ATOM      9  C   UNL     1      43.111  31.582   3.515  1.00  0.00     0.336 A 
ATOM     10  O   UNL     1      44.011  31.028   4.202  1.00  0.00    -0.246 OA
ATOM     11  O   UNL     1      43.292  31.752   2.209  1.00  0.00    -0.423 OA
ENDROOT
BRANCH   1  12
ATOM     12  O   UNL     1      39.525  34.153  -1.087  1.00  0.00    -0.493 OA
ATOM     13  C   UNL     1      38.586  33.442  -1.887  1.00  0.00     0.278 C 
ENDBRANCH   1  12
BRANCH   2  14
ATOM     14  O   UNL     1      41.957  33.220  -2.125  1.00  0.00    -0.504 OA
ATOM     15  H   UNL     1      42.039  34.124  -2.574  1.00  0.00     0.293 HD
ENDBRANCH   2  14
TORSDOF 2
ENDMDL
