MODEL 1
REMARK VINA RESULT:    -5.620      0.000      0.000
REMARK INTER + INTRA:          -6.904
REMARK INTER:                  -6.605
REMARK INTRA:                  -0.299
REMARK UNBOUND:                -0.299
REMARK SMILES O=c1c(O)c(-c2ccc(O)cc2)oc2cc(O)cc(O)c12
REMARK SMILES IDX 5 1 3 2 2 3 1 4 21 5 19 6 18 7 16 8 15 9 14 10 13 11 6 12
REMARK SMILES IDX 7 13 8 14 9 15 12 16 11 17 10 18 4 20 20 22 17 24
REMARK H PARENT 10 19 4 21 20 23 17 25
REMARK Flexibility Score: inf
ROOT
ATOM      1  C   UNL     1       0.953  -2.502   6.435  1.00  0.00     0.180 A 
ATOM      2  C   UNL     1      -0.302  -1.883   6.573  1.00  0.00     0.208 A 
ATOM      3  C   UNL     1      -0.395  -0.491   6.414  1.00  0.00     0.238 A 
ATOM      4  O   UNL     1      -1.530   0.050   6.483  1.00  0.00    -0.285 OA
ATOM      5  C   UNL     1       0.769   0.266   6.138  1.00  0.00     0.111 A 
ATOM      6  C   UNL     1       0.796   1.687   5.997  1.00  0.00     0.134 A 
ATOM      7  C   UNL     1       1.980   2.318   5.595  1.00  0.00     0.093 A 
ATOM      8  C   UNL     1       3.151   1.590   5.391  1.00  0.00     0.123 A 
ATOM      9  C   UNL     1       3.150   0.207   5.584  1.00  0.00     0.094 A 
ATOM     10  C   UNL     1       1.976  -0.455   5.950  1.00  0.00     0.146 A 
ATOM     11  O   UNL     1       2.014  -1.772   6.112  1.00  0.00    -0.452 OA
ENDROOT
BRANCH   1  12
ATOM     12  C   UNL     1       1.136  -3.960   6.614  1.00  0.00     0.021 A 
ATOM     13  C   UNL     1       1.131  -4.801   5.487  1.00  0.00     0.016 A 
ATOM     14  C   UNL     1       1.324  -6.178   5.631  1.00  0.00     0.047 A 
ATOM     15  C   UNL     1       1.538  -6.731   6.896  1.00  0.00     0.115 A 
ATOM     16  C   UNL     1       1.373  -4.521   7.882  1.00  0.00     0.016 A 
ATOM     17  C   UNL     1       1.567  -5.897   8.023  1.00  0.00     0.047 A 
BRANCH  15  18
ATOM     18  O   UNL     1       1.729  -8.105   7.024  1.00  0.00    -0.508 OA
ATOM     19  H   UNL     1       2.603  -8.489   7.365  1.00  0.00     0.293 HD
ENDBRANCH  15  18
ENDBRANCH   1  12
BRANCH   2  20
ATOM     20  O   UNL     1      -1.441  -2.652   6.823  1.00  0.00    -0.502 OA
ATOM     21  H   UNL     1      -1.495  -3.636   6.591  1.00  0.00     0.293 HD
ENDBRANCH   2  20
BRANCH   6  22
ATOM     22  O   UNL     1      -0.295   2.519   6.266  1.00  0.00    -0.507 OA
ATOM     23  H   UNL     1      -1.200   2.439   5.829  1.00  0.00     0.293 HD
ENDBRANCH   6  22
BRANCH   8  24
ATOM     24  O   UNL     1       4.315   2.252   5.007  1.00  0.00    -0.508 OA
ATOM     25  H   UNL     1       4.308   2.962   4.284  1.00  0.00     0.293 HD
ENDBRANCH   8  24
TORSDOF 5
ENDMDL
MODEL 2
REMARK VINA RESULT:    -5.555      1.567      6.339
REMARK INTER + INTRA:          -6.828
REMARK INTER:                  -6.539
REMARK INTRA:                  -0.289
REMARK UNBOUND:                -0.299
REMARK SMILES O=c1c(O)c(-c2ccc(O)cc2)oc2cc(O)cc(O)c12
REMARK SMILES IDX 5 1 3 2 2 3 1 4 21 5 19 6 18 7 16 8 15 9 14 10 13 11 6 12
REMARK SMILES IDX 7 13 8 14 9 15 12 16 11 17 10 18 4 20 20 22 17 24
REMARK H PARENT 10 19 4 21 20 23 17 25
REMARK Flexibility Score: inf
ROOT
ATOM      1  C   UNL     1       2.167  -0.882   6.341  1.00  0.00     0.180 A 
ATOM      2  C   UNL     1       0.866  -0.705   6.844  1.00  0.00     0.208 A 
ATOM      3  C   UNL     1       0.003  -1.811   6.901  1.00  0.00     0.238 A 
ATOM      4  O   UNL     1      -1.141  -1.659   7.404  1.00  0.00    -0.285 OA
ATOM      5  C   UNL     1       0.444  -3.075   6.439  1.00  0.00     0.111 A 
ATOM      6  C   UNL     1      -0.360  -4.254   6.413  1.00  0.00     0.134 A 
ATOM      7  C   UNL     1       0.221  -5.478   6.057  1.00  0.00     0.093 A 
ATOM      8  C   UNL     1       1.556  -5.554   5.665  1.00  0.00     0.123 A 
ATOM      9  C   UNL     1       2.336  -4.397   5.630  1.00  0.00     0.094 A 
ATOM     10  C   UNL     1       1.795  -3.168   6.013  1.00  0.00     0.146 A 
ATOM     11  O   UNL     1       2.572  -2.092   5.976  1.00  0.00    -0.452 OA
ENDROOT
BRANCH   1  12
ATOM     12  C   UNL     1       3.126   0.240   6.226  1.00  0.00     0.021 A 
ATOM     13  C   UNL     1       3.122   1.037   5.068  1.00  0.00     0.016 A 
ATOM     14  C   UNL     1       4.003   2.115   4.947  1.00  0.00     0.047 A 
ATOM     15  C   UNL     1       4.889   2.421   5.984  1.00  0.00     0.115 A 
ATOM     16  C   UNL     1       4.005   0.566   7.275  1.00  0.00     0.016 A 
ATOM     17  C   UNL     1       4.885   1.644   7.152  1.00  0.00     0.047 A 
BRANCH  15  18
ATOM     18  O   UNL     1       5.761   3.497   5.850  1.00  0.00    -0.508 OA
ATOM     19  H   UNL     1       5.462   4.449   6.033  1.00  0.00     0.293 HD
ENDBRANCH  15  18
ENDBRANCH   1  12
BRANCH   2  20
ATOM     20  O   UNL     1       0.458   0.545   7.316  1.00  0.00    -0.502 OA
ATOM     21  H   UNL     1       0.160   1.290   6.698  1.00  0.00     0.293 HD
ENDBRANCH   2  20
BRANCH   6  22
ATOM     22  O   UNL     1      -1.729  -4.272   6.698  1.00  0.00    -0.507 OA
ATOM     23  H   UNL     1      -2.404  -3.630   6.314  1.00  0.00     0.293 HD
ENDBRANCH   6  22
BRANCH   8  24
ATOM     24  O   UNL     1       2.097  -6.785   5.302  1.00  0.00    -0.508 OA
ATOM     25  H   UNL     1       3.087  -6.979   5.398  1.00  0.00     0.293 HD
ENDBRANCH   8  24
TORSDOF 5
ENDMDL
MODEL 3
REMARK VINA RESULT:    -5.449      2.175      6.997
REMARK INTER + INTRA:          -6.703
REMARK INTER:                  -6.415
REMARK INTRA:                  -0.288
REMARK UNBOUND:                -0.299
REMARK SMILES O=c1c(O)c(-c2ccc(O)cc2)oc2cc(O)cc(O)c12
REMARK SMILES IDX 5 1 3 2 2 3 1 4 21 5 19 6 18 7 16 8 15 9 14 10 13 11 6 12
REMARK SMILES IDX 7 13 8 14 9 15 12 16 11 17 10 18 4 20 20 22 17 24
REMARK H PARENT 10 19 4 21 20 23 17 25
REMARK Flexibility Score: inf
ROOT
ATOM      1  C   UNL     1       3.024   1.495   5.812  1.00  0.00     0.180 A 
ATOM      2  C   UNL     1       1.698   1.959   5.844  1.00  0.00     0.208 A 
ATOM      3  C   UNL     1       0.655   1.029   5.987  1.00  0.00     0.238 A 
ATOM      4  O   UNL     1      -0.527   1.455   6.070  1.00  0.00    -0.285 OA
ATOM      5  C   UNL     1       0.950  -0.353   6.079  1.00  0.00     0.111 A 
ATOM      6  C   UNL     1      -0.030  -1.385   6.186  1.00  0.00     0.134 A 
ATOM      7  C   UNL     1       0.381  -2.707   6.402  1.00  0.00     0.093 A 
ATOM      8  C   UNL     1       1.733  -3.042   6.450  1.00  0.00     0.123 A 
ATOM      9  C   UNL     1       2.700  -2.049   6.287  1.00  0.00     0.094 A 
ATOM     10  C   UNL     1       2.322  -0.717   6.106  1.00  0.00     0.146 A 
ATOM     11  O   UNL     1       3.272   0.199   5.966  1.00  0.00    -0.452 OA
ENDROOT
BRANCH   1  12
ATOM     12  C   UNL     1       4.175   2.410   5.638  1.00  0.00     0.021 A 
ATOM     13  C   UNL     1       4.924   2.801   6.762  1.00  0.00     0.016 A 
ATOM     14  C   UNL     1       6.027   3.648   6.618  1.00  0.00     0.047 A 
ATOM     15  C   UNL     1       6.405   4.102   5.351  1.00  0.00     0.115 A 
ATOM     16  C   UNL     1       4.573   2.855   4.364  1.00  0.00     0.016 A 
ATOM     17  C   UNL     1       5.677   3.700   4.223  1.00  0.00     0.047 A 
BRANCH  15  18
ATOM     18  O   UNL     1       7.506   4.945   5.223  1.00  0.00    -0.508 OA
ATOM     19  H   UNL     1       7.495   5.891   5.588  1.00  0.00     0.293 HD
ENDBRANCH  15  18
ENDBRANCH   1  12
BRANCH   2  20
ATOM     20  O   UNL     1       1.429   3.328   5.774  1.00  0.00    -0.502 OA
ATOM     21  H   UNL     1       1.843   3.929   5.072  1.00  0.00     0.293 HD
ENDBRANCH   2  20
BRANCH   6  22
ATOM     22  O   UNL     1      -1.406  -1.172   6.059  1.00  0.00    -0.507 OA
ATOM     23  H   UNL     1      -1.931  -0.486   6.580  1.00  0.00     0.293 HD
ENDBRANCH   6  22
BRANCH   8  24
ATOM     24  O   UNL     1       2.105  -4.370   6.651  1.00  0.00    -0.508 OA
ATOM     25  H   UNL     1       1.418  -5.112   6.698  1.00  0.00     0.293 HD
ENDBRANCH   8  24
TORSDOF 5
ENDMDL
MODEL 4
REMARK VINA RESULT:    -5.266      4.988      7.739
REMARK INTER + INTRA:          -6.488
REMARK INTER:                  -6.287
REMARK INTRA:                  -0.201
REMARK UNBOUND:                -0.299
REMARK SMILES O=c1c(O)c(-c2ccc(O)cc2)oc2cc(O)cc(O)c12
REMARK SMILES IDX 5 1 3 2 2 3 1 4 21 5 19 6 18 7 16 8 15 9 14 10 13 11 6 12
REMARK SMILES IDX 7 13 8 14 9 15 12 16 11 17 10 18 4 20 20 22 17 24
REMARK H PARENT 10 19 4 21 20 23 17 25
REMARK Flexibility Score: inf
ROOT
ATOM      1  C   UNL     1       3.749   4.504   5.126  1.00  0.00     0.180 A 
ATOM      2  C   UNL     1       2.482   5.103   5.232  1.00  0.00     0.208 A 
ATOM      3  C   UNL     1       2.306   6.413   4.758  1.00  0.00     0.238 A 
ATOM      4  O   UNL     1       1.156   6.923   4.806  1.00  0.00    -0.285 OA
ATOM      5  C   UNL     1       3.402   7.114   4.201  1.00  0.00     0.111 A 
ATOM      6  C   UNL     1       3.346   8.459   3.727  1.00  0.00     0.134 A 
ATOM      7  C   UNL     1       4.458   9.008   3.075  1.00  0.00     0.093 A 
ATOM      8  C   UNL     1       5.642   8.285   2.938  1.00  0.00     0.123 A 
ATOM      9  C   UNL     1       5.726   6.989   3.451  1.00  0.00     0.094 A 
ATOM     10  C   UNL     1       4.623   6.402   4.074  1.00  0.00     0.146 A 
ATOM     11  O   UNL     1       4.741   5.165   4.539  1.00  0.00    -0.452 OA
ENDROOT
BRANCH   1  12
ATOM     12  C   UNL     1       4.019   3.137   5.625  1.00  0.00     0.021 A 
ATOM     13  C   UNL     1       4.747   2.967   6.816  1.00  0.00     0.016 A 
ATOM     14  C   UNL     1       4.995   1.686   7.317  1.00  0.00     0.047 A 
ATOM     15  C   UNL     1       4.508   0.561   6.647  1.00  0.00     0.115 A 
ATOM     16  C   UNL     1       3.514   2.001   4.966  1.00  0.00     0.016 A 
ATOM     17  C   UNL     1       3.763   0.722   5.471  1.00  0.00     0.047 A 
BRANCH  15  18
ATOM     18  O   UNL     1       4.762  -0.709   7.158  1.00  0.00    -0.508 OA
ATOM     19  H   UNL     1       4.571  -0.939   8.127  1.00  0.00     0.293 HD
ENDBRANCH  15  18
ENDBRANCH   1  12
BRANCH   2  20
ATOM     20  O   UNL     1       1.408   4.385   5.766  1.00  0.00    -0.502 OA
ATOM     21  H   UNL     1       0.568   4.836   6.108  1.00  0.00     0.293 HD
ENDBRANCH   2  20
BRANCH   6  22
ATOM     22  O   UNL     1       2.242   9.301   3.894  1.00  0.00    -0.507 OA
ATOM     23  H   UNL     1       2.217  10.274   3.631  1.00  0.00     0.293 HD
ENDBRANCH   6  22
BRANCH   8  24
ATOM     24  O   UNL     1       6.733   8.868   2.298  1.00  0.00    -0.508 OA
ATOM     25  H   UNL     1       7.020   8.581   1.370  1.00  0.00     0.293 HD
ENDBRANCH   8  24
TORSDOF 5
ENDMDL
MODEL 5
REMARK VINA RESULT:    -5.264      2.429      3.712
REMARK INTER + INTRA:          -6.486
REMARK INTER:                  -6.207
REMARK INTRA:                  -0.279
REMARK UNBOUND:                -0.299
REMARK SMILES O=c1c(O)c(-c2ccc(O)cc2)oc2cc(O)cc(O)c12
REMARK SMILES IDX 5 1 3 2 2 3 1 4 21 5 19 6 18 7 16 8 15 9 14 10 13 11 6 12
REMARK SMILES IDX 7 13 8 14 9 15 12 16 11 17 10 18 4 20 20 22 17 24
REMARK H PARENT 10 19 4 21 20 23 17 25
REMARK Flexibility Score: inf
ROOT
ATOM      1  C   UNL     1       2.993  -1.349   6.799  1.00  0.00     0.180 A 
ATOM      2  C   UNL     1       3.728  -1.203   7.988  1.00  0.00     0.208 A 
ATOM      3  C   UNL     1       4.542  -0.070   8.149  1.00  0.00     0.238 A 
ATOM      4  O   UNL     1       5.155   0.083   9.238  1.00  0.00    -0.285 OA
ATOM      5  C   UNL     1       4.624   0.892   7.114  1.00  0.00     0.111 A 
ATOM      6  C   UNL     1       5.448   2.057   7.154  1.00  0.00     0.134 A 
ATOM      7  C   UNL     1       5.351   3.007   6.129  1.00  0.00     0.093 A 
ATOM      8  C   UNL     1       4.511   2.804   5.037  1.00  0.00     0.123 A 
ATOM      9  C   UNL     1       3.744   1.639   4.958  1.00  0.00     0.094 A 
ATOM     10  C   UNL     1       3.793   0.691   5.982  1.00  0.00     0.146 A 
ATOM     11  O   UNL     1       3.041  -0.398   5.874  1.00  0.00    -0.452 OA
ENDROOT
BRANCH   1  12
ATOM     12  C   UNL     1       2.133  -2.528   6.545  1.00  0.00     0.021 A 
ATOM     13  C   UNL     1       2.663  -3.636   5.861  1.00  0.00     0.016 A 
ATOM     14  C   UNL     1       1.876  -4.767   5.629  1.00  0.00     0.047 A 
ATOM     15  C   UNL     1       0.557  -4.814   6.089  1.00  0.00     0.115 A 
ATOM     16  C   UNL     1       0.811  -2.589   7.023  1.00  0.00     0.016 A 
ATOM     17  C   UNL     1       0.027  -3.722   6.791  1.00  0.00     0.047 A 
BRANCH  15  18
ATOM     18  O   UNL     1      -0.215  -5.948   5.851  1.00  0.00    -0.508 OA
ATOM     19  H   UNL     1      -1.102  -5.893   5.362  1.00  0.00     0.293 HD
ENDBRANCH  15  18
ENDBRANCH   1  12
BRANCH   2  20
ATOM     20  O   UNL     1       3.615  -2.153   9.007  1.00  0.00    -0.502 OA
ATOM     21  H   UNL     1       4.090  -3.047   8.972  1.00  0.00     0.293 HD
ENDBRANCH   2  20
BRANCH   6  22
ATOM     22  O   UNL     1       6.390   2.313   8.155  1.00  0.00    -0.507 OA
ATOM     23  H   UNL     1       6.283   2.056   9.124  1.00  0.00     0.293 HD
ENDBRANCH   6  22
BRANCH   8  24
ATOM     24  O   UNL     1       4.451   3.762   4.027  1.00  0.00    -0.508 OA
ATOM     25  H   UNL     1       4.923   3.629   3.141  1.00  0.00     0.293 HD
ENDBRANCH   8  24
TORSDOF 5
ENDMDL
MODEL 6
REMARK VINA RESULT:    -5.136      2.853      7.802
REMARK INTER + INTRA:          -6.336
REMARK INTER:                  -6.098
REMARK INTRA:                  -0.238
REMARK UNBOUND:                -0.299
REMARK SMILES O=c1c(O)c(-c2ccc(O)cc2)oc2cc(O)cc(O)c12
REMARK SMILES IDX 5 1 3 2 2 3 1 4 21 5 19 6 18 7 16 8 15 9 14 10 13 11 6 12
REMARK SMILES IDX 7 13 8 14 9 15 12 16 11 17 10 18 4 20 20 22 17 24
REMARK H PARENT 10 19 4 21 20 23 17 25
REMARK Flexibility Score: inf
ROOT
ATOM      1  C   UNL     1       3.453   2.053   6.013  1.00  0.00     0.180 A 
ATOM      2  C   UNL     1       4.265   1.273   6.856  1.00  0.00     0.208 A 
ATOM      3  C   UNL     1       3.730   0.105   7.424  1.00  0.00     0.238 A 
ATOM      4  O   UNL     1       4.478  -0.618   8.133  1.00  0.00    -0.285 OA
ATOM      5  C   UNL     1       2.388  -0.259   7.157  1.00  0.00     0.111 A 
ATOM      6  C   UNL     1       1.733  -1.399   7.711  1.00  0.00     0.134 A 
ATOM      7  C   UNL     1       0.444  -1.734   7.275  1.00  0.00     0.093 A 
ATOM      8  C   UNL     1      -0.235  -0.937   6.356  1.00  0.00     0.123 A 
ATOM      9  C   UNL     1       0.375   0.214   5.852  1.00  0.00     0.094 A 
ATOM     10  C   UNL     1       1.672   0.554   6.241  1.00  0.00     0.146 A 
ATOM     11  O   UNL     1       2.220   1.650   5.731  1.00  0.00    -0.452 OA
ENDROOT
BRANCH   1  12
ATOM     12  C   UNL     1       3.936   3.310   5.398  1.00  0.00     0.021 A 
ATOM     13  C   UNL     1       4.778   3.251   4.274  1.00  0.00     0.016 A 
ATOM     14  C   UNL     1       5.228   4.426   3.664  1.00  0.00     0.047 A 
ATOM     15  C   UNL     1       4.833   5.672   4.158  1.00  0.00     0.115 A 
ATOM     16  C   UNL     1       3.526   4.567   5.878  1.00  0.00     0.016 A 
ATOM     17  C   UNL     1       3.977   5.740   5.266  1.00  0.00     0.047 A 
BRANCH  15  18
ATOM     18  O   UNL     1       5.290   6.833   3.541  1.00  0.00    -0.508 OA
ATOM     19  H   UNL     1       5.043   7.753   3.891  1.00  0.00     0.293 HD
ENDBRANCH  15  18
ENDBRANCH   1  12
BRANCH   2  20
ATOM     20  O   UNL     1       5.593   1.638   7.088  1.00  0.00    -0.502 OA
ATOM     21  H   UNL     1       5.848   2.414   7.687  1.00  0.00     0.293 HD
ENDBRANCH   2  20
BRANCH   6  22
ATOM     22  O   UNL     1       2.286  -2.212   8.705  1.00  0.00    -0.507 OA
ATOM     23  H   UNL     1       2.003  -3.161   8.895  1.00  0.00     0.293 HD
ENDBRANCH   6  22
BRANCH   8  24
ATOM     24  O   UNL     1      -1.521  -1.292   5.956  1.00  0.00    -0.508 OA
ATOM     25  H   UNL     1      -1.976  -0.842   5.171  1.00  0.00     0.293 HD
ENDBRANCH   8  24
TORSDOF 5
ENDMDL
MODEL 7
REMARK VINA RESULT:    -5.106      2.062      6.623
REMARK INTER + INTRA:          -6.300
REMARK INTER:                  -6.000
REMARK INTRA:                  -0.300
REMARK UNBOUND:                -0.299
REMARK SMILES O=c1c(O)c(-c2ccc(O)cc2)oc2cc(O)cc(O)c12
REMARK SMILES IDX 5 1 3 2 2 3 1 4 21 5 19 6 18 7 16 8 15 9 14 10 13 11 6 12
REMARK SMILES IDX 7 13 8 14 9 15 12 16 11 17 10 18 4 20 20 22 17 24
REMARK H PARENT 10 19 4 21 20 23 17 25
REMARK Flexibility Score: inf
ROOT
ATOM      1  C   UNL     1       1.759  -2.132   6.368  1.00  0.00     0.180 A 
ATOM      2  C   UNL     1       2.177  -3.417   5.981  1.00  0.00     0.208 A 
ATOM      3  C   UNL     1       1.326  -4.509   6.218  1.00  0.00     0.238 A 
ATOM      4  O   UNL     1       1.682  -5.649   5.820  1.00  0.00    -0.285 OA
ATOM      5  C   UNL     1       0.077  -4.305   6.853  1.00  0.00     0.111 A 
ATOM      6  C   UNL     1      -0.845  -5.345   7.178  1.00  0.00     0.134 A 
ATOM      7  C   UNL     1      -2.108  -5.013   7.686  1.00  0.00     0.093 A 
ATOM      8  C   UNL     1      -2.455  -3.688   7.943  1.00  0.00     0.123 A 
ATOM      9  C   UNL     1      -1.538  -2.668   7.684  1.00  0.00     0.094 A 
ATOM     10  C   UNL     1      -0.285  -2.964   7.143  1.00  0.00     0.146 A 
ATOM     11  O   UNL     1       0.555  -1.965   6.902  1.00  0.00    -0.452 OA
ENDROOT
BRANCH   1  12
ATOM     12  C   UNL     1       2.610  -0.936   6.175  1.00  0.00     0.021 A 
ATOM     13  C   UNL     1       2.453  -0.154   5.018  1.00  0.00     0.016 A 
ATOM     14  C   UNL     1       3.231   0.992   4.826  1.00  0.00     0.047 A 
ATOM     15  C   UNL     1       4.163   1.379   5.792  1.00  0.00     0.115 A 
ATOM     16  C   UNL     1       3.536  -0.528   7.153  1.00  0.00     0.016 A 
ATOM     17  C   UNL     1       4.311   0.618   6.959  1.00  0.00     0.047 A 
BRANCH  15  18
ATOM     18  O   UNL     1       4.931   2.523   5.587  1.00  0.00    -0.508 OA
ATOM     19  H   UNL     1       4.579   3.309   5.052  1.00  0.00     0.293 HD
ENDBRANCH  15  18
ENDBRANCH   1  12
BRANCH   2  20
ATOM     20  O   UNL     1       3.404  -3.593   5.336  1.00  0.00    -0.502 OA
ATOM     21  H   UNL     1       3.736  -4.502   5.037  1.00  0.00     0.293 HD
ENDBRANCH   2  20
BRANCH   6  22
ATOM     22  O   UNL     1      -0.564  -6.708   7.047  1.00  0.00    -0.507 OA
ATOM     23  H   UNL     1      -0.320  -7.320   7.810  1.00  0.00     0.293 HD
ENDBRANCH   6  22
BRANCH   8  24
ATOM     24  O   UNL     1      -3.713  -3.396   8.464  1.00  0.00    -0.508 OA
ATOM     25  H   UNL     1      -3.826  -2.808   9.282  1.00  0.00     0.293 HD
ENDBRANCH   8  24
TORSDOF 5
ENDMDL
MODEL 8
REMARK VINA RESULT:    -5.092      3.414      8.505
REMARK INTER + INTRA:          -6.283
REMARK INTER:                  -6.057
REMARK INTRA:                  -0.226
REMARK UNBOUND:                -0.299
REMARK SMILES O=c1c(O)c(-c2ccc(O)cc2)oc2cc(O)cc(O)c12
REMARK SMILES IDX 5 1 3 2 2 3 1 4 21 5 19 6 18 7 16 8 15 9 14 10 13 11 6 12
REMARK SMILES IDX 7 13 8 14 9 15 12 16 11 17 10 18 4 20 20 22 17 24
REMARK H PARENT 10 19 4 21 20 23 17 25
REMARK Flexibility Score: inf
ROOT
ATOM      1  C   UNL     1       3.755   3.909   5.022  1.00  0.00     0.180 A 
ATOM      2  C   UNL     1       2.573   4.367   5.630  1.00  0.00     0.208 A 
ATOM      3  C   UNL     1       1.601   3.431   6.019  1.00  0.00     0.238 A 
ATOM      4  O   UNL     1       0.570   3.842   6.612  1.00  0.00    -0.285 OA
ATOM      5  C   UNL     1       1.815   2.052   5.779  1.00  0.00     0.111 A 
ATOM      6  C   UNL     1       0.880   1.021   6.095  1.00  0.00     0.134 A 
ATOM      7  C   UNL     1       1.252  -0.320   5.934  1.00  0.00     0.093 A 
ATOM      8  C   UNL     1       2.495  -0.665   5.409  1.00  0.00     0.123 A 
ATOM      9  C   UNL     1       3.395   0.338   5.041  1.00  0.00     0.094 A 
ATOM     10  C   UNL     1       3.067   1.683   5.223  1.00  0.00     0.146 A 
ATOM     11  O   UNL     1       3.953   2.606   4.870  1.00  0.00    -0.452 OA
ENDROOT
BRANCH   1  12
ATOM     12  C   UNL     1       4.813   4.836   4.561  1.00  0.00     0.021 A 
ATOM     13  C   UNL     1       6.046   4.867   5.236  1.00  0.00     0.016 A 
ATOM     14  C   UNL     1       7.068   5.719   4.804  1.00  0.00     0.047 A 
ATOM     15  C   UNL     1       6.877   6.538   3.688  1.00  0.00     0.115 A 
ATOM     16  C   UNL     1       4.635   5.648   3.426  1.00  0.00     0.016 A 
ATOM     17  C   UNL     1       5.658   6.498   2.997  1.00  0.00     0.047 A 
BRANCH  15  18
ATOM     18  O   UNL     1       7.904   7.382   3.270  1.00  0.00    -0.508 OA
ATOM     19  H   UNL     1       7.900   8.372   3.491  1.00  0.00     0.293 HD
ENDBRANCH  15  18
ENDBRANCH   1  12
BRANCH   2  20
ATOM     20  O   UNL     1       2.391   5.731   5.877  1.00  0.00    -0.502 OA
ATOM     21  H   UNL     1       2.931   6.235   6.570  1.00  0.00     0.293 HD
ENDBRANCH   2  20
BRANCH   6  22
ATOM     22  O   UNL     1      -0.424   1.258   6.541  1.00  0.00    -0.507 OA
ATOM     23  H   UNL     1      -0.877   0.753   7.286  1.00  0.00     0.293 HD
ENDBRANCH   6  22
BRANCH   8  24
ATOM     24  O   UNL     1       2.825  -2.009   5.247  1.00  0.00    -0.508 OA
ATOM     25  H   UNL     1       2.763  -2.666   6.015  1.00  0.00     0.293 HD
ENDBRANCH   8  24
TORSDOF 5
ENDMDL
MODEL 9
REMARK VINA RESULT:    -5.090      3.882      7.329
REMARK INTER + INTRA:          -6.282
REMARK INTER:                  -5.997
REMARK INTRA:                  -0.285
REMARK UNBOUND:                -0.299
REMARK SMILES O=c1c(O)c(-c2ccc(O)cc2)oc2cc(O)cc(O)c12
REMARK SMILES IDX 5 1 3 2 2 3 1 4 21 5 19 6 18 7 16 8 15 9 14 10 13 11 6 12
REMARK SMILES IDX 7 13 8 14 9 15 12 16 11 17 10 18 4 20 20 22 17 24
REMARK H PARENT 10 19 4 21 20 23 17 25
REMARK Flexibility Score: inf
ROOT
ATOM      1  C   UNL     1       2.912   2.378   5.639  1.00  0.00     0.180 A 
ATOM      2  C   UNL     1       2.715   1.033   5.281  1.00  0.00     0.208 A 
ATOM      3  C   UNL     1       1.483   0.425   5.574  1.00  0.00     0.238 A 
ATOM      4  O   UNL     1       1.293  -0.763   5.202  1.00  0.00    -0.285 OA
ATOM      5  C   UNL     1       0.472   1.162   6.236  1.00  0.00     0.111 A 
ATOM      6  C   UNL     1      -0.798   0.634   6.617  1.00  0.00     0.134 A 
ATOM      7  C   UNL     1      -1.770   1.491   7.149  1.00  0.00     0.093 A 
ATOM      8  C   UNL     1      -1.497   2.839   7.374  1.00  0.00     0.123 A 
ATOM      9  C   UNL     1      -0.237   3.353   7.059  1.00  0.00     0.094 A 
ATOM     10  C   UNL     1       0.740   2.532   6.494  1.00  0.00     0.146 A 
ATOM     11  O   UNL     1       1.921   3.061   6.200  1.00  0.00    -0.452 OA
ENDROOT
BRANCH   1  12
ATOM     12  C   UNL     1       4.191   3.080   5.387  1.00  0.00     0.021 A 
ATOM     13  C   UNL     1       4.400   3.713   4.150  1.00  0.00     0.016 A 
ATOM     14  C   UNL     1       5.591   4.400   3.899  1.00  0.00     0.047 A 
ATOM     15  C   UNL     1       6.581   4.478   4.883  1.00  0.00     0.115 A 
ATOM     16  C   UNL     1       5.182   3.179   6.381  1.00  0.00     0.016 A 
ATOM     17  C   UNL     1       6.372   3.867   6.127  1.00  0.00     0.047 A 
BRANCH  15  18
ATOM     18  O   UNL     1       7.762   5.165   4.618  1.00  0.00    -0.508 OA
ATOM     19  H   UNL     1       8.578   5.066   5.212  1.00  0.00     0.293 HD
ENDBRANCH  15  18
ENDBRANCH   1  12
BRANCH   2  20
ATOM     20  O   UNL     1       3.718   0.329   4.609  1.00  0.00    -0.502 OA
ATOM     21  H   UNL     1       3.535  -0.531   4.107  1.00  0.00     0.293 HD
ENDBRANCH   2  20
BRANCH   6  22
ATOM     22  O   UNL     1      -1.142  -0.717   6.521  1.00  0.00    -0.507 OA
ATOM     23  H   UNL     1      -0.655  -1.469   6.984  1.00  0.00     0.293 HD
ENDBRANCH   6  22
BRANCH   8  24
ATOM     24  O   UNL     1      -2.482   3.659   7.920  1.00  0.00    -0.508 OA
ATOM     25  H   UNL     1      -2.275   4.314   8.664  1.00  0.00     0.293 HD
ENDBRANCH   8  24
TORSDOF 5
ENDMDL
