MODEL 1
REMARK VINA RESULT:    -4.330      0.000      0.000
REMARK INTER + INTRA:         -10.189
REMARK INTER:                  -8.128
REMARK INTRA:                  -2.061
REMARK UNBOUND:                -2.061
REMARK SMILES O=C([O-])CCCCCCCCCCCCCCC(=O)[O-]
REMARK SMILES IDX 10 1 9 2 8 3 7 4 6 5 5 6 4 7 2 8 1 9 3 10 11 11 12 12 13 13
REMARK SMILES IDX 14 14 15 15 16 16 17 17 18 18 19 19 20 20
REMARK H PARENT
REMARK Flexibility Score: inf
ROOT
ATOM      1  C   UNL     1      -3.354  45.268  21.353  1.00  0.00     0.000 C 
ENDROOT
BRANCH   1   2
ATOM      2  C   UNL     1      -2.075  44.692  21.986  1.00  0.00     0.000 C 
BRANCH   2   3
ATOM      3  C   UNL     1      -1.240  43.856  20.997  1.00  0.00     0.000 C 
BRANCH   3   4
ATOM      4  C   UNL     1      -0.313  42.813  21.648  1.00  0.00     0.000 C 
BRANCH   4   5
ATOM      5  C   UNL     1      -0.298  42.904  23.185  1.00  0.00     0.000 C 
BRANCH   5   6
ATOM      6  C   UNL     1       0.990  43.545  23.724  1.00  0.00     0.006 C 
BRANCH   6   7
ATOM      7  C   UNL     1       2.133  43.516  22.701  1.00  0.00     0.053 C 
BRANCH   7   8
ATOM      8  C   UNL     1       3.341  44.212  23.246  1.00  0.00     0.041 C 
ATOM      9  O   UNL     1       4.108  44.845  22.474  1.00  0.00    -0.550 OA
ATOM     10  O   UNL     1       3.595  44.198  24.611  1.00  0.00    -0.550 OA
ENDBRANCH   7   8
ENDBRANCH   6   7
ENDBRANCH   5   6
ENDBRANCH   4   5
ENDBRANCH   3   4
ENDBRANCH   2   3
ENDBRANCH   1   2
BRANCH   1  11
ATOM     11  C   UNL     1      -3.433  45.000  19.841  1.00  0.00     0.000 C 
BRANCH  11  12
ATOM     12  C   UNL     1      -4.697  44.216  19.449  1.00  0.00     0.000 C 
BRANCH  12  13
ATOM     13  C   UNL     1      -5.498  43.723  20.669  1.00  0.00     0.000 C 
BRANCH  13  14
ATOM     14  C   UNL     1      -5.493  42.198  20.878  1.00  0.00     0.000 C 
BRANCH  14  15
ATOM     15  C   UNL     1      -4.380  41.727  21.828  1.00  0.00     0.000 C 
BRANCH  15  16
ATOM     16  C   UNL     1      -4.830  41.825  23.293  1.00  0.00     0.006 C 
BRANCH  16  17
ATOM     17  C   UNL     1      -3.678  42.215  24.230  1.00  0.00     0.053 C 
BRANCH  17  18
ATOM     18  C   UNL     1      -3.878  43.581  24.813  1.00  0.00     0.041 C 
ATOM     19  O   UNL     1      -3.081  44.023  25.683  1.00  0.00    -0.550 OA
ATOM     20  O   UNL     1      -4.924  44.380  24.369  1.00  0.00    -0.550 OA
ENDBRANCH  17  18
ENDBRANCH  16  17
ENDBRANCH  15  16
ENDBRANCH  14  15
ENDBRANCH  13  14
ENDBRANCH  12  13
ENDBRANCH  11  12
ENDBRANCH   1  11
TORSDOF 15
ENDMDL
MODEL 2
REMARK VINA RESULT:    -4.299      1.068      2.270
REMARK INTER + INTRA:         -10.129
REMARK INTER:                  -7.712
REMARK INTRA:                  -2.417
REMARK UNBOUND:                -2.061
REMARK SMILES O=C([O-])CCCCCCCCCCCCCCC(=O)[O-]
REMARK SMILES IDX 10 1 9 2 8 3 7 4 6 5 5 6 4 7 2 8 1 9 3 10 11 11 12 12 13 13
REMARK SMILES IDX 14 14 15 15 16 16 17 17 18 18 19 19 20 20
REMARK H PARENT
REMARK Flexibility Score: inf
ROOT
ATOM      1  C   UNL     1      -4.738  44.188  19.172  1.00  0.00     0.000 C 
ENDROOT
BRANCH   1   2
ATOM      2  C   UNL     1      -3.556  45.102  19.542  1.00  0.00     0.000 C 
BRANCH   2   3
ATOM      3  C   UNL     1      -3.350  45.229  21.064  1.00  0.00     0.000 C 
BRANCH   3   4
ATOM      4  C   UNL     1      -2.045  44.613  21.597  1.00  0.00     0.000 C 
BRANCH   4   5
ATOM      5  C   UNL     1      -1.281  43.811  20.528  1.00  0.00     0.000 C 
BRANCH   5   6
ATOM      6  C   UNL     1      -0.137  42.975  21.123  1.00  0.00     0.006 C 
BRANCH   6   7
ATOM      7  C   UNL     1       0.246  43.429  22.537  1.00  0.00     0.053 C 
BRANCH   7   8
ATOM      8  C   UNL     1       1.734  43.523  22.672  1.00  0.00     0.041 C 
ATOM      9  O   UNL     1       2.471  43.387  21.660  1.00  0.00    -0.550 OA
ATOM     10  O   UNL     1       2.304  43.803  23.907  1.00  0.00    -0.550 OA
ENDBRANCH   7   8
ENDBRANCH   6   7
ENDBRANCH   5   6
ENDBRANCH   4   5
ENDBRANCH   3   4
ENDBRANCH   2   3
ENDBRANCH   1   2
BRANCH   1  11
ATOM     11  C   UNL     1      -5.494  43.676  20.409  1.00  0.00     0.000 C 
BRANCH  11  12
ATOM     12  C   UNL     1      -5.519  42.140  20.487  1.00  0.00     0.000 C 
BRANCH  12  13
ATOM     13  C   UNL     1      -4.112  41.523  20.601  1.00  0.00     0.000 C 
BRANCH  13  14
ATOM     14  C   UNL     1      -3.891  40.627  21.834  1.00  0.00     0.000 C 
BRANCH  14  15
ATOM     15  C   UNL     1      -3.114  41.332  22.956  1.00  0.00     0.000 C 
BRANCH  15  16
ATOM     16  C   UNL     1      -4.067  41.840  24.049  1.00  0.00     0.006 C 
BRANCH  16  17
ATOM     17  C   UNL     1      -4.217  43.367  24.026  1.00  0.00     0.053 C 
BRANCH  17  18
ATOM     18  C   UNL     1      -3.506  44.011  25.177  1.00  0.00     0.041 C 
ATOM     19  O   UNL     1      -4.109  44.834  25.916  1.00  0.00    -0.550 OA
ATOM     20  O   UNL     1      -2.187  43.674  25.456  1.00  0.00    -0.550 OA
ENDBRANCH  17  18
ENDBRANCH  16  17
ENDBRANCH  15  16
ENDBRANCH  14  15
ENDBRANCH  13  14
ENDBRANCH  12  13
ENDBRANCH  11  12
ENDBRANCH   1  11
TORSDOF 15
ENDMDL
MODEL 3
REMARK VINA RESULT:    -4.294      2.520      3.475
REMARK INTER + INTRA:         -10.121
REMARK INTER:                  -8.187
REMARK INTRA:                  -1.935
REMARK UNBOUND:                -2.061
REMARK SMILES O=C([O-])CCCCCCCCCCCCCCC(=O)[O-]
REMARK SMILES IDX 10 1 9 2 8 3 7 4 6 5 5 6 4 7 2 8 1 9 3 10 11 11 12 12 13 13
REMARK SMILES IDX 14 14 15 15 16 16 17 17 18 18 19 19 20 20
REMARK H PARENT
REMARK Flexibility Score: inf
ROOT
ATOM      1  C   UNL     1      -1.496  44.222  18.200  1.00  0.00     0.000 C 
ENDROOT
BRANCH   1   2
ATOM      2  C   UNL     1      -0.536  43.536  19.190  1.00  0.00     0.000 C 
BRANCH   2   3
ATOM      3  C   UNL     1      -1.271  42.796  20.323  1.00  0.00     0.000 C 
BRANCH   3   4
ATOM      4  C   UNL     1      -0.368  42.292  21.464  1.00  0.00     0.000 C 
BRANCH   4   5
ATOM      5  C   UNL     1       0.466  43.416  22.106  1.00  0.00     0.000 C 
BRANCH   5   6
ATOM      6  C   UNL     1       0.534  43.297  23.637  1.00  0.00     0.006 C 
BRANCH   6   7
ATOM      7  C   UNL     1      -0.680  43.928  24.329  1.00  0.00     0.053 C 
BRANCH   7   8
ATOM      8  C   UNL     1      -1.326  42.944  25.254  1.00  0.00     0.041 C 
ATOM      9  O   UNL     1      -0.865  41.777  25.358  1.00  0.00    -0.550 OA
ATOM     10  O   UNL     1      -2.411  43.329  26.032  1.00  0.00    -0.550 OA
ENDBRANCH   7   8
ENDBRANCH   6   7
ENDBRANCH   5   6
ENDBRANCH   4   5
ENDBRANCH   3   4
ENDBRANCH   2   3
ENDBRANCH   1   2
BRANCH   1  11
ATOM     11  C   UNL     1      -2.470  43.229  17.545  1.00  0.00     0.000 C 
BRANCH  11  12
ATOM     12  C   UNL     1      -3.869  43.833  17.335  1.00  0.00     0.000 C 
BRANCH  12  13
ATOM     13  C   UNL     1      -4.411  44.541  18.591  1.00  0.00     0.000 C 
BRANCH  13  14
ATOM     14  C   UNL     1      -4.973  43.603  19.676  1.00  0.00     0.000 C 
BRANCH  14  15
ATOM     15  C   UNL     1      -4.788  44.155  21.098  1.00  0.00     0.000 C 
BRANCH  15  16
ATOM     16  C   UNL     1      -3.725  45.264  21.123  1.00  0.00     0.006 C 
BRANCH  16  17
ATOM     17  C   UNL     1      -3.081  45.420  22.508  1.00  0.00     0.053 C 
BRANCH  17  18
ATOM     18  C   UNL     1      -3.981  46.150  23.458  1.00  0.00     0.041 C 
ATOM     19  O   UNL     1      -4.488  47.256  23.130  1.00  0.00    -0.550 OA
ATOM     20  O   UNL     1      -4.289  45.592  24.692  1.00  0.00    -0.550 OA
ENDBRANCH  17  18
ENDBRANCH  16  17
ENDBRANCH  15  16
ENDBRANCH  14  15
ENDBRANCH  13  14
ENDBRANCH  12  13
ENDBRANCH  11  12
ENDBRANCH   1  11
TORSDOF 15
ENDMDL
MODEL 4
REMARK VINA RESULT:    -4.123      3.458      5.935
REMARK INTER + INTRA:          -9.800
REMARK INTER:                  -6.902
REMARK INTRA:                  -2.898
REMARK UNBOUND:                -2.061
REMARK SMILES O=C([O-])CCCCCCCCCCCCCCC(=O)[O-]
REMARK SMILES IDX 10 1 9 2 8 3 7 4 6 5 5 6 4 7 2 8 1 9 3 10 11 11 12 12 13 13
REMARK SMILES IDX 14 14 15 15 16 16 17 17 18 18 19 19 20 20
REMARK H PARENT
REMARK Flexibility Score: inf
ROOT
ATOM      1  C   UNL     1      -5.474  43.614  20.542  1.00  0.00     0.000 C 
ENDROOT
BRANCH   1   2
ATOM      2  C   UNL     1      -4.694  44.311  19.413  1.00  0.00     0.000 C 
BRANCH   2   3
ATOM      3  C   UNL     1      -3.486  45.117  19.926  1.00  0.00     0.000 C 
BRANCH   3   4
ATOM      4  C   UNL     1      -2.198  44.298  20.128  1.00  0.00     0.000 C 
BRANCH   4   5
ATOM      5  C   UNL     1      -1.797  44.170  21.609  1.00  0.00     0.000 C 
BRANCH   5   6
ATOM      6  C   UNL     1      -2.629  45.082  22.526  1.00  0.00     0.006 C 
BRANCH   6   7
ATOM      7  C   UNL     1      -3.320  44.306  23.654  1.00  0.00     0.053 C 
BRANCH   7   8
ATOM      8  C   UNL     1      -4.642  44.926  23.983  1.00  0.00     0.041 C 
ATOM      9  O   UNL     1      -5.165  45.756  23.194  1.00  0.00    -0.550 OA
ATOM     10  O   UNL     1      -5.316  44.555  25.139  1.00  0.00    -0.550 OA
ENDBRANCH   7   8
ENDBRANCH   6   7
ENDBRANCH   5   6
ENDBRANCH   4   5
ENDBRANCH   3   4
ENDBRANCH   2   3
ENDBRANCH   1   2
BRANCH   1  11
ATOM     11  C   UNL     1      -5.391  42.081  20.451  1.00  0.00     0.000 C 
BRANCH  11  12
ATOM     12  C   UNL     1      -4.648  41.462  21.647  1.00  0.00     0.000 C 
BRANCH  12  13
ATOM     13  C   UNL     1      -3.284  40.860  21.259  1.00  0.00     0.000 C 
BRANCH  13  14
ATOM     14  C   UNL     1      -3.067  40.659  19.748  1.00  0.00     0.000 C 
BRANCH  14  15
ATOM     15  C   UNL     1      -1.590  40.759  19.337  1.00  0.00     0.000 C 
BRANCH  15  16
ATOM     16  C   UNL     1      -1.452  41.347  17.924  1.00  0.00     0.006 C 
BRANCH  16  17
ATOM     17  C   UNL     1      -2.798  41.815  17.355  1.00  0.00     0.053 C 
BRANCH  17  18
ATOM     18  C   UNL     1      -2.661  43.095  16.589  1.00  0.00     0.041 C 
ATOM     19  O   UNL     1      -1.523  43.600  16.394  1.00  0.00    -0.550 OA
ATOM     20  O   UNL     1      -3.787  43.712  16.060  1.00  0.00    -0.550 OA
ENDBRANCH  17  18
ENDBRANCH  16  17
ENDBRANCH  15  16
ENDBRANCH  14  15
ENDBRANCH  13  14
ENDBRANCH  12  13
ENDBRANCH  11  12
ENDBRANCH   1  11
TORSDOF 15
ENDMDL
MODEL 5
REMARK VINA RESULT:    -4.081      2.872      5.341
REMARK INTER + INTRA:          -9.721
REMARK INTER:                  -7.773
REMARK INTRA:                  -1.948
REMARK UNBOUND:                -2.061
REMARK SMILES O=C([O-])CCCCCCCCCCCCCCC(=O)[O-]
REMARK SMILES IDX 10 1 9 2 8 3 7 4 6 5 5 6 4 7 2 8 1 9 3 10 11 11 12 12 13 13
REMARK SMILES IDX 14 14 15 15 16 16 17 17 18 18 19 19 20 20
REMARK H PARENT
REMARK Flexibility Score: inf
ROOT
ATOM      1  C   UNL     1      -2.062  44.404  21.674  1.00  0.00     0.000 C 
ENDROOT
BRANCH   1   2
ATOM      2  C   UNL     1      -2.314  44.274  20.161  1.00  0.00     0.000 C 
BRANCH   2   3
ATOM      3  C   UNL     1      -3.563  45.045  19.693  1.00  0.00     0.000 C 
BRANCH   3   4
ATOM      4  C   UNL     1      -4.735  44.162  19.227  1.00  0.00     0.000 C 
BRANCH   4   5
ATOM      5  C   UNL     1      -5.544  43.575  20.399  1.00  0.00     0.000 C 
BRANCH   5   6
ATOM      6  C   UNL     1      -5.284  42.074  20.601  1.00  0.00     0.006 C 
BRANCH   6   7
ATOM      7  C   UNL     1      -4.521  41.781  21.899  1.00  0.00     0.053 C 
BRANCH   7   8
ATOM      8  C   UNL     1      -3.463  40.750  21.662  1.00  0.00     0.041 C 
ATOM      9  O   UNL     1      -3.485  40.048  20.617  1.00  0.00    -0.550 OA
ATOM     10  O   UNL     1      -2.427  40.593  22.575  1.00  0.00    -0.550 OA
ENDBRANCH   7   8
ENDBRANCH   6   7
ENDBRANCH   5   6
ENDBRANCH   4   5
ENDBRANCH   3   4
ENDBRANCH   2   3
ENDBRANCH   1   2
BRANCH   1  11
ATOM     11  C   UNL     1      -0.732  43.764  22.104  1.00  0.00     0.000 C 
BRANCH  11  12
ATOM     12  C   UNL     1      -0.396  44.044  23.578  1.00  0.00     0.000 C 
BRANCH  12  13
ATOM     13  C   UNL     1      -0.378  42.769  24.442  1.00  0.00     0.000 C 
BRANCH  13  14
ATOM     14  C   UNL     1      -1.388  42.755  25.604  1.00  0.00     0.000 C 
BRANCH  14  15
ATOM     15  C   UNL     1      -2.840  42.948  25.139  1.00  0.00     0.000 C 
BRANCH  15  16
ATOM     16  C   UNL     1      -3.415  44.270  25.670  1.00  0.00     0.006 C 
BRANCH  16  17
ATOM     17  C   UNL     1      -4.702  44.679  24.940  1.00  0.00     0.053 C 
BRANCH  17  18
ATOM     18  C   UNL     1      -4.457  45.791  23.966  1.00  0.00     0.041 C 
ATOM     19  O   UNL     1      -5.100  45.841  22.884  1.00  0.00    -0.550 OA
ATOM     20  O   UNL     1      -3.543  46.791  24.270  1.00  0.00    -0.550 OA
ENDBRANCH  17  18
ENDBRANCH  16  17
ENDBRANCH  15  16
ENDBRANCH  14  15
ENDBRANCH  13  14
ENDBRANCH  12  13
ENDBRANCH  11  12
ENDBRANCH   1  11
TORSDOF 15
ENDMDL
MODEL 6
REMARK VINA RESULT:    -4.056      1.557      5.463
REMARK INTER + INTRA:          -9.674
REMARK INTER:                  -8.010
REMARK INTRA:                  -1.664
REMARK UNBOUND:                -2.061
REMARK SMILES O=C([O-])CCCCCCCCCCCCCCC(=O)[O-]
REMARK SMILES IDX 10 1 9 2 8 3 7 4 6 5 5 6 4 7 2 8 1 9 3 10 11 11 12 12 13 13
REMARK SMILES IDX 14 14 15 15 16 16 17 17 18 18 19 19 20 20
REMARK H PARENT
REMARK Flexibility Score: inf
ROOT
ATOM      1  C   UNL     1      -4.404  44.639  18.775  1.00  0.00     0.000 C 
ENDROOT
BRANCH   1   2
ATOM      2  C   UNL     1      -5.117  43.847  19.885  1.00  0.00     0.000 C 
BRANCH   2   3
ATOM      3  C   UNL     1      -4.519  44.099  21.282  1.00  0.00     0.000 C 
BRANCH   3   4
ATOM      4  C   UNL     1      -3.727  45.411  21.423  1.00  0.00     0.000 C 
BRANCH   4   5
ATOM      5  C   UNL     1      -3.961  46.108  22.776  1.00  0.00     0.000 C 
BRANCH   5   6
ATOM      6  C   UNL     1      -4.808  45.259  23.737  1.00  0.00     0.006 C 
BRANCH   6   7
ATOM      7  C   UNL     1      -4.046  44.886  25.015  1.00  0.00     0.053 C 
BRANCH   7   8
ATOM      8  C   UNL     1      -3.118  43.741  24.756  1.00  0.00     0.041 C 
ATOM      9  O   UNL     1      -1.876  43.887  24.901  1.00  0.00    -0.550 OA
ATOM     10  O   UNL     1      -3.628  42.501  24.394  1.00  0.00    -0.550 OA
ENDBRANCH   7   8
ENDBRANCH   6   7
ENDBRANCH   5   6
ENDBRANCH   4   5
ENDBRANCH   3   4
ENDBRANCH   2   3
ENDBRANCH   1   2
BRANCH   1  11
ATOM     11  C   UNL     1      -3.994  43.749  17.590  1.00  0.00     0.000 C 
BRANCH  11  12
ATOM     12  C   UNL     1      -2.470  43.560  17.498  1.00  0.00     0.000 C 
BRANCH  12  13
ATOM     13  C   UNL     1      -1.718  44.165  18.699  1.00  0.00     0.000 C 
BRANCH  13  14
ATOM     14  C   UNL     1      -1.034  43.140  19.622  1.00  0.00     0.000 C 
BRANCH  14  15
ATOM     15  C   UNL     1      -0.812  43.672  21.047  1.00  0.00     0.000 C 
BRANCH  15  16
ATOM     16  C   UNL     1       0.150  42.766  21.829  1.00  0.00     0.006 C 
BRANCH  16  17
ATOM     17  C   UNL     1       0.999  43.552  22.837  1.00  0.00     0.053 C 
BRANCH  17  18
ATOM     18  C   UNL     1       2.436  43.618  22.419  1.00  0.00     0.041 C 
ATOM     19  O   UNL     1       2.820  43.037  21.368  1.00  0.00    -0.550 OA
ATOM     20  O   UNL     1       3.346  44.350  23.171  1.00  0.00    -0.550 OA
ENDBRANCH  17  18
ENDBRANCH  16  17
ENDBRANCH  15  16
ENDBRANCH  14  15
ENDBRANCH  13  14
ENDBRANCH  12  13
ENDBRANCH  11  12
ENDBRANCH   1  11
TORSDOF 15
ENDMDL
MODEL 7
REMARK VINA RESULT:    -4.049      1.333      5.690
REMARK INTER + INTRA:          -9.660
REMARK INTER:                  -7.847
REMARK INTRA:                  -1.812
REMARK UNBOUND:                -2.061
REMARK SMILES O=C([O-])CCCCCCCCCCCCCCC(=O)[O-]
REMARK SMILES IDX 10 1 9 2 8 3 7 4 6 5 5 6 4 7 2 8 1 9 3 10 11 11 12 12 13 13
REMARK SMILES IDX 14 14 15 15 16 16 17 17 18 18 19 19 20 20
REMARK H PARENT
REMARK Flexibility Score: inf
ROOT
ATOM      1  C   UNL     1      -4.761  44.104  19.318  1.00  0.00     0.000 C 
ENDROOT
BRANCH   1   2
ATOM      2  C   UNL     1      -5.320  43.769  20.712  1.00  0.00     0.000 C 
BRANCH   2   3
ATOM      3  C   UNL     1      -4.952  42.348  21.180  1.00  0.00     0.000 C 
BRANCH   3   4
ATOM      4  C   UNL     1      -3.880  42.285  22.284  1.00  0.00     0.000 C 
BRANCH   4   5
ATOM      5  C   UNL     1      -4.239  43.138  23.515  1.00  0.00     0.000 C 
BRANCH   5   6
ATOM      6  C   UNL     1      -3.076  44.035  23.969  1.00  0.00     0.006 C 
BRANCH   6   7
ATOM      7  C   UNL     1      -2.966  45.319  23.137  1.00  0.00     0.053 C 
BRANCH   7   8
ATOM      8  C   UNL     1      -4.000  46.312  23.570  1.00  0.00     0.041 C 
ATOM      9  O   UNL     1      -5.160  46.270  23.084  1.00  0.00    -0.550 OA
ATOM     10  O   UNL     1      -3.693  47.257  24.541  1.00  0.00    -0.550 OA
ENDBRANCH   7   8
ENDBRANCH   6   7
ENDBRANCH   5   6
ENDBRANCH   4   5
ENDBRANCH   3   4
ENDBRANCH   2   3
ENDBRANCH   1   2
BRANCH   1  11
ATOM     11  C   UNL     1      -3.442  44.891  19.389  1.00  0.00     0.000 C 
BRANCH  11  12
ATOM     12  C   UNL     1      -2.209  43.985  19.228  1.00  0.00     0.000 C 
BRANCH  12  13
ATOM     13  C   UNL     1      -1.319  43.957  20.485  1.00  0.00     0.000 C 
BRANCH  13  14
ATOM     14  C   UNL     1      -0.477  42.680  20.658  1.00  0.00     0.000 C 
BRANCH  14  15
ATOM     15  C   UNL     1       0.141  42.555  22.060  1.00  0.00     0.000 C 
BRANCH  15  16
ATOM     16  C   UNL     1       1.376  43.459  22.198  1.00  0.00     0.006 C 
BRANCH  16  17
ATOM     17  C   UNL     1       1.810  43.631  23.660  1.00  0.00     0.053 C 
BRANCH  17  18
ATOM     18  C   UNL     1       3.229  44.100  23.764  1.00  0.00     0.041 C 
ATOM     19  O   UNL     1       3.885  43.911  24.823  1.00  0.00    -0.550 OA
ATOM     20  O   UNL     1       3.839  44.715  22.678  1.00  0.00    -0.550 OA
ENDBRANCH  17  18
ENDBRANCH  16  17
ENDBRANCH  15  16
ENDBRANCH  14  15
ENDBRANCH  13  14
ENDBRANCH  12  13
ENDBRANCH  11  12
ENDBRANCH   1  11
TORSDOF 15
ENDMDL
MODEL 8
REMARK VINA RESULT:    -4.007      3.201      4.255
REMARK INTER + INTRA:          -9.581
REMARK INTER:                  -7.232
REMARK INTRA:                  -2.349
REMARK UNBOUND:                -2.061
REMARK SMILES O=C([O-])CCCCCCCCCCCCCCC(=O)[O-]
REMARK SMILES IDX 10 1 9 2 8 3 7 4 6 5 5 6 4 7 2 8 1 9 3 10 11 11 12 12 13 13
REMARK SMILES IDX 14 14 15 15 16 16 17 17 18 18 19 19 20 20
REMARK H PARENT
REMARK Flexibility Score: inf
ROOT
ATOM      1  C   UNL     1      -1.160  43.519  20.247  1.00  0.00     0.000 C 
ENDROOT
BRANCH   1   2
ATOM      2  C   UNL     1      -1.415  44.265  21.569  1.00  0.00     0.000 C 
BRANCH   2   3
ATOM      3  C   UNL     1      -0.972  43.461  22.806  1.00  0.00     0.000 C 
BRANCH   3   4
ATOM      4  C   UNL     1      -1.243  44.146  24.158  1.00  0.00     0.000 C 
BRANCH   4   5
ATOM      5  C   UNL     1      -2.420  43.513  24.924  1.00  0.00     0.000 C 
BRANCH   5   6
ATOM      6  C   UNL     1      -3.586  44.493  25.128  1.00  0.00     0.006 C 
BRANCH   6   7
ATOM      7  C   UNL     1      -4.142  45.027  23.802  1.00  0.00     0.053 C 
BRANCH   7   8
ATOM      8  C   UNL     1      -3.982  46.513  23.728  1.00  0.00     0.041 C 
ATOM      9  O   UNL     1      -4.028  47.100  22.615  1.00  0.00    -0.550 OA
ATOM     10  O   UNL     1      -3.824  47.255  24.892  1.00  0.00    -0.550 OA
ENDBRANCH   7   8
ENDBRANCH   6   7
ENDBRANCH   5   6
ENDBRANCH   4   5
ENDBRANCH   3   4
ENDBRANCH   2   3
ENDBRANCH   1   2
BRANCH   1  11
ATOM     11  C   UNL     1      -2.114  43.967  19.128  1.00  0.00     0.000 C 
BRANCH  11  12
ATOM     12  C   UNL     1      -3.212  44.917  19.638  1.00  0.00     0.000 C 
BRANCH  12  13
ATOM     13  C   UNL     1      -4.585  44.232  19.765  1.00  0.00     0.000 C 
BRANCH  13  14
ATOM     14  C   UNL     1      -4.694  42.858  19.078  1.00  0.00     0.000 C 
BRANCH  14  15
ATOM     15  C   UNL     1      -5.110  41.737  20.043  1.00  0.00     0.000 C 
BRANCH  15  16
ATOM     16  C   UNL     1      -5.094  42.230  21.498  1.00  0.00     0.006 C 
BRANCH  16  17
ATOM     17  C   UNL     1      -4.094  41.453  22.364  1.00  0.00     0.053 C 
BRANCH  17  18
ATOM     18  C   UNL     1      -4.747  40.879  23.585  1.00  0.00     0.041 C 
ATOM     19  O   UNL     1      -5.435  41.614  24.342  1.00  0.00    -0.550 OA
ATOM     20  O   UNL     1      -4.624  39.524  23.866  1.00  0.00    -0.550 OA
ENDBRANCH  17  18
ENDBRANCH  16  17
ENDBRANCH  15  16
ENDBRANCH  14  15
ENDBRANCH  13  14
ENDBRANCH  12  13
ENDBRANCH  11  12
ENDBRANCH   1  11
TORSDOF 15
ENDMDL
MODEL 9
REMARK VINA RESULT:    -3.988      2.898      5.183
REMARK INTER + INTRA:          -9.546
REMARK INTER:                  -7.073
REMARK INTRA:                  -2.473
REMARK UNBOUND:                -2.061
REMARK SMILES O=C([O-])CCCCCCCCCCCCCCC(=O)[O-]
REMARK SMILES IDX 10 1 9 2 8 3 7 4 6 5 5 6 4 7 2 8 1 9 3 10 11 11 12 12 13 13
REMARK SMILES IDX 14 14 15 15 16 16 17 17 18 18 19 19 20 20
REMARK H PARENT
REMARK Flexibility Score: inf
ROOT
ATOM      1  C   UNL     1      -3.236  41.740  17.667  1.00  0.00     0.000 C 
ENDROOT
BRANCH   1   2
ATOM      2  C   UNL     1      -3.864  43.119  17.394  1.00  0.00     0.000 C 
BRANCH   2   3
ATOM      3  C   UNL     1      -3.167  44.258  18.163  1.00  0.00     0.000 C 
BRANCH   3   4
ATOM      4  C   UNL     1      -4.050  44.981  19.195  1.00  0.00     0.000 C 
BRANCH   4   5
ATOM      5  C   UNL     1      -4.797  44.010  20.128  1.00  0.00     0.000 C 
BRANCH   5   6
ATOM      6  C   UNL     1      -4.305  44.095  21.582  1.00  0.00     0.006 C 
BRANCH   6   7
ATOM      7  C   UNL     1      -3.551  45.399  21.871  1.00  0.00     0.053 C 
BRANCH   7   8
ATOM      8  C   UNL     1      -4.200  46.139  22.999  1.00  0.00     0.041 C 
ATOM      9  O   UNL     1      -3.609  47.108  23.543  1.00  0.00    -0.550 OA
ATOM     10  O   UNL     1      -5.475  45.785  23.420  1.00  0.00    -0.550 OA
ENDBRANCH   7   8
ENDBRANCH   6   7
ENDBRANCH   5   6
ENDBRANCH   4   5
ENDBRANCH   3   4
ENDBRANCH   2   3
ENDBRANCH   1   2
BRANCH   1  11
ATOM     11  C   UNL     1      -1.793  41.845  18.188  1.00  0.00     0.000 C 
BRANCH  11  12
ATOM     12  C   UNL     1      -1.589  41.082  19.508  1.00  0.00     0.000 C 
BRANCH  12  13
ATOM     13  C   UNL     1      -1.623  42.002  20.743  1.00  0.00     0.000 C 
BRANCH  13  14
ATOM     14  C   UNL     1      -0.667  43.209  20.683  1.00  0.00     0.000 C 
BRANCH  14  15
ATOM     15  C   UNL     1      -0.185  43.660  22.070  1.00  0.00     0.000 C 
BRANCH  15  16
ATOM     16  C   UNL     1      -0.986  42.966  23.183  1.00  0.00     0.006 C 
BRANCH  16  17
ATOM     17  C   UNL     1      -1.363  43.930  24.316  1.00  0.00     0.053 C 
BRANCH  17  18
ATOM     18  C   UNL     1      -2.534  43.428  25.104  1.00  0.00     0.041 C 
ATOM     19  O   UNL     1      -3.242  44.229  25.770  1.00  0.00    -0.550 OA
ATOM     20  O   UNL     1      -2.864  42.079  25.074  1.00  0.00    -0.550 OA
ENDBRANCH  17  18
ENDBRANCH  16  17
ENDBRANCH  15  16
ENDBRANCH  14  15
ENDBRANCH  13  14
ENDBRANCH  12  13
ENDBRANCH  11  12
ENDBRANCH   1  11
TORSDOF 15
ENDMDL
