MODEL 1
REMARK VINA RESULT:    -3.798      0.000      0.000
REMARK INTER + INTRA:          -6.555
REMARK INTER:                  -5.797
REMARK INTRA:                  -0.759
REMARK UNBOUND:                -0.759
REMARK SMILES CCCCCCCCCC=CC(=O)[O-]
REMARK SMILES IDX 7 1 8 2 9 3 10 4 11 5 12 6 13 7 14 8 6 9 5 10 4 11 3 12 2 13
REMARK SMILES IDX 1 14
REMARK H PARENT
REMARK Flexibility Score: inf
ROOT
ATOM      1  C   UNL     1      -2.015 -50.648   2.163  1.00  0.00     0.000 C 
ENDROOT
BRANCH   1   2
ATOM      2  C   UNL     1      -2.033 -51.683   3.302  1.00  0.00     0.004 C 
BRANCH   2   3
ATOM      3  C   UNL     1      -3.452 -52.024   3.780  1.00  0.00     0.027 C 
BRANCH   3   4
ATOM      4  C   UNL     1      -3.637 -51.672   5.228  1.00  0.00    -0.025 C 
ATOM      5  C   UNL     1      -2.592 -51.496   6.043  1.00  0.00     0.020 C 
BRANCH   5   6
ATOM      6  C   UNL     1      -2.758 -51.137   7.459  1.00  0.00     0.064 C 
ATOM      7  O   UNL     1      -3.750 -50.449   7.813  1.00  0.00    -0.545 OA
ATOM      8  O   UNL     1      -1.834 -51.545   8.415  1.00  0.00    -0.545 OA
ENDBRANCH   5   6
ENDBRANCH   3   4
ENDBRANCH   2   3
ENDBRANCH   1   2
BRANCH   1   9
ATOM      9  C   UNL     1      -1.607 -51.201   0.785  1.00  0.00     0.000 C 
BRANCH   9  10
ATOM     10  C   UNL     1      -2.811 -51.593  -0.085  1.00  0.00     0.000 C 
BRANCH  10  11
ATOM     11  C   UNL     1      -4.075 -50.840   0.354  1.00  0.00    -0.000 C 
BRANCH  11  12
ATOM     12  C   UNL     1      -5.360 -51.650   0.119  1.00  0.00    -0.000 C 
BRANCH  12  13
ATOM     13  C   UNL     1      -6.118 -51.951   1.420  1.00  0.00    -0.003 C 
ATOM     14  C   UNL     1      -7.571 -51.495   1.328  1.00  0.00     0.004 C 
ENDBRANCH  12  13
ENDBRANCH  11  12
ENDBRANCH  10  11
ENDBRANCH   9  10
ENDBRANCH   1   9
TORSDOF 9
ENDMDL
MODEL 2
REMARK VINA RESULT:    -3.774      0.986      1.591
REMARK INTER + INTRA:          -6.519
REMARK INTER:                  -5.823
REMARK INTRA:                  -0.695
REMARK UNBOUND:                -0.759
REMARK SMILES CCCCCCCCCC=CC(=O)[O-]
REMARK SMILES IDX 7 1 8 2 9 3 10 4 11 5 12 6 13 7 14 8 6 9 5 10 4 11 3 12 2 13
REMARK SMILES IDX 1 14
REMARK H PARENT
REMARK Flexibility Score: inf
ROOT
ATOM      1  C   UNL     1      -2.185 -50.601   1.871  1.00  0.00     0.000 C 
ENDROOT
BRANCH   1   2
ATOM      2  C   UNL     1      -2.249 -51.899   2.696  1.00  0.00     0.004 C 
BRANCH   2   3
ATOM      3  C   UNL     1      -1.287 -51.896   3.894  1.00  0.00     0.027 C 
BRANCH   3   4
ATOM      4  C   UNL     1      -2.039 -51.869   5.194  1.00  0.00    -0.025 C 
ATOM      5  C   UNL     1      -1.599 -51.165   6.241  1.00  0.00     0.020 C 
BRANCH   5   6
ATOM      6  C   UNL     1      -2.333 -51.117   7.515  1.00  0.00     0.064 C 
ATOM      7  O   UNL     1      -1.920 -51.789   8.495  1.00  0.00    -0.545 OA
ATOM      8  O   UNL     1      -3.479 -50.342   7.652  1.00  0.00    -0.545 OA
ENDBRANCH   5   6
ENDBRANCH   3   4
ENDBRANCH   2   3
ENDBRANCH   1   2
BRANCH   1   9
ATOM      9  C   UNL     1      -3.058 -50.590   0.602  1.00  0.00     0.000 C 
BRANCH   9  10
ATOM     10  C   UNL     1      -4.037 -51.773   0.537  1.00  0.00     0.000 C 
BRANCH  10  11
ATOM     11  C   UNL     1      -5.440 -51.302   0.128  1.00  0.00    -0.000 C 
BRANCH  11  12
ATOM     12  C   UNL     1      -6.520 -51.709   1.142  1.00  0.00    -0.000 C 
BRANCH  12  13
ATOM     13  C   UNL     1      -5.952 -51.948   2.549  1.00  0.00    -0.003 C 
ATOM     14  C   UNL     1      -6.998 -51.656   3.621  1.00  0.00     0.004 C 
ENDBRANCH  12  13
ENDBRANCH  11  12
ENDBRANCH  10  11
ENDBRANCH   9  10
ENDBRANCH   1   9
TORSDOF 9
ENDMDL
MODEL 3
REMARK VINA RESULT:    -3.512      1.299      2.349
REMARK INTER + INTRA:          -6.119
REMARK INTER:                  -5.520
REMARK INTRA:                  -0.598
REMARK UNBOUND:                -0.759
REMARK SMILES CCCCCCCCCC=CC(=O)[O-]
REMARK SMILES IDX 7 1 8 2 9 3 10 4 11 5 12 6 13 7 14 8 6 9 5 10 4 11 3 12 2 13
REMARK SMILES IDX 1 14
REMARK H PARENT
REMARK Flexibility Score: inf
ROOT
ATOM      1  C   UNL     1      -3.101 -52.125   4.433  1.00  0.00     0.000 C 
ENDROOT
BRANCH   1   2
ATOM      2  C   UNL     1      -1.618 -51.798   4.681  1.00  0.00     0.004 C 
BRANCH   2   3
ATOM      3  C   UNL     1      -1.335 -51.357   6.125  1.00  0.00     0.027 C 
BRANCH   3   4
ATOM      4  C   UNL     1      -2.422 -51.817   7.055  1.00  0.00    -0.025 C 
ATOM      5  C   UNL     1      -3.087 -50.956   7.832  1.00  0.00     0.020 C 
BRANCH   5   6
ATOM      6  C   UNL     1      -4.163 -51.390   8.735  1.00  0.00     0.064 C 
ATOM      7  O   UNL     1      -3.879 -52.056   9.764  1.00  0.00    -0.545 OA
ATOM      8  O   UNL     1      -5.491 -51.075   8.471  1.00  0.00    -0.545 OA
ENDBRANCH   5   6
ENDBRANCH   3   4
ENDBRANCH   2   3
ENDBRANCH   1   2
BRANCH   1   9
ATOM      9  C   UNL     1      -3.651 -51.666   3.069  1.00  0.00     0.000 C 
BRANCH   9  10
ATOM     10  C   UNL     1      -2.579 -51.028   2.174  1.00  0.00     0.000 C 
BRANCH  10  11
ATOM     11  C   UNL     1      -3.190 -50.522   0.859  1.00  0.00    -0.000 C 
BRANCH  11  12
ATOM     12  C   UNL     1      -3.978 -51.611   0.114  1.00  0.00    -0.000 C 
BRANCH  12  13
ATOM     13  C   UNL     1      -5.391 -51.156  -0.280  1.00  0.00    -0.003 C 
ATOM     14  C   UNL     1      -6.441 -51.760   0.647  1.00  0.00     0.004 C 
ENDBRANCH  12  13
ENDBRANCH  11  12
ENDBRANCH  10  11
ENDBRANCH   9  10
ENDBRANCH   1   9
TORSDOF 9
ENDMDL
MODEL 4
REMARK VINA RESULT:    -3.395      2.881      5.635
REMARK INTER + INTRA:          -5.940
REMARK INTER:                  -5.051
REMARK INTRA:                  -0.889
REMARK UNBOUND:                -0.759
REMARK SMILES CCCCCCCCCC=CC(=O)[O-]
REMARK SMILES IDX 7 1 8 2 9 3 10 4 11 5 12 6 13 7 14 8 6 9 5 10 4 11 3 12 2 13
REMARK SMILES IDX 1 14
REMARK H PARENT
REMARK Flexibility Score: inf
ROOT
ATOM      1  C   UNL     1      -2.755 -50.442   1.463  1.00  0.00     0.000 C 
ENDROOT
BRANCH   1   2
ATOM      2  C   UNL     1      -3.271 -50.877   0.080  1.00  0.00     0.004 C 
BRANCH   2   3
ATOM      3  C   UNL     1      -4.182 -52.113   0.142  1.00  0.00     0.027 C 
BRANCH   3   4
ATOM      4  C   UNL     1      -5.598 -51.728   0.463  1.00  0.00    -0.025 C 
ATOM      5  C   UNL     1      -6.160 -52.045   1.634  1.00  0.00     0.020 C 
BRANCH   5   6
ATOM      6  C   UNL     1      -7.540 -51.661   1.967  1.00  0.00     0.064 C 
ATOM      7  O   UNL     1      -7.822 -51.319   3.144  1.00  0.00    -0.545 OA
ATOM      8  O   UNL     1      -8.539 -51.671   1.001  1.00  0.00    -0.545 OA
ENDBRANCH   5   6
ENDBRANCH   3   4
ENDBRANCH   2   3
ENDBRANCH   1   2
BRANCH   1   9
ATOM      9  C   UNL     1      -1.572 -51.265   2.007  1.00  0.00     0.000 C 
BRANCH   9  10
ATOM     10  C   UNL     1      -1.921 -52.047   3.282  1.00  0.00     0.000 C 
BRANCH  10  11
ATOM     11  C   UNL     1      -3.292 -51.623   3.830  1.00  0.00    -0.000 C 
BRANCH  11  12
ATOM     12  C   UNL     1      -3.352 -51.653   5.365  1.00  0.00    -0.000 C 
BRANCH  12  13
ATOM     13  C   UNL     1      -1.964 -51.776   6.010  1.00  0.00    -0.003 C 
ATOM     14  C   UNL     1      -1.967 -51.221   7.431  1.00  0.00     0.004 C 
ENDBRANCH  12  13
ENDBRANCH  11  12
ENDBRANCH  10  11
ENDBRANCH   9  10
ENDBRANCH   1   9
TORSDOF 9
ENDMDL
MODEL 5
REMARK VINA RESULT:    -3.283      1.372      2.552
REMARK INTER + INTRA:          -5.769
REMARK INTER:                  -5.103
REMARK INTRA:                  -0.667
REMARK UNBOUND:                -0.759
REMARK SMILES CCCCCCCCCC=CC(=O)[O-]
REMARK SMILES IDX 7 1 8 2 9 3 10 4 11 5 12 6 13 7 14 8 6 9 5 10 4 11 3 12 2 13
REMARK SMILES IDX 1 14
REMARK H PARENT
REMARK Flexibility Score: inf
ROOT
ATOM      1  C   UNL     1      -3.952 -50.603   0.459  1.00  0.00     0.000 C 
ENDROOT
BRANCH   1   2
ATOM      2  C   UNL     1      -2.582 -50.805   1.131  1.00  0.00     0.004 C 
BRANCH   2   3
ATOM      3  C   UNL     1      -2.488 -52.125   1.912  1.00  0.00     0.027 C 
BRANCH   3   4
ATOM      4  C   UNL     1      -3.130 -52.002   3.264  1.00  0.00    -0.025 C 
ATOM      5  C   UNL     1      -2.424 -51.651   4.344  1.00  0.00     0.020 C 
BRANCH   5   6
ATOM      6  C   UNL     1      -3.043 -51.512   5.671  1.00  0.00     0.064 C 
ATOM      7  O   UNL     1      -4.274 -51.730   5.807  1.00  0.00    -0.545 OA
ATOM      8  O   UNL     1      -2.287 -51.143   6.778  1.00  0.00    -0.545 OA
ENDBRANCH   5   6
ENDBRANCH   3   4
ENDBRANCH   2   3
ENDBRANCH   1   2
BRANCH   1   9
ATOM      9  C   UNL     1      -4.557 -51.865  -0.184  1.00  0.00     0.000 C 
BRANCH   9  10
ATOM     10  C   UNL     1      -6.092 -51.881  -0.144  1.00  0.00     0.000 C 
BRANCH  10  11
ATOM     11  C   UNL     1      -6.607 -51.695   1.291  1.00  0.00    -0.000 C 
BRANCH  11  12
ATOM     12  C   UNL     1      -8.123 -51.917   1.410  1.00  0.00    -0.000 C 
BRANCH  12  13
ATOM     13  C   UNL     1      -8.889 -50.623   1.720  1.00  0.00    -0.003 C 
ATOM     14  C   UNL     1      -9.017 -50.406   3.225  1.00  0.00     0.004 C 
ENDBRANCH  12  13
ENDBRANCH  11  12
ENDBRANCH  10  11
ENDBRANCH   9  10
ENDBRANCH   1   9
TORSDOF 9
ENDMDL
MODEL 6
REMARK VINA RESULT:    -3.240      3.361      6.495
REMARK INTER + INTRA:          -5.704
REMARK INTER:                  -5.140
REMARK INTRA:                  -0.564
REMARK UNBOUND:                -0.759
REMARK SMILES CCCCCCCCCC=CC(=O)[O-]
REMARK SMILES IDX 7 1 8 2 9 3 10 4 11 5 12 6 13 7 14 8 6 9 5 10 4 11 3 12 2 13
REMARK SMILES IDX 1 14
REMARK H PARENT
REMARK Flexibility Score: inf
ROOT
ATOM      1  C   UNL     1      -1.248 -51.794   3.135  1.00  0.00     0.000 C 
ENDROOT
BRANCH   1   2
ATOM      2  C   UNL     1      -2.317 -50.912   2.463  1.00  0.00     0.004 C 
BRANCH   2   3
ATOM      3  C   UNL     1      -2.236 -50.937   0.929  1.00  0.00     0.027 C 
BRANCH   3   4
ATOM      4  C   UNL     1      -3.606 -50.924   0.314  1.00  0.00    -0.025 C 
ATOM      5  C   UNL     1      -4.582 -51.719   0.764  1.00  0.00     0.020 C 
BRANCH   5   6
ATOM      6  C   UNL     1      -5.932 -51.706   0.180  1.00  0.00     0.064 C 
ATOM      7  O   UNL     1      -6.087 -52.002  -1.032  1.00  0.00    -0.545 OA
ATOM      8  O   UNL     1      -7.041 -51.370   0.949  1.00  0.00    -0.545 OA
ENDBRANCH   5   6
ENDBRANCH   3   4
ENDBRANCH   2   3
ENDBRANCH   1   2
BRANCH   1   9
ATOM      9  C   UNL     1      -1.462 -52.047   4.639  1.00  0.00     0.000 C 
BRANCH   9  10
ATOM     10  C   UNL     1      -2.913 -51.814   5.087  1.00  0.00     0.000 C 
BRANCH  10  11
ATOM     11  C   UNL     1      -2.961 -51.086   6.438  1.00  0.00    -0.000 C 
BRANCH  11  12
ATOM     12  C   UNL     1      -1.853 -51.545   7.398  1.00  0.00    -0.000 C 
BRANCH  12  13
ATOM     13  C   UNL     1      -2.383 -51.871   8.802  1.00  0.00    -0.003 C 
ATOM     14  C   UNL     1      -3.839 -51.443   8.954  1.00  0.00     0.004 C 
ENDBRANCH  12  13
ENDBRANCH  11  12
ENDBRANCH  10  11
ENDBRANCH   9  10
ENDBRANCH   1   9
TORSDOF 9
ENDMDL
MODEL 7
REMARK VINA RESULT:    -3.213      4.432      7.098
REMARK INTER + INTRA:          -5.662
REMARK INTER:                  -5.379
REMARK INTRA:                  -0.283
REMARK UNBOUND:                -0.759
REMARK SMILES CCCCCCCCCC=CC(=O)[O-]
REMARK SMILES IDX 7 1 8 2 9 3 10 4 11 5 12 6 13 7 14 8 6 9 5 10 4 11 3 12 2 13
REMARK SMILES IDX 1 14
REMARK H PARENT
REMARK Flexibility Score: inf
ROOT
ATOM      1  C   UNL     1      -1.914 -51.800   3.122  1.00  0.00     0.000 C 
ENDROOT
BRANCH   1   2
ATOM      2  C   UNL     1      -2.079 -50.737   2.022  1.00  0.00     0.004 C 
BRANCH   2   3
ATOM      3  C   UNL     1      -2.822 -51.264   0.786  1.00  0.00     0.027 C 
BRANCH   3   4
ATOM      4  C   UNL     1      -1.900 -51.379  -0.394  1.00  0.00    -0.025 C 
ATOM      5  C   UNL     1      -0.687 -51.929  -0.282  1.00  0.00     0.020 C 
BRANCH   5   6
ATOM      6  C   UNL     1       0.220 -52.062  -1.432  1.00  0.00     0.064 C 
ATOM      7  O   UNL     1      -0.256 -52.120  -2.595  1.00  0.00    -0.545 OA
ATOM      8  O   UNL     1       1.598 -52.124  -1.254  1.00  0.00    -0.545 OA
ENDBRANCH   5   6
ENDBRANCH   3   4
ENDBRANCH   2   3
ENDBRANCH   1   2
BRANCH   1   9
ATOM      9  C   UNL     1      -1.102 -51.348   4.351  1.00  0.00     0.000 C 
BRANCH   9  10
ATOM     10  C   UNL     1      -1.463 -52.124   5.627  1.00  0.00     0.000 C 
BRANCH  10  11
ATOM     11  C   UNL     1      -1.935 -51.170   6.734  1.00  0.00    -0.000 C 
BRANCH  11  12
ATOM     12  C   UNL     1      -2.665 -51.900   7.873  1.00  0.00    -0.000 C 
BRANCH  12  13
ATOM     13  C   UNL     1      -3.740 -51.030   8.541  1.00  0.00    -0.003 C 
ATOM     14  C   UNL     1      -4.559 -51.839   9.542  1.00  0.00     0.004 C 
ENDBRANCH  12  13
ENDBRANCH  11  12
ENDBRANCH  10  11
ENDBRANCH   9  10
ENDBRANCH   1   9
TORSDOF 9
ENDMDL
MODEL 8
REMARK VINA RESULT:    -3.175      1.961      3.454
REMARK INTER + INTRA:          -5.604
REMARK INTER:                  -5.236
REMARK INTRA:                  -0.368
REMARK UNBOUND:                -0.759
REMARK SMILES CCCCCCCCCC=CC(=O)[O-]
REMARK SMILES IDX 7 1 8 2 9 3 10 4 11 5 12 6 13 7 14 8 6 9 5 10 4 11 3 12 2 13
REMARK SMILES IDX 1 14
REMARK H PARENT
REMARK Flexibility Score: inf
ROOT
ATOM      1  C   UNL     1      -2.092 -51.174   3.302  1.00  0.00     0.000 C 
ENDROOT
BRANCH   1   2
ATOM      2  C   UNL     1      -1.601 -52.046   4.471  1.00  0.00     0.004 C 
BRANCH   2   3
ATOM      3  C   UNL     1      -1.405 -51.250   5.771  1.00  0.00     0.027 C 
BRANCH   3   4
ATOM      4  C   UNL     1      -2.340 -51.726   6.845  1.00  0.00    -0.025 C 
ATOM      5  C   UNL     1      -2.938 -50.871   7.681  1.00  0.00     0.020 C 
BRANCH   5   6
ATOM      6  C   UNL     1      -3.867 -51.321   8.727  1.00  0.00     0.064 C 
ATOM      7  O   UNL     1      -5.099 -51.379   8.480  1.00  0.00    -0.545 OA
ATOM      8  O   UNL     1      -3.405 -51.685   9.987  1.00  0.00    -0.545 OA
ENDBRANCH   5   6
ENDBRANCH   3   4
ENDBRANCH   2   3
ENDBRANCH   1   2
BRANCH   1   9
ATOM      9  C   UNL     1      -2.842 -51.933   2.192  1.00  0.00     0.000 C 
BRANCH   9  10
ATOM     10  C   UNL     1      -3.308 -51.018   1.049  1.00  0.00     0.000 C 
BRANCH  10  11
ATOM     11  C   UNL     1      -2.255 -50.952  -0.067  1.00  0.00    -0.000 C 
BRANCH  11  12
ATOM     12  C   UNL     1      -1.258 -52.120  -0.011  1.00  0.00    -0.000 C 
BRANCH  12  13
ATOM     13  C   UNL     1       0.035 -51.832  -0.788  1.00  0.00    -0.003 C 
ATOM     14  C   UNL     1      -0.218 -51.821  -2.292  1.00  0.00     0.004 C 
ENDBRANCH  12  13
ENDBRANCH  11  12
ENDBRANCH  10  11
ENDBRANCH   9  10
ENDBRANCH   1   9
TORSDOF 9
ENDMDL
MODEL 9
REMARK VINA RESULT:    -1.940      3.727      6.724
REMARK INTER + INTRA:          -3.720
REMARK INTER:                  -2.976
REMARK INTRA:                  -0.743
REMARK UNBOUND:                -0.759
REMARK SMILES CCCCCCCCCC=CC(=O)[O-]
REMARK SMILES IDX 7 1 8 2 9 3 10 4 11 5 12 6 13 7 14 8 6 9 5 10 4 11 3 12 2 13
REMARK SMILES IDX 1 14
REMARK H PARENT
REMARK Flexibility Score: inf
ROOT
ATOM      1  C   UNL     1      -3.322 -51.420   6.382  1.00  0.00     0.000 C 
ENDROOT
BRANCH   1   2
ATOM      2  C   UNL     1      -2.936 -52.053   5.033  1.00  0.00     0.004 C 
BRANCH   2   3
ATOM      3  C   UNL     1      -1.448 -51.877   4.693  1.00  0.00     0.027 C 
BRANCH   3   4
ATOM      4  C   UNL     1      -1.244 -51.724   3.213  1.00  0.00    -0.025 C 
ATOM      5  C   UNL     1      -2.196 -51.211   2.426  1.00  0.00     0.020 C 
BRANCH   5   6
ATOM      6  C   UNL     1      -2.004 -51.042   0.978  1.00  0.00     0.064 C 
ATOM      7  O   UNL     1      -2.957 -50.628   0.269  1.00  0.00    -0.545 OA
ATOM      8  O   UNL     1      -0.783 -51.334   0.378  1.00  0.00    -0.545 OA
ENDBRANCH   5   6
ENDBRANCH   3   4
ENDBRANCH   2   3
ENDBRANCH   1   2
BRANCH   1   9
ATOM      9  C   UNL     1      -2.144 -51.153   7.338  1.00  0.00     0.000 C 
BRANCH   9  10
ATOM     10  C   UNL     1      -2.340 -51.787   8.723  1.00  0.00     0.000 C 
BRANCH  10  11
ATOM     11  C   UNL     1      -3.818 -52.125   8.969  1.00  0.00    -0.000 C 
BRANCH  11  12
ATOM     12  C   UNL     1      -4.486 -51.167   9.967  1.00  0.00    -0.000 C 
BRANCH  12  13
ATOM     13  C   UNL     1      -5.848 -50.653   9.475  1.00  0.00    -0.003 C 
ATOM     14  C   UNL     1      -6.521 -51.671   8.559  1.00  0.00     0.004 C 
ENDBRANCH  12  13
ENDBRANCH  11  12
ENDBRANCH  10  11
ENDBRANCH   9  10
ENDBRANCH   1   9
TORSDOF 9
ENDMDL
