MODEL 1
REMARK VINA RESULT:    -4.330      0.000      0.000
REMARK INTER + INTRA:          -4.951
REMARK INTER:                  -4.709
REMARK INTRA:                  -0.242
REMARK UNBOUND:                -0.242
REMARK SMILES O=C([O-])c1ccccc1O
REMARK SMILES IDX 4 1 9 2 5 3 8 4 6 5 7 6 2 7 1 8 3 9 10 10
REMARK H PARENT 10 11
REMARK Flexibility Score: inf
ROOT
ATOM      1  C   UNL     1      18.097  23.795  36.466  1.00  0.00     0.039 A 
ATOM      2  C   UNL     1      19.098  23.059  37.150  1.00  0.00     0.124 A 
ATOM      3  C   UNL     1      18.205  23.961  35.073  1.00  0.00     0.014 A 
ATOM      4  C   UNL     1      20.135  22.460  36.422  1.00  0.00     0.047 A 
ATOM      5  C   UNL     1      19.258  23.376  34.365  1.00  0.00     0.001 A 
ATOM      6  C   UNL     1      20.216  22.617  35.038  1.00  0.00     0.004 A 
ENDROOT
BRANCH   1   7
ATOM      7  C   UNL     1      16.919  24.365  37.158  1.00  0.00     0.075 C 
ATOM      8  O   UNL     1      17.076  25.132  38.145  1.00  0.00    -0.545 OA
ATOM      9  O   UNL     1      15.634  24.122  36.692  1.00  0.00    -0.545 OA
ENDBRANCH   1   7
BRANCH   2  10
ATOM     10  O   UNL     1      19.118  22.929  38.539  1.00  0.00    -0.507 OA
ATOM     11  H   UNL     1      19.716  23.480  39.140  1.00  0.00     0.293 HD
ENDBRANCH   2  10
TORSDOF 2
ENDMDL
MODEL 2
REMARK VINA RESULT:    -4.323     12.562     13.442
REMARK INTER + INTRA:          -4.944
REMARK INTER:                  -4.715
REMARK INTRA:                  -0.229
REMARK UNBOUND:                -0.242
REMARK SMILES O=C([O-])c1ccccc1O
REMARK SMILES IDX 4 1 9 2 5 3 8 4 6 5 7 6 2 7 1 8 3 9 10 10
REMARK H PARENT 10 11
REMARK Flexibility Score: inf
ROOT
ATOM      1  C   UNL     1      15.064  13.039  29.453  1.00  0.00     0.039 A 
ATOM      2  C   UNL     1      13.738  13.526  29.327  1.00  0.00     0.124 A 
ATOM      3  C   UNL     1      16.117  13.777  28.882  1.00  0.00     0.014 A 
ATOM      4  C   UNL     1      13.508  14.756  28.696  1.00  0.00     0.047 A 
ATOM      5  C   UNL     1      15.869  14.991  28.237  1.00  0.00     0.001 A 
ATOM      6  C   UNL     1      14.567  15.484  28.153  1.00  0.00     0.004 A 
ENDROOT
BRANCH   1   7
ATOM      7  C   UNL     1      15.388  11.802  30.197  1.00  0.00     0.075 C 
ATOM      8  O   UNL     1      14.890  10.701  29.840  1.00  0.00    -0.545 OA
ATOM      9  O   UNL     1      16.293  11.821  31.250  1.00  0.00    -0.545 OA
ENDBRANCH   1   7
BRANCH   2  10
ATOM     10  O   UNL     1      12.628  12.809  29.778  1.00  0.00    -0.507 OA
ATOM     11  H   UNL     1      12.695  11.908  30.231  1.00  0.00     0.293 HD
ENDBRANCH   2  10
TORSDOF 2
ENDMDL
MODEL 3
REMARK VINA RESULT:    -4.321     10.706     11.649
REMARK INTER + INTRA:          -4.942
REMARK INTER:                  -4.690
REMARK INTRA:                  -0.252
REMARK UNBOUND:                -0.242
REMARK SMILES O=C([O-])c1ccccc1O
REMARK SMILES IDX 4 1 9 2 5 3 8 4 6 5 7 6 2 7 1 8 3 9 10 10
REMARK H PARENT 10 11
REMARK Flexibility Score: inf
ROOT
ATOM      1  C   UNL     1      19.283  12.582  33.878  1.00  0.00     0.039 A 
ATOM      2  C   UNL     1      20.487  13.183  34.326  1.00  0.00     0.124 A 
ATOM      3  C   UNL     1      18.181  12.529  34.753  1.00  0.00     0.014 A 
ATOM      4  C   UNL     1      20.537  13.765  35.600  1.00  0.00     0.047 A 
ATOM      5  C   UNL     1      18.256  13.095  36.028  1.00  0.00     0.001 A 
ATOM      6  C   UNL     1      19.429  13.721  36.446  1.00  0.00     0.004 A 
ENDROOT
BRANCH   1   7
ATOM      7  C   UNL     1      19.127  12.042  32.509  1.00  0.00     0.075 C 
ATOM      8  O   UNL     1      18.136  12.378  31.807  1.00  0.00    -0.545 OA
ATOM      9  O   UNL     1      20.098  11.218  31.955  1.00  0.00    -0.545 OA
ENDBRANCH   1   7
BRANCH   2  10
ATOM     10  O   UNL     1      21.653  13.192  33.560  1.00  0.00    -0.507 OA
ATOM     11  H   UNL     1      22.336  12.446  33.579  1.00  0.00     0.293 HD
ENDBRANCH   2  10
TORSDOF 2
ENDMDL
MODEL 4
REMARK VINA RESULT:    -4.303      5.880      7.558
REMARK INTER + INTRA:          -4.922
REMARK INTER:                  -4.694
REMARK INTRA:                  -0.228
REMARK UNBOUND:                -0.242
REMARK SMILES O=C([O-])c1ccccc1O
REMARK SMILES IDX 4 1 9 2 5 3 8 4 6 5 7 6 2 7 1 8 3 9 10 10
REMARK H PARENT 10 11
REMARK Flexibility Score: inf
ROOT
ATOM      1  C   UNL     1      12.171  23.323  34.604  1.00  0.00     0.039 A 
ATOM      2  C   UNL     1      11.436  22.955  33.448  1.00  0.00     0.124 A 
ATOM      3  C   UNL     1      12.078  22.519  35.755  1.00  0.00     0.014 A 
ATOM      4  C   UNL     1      10.686  21.771  33.452  1.00  0.00     0.047 A 
ATOM      5  C   UNL     1      11.308  21.353  35.749  1.00  0.00     0.001 A 
ATOM      6  C   UNL     1      10.622  20.974  34.596  1.00  0.00     0.004 A 
ENDROOT
BRANCH   1   7
ATOM      7  C   UNL     1      13.064  24.503  34.633  1.00  0.00     0.075 C 
ATOM      8  O   UNL     1      14.297  24.356  34.848  1.00  0.00    -0.545 OA
ATOM      9  O   UNL     1      12.575  25.773  34.360  1.00  0.00    -0.545 OA
ENDBRANCH   1   7
BRANCH   2  10
ATOM     10  O   UNL     1      11.395  23.746  32.299  1.00  0.00    -0.507 OA
ATOM     11  H   UNL     1      10.539  24.115  31.907  1.00  0.00     0.293 HD
ENDBRANCH   2  10
TORSDOF 2
ENDMDL
MODEL 5
REMARK VINA RESULT:    -4.265      5.489      6.906
REMARK INTER + INTRA:          -4.881
REMARK INTER:                  -4.676
REMARK INTRA:                  -0.205
REMARK UNBOUND:                -0.242
REMARK SMILES O=C([O-])c1ccccc1O
REMARK SMILES IDX 4 1 9 2 5 3 8 4 6 5 7 6 2 7 1 8 3 9 10 10
REMARK H PARENT 10 11
REMARK Flexibility Score: inf
ROOT
ATOM      1  C   UNL     1      12.367  22.343  34.559  1.00  0.00     0.039 A 
ATOM      2  C   UNL     1      12.764  23.679  34.295  1.00  0.00     0.124 A 
ATOM      3  C   UNL     1      13.082  21.597  35.515  1.00  0.00     0.014 A 
ATOM      4  C   UNL     1      13.812  24.248  35.030  1.00  0.00     0.047 A 
ATOM      5  C   UNL     1      14.139  22.173  36.224  1.00  0.00     0.001 A 
ATOM      6  C   UNL     1      14.496  23.500  35.989  1.00  0.00     0.004 A 
ENDROOT
BRANCH   1   7
ATOM      7  C   UNL     1      11.204  21.714  33.895  1.00  0.00     0.075 C 
ATOM      8  O   UNL     1      10.730  20.635  34.340  1.00  0.00    -0.545 OA
ATOM      9  O   UNL     1      10.577  22.333  32.822  1.00  0.00    -0.545 OA
ENDBRANCH   1   7
BRANCH   2  10
ATOM     10  O   UNL     1      12.173  24.455  33.297  1.00  0.00    -0.507 OA
ATOM     11  H   UNL     1      11.172  24.536  33.174  1.00  0.00     0.293 HD
ENDBRANCH   2  10
TORSDOF 2
ENDMDL
MODEL 6
REMARK VINA RESULT:    -4.261     11.730     12.501
REMARK INTER + INTRA:          -4.877
REMARK INTER:                  -4.674
REMARK INTRA:                  -0.203
REMARK UNBOUND:                -0.242
REMARK SMILES O=C([O-])c1ccccc1O
REMARK SMILES IDX 4 1 9 2 5 3 8 4 6 5 7 6 2 7 1 8 3 9 10 10
REMARK H PARENT 10 11
REMARK Flexibility Score: inf
ROOT
ATOM      1  C   UNL     1      15.223  13.923  29.797  1.00  0.00     0.039 A 
ATOM      2  C   UNL     1      15.273  12.594  30.290  1.00  0.00     0.124 A 
ATOM      3  C   UNL     1      16.342  14.758  29.977  1.00  0.00     0.014 A 
ATOM      4  C   UNL     1      16.448  12.120  30.887  1.00  0.00     0.047 A 
ATOM      5  C   UNL     1      17.499  14.277  30.595  1.00  0.00     0.001 A 
ATOM      6  C   UNL     1      17.555  12.956  31.039  1.00  0.00     0.004 A 
ENDROOT
BRANCH   1   7
ATOM      7  C   UNL     1      14.053  14.455  29.064  1.00  0.00     0.075 C 
ATOM      8  O   UNL     1      12.948  13.851  29.115  1.00  0.00    -0.545 OA
ATOM      9  O   UNL     1      14.133  15.655  28.371  1.00  0.00    -0.545 OA
ENDBRANCH   1   7
BRANCH   2  10
ATOM     10  O   UNL     1      14.176  11.733  30.240  1.00  0.00    -0.507 OA
ATOM     11  H   UNL     1      13.222  12.037  30.384  1.00  0.00     0.293 HD
ENDBRANCH   2  10
TORSDOF 2
ENDMDL
MODEL 7
REMARK VINA RESULT:    -4.260     10.412     11.441
REMARK INTER + INTRA:          -4.876
REMARK INTER:                  -4.678
REMARK INTRA:                  -0.199
REMARK UNBOUND:                -0.242
REMARK SMILES O=C([O-])c1ccccc1O
REMARK SMILES IDX 4 1 9 2 5 3 8 4 6 5 7 6 2 7 1 8 3 9 10 10
REMARK H PARENT 10 11
REMARK Flexibility Score: inf
ROOT
ATOM      1  C   UNL     1      19.029  13.083  34.195  1.00  0.00     0.039 A 
ATOM      2  C   UNL     1      19.449  12.427  33.010  1.00  0.00     0.124 A 
ATOM      3  C   UNL     1      17.652  13.276  34.415  1.00  0.00     0.014 A 
ATOM      4  C   UNL     1      18.491  11.929  32.117  1.00  0.00     0.047 A 
ATOM      5  C   UNL     1      16.710  12.793  33.503  1.00  0.00     0.001 A 
ATOM      6  C   UNL     1      17.129  12.111  32.361  1.00  0.00     0.004 A 
ENDROOT
BRANCH   1   7
ATOM      7  C   UNL     1      19.983  13.540  35.230  1.00  0.00     0.075 C 
ATOM      8  O   UNL     1      19.560  13.920  36.354  1.00  0.00    -0.545 OA
ATOM      9  O   UNL     1      21.352  13.492  35.006  1.00  0.00    -0.545 OA
ENDBRANCH   1   7
BRANCH   2  10
ATOM     10  O   UNL     1      20.795  12.281  32.667  1.00  0.00    -0.507 OA
ATOM     11  H   UNL     1      21.182  12.597  31.788  1.00  0.00     0.293 HD
ENDBRANCH   2  10
TORSDOF 2
ENDMDL
MODEL 8
REMARK VINA RESULT:    -4.224      2.620      3.272
REMARK INTER + INTRA:          -4.836
REMARK INTER:                  -4.591
REMARK INTRA:                  -0.245
REMARK UNBOUND:                -0.242
REMARK SMILES O=C([O-])c1ccccc1O
REMARK SMILES IDX 4 1 9 2 5 3 8 4 6 5 7 6 2 7 1 8 3 9 10 10
REMARK H PARENT 10 11
REMARK Flexibility Score: inf
ROOT
ATOM      1  C   UNL     1      18.114  24.246  34.590  1.00  0.00     0.039 A 
ATOM      2  C   UNL     1      19.509  24.103  34.382  1.00  0.00     0.124 A 
ATOM      3  C   UNL     1      17.566  25.540  34.668  1.00  0.00     0.014 A 
ATOM      4  C   UNL     1      20.302  25.243  34.195  1.00  0.00     0.047 A 
ATOM      5  C   UNL     1      18.374  26.668  34.501  1.00  0.00     0.001 A 
ATOM      6  C   UNL     1      19.739  26.518  34.254  1.00  0.00     0.004 A 
ENDROOT
BRANCH   1   7
ATOM      7  C   UNL     1      17.203  23.084  34.691  1.00  0.00     0.075 C 
ATOM      8  O   UNL     1      17.444  22.162  35.515  1.00  0.00    -0.545 OA
ATOM      9  O   UNL     1      16.040  23.024  33.935  1.00  0.00    -0.545 OA
ENDBRANCH   1   7
BRANCH   2  10
ATOM     10  O   UNL     1      20.147  22.861  34.390  1.00  0.00    -0.507 OA
ATOM     11  H   UNL     1      21.067  22.706  33.999  1.00  0.00     0.293 HD
ENDBRANCH   2  10
TORSDOF 2
ENDMDL
MODEL 9
REMARK VINA RESULT:    -4.218      1.810      3.463
REMARK INTER + INTRA:          -4.830
REMARK INTER:                  -4.619
REMARK INTRA:                  -0.211
REMARK UNBOUND:                -0.242
REMARK SMILES O=C([O-])c1ccccc1O
REMARK SMILES IDX 4 1 9 2 5 3 8 4 6 5 7 6 2 7 1 8 3 9 10 10
REMARK H PARENT 10 11
REMARK Flexibility Score: inf
ROOT
ATOM      1  C   UNL     1      18.248  23.095  35.790  1.00  0.00     0.039 A 
ATOM      2  C   UNL     1      17.439  23.749  36.754  1.00  0.00     0.124 A 
ATOM      3  C   UNL     1      17.741  22.908  34.491  1.00  0.00     0.014 A 
ATOM      4  C   UNL     1      16.185  24.250  36.381  1.00  0.00     0.047 A 
ATOM      5  C   UNL     1      16.479  23.395  34.141  1.00  0.00     0.001 A 
ATOM      6  C   UNL     1      15.707  24.074  35.082  1.00  0.00     0.004 A 
ENDROOT
BRANCH   1   7
ATOM      7  C   UNL     1      19.622  22.634  36.088  1.00  0.00     0.075 C 
ATOM      8  O   UNL     1      20.402  22.326  35.148  1.00  0.00    -0.545 OA
ATOM      9  O   UNL     1      20.094  22.601  37.393  1.00  0.00    -0.545 OA
ENDBRANCH   1   7
BRANCH   2  10
ATOM     10  O   UNL     1      17.825  23.889  38.089  1.00  0.00    -0.507 OA
ATOM     11  H   UNL     1      17.435  24.586  38.710  1.00  0.00     0.293 HD
ENDBRANCH   2  10
TORSDOF 2
ENDMDL
