MODEL 1
REMARK VINA RESULT:    -6.194      0.000      0.000
REMARK INTER + INTRA:          -7.560
REMARK INTER:                  -7.281
REMARK INTRA:                  -0.279
REMARK UNBOUND:                -0.279
REMARK SMILES O=c1c(O)c(-c2ccc(O)cc2)oc2cc(O)cc(O)c12
REMARK SMILES IDX 5 1 3 2 2 3 1 4 21 5 19 6 18 7 16 8 15 9 14 10 13 11 6 12
REMARK SMILES IDX 7 13 8 14 9 15 12 16 11 17 10 18 4 20 20 22 17 24
REMARK H PARENT 10 19 4 21 20 23 17 25
REMARK Flexibility Score: inf
ROOT
ATOM      1  C   UNL     1     327.332  90.848  85.856  1.00  0.00     0.180 A 
ATOM      2  C   UNL     1     328.729  90.971  85.760  1.00  0.00     0.208 A 
ATOM      3  C   UNL     1     329.292  92.248  85.613  1.00  0.00     0.238 A 
ATOM      4  O   UNL     1     330.536  92.345  85.453  1.00  0.00    -0.285 OA
ATOM      5  C   UNL     1     328.456  93.392  85.621  1.00  0.00     0.111 A 
ATOM      6  C   UNL     1     328.922  94.739  85.524  1.00  0.00     0.134 A 
ATOM      7  C   UNL     1     327.995  95.786  85.435  1.00  0.00     0.093 A 
ATOM      8  C   UNL     1     326.624  95.542  85.503  1.00  0.00     0.123 A 
ATOM      9  C   UNL     1     326.159  94.234  85.653  1.00  0.00     0.094 A 
ATOM     10  C   UNL     1     327.058  93.166  85.706  1.00  0.00     0.146 A 
ATOM     11  O   UNL     1     326.572  91.936  85.828  1.00  0.00    -0.452 OA
ENDROOT
BRANCH   1  12
ATOM     12  C   UNL     1     326.664  89.535  85.998  1.00  0.00     0.021 A 
ATOM     13  C   UNL     1     326.424  88.710  84.884  1.00  0.00     0.016 A 
ATOM     14  C   UNL     1     325.769  87.484  85.041  1.00  0.00     0.047 A 
ATOM     15  C   UNL     1     325.334  87.074  86.304  1.00  0.00     0.115 A 
ATOM     16  C   UNL     1     326.205  89.125  87.262  1.00  0.00     0.016 A 
ATOM     17  C   UNL     1     325.551  87.899  87.415  1.00  0.00     0.047 A 
BRANCH  15  18
ATOM     18  O   UNL     1     324.684  85.850  86.445  1.00  0.00    -0.508 OA
ATOM     19  H   UNL     1     325.193  85.001  86.660  1.00  0.00     0.293 HD
ENDBRANCH  15  18
ENDBRANCH   1  12
BRANCH   2  20
ATOM     20  O   UNL     1     329.541  89.837  85.831  1.00  0.00    -0.502 OA
ATOM     21  H   UNL     1     329.451  89.147  86.568  1.00  0.00     0.293 HD
ENDBRANCH   2  20
BRANCH   6  22
ATOM     22  O   UNL     1     330.272  95.104  85.537  1.00  0.00    -0.507 OA
ATOM     23  H   UNL     1     331.041  94.480  85.348  1.00  0.00     0.293 HD
ENDBRANCH   6  22
BRANCH   8  24
ATOM     24  O   UNL     1     325.732  96.609  85.429  1.00  0.00    -0.508 OA
ATOM     25  H   UNL     1     325.521  97.062  84.547  1.00  0.00     0.293 HD
ENDBRANCH   8  24
TORSDOF 5
ENDMDL
MODEL 2
REMARK VINA RESULT:    -6.082     15.794     20.111
REMARK INTER + INTRA:          -7.428
REMARK INTER:                  -7.223
REMARK INTRA:                  -0.205
REMARK UNBOUND:                -0.279
REMARK SMILES O=c1c(O)c(-c2ccc(O)cc2)oc2cc(O)cc(O)c12
REMARK SMILES IDX 5 1 3 2 2 3 1 4 21 5 19 6 18 7 16 8 15 9 14 10 13 11 6 12
REMARK SMILES IDX 7 13 8 14 9 15 12 16 11 17 10 18 4 20 20 22 17 24
REMARK H PARENT 10 19 4 21 20 23 17 25
REMARK Flexibility Score: inf
ROOT
ATOM      1  C   UNL     1     318.541  82.885  99.436  1.00  0.00     0.180 A 
ATOM      2  C   UNL     1     318.834  81.670  98.795  1.00  0.00     0.208 A 
ATOM      3  C   UNL     1     318.675  80.469  99.503  1.00  0.00     0.238 A 
ATOM      4  O   UNL     1     319.010  79.391  98.948  1.00  0.00    -0.285 OA
ATOM      5  C   UNL     1     318.169  80.493 100.826  1.00  0.00     0.111 A 
ATOM      6  C   UNL     1     317.923  79.334 101.624  1.00  0.00     0.134 A 
ATOM      7  C   UNL     1     317.522  79.484 102.957  1.00  0.00     0.093 A 
ATOM      8  C   UNL     1     317.297  80.747 103.504  1.00  0.00     0.123 A 
ATOM      9  C   UNL     1     317.480  81.886 102.717  1.00  0.00     0.094 A 
ATOM     10  C   UNL     1     317.917  81.769 101.395  1.00  0.00     0.146 A 
ATOM     11  O   UNL     1     318.099  82.878 100.688  1.00  0.00    -0.452 OA
ENDROOT
BRANCH   1  12
ATOM     12  C   UNL     1     318.699  84.192  98.760  1.00  0.00     0.021 A 
ATOM     13  C   UNL     1     319.726  85.084  99.118  1.00  0.00     0.016 A 
ATOM     14  C   UNL     1     319.839  86.324  98.481  1.00  0.00     0.047 A 
ATOM     15  C   UNL     1     318.924  86.694  97.491  1.00  0.00     0.115 A 
ATOM     16  C   UNL     1     317.770  84.580  97.779  1.00  0.00     0.016 A 
ATOM     17  C   UNL     1     317.886  85.820  97.144  1.00  0.00     0.047 A 
BRANCH  15  18
ATOM     18  O   UNL     1     319.050  87.932  96.865  1.00  0.00    -0.508 OA
ATOM     19  H   UNL     1     319.279  88.769  97.388  1.00  0.00     0.293 HD
ENDBRANCH  15  18
ENDBRANCH   1  12
BRANCH   2  20
ATOM     20  O   UNL     1     319.260  81.662  97.464  1.00  0.00    -0.502 OA
ATOM     21  H   UNL     1     319.989  82.277  97.121  1.00  0.00     0.293 HD
ENDBRANCH   2  20
BRANCH   6  22
ATOM     22  O   UNL     1     318.033  78.021 101.153  1.00  0.00    -0.507 OA
ATOM     23  H   UNL     1     318.073  77.758 100.180  1.00  0.00     0.293 HD
ENDBRANCH   6  22
BRANCH   8  24
ATOM     24  O   UNL     1     316.882  80.859 104.829  1.00  0.00    -0.508 OA
ATOM     25  H   UNL     1     316.686  80.040 105.393  1.00  0.00     0.293 HD
ENDBRANCH   8  24
TORSDOF 5
ENDMDL
MODEL 3
REMARK VINA RESULT:    -6.062      2.665      7.416
REMARK INTER + INTRA:          -7.404
REMARK INTER:                  -7.184
REMARK INTRA:                  -0.220
REMARK UNBOUND:                -0.279
REMARK SMILES O=c1c(O)c(-c2ccc(O)cc2)oc2cc(O)cc(O)c12
REMARK SMILES IDX 5 1 3 2 2 3 1 4 21 5 19 6 18 7 16 8 15 9 14 10 13 11 6 12
REMARK SMILES IDX 7 13 8 14 9 15 12 16 11 17 10 18 4 20 20 22 17 24
REMARK H PARENT 10 19 4 21 20 23 17 25
REMARK Flexibility Score: inf
ROOT
ATOM      1  C   UNL     1     325.656  89.389  87.203  1.00  0.00     0.180 A 
ATOM      2  C   UNL     1     325.863  88.111  86.656  1.00  0.00     0.208 A 
ATOM      3  C   UNL     1     325.094  87.035  87.127  1.00  0.00     0.238 A 
ATOM      4  O   UNL     1     325.335  85.882  86.687  1.00  0.00    -0.285 OA
ATOM      5  C   UNL     1     324.087  87.260  88.098  1.00  0.00     0.111 A 
ATOM      6  C   UNL     1     323.217  86.253  88.615  1.00  0.00     0.134 A 
ATOM      7  C   UNL     1     322.330  86.571  89.652  1.00  0.00     0.093 A 
ATOM      8  C   UNL     1     322.237  87.871  90.146  1.00  0.00     0.123 A 
ATOM      9  C   UNL     1     323.043  88.876  89.611  1.00  0.00     0.094 A 
ATOM     10  C   UNL     1     323.964  88.581  88.603  1.00  0.00     0.146 A 
ATOM     11  O   UNL     1     324.728  89.563  88.136  1.00  0.00    -0.452 OA
ENDROOT
BRANCH   1  12
ATOM     12  C   UNL     1     326.438  90.568  86.769  1.00  0.00     0.021 A 
ATOM     13  C   UNL     1     327.790  90.723  87.124  1.00  0.00     0.016 A 
ATOM     14  C   UNL     1     328.500  91.860  86.722  1.00  0.00     0.047 A 
ATOM     15  C   UNL     1     327.869  92.857  85.975  1.00  0.00     0.115 A 
ATOM     16  C   UNL     1     325.804  91.586  86.036  1.00  0.00     0.016 A 
ATOM     17  C   UNL     1     326.517  92.720  85.635  1.00  0.00     0.047 A 
BRANCH  15  18
ATOM     18  O   UNL     1     328.590  93.983  85.581  1.00  0.00    -0.508 OA
ATOM     19  H   UNL     1     329.183  93.971  84.760  1.00  0.00     0.293 HD
ENDBRANCH  15  18
ENDBRANCH   1  12
BRANCH   2  20
ATOM     20  O   UNL     1     326.807  87.924  85.644  1.00  0.00    -0.502 OA
ATOM     21  H   UNL     1     327.282  87.040  85.499  1.00  0.00     0.293 HD
ENDBRANCH   2  20
BRANCH   6  22
ATOM     22  O   UNL     1     323.165  84.940  88.134  1.00  0.00    -0.507 OA
ATOM     23  H   UNL     1     322.754  84.663  87.256  1.00  0.00     0.293 HD
ENDBRANCH   6  22
BRANCH   8  24
ATOM     24  O   UNL     1     321.331  88.155  91.166  1.00  0.00    -0.508 OA
ATOM     25  H   UNL     1     320.412  88.534  90.968  1.00  0.00     0.293 HD
ENDBRANCH   8  24
TORSDOF 5
ENDMDL
MODEL 4
REMARK VINA RESULT:    -6.062      3.475      6.361
REMARK INTER + INTRA:          -7.404
REMARK INTER:                  -7.160
REMARK INTRA:                  -0.244
REMARK UNBOUND:                -0.279
REMARK SMILES O=c1c(O)c(-c2ccc(O)cc2)oc2cc(O)cc(O)c12
REMARK SMILES IDX 5 1 3 2 2 3 1 4 21 5 19 6 18 7 16 8 15 9 14 10 13 11 6 12
REMARK SMILES IDX 7 13 8 14 9 15 12 16 11 17 10 18 4 20 20 22 17 24
REMARK H PARENT 10 19 4 21 20 23 17 25
REMARK Flexibility Score: inf
ROOT
ATOM      1  C   UNL     1     324.118  87.325  88.333  1.00  0.00     0.180 A 
ATOM      2  C   UNL     1     324.693  86.275  87.597  1.00  0.00     0.208 A 
ATOM      3  C   UNL     1     325.929  86.481  86.967  1.00  0.00     0.238 A 
ATOM      4  O   UNL     1     326.402  85.562  86.248  1.00  0.00    -0.285 OA
ATOM      5  C   UNL     1     326.605  87.716  87.126  1.00  0.00     0.111 A 
ATOM      6  C   UNL     1     327.884  88.020  86.570  1.00  0.00     0.134 A 
ATOM      7  C   UNL     1     328.408  89.312  86.705  1.00  0.00     0.093 A 
ATOM      8  C   UNL     1     327.729  90.292  87.428  1.00  0.00     0.123 A 
ATOM      9  C   UNL     1     326.503  89.990  88.023  1.00  0.00     0.094 A 
ATOM     10  C   UNL     1     325.938  88.721  87.874  1.00  0.00     0.146 A 
ATOM     11  O   UNL     1     324.760  88.482  88.438  1.00  0.00    -0.452 OA
ENDROOT
BRANCH   1  12
ATOM     12  C   UNL     1     322.811  87.188  89.013  1.00  0.00     0.021 A 
ATOM     13  C   UNL     1     322.684  86.485  90.225  1.00  0.00     0.016 A 
ATOM     14  C   UNL     1     321.432  86.349  90.836  1.00  0.00     0.047 A 
ATOM     15  C   UNL     1     320.295  86.900  90.240  1.00  0.00     0.115 A 
ATOM     16  C   UNL     1     321.659  87.721  88.410  1.00  0.00     0.016 A 
ATOM     17  C   UNL     1     320.409  87.584  89.023  1.00  0.00     0.047 A 
BRANCH  15  18
ATOM     18  O   UNL     1     319.055  86.758  90.860  1.00  0.00    -0.508 OA
ATOM     19  H   UNL     1     318.802  87.311  91.671  1.00  0.00     0.293 HD
ENDBRANCH  15  18
ENDBRANCH   1  12
BRANCH   2  20
ATOM     20  O   UNL     1     324.047  85.038  87.515  1.00  0.00    -0.502 OA
ATOM     21  H   UNL     1     324.291  84.341  86.821  1.00  0.00     0.293 HD
ENDBRANCH   2  20
BRANCH   6  22
ATOM     22  O   UNL     1     328.689  87.091  85.902  1.00  0.00    -0.507 OA
ATOM     23  H   UNL     1     329.695  87.049  85.963  1.00  0.00     0.293 HD
ENDBRANCH   6  22
BRANCH   8  24
ATOM     24  O   UNL     1     328.287  91.562  87.556  1.00  0.00    -0.508 OA
ATOM     25  H   UNL     1     329.273  91.689  87.755  1.00  0.00     0.293 HD
ENDBRANCH   8  24
TORSDOF 5
ENDMDL
MODEL 5
REMARK VINA RESULT:    -5.898      3.888      7.835
REMARK INTER + INTRA:          -7.211
REMARK INTER:                  -7.004
REMARK INTRA:                  -0.208
REMARK UNBOUND:                -0.279
REMARK SMILES O=c1c(O)c(-c2ccc(O)cc2)oc2cc(O)cc(O)c12
REMARK SMILES IDX 5 1 3 2 2 3 1 4 21 5 19 6 18 7 16 8 15 9 14 10 13 11 6 12
REMARK SMILES IDX 7 13 8 14 9 15 12 16 11 17 10 18 4 20 20 22 17 24
REMARK H PARENT 10 19 4 21 20 23 17 25
REMARK Flexibility Score: inf
ROOT
ATOM      1  C   UNL     1     325.572  88.352  87.900  1.00  0.00     0.180 A 
ATOM      2  C   UNL     1     324.956  89.444  88.534  1.00  0.00     0.208 A 
ATOM      3  C   UNL     1     323.768  89.235  89.252  1.00  0.00     0.238 A 
ATOM      4  O   UNL     1     323.183  90.229  89.754  1.00  0.00    -0.285 OA
ATOM      5  C   UNL     1     323.240  87.926  89.376  1.00  0.00     0.111 A 
ATOM      6  C   UNL     1     322.067  87.590  90.117  1.00  0.00     0.134 A 
ATOM      7  C   UNL     1     321.579  86.277  90.081  1.00  0.00     0.093 A 
ATOM      8  C   UNL     1     322.255  85.276  89.384  1.00  0.00     0.123 A 
ATOM      9  C   UNL     1     323.433  85.582  88.701  1.00  0.00     0.094 A 
ATOM     10  C   UNL     1     323.923  86.890  88.687  1.00  0.00     0.146 A 
ATOM     11  O   UNL     1     325.036  87.141  88.006  1.00  0.00    -0.452 OA
ENDROOT
BRANCH   1  12
ATOM     12  C   UNL     1     326.816  88.496  87.113  1.00  0.00     0.021 A 
ATOM     13  C   UNL     1     326.827  89.157  85.870  1.00  0.00     0.016 A 
ATOM     14  C   UNL     1     328.012  89.258  85.134  1.00  0.00     0.047 A 
ATOM     15  C   UNL     1     329.194  88.692  85.619  1.00  0.00     0.115 A 
ATOM     16  C   UNL     1     328.004  87.910  87.584  1.00  0.00     0.016 A 
ATOM     17  C   UNL     1     329.187  88.014  86.845  1.00  0.00     0.047 A 
BRANCH  15  18
ATOM     18  O   UNL     1     330.366  88.801  84.875  1.00  0.00    -0.508 OA
ATOM     19  H   UNL     1     330.394  88.558  83.892  1.00  0.00     0.293 HD
ENDBRANCH  15  18
ENDBRANCH   1  12
BRANCH   2  20
ATOM     20  O   UNL     1     325.533  90.714  88.464  1.00  0.00    -0.502 OA
ATOM     21  H   UNL     1     325.309  91.452  89.122  1.00  0.00     0.293 HD
ENDBRANCH   2  20
BRANCH   6  22
ATOM     22  O   UNL     1     321.362  88.492  90.920  1.00  0.00    -0.507 OA
ATOM     23  H   UNL     1     321.418  89.496  90.846  1.00  0.00     0.293 HD
ENDBRANCH   6  22
BRANCH   8  24
ATOM     24  O   UNL     1     321.750  83.978  89.385  1.00  0.00    -0.508 OA
ATOM     25  H   UNL     1     320.761  83.794  89.509  1.00  0.00     0.293 HD
ENDBRANCH   8  24
TORSDOF 5
ENDMDL
MODEL 6
REMARK VINA RESULT:    -5.867     17.070     19.457
REMARK INTER + INTRA:          -7.175
REMARK INTER:                  -6.973
REMARK INTRA:                  -0.202
REMARK UNBOUND:                -0.279
REMARK SMILES O=c1c(O)c(-c2ccc(O)cc2)oc2cc(O)cc(O)c12
REMARK SMILES IDX 5 1 3 2 2 3 1 4 21 5 19 6 18 7 16 8 15 9 14 10 13 11 6 12
REMARK SMILES IDX 7 13 8 14 9 15 12 16 11 17 10 18 4 20 20 22 17 24
REMARK H PARENT 10 19 4 21 20 23 17 25
REMARK Flexibility Score: inf
ROOT
ATOM      1  C   UNL     1     318.112  85.053  99.920  1.00  0.00     0.180 A 
ATOM      2  C   UNL     1     317.946  85.130  98.527  1.00  0.00     0.208 A 
ATOM      3  C   UNL     1     317.724  83.951  97.799  1.00  0.00     0.238 A 
ATOM      4  O   UNL     1     317.651  84.020  96.545  1.00  0.00    -0.285 OA
ATOM      5  C   UNL     1     317.613  82.713  98.480  1.00  0.00     0.111 A 
ATOM      6  C   UNL     1     317.344  81.461  97.850  1.00  0.00     0.134 A 
ATOM      7  C   UNL     1     317.362  80.285  98.612  1.00  0.00     0.093 A 
ATOM      8  C   UNL     1     317.577  80.323  99.988  1.00  0.00     0.123 A 
ATOM      9  C   UNL     1     317.786  81.548 100.624  1.00  0.00     0.094 A 
ATOM     10  C   UNL     1     317.812  82.733  99.885  1.00  0.00     0.146 A 
ATOM     11  O   UNL     1     318.036  83.874 100.526  1.00  0.00    -0.452 OA
ENDROOT
BRANCH   1  12
ATOM     12  C   UNL     1     318.365  86.249 100.752  1.00  0.00     0.021 A 
ATOM     13  C   UNL     1     319.589  86.942 100.689  1.00  0.00     0.016 A 
ATOM     14  C   UNL     1     319.812  88.057 101.505  1.00  0.00     0.047 A 
ATOM     15  C   UNL     1     318.827  88.484 102.399  1.00  0.00     0.115 A 
ATOM     16  C   UNL     1     317.388  86.673 101.670  1.00  0.00     0.016 A 
ATOM     17  C   UNL     1     317.615  87.787 102.483  1.00  0.00     0.047 A 
BRANCH  15  18
ATOM     18  O   UNL     1     319.064  89.596 103.204  1.00  0.00    -0.508 OA
ATOM     19  H   UNL     1     319.444  89.502 104.139  1.00  0.00     0.293 HD
ENDBRANCH  15  18
ENDBRANCH   1  12
BRANCH   2  20
ATOM     20  O   UNL     1     317.983  86.370  97.883  1.00  0.00    -0.502 OA
ATOM     21  H   UNL     1     317.645  87.220  98.318  1.00  0.00     0.293 HD
ENDBRANCH   2  20
BRANCH   6  22
ATOM     22  O   UNL     1     317.030  81.317  96.494  1.00  0.00    -0.507 OA
ATOM     23  H   UNL     1     316.853  82.080  95.858  1.00  0.00     0.293 HD
ENDBRANCH   6  22
BRANCH   8  24
ATOM     24  O   UNL     1     317.571  79.136 100.717  1.00  0.00    -0.508 OA
ATOM     25  H   UNL     1     318.093  79.042 101.580  1.00  0.00     0.293 HD
ENDBRANCH   8  24
TORSDOF 5
ENDMDL
MODEL 7
REMARK VINA RESULT:    -5.830      4.242      7.115
REMARK INTER + INTRA:          -7.132
REMARK INTER:                  -6.872
REMARK INTRA:                  -0.260
REMARK UNBOUND:                -0.279
REMARK SMILES O=c1c(O)c(-c2ccc(O)cc2)oc2cc(O)cc(O)c12
REMARK SMILES IDX 5 1 3 2 2 3 1 4 21 5 19 6 18 7 16 8 15 9 14 10 13 11 6 12
REMARK SMILES IDX 7 13 8 14 9 15 12 16 11 17 10 18 4 20 20 22 17 24
REMARK H PARENT 10 19 4 21 20 23 17 25
REMARK Flexibility Score: inf
ROOT
ATOM      1  C   UNL     1     322.886  87.758  88.952  1.00  0.00     0.180 A 
ATOM      2  C   UNL     1     323.262  89.041  89.384  1.00  0.00     0.208 A 
ATOM      3  C   UNL     1     324.406  89.639  88.833  1.00  0.00     0.238 A 
ATOM      4  O   UNL     1     324.778  90.755  89.278  1.00  0.00    -0.285 OA
ATOM      5  C   UNL     1     325.129  88.970  87.815  1.00  0.00     0.111 A 
ATOM      6  C   UNL     1     326.278  89.500  87.153  1.00  0.00     0.134 A 
ATOM      7  C   UNL     1     326.976  88.704  86.235  1.00  0.00     0.093 A 
ATOM      8  C   UNL     1     326.532  87.423  85.909  1.00  0.00     0.123 A 
ATOM      9  C   UNL     1     325.379  86.916  86.510  1.00  0.00     0.094 A 
ATOM     10  C   UNL     1     324.683  87.671  87.457  1.00  0.00     0.146 A 
ATOM     11  O   UNL     1     323.603  87.142  88.019  1.00  0.00    -0.452 OA
ENDROOT
BRANCH   1  12
ATOM     12  C   UNL     1     321.702  87.057  89.497  1.00  0.00     0.021 A 
ATOM     13  C   UNL     1     320.401  87.366  89.060  1.00  0.00     0.016 A 
ATOM     14  C   UNL     1     319.296  86.707  89.608  1.00  0.00     0.047 A 
ATOM     15  C   UNL     1     319.474  85.743  90.605  1.00  0.00     0.115 A 
ATOM     16  C   UNL     1     321.871  86.102  90.515  1.00  0.00     0.016 A 
ATOM     17  C   UNL     1     320.764  85.445  91.060  1.00  0.00     0.047 A 
BRANCH  15  18
ATOM     18  O   UNL     1     318.364  85.094  91.141  1.00  0.00    -0.508 OA
ATOM     19  H   UNL     1     318.341  84.796  92.109  1.00  0.00     0.293 HD
ENDBRANCH  15  18
ENDBRANCH   1  12
BRANCH   2  20
ATOM     20  O   UNL     1     322.491  89.716  90.335  1.00  0.00    -0.502 OA
ATOM     21  H   UNL     1     322.871  90.447  90.924  1.00  0.00     0.293 HD
ENDBRANCH   2  20
BRANCH   6  22
ATOM     22  O   UNL     1     326.759  90.801  87.338  1.00  0.00    -0.507 OA
ATOM     23  H   UNL     1     327.613  91.037  87.819  1.00  0.00     0.293 HD
ENDBRANCH   6  22
BRANCH   8  24
ATOM     24  O   UNL     1     327.242  86.666  84.980  1.00  0.00    -0.508 OA
ATOM     25  H   UNL     1     327.022  85.692  84.812  1.00  0.00     0.293 HD
ENDBRANCH   8  24
TORSDOF 5
ENDMDL
MODEL 8
REMARK VINA RESULT:    -5.777     19.268     21.490
REMARK INTER + INTRA:          -7.070
REMARK INTER:                  -6.791
REMARK INTRA:                  -0.279
REMARK UNBOUND:                -0.279
REMARK SMILES O=c1c(O)c(-c2ccc(O)cc2)oc2cc(O)cc(O)c12
REMARK SMILES IDX 5 1 3 2 2 3 1 4 21 5 19 6 18 7 16 8 15 9 14 10 13 11 6 12
REMARK SMILES IDX 7 13 8 14 9 15 12 16 11 17 10 18 4 20 20 22 17 24
REMARK H PARENT 10 19 4 21 20 23 17 25
REMARK Flexibility Score: inf
ROOT
ATOM      1  C   UNL     1     318.045  83.164 102.449  1.00  0.00     0.180 A 
ATOM      2  C   UNL     1     318.342  81.967 103.122  1.00  0.00     0.208 A 
ATOM      3  C   UNL     1     318.295  80.756 102.414  1.00  0.00     0.238 A 
ATOM      4  O   UNL     1     318.489  79.682 103.040  1.00  0.00    -0.285 OA
ATOM      5  C   UNL     1     318.006  80.762 101.027  1.00  0.00     0.111 A 
ATOM      6  C   UNL     1     317.976  79.599 100.198  1.00  0.00     0.134 A 
ATOM      7  C   UNL     1     317.574  79.713  98.861  1.00  0.00     0.093 A 
ATOM      8  C   UNL     1     317.263  80.953  98.306  1.00  0.00     0.123 A 
ATOM      9  C   UNL     1     317.342  82.104  99.092  1.00  0.00     0.094 A 
ATOM     10  C   UNL     1     317.703  82.017 100.438  1.00  0.00     0.146 A 
ATOM     11  O   UNL     1     317.746  83.134 101.155  1.00  0.00    -0.452 OA
ENDROOT
BRANCH   1  12
ATOM     12  C   UNL     1     318.059  84.477 103.131  1.00  0.00     0.021 A 
ATOM     13  C   UNL     1     316.875  85.068 103.609  1.00  0.00     0.016 A 
ATOM     14  C   UNL     1     316.912  86.322 104.229  1.00  0.00     0.047 A 
ATOM     15  C   UNL     1     318.123  87.005 104.366  1.00  0.00     0.115 A 
ATOM     16  C   UNL     1     319.270  85.180 103.253  1.00  0.00     0.016 A 
ATOM     17  C   UNL     1     319.303  86.432 103.873  1.00  0.00     0.047 A 
BRANCH  15  18
ATOM     18  O   UNL     1     318.145  88.252 104.986  1.00  0.00    -0.508 OA
ATOM     19  H   UNL     1     317.874  88.366 105.956  1.00  0.00     0.293 HD
ENDBRANCH  15  18
ENDBRANCH   1  12
BRANCH   2  20
ATOM     20  O   UNL     1     318.699  81.990 104.473  1.00  0.00    -0.502 OA
ATOM     21  H   UNL     1     318.012  82.020 105.217  1.00  0.00     0.293 HD
ENDBRANCH   2  20
BRANCH   6  22
ATOM     22  O   UNL     1     318.351  78.321 100.627  1.00  0.00    -0.507 OA
ATOM     23  H   UNL     1     318.367  77.498 100.044  1.00  0.00     0.293 HD
ENDBRANCH   6  22
BRANCH   8  24
ATOM     24  O   UNL     1     316.884  81.031  96.968  1.00  0.00    -0.508 OA
ATOM     25  H   UNL     1     316.158  80.435  96.588  1.00  0.00     0.293 HD
ENDBRANCH   8  24
TORSDOF 5
ENDMDL
MODEL 9
REMARK VINA RESULT:    -5.670      4.372      6.462
REMARK INTER + INTRA:          -6.944
REMARK INTER:                  -6.648
REMARK INTRA:                  -0.296
REMARK UNBOUND:                -0.279
REMARK SMILES O=c1c(O)c(-c2ccc(O)cc2)oc2cc(O)cc(O)c12
REMARK SMILES IDX 5 1 3 2 2 3 1 4 21 5 19 6 18 7 16 8 15 9 14 10 13 11 6 12
REMARK SMILES IDX 7 13 8 14 9 15 12 16 11 17 10 18 4 20 20 22 17 24
REMARK H PARENT 10 19 4 21 20 23 17 25
REMARK Flexibility Score: inf
ROOT
ATOM      1  C   UNL     1     323.667  87.791  89.067  1.00  0.00     0.180 A 
ATOM      2  C   UNL     1     324.324  87.531  87.853  1.00  0.00     0.208 A 
ATOM      3  C   UNL     1     325.565  88.138  87.605  1.00  0.00     0.238 A 
ATOM      4  O   UNL     1     326.112  87.960  86.486  1.00  0.00    -0.285 OA
ATOM      5  C   UNL     1     326.161  88.953  88.598  1.00  0.00     0.111 A 
ATOM      6  C   UNL     1     327.437  89.583  88.474  1.00  0.00     0.134 A 
ATOM      7  C   UNL     1     327.878  90.454  89.478  1.00  0.00     0.093 A 
ATOM      8  C   UNL     1     327.122  90.669  90.629  1.00  0.00     0.123 A 
ATOM      9  C   UNL     1     325.898  90.016  90.787  1.00  0.00     0.094 A 
ATOM     10  C   UNL     1     325.414  89.171  89.785  1.00  0.00     0.146 A 
ATOM     11  O   UNL     1     324.235  88.586  89.966  1.00  0.00    -0.452 OA
ENDROOT
BRANCH   1  12
ATOM     12  C   UNL     1     322.350  87.200  89.394  1.00  0.00     0.021 A 
ATOM     13  C   UNL     1     321.149  87.846  89.045  1.00  0.00     0.016 A 
ATOM     14  C   UNL     1     319.917  87.278  89.387  1.00  0.00     0.047 A 
ATOM     15  C   UNL     1     319.868  86.072  90.090  1.00  0.00     0.115 A 
ATOM     16  C   UNL     1     322.292  85.998  90.120  1.00  0.00     0.016 A 
ATOM     17  C   UNL     1     321.059  85.434  90.460  1.00  0.00     0.047 A 
BRANCH  15  18
ATOM     18  O   UNL     1     318.633  85.518  90.424  1.00  0.00    -0.508 OA
ATOM     19  H   UNL     1     317.895  85.420  89.737  1.00  0.00     0.293 HD
ENDBRANCH  15  18
ENDBRANCH   1  12
BRANCH   2  20
ATOM     20  O   UNL     1     323.755  86.662  86.918  1.00  0.00    -0.502 OA
ATOM     21  H   UNL     1     324.286  86.260  86.154  1.00  0.00     0.293 HD
ENDBRANCH   2  20
BRANCH   6  22
ATOM     22  O   UNL     1     328.315  89.371  87.406  1.00  0.00    -0.507 OA
ATOM     23  H   UNL     1     329.320  89.410  87.469  1.00  0.00     0.293 HD
ENDBRANCH   6  22
BRANCH   8  24
ATOM     24  O   UNL     1     327.600  91.529  91.616  1.00  0.00    -0.508 OA
ATOM     25  H   UNL     1     328.380  91.272  92.209  1.00  0.00     0.293 HD
ENDBRANCH   8  24
TORSDOF 5
ENDMDL
