MODEL 1
REMARK VINA RESULT:    -6.016      0.000      0.000
REMARK INTER + INTRA:         -10.686
REMARK INTER:                  -9.181
REMARK INTRA:                  -1.505
REMARK UNBOUND:                -1.505
REMARK SMILES OC[C@H]1O[C@@H](O[C@]2(CO)O[C@H](CO)[C@@H](O)[C@H]2O)[C@@H](O)[C@H](O)[C@@H]1O
REMARK SMILES IDX 6 1 5 2 3 3 22 4 4 5 20 6 18 7 2 8 1 9 23 11 21 13 19 15
REMARK SMILES IDX 7 17 16 18 10 19 14 20 11 21 8 22 9 23 17 25 15 27 12 29
REMARK SMILES IDX 13 30
REMARK H PARENT 1 10 23 12 21 14 19 16 9 24 17 26 15 28 13 31
REMARK Flexibility Score: inf
ROOT
ATOM      1  O   UNL     1     236.357 238.100 240.043  1.00  0.00    -0.313 OA
ENDROOT
BRANCH   1   2
ATOM      2  C   UNL     1     237.556 238.187 239.278  1.00  0.00     0.285 C 
ATOM      3  C   UNL     1     237.650 235.820 239.413  1.00  0.00     0.178 C 
ATOM      4  C   UNL     1     237.777 236.051 240.993  1.00  0.00     0.177 C 
ATOM      5  O   UNL     1     237.785 236.963 238.576  1.00  0.00    -0.341 OA
ATOM      6  C   UNL     1     238.555 237.365 241.433  1.00  0.00     0.179 C 
ATOM      7  C   UNL     1     238.749 238.332 240.253  1.00  0.00     0.202 C 
BRANCH   3   8
ATOM      8  C   UNL     1     236.325 235.098 239.029  1.00  0.00     0.191 C 
BRANCH   8   9
ATOM      9  O   UNL     1     235.432 235.078 240.114  1.00  0.00    -0.394 OA
ATOM     10  H   UNL     1     234.736 235.781 239.985  1.00  0.00     0.210 HD
ENDBRANCH   8   9
ENDBRANCH   3   8
BRANCH   4  11
ATOM     11  O   UNL     1     238.337 234.904 241.585  1.00  0.00    -0.387 OA
ATOM     12  H   UNL     1     238.874 235.229 242.367  1.00  0.00     0.211 HD
ENDBRANCH   4  11
BRANCH   6  13
ATOM     13  O   UNL     1     239.806 237.048 241.982  1.00  0.00    -0.387 OA
ATOM     14  H   UNL     1     239.801 236.063 242.152  1.00  0.00     0.211 HD
ENDBRANCH   6  13
BRANCH   7  15
ATOM     15  O   UNL     1     238.939 239.658 240.677  1.00  0.00    -0.385 OA
ATOM     16  H   UNL     1     239.531 240.116 240.018  1.00  0.00     0.211 HD
ENDBRANCH   7  15
ENDBRANCH   1   2
BRANCH   1  17
ATOM     17  C   UNL     1     235.251 238.922 239.728  1.00  0.00     0.224 C 
ATOM     18  C   UNL     1     234.387 238.055 238.775  1.00  0.00     0.208 C 
ATOM     19  O   UNL     1     234.384 239.192 240.821  1.00  0.00    -0.337 OA
ATOM     20  C   UNL     1     232.983 238.560 238.948  1.00  0.00     0.180 C 
ATOM     21  C   UNL     1     233.094 239.384 240.239  1.00  0.00     0.179 C 
BRANCH  17  22
ATOM     22  C   UNL     1     235.789 240.261 239.155  1.00  0.00     0.225 C 
BRANCH  22  23
ATOM     23  O   UNL     1     236.270 241.084 240.188  1.00  0.00    -0.391 OA
ATOM     24  H   UNL     1     237.254 240.916 240.306  1.00  0.00     0.210 HD
ENDBRANCH  22  23
ENDBRANCH  17  22
BRANCH  18  25
ATOM     25  O   UNL     1     234.828 237.937 237.427  1.00  0.00    -0.385 OA
ATOM     26  H   UNL     1     235.697 238.437 237.373  1.00  0.00     0.211 HD
ENDBRANCH  18  25
BRANCH  20  27
ATOM     27  O   UNL     1     232.581 239.357 237.867  1.00  0.00    -0.387 OA
ATOM     28  H   UNL     1     231.680 239.040 237.580  1.00  0.00     0.211 HD
ENDBRANCH  20  27
BRANCH  21  29
ATOM     29  C   UNL     1     232.006 239.098 241.267  1.00  0.00     0.191 C 
BRANCH  29  30
ATOM     30  O   UNL     1     230.950 238.415 240.636  1.00  0.00    -0.394 OA
ATOM     31  H   UNL     1     231.262 238.179 239.716  1.00  0.00     0.210 HD
ENDBRANCH  29  30
ENDBRANCH  21  29
ENDBRANCH   1  17
TORSDOF 13
ENDMDL
MODEL 2
REMARK VINA RESULT:    -5.992      1.512      2.121
REMARK INTER + INTRA:         -10.649
REMARK INTER:                  -8.923
REMARK INTRA:                  -1.726
REMARK UNBOUND:                -1.505
REMARK SMILES OC[C@H]1O[C@@H](O[C@]2(CO)O[C@H](CO)[C@@H](O)[C@H]2O)[C@@H](O)[C@H](O)[C@@H]1O
REMARK SMILES IDX 6 1 5 2 3 3 22 4 4 5 20 6 18 7 2 8 1 9 23 11 21 13 19 15
REMARK SMILES IDX 7 17 16 18 10 19 14 20 11 21 8 22 9 23 17 25 15 27 12 29
REMARK SMILES IDX 13 30
REMARK H PARENT 1 10 23 12 21 14 19 16 9 24 17 26 15 28 13 31
REMARK Flexibility Score: inf
ROOT
ATOM      1  O   UNL     1     235.368 238.160 239.675  1.00  0.00    -0.313 OA
ENDROOT
BRANCH   1   2
ATOM      2  C   UNL     1     236.580 238.315 238.943  1.00  0.00     0.285 C 
ATOM      3  C   UNL     1     237.072 236.074 239.553  1.00  0.00     0.178 C 
ATOM      4  C   UNL     1     237.054 236.624 241.058  1.00  0.00     0.177 C 
ATOM      5  O   UNL     1     237.061 237.042 238.508  1.00  0.00    -0.341 OA
ATOM      6  C   UNL     1     237.564 238.117 241.249  1.00  0.00     0.179 C 
ATOM      7  C   UNL     1     237.665 238.859 239.905  1.00  0.00     0.202 C 
BRANCH   3   8
ATOM      8  C   UNL     1     235.918 235.065 239.282  1.00  0.00     0.191 C 
BRANCH   8   9
ATOM      9  O   UNL     1     234.757 235.427 239.987  1.00  0.00    -0.394 OA
ATOM     10  H   UNL     1     234.736 234.947 240.862  1.00  0.00     0.210 HD
ENDBRANCH   8   9
ENDBRANCH   3   8
BRANCH   4  11
ATOM     11  O   UNL     1     237.763 235.733 241.884  1.00  0.00    -0.387 OA
ATOM     12  H   UNL     1     238.378 235.222 241.279  1.00  0.00     0.211 HD
ENDBRANCH   4  11
BRANCH   6  13
ATOM     13  O   UNL     1     238.813 238.143 241.887  1.00  0.00    -0.387 OA
ATOM     14  H   UNL     1     239.155 237.204 241.880  1.00  0.00     0.211 HD
ENDBRANCH   6  13
BRANCH   7  15
ATOM     15  O   UNL     1     237.597 240.253 240.060  1.00  0.00    -0.385 OA
ATOM     16  H   UNL     1     237.486 240.663 239.159  1.00  0.00     0.211 HD
ENDBRANCH   7  15
ENDBRANCH   1   2
BRANCH   1  17
ATOM     17  C   UNL     1     234.353 239.141 239.586  1.00  0.00     0.224 C 
ATOM     18  C   UNL     1     233.172 238.548 240.396  1.00  0.00     0.208 C 
ATOM     19  O   UNL     1     234.648 240.360 240.257  1.00  0.00    -0.337 OA
ATOM     20  C   UNL     1     232.391 239.736 240.881  1.00  0.00     0.180 C 
ATOM     21  C   UNL     1     233.380 240.887 240.650  1.00  0.00     0.179 C 
BRANCH  17  22
ATOM     22  C   UNL     1     234.092 239.433 238.084  1.00  0.00     0.225 C 
BRANCH  22  23
ATOM     23  O   UNL     1     232.798 239.025 237.718  1.00  0.00    -0.391 OA
ATOM     24  H   UNL     1     232.834 238.071 237.403  1.00  0.00     0.210 HD
ENDBRANCH  22  23
ENDBRANCH  17  22
BRANCH  18  25
ATOM     25  O   UNL     1     232.400 237.530 239.767  1.00  0.00    -0.385 OA
ATOM     26  H   UNL     1     233.036 237.023 239.178  1.00  0.00     0.211 HD
ENDBRANCH  18  25
BRANCH  20  27
ATOM     27  O   UNL     1     231.213 239.920 240.145  1.00  0.00    -0.387 OA
ATOM     28  H   UNL     1     230.472 240.063 240.797  1.00  0.00     0.211 HD
ENDBRANCH  20  27
BRANCH  21  29
ATOM     29  C   UNL     1     233.548 241.826 241.840  1.00  0.00     0.191 C 
BRANCH  29  30
ATOM     30  O   UNL     1     232.279 242.115 242.374  1.00  0.00    -0.394 OA
ATOM     31  H   UNL     1     232.416 242.377 243.329  1.00  0.00     0.210 HD
ENDBRANCH  29  30
ENDBRANCH  21  29
ENDBRANCH   1  17
TORSDOF 13
ENDMDL
MODEL 3
REMARK VINA RESULT:    -5.902      1.648      2.411
REMARK INTER + INTRA:         -10.512
REMARK INTER:                  -8.923
REMARK INTRA:                  -1.589
REMARK UNBOUND:                -1.505
REMARK SMILES OC[C@H]1O[C@@H](O[C@]2(CO)O[C@H](CO)[C@@H](O)[C@H]2O)[C@@H](O)[C@H](O)[C@@H]1O
REMARK SMILES IDX 6 1 5 2 3 3 22 4 4 5 20 6 18 7 2 8 1 9 23 11 21 13 19 15
REMARK SMILES IDX 7 17 16 18 10 19 14 20 11 21 8 22 9 23 17 25 15 27 12 29
REMARK SMILES IDX 13 30
REMARK H PARENT 1 10 23 12 21 14 19 16 9 24 17 26 15 28 13 31
REMARK Flexibility Score: inf
ROOT
ATOM      1  O   UNL     1     236.406 238.455 239.751  1.00  0.00    -0.313 OA
ENDROOT
BRANCH   1   2
ATOM      2  C   UNL     1     237.690 238.105 239.241  1.00  0.00     0.285 C 
ATOM      3  C   UNL     1     237.174 235.873 239.863  1.00  0.00     0.178 C 
ATOM      4  C   UNL     1     237.115 236.447 241.357  1.00  0.00     0.177 C 
ATOM      5  O   UNL     1     237.711 236.728 238.859  1.00  0.00    -0.341 OA
ATOM      6  C   UNL     1     238.119 237.638 241.674  1.00  0.00     0.179 C 
ATOM      7  C   UNL     1     238.722 238.230 240.389  1.00  0.00     0.202 C 
BRANCH   3   8
ATOM      8  C   UNL     1     235.785 235.372 239.371  1.00  0.00     0.191 C 
BRANCH   8   9
ATOM      9  O   UNL     1     234.745 236.103 239.971  1.00  0.00    -0.394 OA
ATOM     10  H   UNL     1     233.974 236.163 239.341  1.00  0.00     0.210 HD
ENDBRANCH   8   9
ENDBRANCH   3   8
BRANCH   4  11
ATOM     11  O   UNL     1     237.278 235.387 242.268  1.00  0.00    -0.387 OA
ATOM     12  H   UNL     1     238.225 235.441 242.591  1.00  0.00     0.211 HD
ENDBRANCH   4  11
BRANCH   6  13
ATOM     13  O   UNL     1     239.156 237.210 242.517  1.00  0.00    -0.387 OA
ATOM     14  H   UNL     1     238.727 236.678 243.246  1.00  0.00     0.211 HD
ENDBRANCH   6  13
BRANCH   7  15
ATOM     15  O   UNL     1     239.168 239.550 240.569  1.00  0.00    -0.385 OA
ATOM     16  H   UNL     1     238.375 240.153 240.556  1.00  0.00     0.211 HD
ENDBRANCH   7  15
ENDBRANCH   1   2
BRANCH   1  17
ATOM     17  C   UNL     1     235.569 239.333 239.025  1.00  0.00     0.224 C 
ATOM     18  C   UNL     1     236.503 239.962 237.958  1.00  0.00     0.208 C 
ATOM     19  O   UNL     1     234.560 238.689 238.257  1.00  0.00    -0.337 OA
ATOM     20  C   UNL     1     235.601 240.338 236.818  1.00  0.00     0.180 C 
ATOM     21  C   UNL     1     234.320 239.558 237.149  1.00  0.00     0.179 C 
BRANCH  17  22
ATOM     22  C   UNL     1     234.903 240.310 240.030  1.00  0.00     0.225 C 
BRANCH  22  23
ATOM     23  O   UNL     1     235.875 240.949 240.819  1.00  0.00    -0.391 OA
ATOM     24  H   UNL     1     236.662 240.334 240.928  1.00  0.00     0.210 HD
ENDBRANCH  22  23
ENDBRANCH  17  22
BRANCH  18  25
ATOM     25  O   UNL     1     237.389 240.987 238.395  1.00  0.00    -0.385 OA
ATOM     26  H   UNL     1     238.248 240.527 238.639  1.00  0.00     0.211 HD
ENDBRANCH  18  25
BRANCH  20  27
ATOM     27  O   UNL     1     235.361 241.719 236.778  1.00  0.00    -0.387 OA
ATOM     28  H   UNL     1     236.036 242.122 236.165  1.00  0.00     0.211 HD
ENDBRANCH  20  27
BRANCH  21  29
ATOM     29  C   UNL     1     233.739 238.771 235.981  1.00  0.00     0.191 C 
BRANCH  29  30
ATOM     30  O   UNL     1     232.526 238.184 236.386  1.00  0.00    -0.394 OA
ATOM     31  H   UNL     1     232.504 238.216 237.384  1.00  0.00     0.210 HD
ENDBRANCH  29  30
ENDBRANCH  21  29
ENDBRANCH   1  17
TORSDOF 13
ENDMDL
MODEL 4
REMARK VINA RESULT:    -5.793      1.681      2.681
REMARK INTER + INTRA:         -10.347
REMARK INTER:                  -8.242
REMARK INTRA:                  -2.105
REMARK UNBOUND:                -1.505
REMARK SMILES OC[C@H]1O[C@@H](O[C@]2(CO)O[C@H](CO)[C@@H](O)[C@H]2O)[C@@H](O)[C@H](O)[C@@H]1O
REMARK SMILES IDX 6 1 5 2 3 3 22 4 4 5 20 6 18 7 2 8 1 9 23 11 21 13 19 15
REMARK SMILES IDX 7 17 16 18 10 19 14 20 11 21 8 22 9 23 17 25 15 27 12 29
REMARK SMILES IDX 13 30
REMARK H PARENT 1 10 23 12 21 14 19 16 9 24 17 26 15 28 13 31
REMARK Flexibility Score: inf
ROOT
ATOM      1  O   UNL     1     235.423 238.327 238.983  1.00  0.00    -0.313 OA
ENDROOT
BRANCH   1   2
ATOM      2  C   UNL     1     236.828 238.194 239.178  1.00  0.00     0.285 C 
ATOM      3  C   UNL     1     236.665 236.165 237.957  1.00  0.00     0.178 C 
ATOM      4  C   UNL     1     235.715 235.681 239.152  1.00  0.00     0.177 C 
ATOM      5  O   UNL     1     237.394 237.372 238.155  1.00  0.00    -0.341 OA
ATOM      6  C   UNL     1     236.074 236.254 240.590  1.00  0.00     0.179 C 
ATOM      7  C   UNL     1     237.067 237.426 240.502  1.00  0.00     0.202 C 
BRANCH   3   8
ATOM      8  C   UNL     1     235.898 236.285 236.608  1.00  0.00     0.191 C 
BRANCH   8   9
ATOM      9  O   UNL     1     234.672 236.950 236.784  1.00  0.00    -0.394 OA
ATOM     10  H   UNL     1     234.539 237.151 237.753  1.00  0.00     0.210 HD
ENDBRANCH   8   9
ENDBRANCH   3   8
BRANCH   4  11
ATOM     11  O   UNL     1     235.663 234.274 239.162  1.00  0.00    -0.387 OA
ATOM     12  H   UNL     1     236.569 233.961 238.870  1.00  0.00     0.211 HD
ENDBRANCH   4  11
BRANCH   6  13
ATOM     13  O   UNL     1     236.614 235.252 241.410  1.00  0.00    -0.387 OA
ATOM     14  H   UNL     1     236.626 235.621 242.339  1.00  0.00     0.211 HD
ENDBRANCH   6  13
BRANCH   7  15
ATOM     15  O   UNL     1     237.004 238.263 241.628  1.00  0.00    -0.385 OA
ATOM     16  H   UNL     1     237.136 239.204 241.327  1.00  0.00     0.211 HD
ENDBRANCH   7  15
ENDBRANCH   1   2
BRANCH   1  17
ATOM     17  C   UNL     1     234.789 239.571 239.209  1.00  0.00     0.224 C 
ATOM     18  C   UNL     1     233.302 239.205 239.452  1.00  0.00     0.208 C 
ATOM     19  O   UNL     1     235.180 240.224 240.410  1.00  0.00    -0.337 OA
ATOM     20  C   UNL     1     232.760 240.313 240.310  1.00  0.00     0.180 C 
ATOM     21  C   UNL     1     234.044 240.996 240.802  1.00  0.00     0.179 C 
BRANCH  17  22
ATOM     22  C   UNL     1     235.091 240.495 237.999  1.00  0.00     0.225 C 
BRANCH  22  23
ATOM     23  O   UNL     1     234.742 239.864 236.793  1.00  0.00    -0.391 OA
ATOM     24  H   UNL     1     234.095 239.121 236.990  1.00  0.00     0.210 HD
ENDBRANCH  22  23
ENDBRANCH  17  22
BRANCH  18  25
ATOM     25  O   UNL     1     232.518 238.885 238.307  1.00  0.00    -0.385 OA
ATOM     26  H   UNL     1     233.169 238.713 237.563  1.00  0.00     0.211 HD
ENDBRANCH  18  25
BRANCH  20  27
ATOM     27  O   UNL     1     231.961 241.198 239.573  1.00  0.00    -0.387 OA
ATOM     28  H   UNL     1     231.075 240.761 239.439  1.00  0.00     0.211 HD
ENDBRANCH  20  27
BRANCH  21  29
ATOM     29  C   UNL     1     234.083 241.262 242.303  1.00  0.00     0.191 C 
BRANCH  29  30
ATOM     30  O   UNL     1     235.183 240.581 242.857  1.00  0.00    -0.394 OA
ATOM     31  H   UNL     1     235.459 239.883 242.197  1.00  0.00     0.210 HD
ENDBRANCH  29  30
ENDBRANCH  21  29
ENDBRANCH   1  17
TORSDOF 13
ENDMDL
MODEL 5
REMARK VINA RESULT:    -5.683      1.521      5.682
REMARK INTER + INTRA:         -10.179
REMARK INTER:                  -8.619
REMARK INTRA:                  -1.560
REMARK UNBOUND:                -1.505
REMARK SMILES OC[C@H]1O[C@@H](O[C@]2(CO)O[C@H](CO)[C@@H](O)[C@H]2O)[C@@H](O)[C@H](O)[C@@H]1O
REMARK SMILES IDX 6 1 5 2 3 3 22 4 4 5 20 6 18 7 2 8 1 9 23 11 21 13 19 15
REMARK SMILES IDX 7 17 16 18 10 19 14 20 11 21 8 22 9 23 17 25 15 27 12 29
REMARK SMILES IDX 13 30
REMARK H PARENT 1 10 23 12 21 14 19 16 9 24 17 26 15 28 13 31
REMARK Flexibility Score: inf
ROOT
ATOM      1  O   UNL     1     235.917 238.346 239.088  1.00  0.00    -0.313 OA
ENDROOT
BRANCH   1   2
ATOM      2  C   UNL     1     235.949 239.270 238.004  1.00  0.00     0.285 C 
ATOM      3  C   UNL     1     234.201 240.425 239.120  1.00  0.00     0.178 C 
ATOM      4  C   UNL     1     233.359 239.079 238.904  1.00  0.00     0.177 C 
ATOM      5  O   UNL     1     235.436 240.537 238.420  1.00  0.00    -0.341 OA
ATOM      6  C   UNL     1     233.681 238.274 237.572  1.00  0.00     0.179 C 
ATOM      7  C   UNL     1     234.977 238.771 236.908  1.00  0.00     0.202 C 
BRANCH   3   8
ATOM      8  C   UNL     1     234.476 240.712 240.625  1.00  0.00     0.191 C 
BRANCH   8   9
ATOM      9  O   UNL     1     235.825 241.047 240.835  1.00  0.00    -0.394 OA
ATOM     10  H   UNL     1     235.896 242.019 241.050  1.00  0.00     0.210 HD
ENDBRANCH   8   9
ENDBRANCH   3   8
BRANCH   4  11
ATOM     11  O   UNL     1     231.986 239.371 239.005  1.00  0.00    -0.387 OA
ATOM     12  H   UNL     1     231.893 240.009 239.772  1.00  0.00     0.211 HD
ENDBRANCH   4  11
BRANCH   6  13
ATOM     13  O   UNL     1     232.624 238.375 236.656  1.00  0.00    -0.387 OA
ATOM     14  H   UNL     1     231.944 237.696 236.932  1.00  0.00     0.211 HD
ENDBRANCH   6  13
BRANCH   7  15
ATOM     15  O   UNL     1     235.556 237.798 236.077  1.00  0.00    -0.385 OA
ATOM     16  H   UNL     1     236.370 237.444 236.530  1.00  0.00     0.211 HD
ENDBRANCH   7  15
ENDBRANCH   1   2
BRANCH   1  17
ATOM     17  C   UNL     1     237.122 237.827 239.616  1.00  0.00     0.224 C 
ATOM     18  C   UNL     1     236.810 237.578 241.114  1.00  0.00     0.208 C 
ATOM     19  O   UNL     1     237.479 236.542 239.124  1.00  0.00    -0.337 OA
ATOM     20  C   UNL     1     237.741 236.476 241.532  1.00  0.00     0.180 C 
ATOM     21  C   UNL     1     238.221 235.929 240.180  1.00  0.00     0.179 C 
BRANCH  17  22
ATOM     22  C   UNL     1     238.262 238.833 239.300  1.00  0.00     0.225 C 
BRANCH  22  23
ATOM     23  O   UNL     1     238.522 239.653 240.411  1.00  0.00    -0.391 OA
ATOM     24  H   UNL     1     238.221 239.178 241.244  1.00  0.00     0.210 HD
ENDBRANCH  22  23
ENDBRANCH  17  22
BRANCH  18  25
ATOM     25  O   UNL     1     236.791 238.715 241.971  1.00  0.00    -0.385 OA
ATOM     26  H   UNL     1     237.751 238.921 242.181  1.00  0.00     0.211 HD
ENDBRANCH  18  25
BRANCH  20  27
ATOM     27  O   UNL     1     238.812 236.962 242.295  1.00  0.00    -0.387 OA
ATOM     28  H   UNL     1     239.603 236.386 242.103  1.00  0.00     0.211 HD
ENDBRANCH  20  27
BRANCH  21  29
ATOM     29  C   UNL     1     238.158 234.411 240.053  1.00  0.00     0.191 C 
BRANCH  29  30
ATOM     30  O   UNL     1     236.823 233.996 240.209  1.00  0.00    -0.394 OA
ATOM     31  H   UNL     1     236.836 233.004 240.327  1.00  0.00     0.210 HD
ENDBRANCH  29  30
ENDBRANCH  21  29
ENDBRANCH   1  17
TORSDOF 13
ENDMDL
MODEL 6
REMARK VINA RESULT:    -5.673      8.668     11.179
REMARK INTER + INTRA:         -10.163
REMARK INTER:                  -8.425
REMARK INTRA:                  -1.738
REMARK UNBOUND:                -1.505
REMARK SMILES OC[C@H]1O[C@@H](O[C@]2(CO)O[C@H](CO)[C@@H](O)[C@H]2O)[C@@H](O)[C@H](O)[C@@H]1O
REMARK SMILES IDX 6 1 5 2 3 3 22 4 4 5 20 6 18 7 2 8 1 9 23 11 21 13 19 15
REMARK SMILES IDX 7 17 16 18 10 19 14 20 11 21 8 22 9 23 17 25 15 27 12 29
REMARK SMILES IDX 13 30
REMARK H PARENT 1 10 23 12 21 14 19 16 9 24 17 26 15 28 13 31
REMARK Flexibility Score: inf
ROOT
ATOM      1  O   UNL     1     236.477 236.686 230.035  1.00  0.00    -0.313 OA
ENDROOT
BRANCH   1   2
ATOM      2  C   UNL     1     235.123 236.810 230.462  1.00  0.00     0.285 C 
ATOM      3  C   UNL     1     234.985 238.689 229.018  1.00  0.00     0.178 C 
ATOM      4  C   UNL     1     236.108 239.327 229.964  1.00  0.00     0.177 C 
ATOM      5  O   UNL     1     234.353 237.497 229.472  1.00  0.00    -0.341 OA
ATOM      6  C   UNL     1     236.030 238.914 231.497  1.00  0.00     0.179 C 
ATOM      7  C   UNL     1     235.087 237.718 231.715  1.00  0.00     0.202 C 
BRANCH   3   8
ATOM      8  C   UNL     1     235.509 238.432 227.574  1.00  0.00     0.191 C 
BRANCH   8   9
ATOM      9  O   UNL     1     236.905 238.583 227.512  1.00  0.00    -0.394 OA
ATOM     10  H   UNL     1     237.158 239.483 227.863  1.00  0.00     0.210 HD
ENDBRANCH   8   9
ENDBRANCH   3   8
BRANCH   4  11
ATOM     11  O   UNL     1     236.102 240.726 229.812  1.00  0.00    -0.387 OA
ATOM     12  H   UNL     1     235.165 240.974 229.554  1.00  0.00     0.211 HD
ENDBRANCH   4  11
BRANCH   6  13
ATOM     13  O   UNL     1     235.600 239.991 232.286  1.00  0.00    -0.387 OA
ATOM     14  H   UNL     1     234.885 240.457 231.766  1.00  0.00     0.211 HD
ENDBRANCH   6  13
BRANCH   7  15
ATOM     15  O   UNL     1     235.381 237.017 232.896  1.00  0.00    -0.385 OA
ATOM     16  H   UNL     1     234.973 237.508 233.661  1.00  0.00     0.211 HD
ENDBRANCH   7  15
ENDBRANCH   1   2
BRANCH   1  17
ATOM     17  C   UNL     1     237.016 235.412 229.743  1.00  0.00     0.224 C 
ATOM     18  C   UNL     1     237.367 234.816 231.131  1.00  0.00     0.208 C 
ATOM     19  O   UNL     1     236.085 234.486 229.200  1.00  0.00    -0.337 OA
ATOM     20  C   UNL     1     237.299 233.327 230.948  1.00  0.00     0.180 C 
ATOM     21  C   UNL     1     236.551 233.200 229.613  1.00  0.00     0.179 C 
BRANCH  17  22
ATOM     22  C   UNL     1     238.193 235.601 228.748  1.00  0.00     0.225 C 
BRANCH  22  23
ATOM     23  O   UNL     1     238.868 236.807 229.001  1.00  0.00    -0.391 OA
ATOM     24  H   UNL     1     238.201 237.558 229.013  1.00  0.00     0.210 HD
ENDBRANCH  22  23
ENDBRANCH  17  22
BRANCH  18  25
ATOM     25  O   UNL     1     238.548 235.297 231.763  1.00  0.00    -0.385 OA
ATOM     26  H   UNL     1     239.043 234.484 232.084  1.00  0.00     0.211 HD
ENDBRANCH  18  25
BRANCH  20  27
ATOM     27  O   UNL     1     238.576 232.754 230.874  1.00  0.00    -0.387 OA
ATOM     28  H   UNL     1     238.722 232.237 231.714  1.00  0.00     0.211 HD
ENDBRANCH  20  27
BRANCH  21  29
ATOM     29  C   UNL     1     235.398 232.203 229.626  1.00  0.00     0.191 C 
BRANCH  29  30
ATOM     30  O   UNL     1     234.202 232.894 229.893  1.00  0.00    -0.394 OA
ATOM     31  H   UNL     1     234.167 233.672 229.268  1.00  0.00     0.210 HD
ENDBRANCH  29  30
ENDBRANCH  21  29
ENDBRANCH   1  17
TORSDOF 13
ENDMDL
MODEL 7
REMARK VINA RESULT:    -5.602      1.885      3.515
REMARK INTER + INTRA:         -10.055
REMARK INTER:                  -8.445
REMARK INTRA:                  -1.610
REMARK UNBOUND:                -1.505
REMARK SMILES OC[C@H]1O[C@@H](O[C@]2(CO)O[C@H](CO)[C@@H](O)[C@H]2O)[C@@H](O)[C@H](O)[C@@H]1O
REMARK SMILES IDX 6 1 5 2 3 3 22 4 4 5 20 6 18 7 2 8 1 9 23 11 21 13 19 15
REMARK SMILES IDX 7 17 16 18 10 19 14 20 11 21 8 22 9 23 17 25 15 27 12 29
REMARK SMILES IDX 13 30
REMARK H PARENT 1 10 23 12 21 14 19 16 9 24 17 26 15 28 13 31
REMARK Flexibility Score: inf
ROOT
ATOM      1  O   UNL     1     236.828 238.121 239.407  1.00  0.00    -0.313 OA
ENDROOT
BRANCH   1   2
ATOM      2  C   UNL     1     236.616 237.500 240.672  1.00  0.00     0.285 C 
ATOM      3  C   UNL     1     238.971 237.223 240.774  1.00  0.00     0.178 C 
ATOM      4  C   UNL     1     238.784 236.308 239.473  1.00  0.00     0.177 C 
ATOM      5  O   UNL     1     237.793 237.603 241.477  1.00  0.00    -0.341 OA
ATOM      6  C   UNL     1     237.425 235.486 239.403  1.00  0.00     0.179 C 
ATOM      7  C   UNL     1     236.406 235.983 240.442  1.00  0.00     0.202 C 
BRANCH   3   8
ATOM      8  C   UNL     1     239.786 238.515 240.472  1.00  0.00     0.191 C 
BRANCH   8   9
ATOM      9  O   UNL     1     238.976 239.658 240.590  1.00  0.00    -0.394 OA
ATOM     10  H   UNL     1     238.464 239.616 241.445  1.00  0.00     0.210 HD
ENDBRANCH   8   9
ENDBRANCH   3   8
BRANCH   4  11
ATOM     11  O   UNL     1     239.900 235.462 239.337  1.00  0.00    -0.387 OA
ATOM     12  H   UNL     1     239.896 234.865 240.142  1.00  0.00     0.211 HD
ENDBRANCH   4  11
BRANCH   6  13
ATOM     13  O   UNL     1     237.657 234.116 239.601  1.00  0.00    -0.387 OA
ATOM     14  H   UNL     1     237.977 233.753 238.726  1.00  0.00     0.211 HD
ENDBRANCH   6  13
BRANCH   7  15
ATOM     15  O   UNL     1     235.084 235.671 240.083  1.00  0.00    -0.385 OA
ATOM     16  H   UNL     1     234.471 236.250 240.613  1.00  0.00     0.211 HD
ENDBRANCH   7  15
ENDBRANCH   1   2
BRANCH   1  17
ATOM     17  C   UNL     1     235.867 239.018 238.886  1.00  0.00     0.224 C 
ATOM     18  C   UNL     1     236.636 239.821 237.806  1.00  0.00     0.208 C 
ATOM     19  O   UNL     1     234.811 238.399 238.163  1.00  0.00    -0.337 OA
ATOM     20  C   UNL     1     235.589 240.263 236.824  1.00  0.00     0.180 C 
ATOM     21  C   UNL     1     234.399 239.369 237.199  1.00  0.00     0.179 C 
BRANCH  17  22
ATOM     22  C   UNL     1     235.272 239.831 240.067  1.00  0.00     0.225 C 
BRANCH  22  23
ATOM     23  O   UNL     1     236.220 240.737 240.573  1.00  0.00    -0.391 OA
ATOM     24  H   UNL     1     236.418 240.502 241.530  1.00  0.00     0.210 HD
ENDBRANCH  22  23
ENDBRANCH  17  22
BRANCH  18  25
ATOM     25  O   UNL     1     237.512 240.846 238.262  1.00  0.00    -0.385 OA
ATOM     26  H   UNL     1     238.096 241.082 237.480  1.00  0.00     0.211 HD
ENDBRANCH  18  25
BRANCH  20  27
ATOM     27  O   UNL     1     235.275 241.621 236.974  1.00  0.00    -0.387 OA
ATOM     28  H   UNL     1     234.850 241.733 237.869  1.00  0.00     0.211 HD
ENDBRANCH  20  27
BRANCH  21  29
ATOM     29  C   UNL     1     233.727 238.681 236.016  1.00  0.00     0.191 C 
BRANCH  29  30
ATOM     30  O   UNL     1     232.486 238.165 236.434  1.00  0.00    -0.394 OA
ATOM     31  H   UNL     1     232.122 238.795 237.118  1.00  0.00     0.210 HD
ENDBRANCH  29  30
ENDBRANCH  21  29
ENDBRANCH   1  17
TORSDOF 13
ENDMDL
MODEL 8
REMARK VINA RESULT:    -5.561      1.666      5.861
REMARK INTER + INTRA:          -9.992
REMARK INTER:                  -8.122
REMARK INTRA:                  -1.870
REMARK UNBOUND:                -1.505
REMARK SMILES OC[C@H]1O[C@@H](O[C@]2(CO)O[C@H](CO)[C@@H](O)[C@H]2O)[C@@H](O)[C@H](O)[C@@H]1O
REMARK SMILES IDX 6 1 5 2 3 3 22 4 4 5 20 6 18 7 2 8 1 9 23 11 21 13 19 15
REMARK SMILES IDX 7 17 16 18 10 19 14 20 11 21 8 22 9 23 17 25 15 27 12 29
REMARK SMILES IDX 13 30
REMARK H PARENT 1 10 23 12 21 14 19 16 9 24 17 26 15 28 13 31
REMARK Flexibility Score: inf
ROOT
ATOM      1  O   UNL     1     235.840 237.758 239.109  1.00  0.00    -0.313 OA
ENDROOT
BRANCH   1   2
ATOM      2  C   UNL     1     236.098 238.517 237.931  1.00  0.00     0.285 C 
ATOM      3  C   UNL     1     234.801 240.240 238.924  1.00  0.00     0.178 C 
ATOM      4  C   UNL     1     233.599 239.183 238.861  1.00  0.00     0.177 C 
ATOM      5  O   UNL     1     235.989 239.915 238.209  1.00  0.00    -0.341 OA
ATOM      6  C   UNL     1     233.625 238.187 237.622  1.00  0.00     0.179 C 
ATOM      7  C   UNL     1     234.983 238.215 236.900  1.00  0.00     0.202 C 
BRANCH   3   8
ATOM      8  C   UNL     1     235.203 240.586 240.387  1.00  0.00     0.191 C 
BRANCH   8   9
ATOM      9  O   UNL     1     236.599 240.555 240.547  1.00  0.00    -0.394 OA
ATOM     10  H   UNL     1     236.827 240.058 241.382  1.00  0.00     0.210 HD
ENDBRANCH   8   9
ENDBRANCH   3   8
BRANCH   4  11
ATOM     11  O   UNL     1     232.373 239.871 238.936  1.00  0.00    -0.387 OA
ATOM     12  H   UNL     1     232.589 240.840 238.792  1.00  0.00     0.211 HD
ENDBRANCH   4  11
BRANCH   6  13
ATOM     13  O   UNL     1     232.608 238.498 236.707  1.00  0.00    -0.387 OA
ATOM     14  H   UNL     1     232.072 239.236 237.116  1.00  0.00     0.211 HD
ENDBRANCH   6  13
BRANCH   7  15
ATOM     15  O   UNL     1     235.225 237.035 236.177  1.00  0.00    -0.385 OA
ATOM     16  H   UNL     1     236.181 236.783 236.299  1.00  0.00     0.211 HD
ENDBRANCH   7  15
ENDBRANCH   1   2
BRANCH   1  17
ATOM     17  C   UNL     1     236.897 237.092 239.770  1.00  0.00     0.224 C 
ATOM     18  C   UNL     1     237.845 236.645 238.628  1.00  0.00     0.208 C 
ATOM     19  O   UNL     1     237.711 237.931 240.580  1.00  0.00    -0.337 OA
ATOM     20  C   UNL     1     239.206 236.556 239.258  1.00  0.00     0.180 C 
ATOM     21  C   UNL     1     239.001 237.319 240.575  1.00  0.00     0.179 C 
BRANCH  17  22
ATOM     22  C   UNL     1     236.286 235.967 240.648  1.00  0.00     0.225 C 
BRANCH  22  23
ATOM     23  O   UNL     1     235.362 235.207 239.910  1.00  0.00    -0.391 OA
ATOM     24  H   UNL     1     235.661 235.173 238.951  1.00  0.00     0.210 HD
ENDBRANCH  22  23
ENDBRANCH  17  22
BRANCH  18  25
ATOM     25  O   UNL     1     237.453 235.508 237.867  1.00  0.00    -0.385 OA
ATOM     26  H   UNL     1     238.054 234.758 238.158  1.00  0.00     0.211 HD
ENDBRANCH  18  25
BRANCH  20  27
ATOM     27  O   UNL     1     239.585 235.227 239.491  1.00  0.00    -0.387 OA
ATOM     28  H   UNL     1     240.302 235.238 240.184  1.00  0.00     0.211 HD
ENDBRANCH  20  27
BRANCH  21  29
ATOM     29  C   UNL     1     240.075 238.357 240.879  1.00  0.00     0.191 C 
BRANCH  29  30
ATOM     30  O   UNL     1     239.493 239.638 240.845  1.00  0.00    -0.394 OA
ATOM     31  H   UNL     1     238.705 239.585 240.234  1.00  0.00     0.210 HD
ENDBRANCH  29  30
ENDBRANCH  21  29
ENDBRANCH   1  17
TORSDOF 13
ENDMDL
MODEL 9
REMARK VINA RESULT:    -5.485      1.622      5.658
REMARK INTER + INTRA:          -9.877
REMARK INTER:                  -8.558
REMARK INTRA:                  -1.319
REMARK UNBOUND:                -1.505
REMARK SMILES OC[C@H]1O[C@@H](O[C@]2(CO)O[C@H](CO)[C@@H](O)[C@H]2O)[C@@H](O)[C@H](O)[C@@H]1O
REMARK SMILES IDX 6 1 5 2 3 3 22 4 4 5 20 6 18 7 2 8 1 9 23 11 21 13 19 15
REMARK SMILES IDX 7 17 16 18 10 19 14 20 11 21 8 22 9 23 17 25 15 27 12 29
REMARK SMILES IDX 13 30
REMARK H PARENT 1 10 23 12 21 14 19 16 9 24 17 26 15 28 13 31
REMARK Flexibility Score: inf
ROOT
ATOM      1  O   UNL     1     235.880 239.242 240.735  1.00  0.00    -0.313 OA
ENDROOT
BRANCH   1   2
ATOM      2  C   UNL     1     235.711 240.436 239.977  1.00  0.00     0.285 C 
ATOM      3  C   UNL     1     234.111 241.079 241.608  1.00  0.00     0.178 C 
ATOM      4  C   UNL     1     233.298 239.787 241.123  1.00  0.00     0.177 C 
ATOM      5  O   UNL     1     235.219 241.487 240.812  1.00  0.00    -0.341 OA
ATOM      6  C   UNL     1     233.444 239.423 239.582  1.00  0.00     0.179 C 
ATOM      7  C   UNL     1     234.602 240.193 238.924  1.00  0.00     0.202 C 
BRANCH   3   8
ATOM      8  C   UNL     1     234.601 240.947 243.079  1.00  0.00     0.191 C 
BRANCH   8   9
ATOM      9  O   UNL     1     233.533 240.636 243.939  1.00  0.00    -0.394 OA
ATOM     10  H   UNL     1     233.037 241.471 244.169  1.00  0.00     0.210 HD
ENDBRANCH   8   9
ENDBRANCH   3   8
BRANCH   4  11
ATOM     11  O   UNL     1     231.946 239.925 241.489  1.00  0.00    -0.387 OA
ATOM     12  H   UNL     1     231.946 240.207 242.451  1.00  0.00     0.211 HD
ENDBRANCH   4  11
BRANCH   6  13
ATOM     13  O   UNL     1     232.255 239.694 238.888  1.00  0.00    -0.387 OA
ATOM     14  H   UNL     1     231.537 239.161 239.335  1.00  0.00     0.211 HD
ENDBRANCH   6  13
BRANCH   7  15
ATOM     15  O   UNL     1     235.084 239.547 237.774  1.00  0.00    -0.385 OA
ATOM     16  H   UNL     1     234.614 238.673 237.685  1.00  0.00     0.211 HD
ENDBRANCH   7  15
ENDBRANCH   1   2
BRANCH   1  17
ATOM     17  C   UNL     1     236.922 238.340 240.417  1.00  0.00     0.224 C 
ATOM     18  C   UNL     1     237.217 237.608 241.752  1.00  0.00     0.208 C 
ATOM     19  O   UNL     1     236.549 237.294 239.530  1.00  0.00    -0.337 OA
ATOM     20  C   UNL     1     237.777 236.272 241.352  1.00  0.00     0.180 C 
ATOM     21  C   UNL     1     237.399 236.196 239.866  1.00  0.00     0.179 C 
BRANCH  17  22
ATOM     22  C   UNL     1     238.090 239.150 239.794  1.00  0.00     0.225 C 
BRANCH  22  23
ATOM     23  O   UNL     1     239.088 239.400 240.751  1.00  0.00    -0.391 OA
ATOM     24  H   UNL     1     238.872 240.257 241.230  1.00  0.00     0.210 HD
ENDBRANCH  22  23
ENDBRANCH  17  22
BRANCH  18  25
ATOM     25  O   UNL     1     237.975 238.316 242.726  1.00  0.00    -0.385 OA
ATOM     26  H   UNL     1     238.448 239.051 242.231  1.00  0.00     0.211 HD
ENDBRANCH  18  25
BRANCH  20  27
ATOM     27  O   UNL     1     239.167 236.217 241.529  1.00  0.00    -0.387 OA
ATOM     28  H   UNL     1     239.451 237.079 241.941  1.00  0.00     0.211 HD
ENDBRANCH  20  27
BRANCH  21  29
ATOM     29  C   UNL     1     236.751 234.883 239.444  1.00  0.00     0.191 C 
BRANCH  29  30
ATOM     30  O   UNL     1     235.379 234.932 239.751  1.00  0.00    -0.394 OA
ATOM     31  H   UNL     1     235.210 235.810 240.197  1.00  0.00     0.210 HD
ENDBRANCH  29  30
ENDBRANCH  21  29
ENDBRANCH   1  17
TORSDOF 13
ENDMDL
