MODEL 1
REMARK VINA RESULT:    -4.882      0.000      0.000
REMARK INTER + INTRA:         -11.336
REMARK INTER:                  -9.163
REMARK INTRA:                  -2.173
REMARK UNBOUND:                -2.173
REMARK SMILES CCCCCCCCC=CCCCCCCCC(=O)[O-]
REMARK SMILES IDX 10 1 9 2 11 3 12 4 13 5 14 6 15 7 16 8 17 9 18 10 19 11
REMARK SMILES IDX 20 12 8 13 7 14 6 15 5 16 4 17 3 18 2 19 1 20
REMARK H PARENT
REMARK Flexibility Score: inf
ROOT
ATOM      1  C   UNL     1      11.667 -13.292  26.624  1.00  0.00    -0.031 C 
ATOM      2  C   UNL     1      11.951 -12.751  27.819  1.00  0.00    -0.031 C 
ENDROOT
BRANCH   1   3
ATOM      3  C   UNL     1      11.250 -12.443  25.452  1.00  0.00     0.027 C 
BRANCH   3   4
ATOM      4  C   UNL     1      12.355 -11.471  25.001  1.00  0.00     0.004 C 
BRANCH   4   5
ATOM      5  C   UNL     1      13.607 -12.157  24.421  1.00  0.00     0.000 C 
BRANCH   5   6
ATOM      6  C   UNL     1      14.803 -12.124  25.386  1.00  0.00     0.000 C 
BRANCH   6   7
ATOM      7  C   UNL     1      15.194 -13.520  25.904  1.00  0.00     0.000 C 
BRANCH   7   8
ATOM      8  C   UNL     1      14.967 -14.678  24.910  1.00  0.00     0.006 C 
BRANCH   8   9
ATOM      9  C   UNL     1      14.028 -15.782  25.420  1.00  0.00     0.053 C 
BRANCH   9  10
ATOM     10  C   UNL     1      14.761 -17.061  25.689  1.00  0.00     0.041 C 
ATOM     11  O   UNL     1      14.280 -18.160  25.309  1.00  0.00    -0.550 OA
ATOM     12  O   UNL     1      15.959 -17.039  26.391  1.00  0.00    -0.550 OA
ENDBRANCH   9  10
ENDBRANCH   8   9
ENDBRANCH   7   8
ENDBRANCH   6   7
ENDBRANCH   5   6
ENDBRANCH   4   5
ENDBRANCH   3   4
ENDBRANCH   1   3
BRANCH   2  13
ATOM     13  C   UNL     1      12.371 -13.600  28.989  1.00  0.00     0.027 C 
BRANCH  13  14
ATOM     14  C   UNL     1      12.375 -15.098  28.653  1.00  0.00     0.004 C 
BRANCH  14  15
ATOM     15  C   UNL     1      13.605 -15.817  29.226  1.00  0.00     0.000 C 
BRANCH  15  16
ATOM     16  C   UNL     1      13.753 -15.543  30.729  1.00  0.00     0.000 C 
BRANCH  16  17
ATOM     17  C   UNL     1      13.382 -16.757  31.600  1.00  0.00    -0.000 C 
BRANCH  17  18
ATOM     18  C   UNL     1      11.891 -17.138  31.582  1.00  0.00    -0.000 C 
BRANCH  18  19
ATOM     19  C   UNL     1      10.971 -15.979  31.992  1.00  0.00    -0.003 C 
ATOM     20  C   UNL     1       9.822 -16.472  32.868  1.00  0.00     0.004 C 
ENDBRANCH  18  19
ENDBRANCH  17  18
ENDBRANCH  16  17
ENDBRANCH  15  16
ENDBRANCH  14  15
ENDBRANCH  13  14
ENDBRANCH   2  13
TORSDOF 15
ENDMDL
MODEL 2
REMARK VINA RESULT:    -4.867      9.249     11.436
REMARK INTER + INTRA:         -11.309
REMARK INTER:                  -9.984
REMARK INTRA:                  -1.325
REMARK UNBOUND:                -2.173
REMARK SMILES CCCCCCCCC=CCCCCCCCC(=O)[O-]
REMARK SMILES IDX 10 1 9 2 11 3 12 4 13 5 14 6 15 7 16 8 17 9 18 10 19 11
REMARK SMILES IDX 20 12 8 13 7 14 6 15 5 16 4 17 3 18 2 19 1 20
REMARK H PARENT
REMARK Flexibility Score: inf
ROOT
ATOM      1  C   UNL     1       7.407 -20.529  20.748  1.00  0.00    -0.031 C 
ATOM      2  C   UNL     1       6.427 -19.715  20.326  1.00  0.00    -0.031 C 
ENDROOT
BRANCH   1   3
ATOM      3  C   UNL     1       7.246 -22.026  20.744  1.00  0.00     0.027 C 
BRANCH   3   4
ATOM      4  C   UNL     1       8.579 -22.767  20.950  1.00  0.00     0.004 C 
BRANCH   4   5
ATOM      5  C   UNL     1       9.825 -21.956  20.549  1.00  0.00     0.000 C 
BRANCH   5   6
ATOM      6  C   UNL     1      11.099 -22.428  21.270  1.00  0.00     0.000 C 
BRANCH   6   7
ATOM      7  C   UNL     1      10.958 -23.839  21.872  1.00  0.00     0.000 C 
BRANCH   7   8
ATOM      8  C   UNL     1      12.076 -24.250  22.853  1.00  0.00     0.006 C 
BRANCH   8   9
ATOM      9  C   UNL     1      11.677 -25.344  23.854  1.00  0.00     0.053 C 
BRANCH   9  10
ATOM     10  C   UNL     1      12.407 -25.205  25.155  1.00  0.00     0.041 C 
ATOM     11  O   UNL     1      12.297 -24.152  25.835  1.00  0.00    -0.550 OA
ATOM     12  O   UNL     1      13.236 -26.228  25.598  1.00  0.00    -0.550 OA
ENDBRANCH   9  10
ENDBRANCH   8   9
ENDBRANCH   7   8
ENDBRANCH   6   7
ENDBRANCH   5   6
ENDBRANCH   4   5
ENDBRANCH   3   4
ENDBRANCH   1   3
BRANCH   2  13
ATOM     13  C   UNL     1       6.590 -18.219  20.327  1.00  0.00     0.027 C 
BRANCH  13  14
ATOM     14  C   UNL     1       6.995 -17.676  21.705  1.00  0.00     0.004 C 
BRANCH  14  15
ATOM     15  C   UNL     1       6.493 -16.242  21.933  1.00  0.00     0.000 C 
BRANCH  15  16
ATOM     16  C   UNL     1       5.154 -16.008  21.220  1.00  0.00     0.000 C 
BRANCH  16  17
ATOM     17  C   UNL     1       3.941 -16.146  22.159  1.00  0.00    -0.000 C 
BRANCH  17  18
ATOM     18  C   UNL     1       2.732 -16.880  21.554  1.00  0.00    -0.000 C 
BRANCH  18  19
ATOM     19  C   UNL     1       2.936 -17.257  20.080  1.00  0.00    -0.003 C 
ATOM     20  C   UNL     1       2.847 -18.768  19.881  1.00  0.00     0.004 C 
ENDBRANCH  18  19
ENDBRANCH  17  18
ENDBRANCH  16  17
ENDBRANCH  15  16
ENDBRANCH  14  15
ENDBRANCH  13  14
ENDBRANCH   2  13
TORSDOF 15
ENDMDL
MODEL 3
REMARK VINA RESULT:    -4.855      9.281     11.273
REMARK INTER + INTRA:         -11.285
REMARK INTER:                 -10.169
REMARK INTRA:                  -1.116
REMARK UNBOUND:                -2.173
REMARK SMILES CCCCCCCCC=CCCCCCCCC(=O)[O-]
REMARK SMILES IDX 10 1 9 2 11 3 12 4 13 5 14 6 15 7 16 8 17 9 18 10 19 11
REMARK SMILES IDX 20 12 8 13 7 14 6 15 5 16 4 17 3 18 2 19 1 20
REMARK H PARENT
REMARK Flexibility Score: inf
ROOT
ATOM      1  C   UNL     1       7.890 -20.431  21.042  1.00  0.00    -0.031 C 
ATOM      2  C   UNL     1       7.605 -21.731  20.869  1.00  0.00    -0.031 C 
ENDROOT
BRANCH   1   3
ATOM      3  C   UNL     1       6.805 -19.400  21.206  1.00  0.00     0.027 C 
BRANCH   3   4
ATOM      4  C   UNL     1       6.408 -18.740  19.873  1.00  0.00     0.004 C 
BRANCH   4   5
ATOM      5  C   UNL     1       4.890 -18.592  19.664  1.00  0.00     0.000 C 
BRANCH   5   6
ATOM      6  C   UNL     1       4.146 -18.215  20.957  1.00  0.00     0.000 C 
BRANCH   6   7
ATOM      7  C   UNL     1       3.419 -16.861  20.857  1.00  0.00     0.000 C 
BRANCH   7   8
ATOM      8  C   UNL     1       4.104 -15.691  21.594  1.00  0.00     0.006 C 
BRANCH   8   9
ATOM      9  C   UNL     1       5.384 -15.174  20.922  1.00  0.00     0.053 C 
BRANCH   9  10
ATOM     10  C   UNL     1       6.548 -15.166  21.866  1.00  0.00     0.041 C 
ATOM     11  O   UNL     1       6.850 -16.205  22.509  1.00  0.00    -0.550 OA
ATOM     12  O   UNL     1       7.276 -13.999  22.060  1.00  0.00    -0.550 OA
ENDBRANCH   9  10
ENDBRANCH   8   9
ENDBRANCH   7   8
ENDBRANCH   6   7
ENDBRANCH   5   6
ENDBRANCH   4   5
ENDBRANCH   3   4
ENDBRANCH   1   3
BRANCH   2  13
ATOM     13  C   UNL     1       8.690 -22.762  20.709  1.00  0.00     0.027 C 
BRANCH  13  14
ATOM     14  C   UNL     1      10.073 -22.128  20.506  1.00  0.00     0.004 C 
BRANCH  14  15
ATOM     15  C   UNL     1      11.208 -23.153  20.651  1.00  0.00     0.000 C 
BRANCH  15  16
ATOM     16  C   UNL     1      11.326 -23.641  22.102  1.00  0.00     0.000 C 
BRANCH  16  17
ATOM     17  C   UNL     1      12.288 -24.833  22.259  1.00  0.00    -0.000 C 
BRANCH  17  18
ATOM     18  C   UNL     1      12.026 -25.722  23.487  1.00  0.00    -0.000 C 
BRANCH  18  19
ATOM     19  C   UNL     1      11.804 -24.915  24.775  1.00  0.00    -0.003 C 
ATOM     20  C   UNL     1      12.424 -25.620  25.978  1.00  0.00     0.004 C 
ENDBRANCH  18  19
ENDBRANCH  17  18
ENDBRANCH  16  17
ENDBRANCH  15  16
ENDBRANCH  14  15
ENDBRANCH  13  14
ENDBRANCH   2  13
TORSDOF 15
ENDMDL
MODEL 4
REMARK VINA RESULT:    -4.817      3.062      7.057
REMARK INTER + INTRA:         -11.214
REMARK INTER:                  -9.128
REMARK INTRA:                  -2.086
REMARK UNBOUND:                -2.173
REMARK SMILES CCCCCCCCC=CCCCCCCCC(=O)[O-]
REMARK SMILES IDX 10 1 9 2 11 3 12 4 13 5 14 6 15 7 16 8 17 9 18 10 19 11
REMARK SMILES IDX 20 12 8 13 7 14 6 15 5 16 4 17 3 18 2 19 1 20
REMARK H PARENT
REMARK Flexibility Score: inf
ROOT
ATOM      1  C   UNL     1      13.861 -15.983  29.493  1.00  0.00    -0.031 C 
ATOM      2  C   UNL     1      14.788 -15.601  28.601  1.00  0.00    -0.031 C 
ENDROOT
BRANCH   1   3
ATOM      3  C   UNL     1      14.009 -15.688  30.962  1.00  0.00     0.027 C 
BRANCH   3   4
ATOM      4  C   UNL     1      12.703 -15.904  31.745  1.00  0.00     0.004 C 
BRANCH   4   5
ATOM      5  C   UNL     1      11.424 -15.773  30.897  1.00  0.00     0.000 C 
BRANCH   5   6
ATOM      6  C   UNL     1      10.192 -15.389  31.734  1.00  0.00     0.000 C 
BRANCH   6   7
ATOM      7  C   UNL     1       9.940 -16.354  32.907  1.00  0.00     0.000 C 
BRANCH   7   8
ATOM      8  C   UNL     1       9.494 -17.776  32.506  1.00  0.00     0.006 C 
BRANCH   8   9
ATOM      9  C   UNL     1      10.510 -18.880  32.830  1.00  0.00     0.053 C 
BRANCH   9  10
ATOM     10  C   UNL     1      10.215 -20.148  32.088  1.00  0.00     0.041 C 
ATOM     11  O   UNL     1       9.784 -20.105  30.906  1.00  0.00    -0.550 OA
ATOM     12  O   UNL     1      10.385 -21.376  32.715  1.00  0.00    -0.550 OA
ENDBRANCH   9  10
ENDBRANCH   8   9
ENDBRANCH   7   8
ENDBRANCH   6   7
ENDBRANCH   5   6
ENDBRANCH   4   5
ENDBRANCH   3   4
ENDBRANCH   1   3
BRANCH   2  13
ATOM     13  C   UNL     1      14.637 -15.893  27.132  1.00  0.00     0.027 C 
BRANCH  13  14
ATOM     14  C   UNL     1      13.207 -16.310  26.763  1.00  0.00     0.004 C 
BRANCH  14  15
ATOM     15  C   UNL     1      12.415 -15.160  26.122  1.00  0.00     0.000 C 
BRANCH  15  16
ATOM     16  C   UNL     1      11.590 -14.407  27.175  1.00  0.00     0.000 C 
BRANCH  16  17
ATOM     17  C   UNL     1      11.870 -12.893  27.187  1.00  0.00    -0.000 C 
BRANCH  17  18
ATOM     18  C   UNL     1      12.958 -12.443  28.178  1.00  0.00    -0.000 C 
BRANCH  18  19
ATOM     19  C   UNL     1      14.261 -12.018  27.484  1.00  0.00    -0.003 C 
ATOM     20  C   UNL     1      15.458 -12.177  28.418  1.00  0.00     0.004 C 
ENDBRANCH  18  19
ENDBRANCH  17  18
ENDBRANCH  16  17
ENDBRANCH  15  16
ENDBRANCH  14  15
ENDBRANCH  13  14
ENDBRANCH   2  13
TORSDOF 15
ENDMDL
MODEL 5
REMARK VINA RESULT:    -4.806      3.261      7.413
REMARK INTER + INTRA:         -11.195
REMARK INTER:                  -9.736
REMARK INTRA:                  -1.458
REMARK UNBOUND:                -2.173
REMARK SMILES CCCCCCCCC=CCCCCCCCC(=O)[O-]
REMARK SMILES IDX 10 1 9 2 11 3 12 4 13 5 14 6 15 7 16 8 17 9 18 10 19 11
REMARK SMILES IDX 20 12 8 13 7 14 6 15 5 16 4 17 3 18 2 19 1 20
REMARK H PARENT
REMARK Flexibility Score: inf
ROOT
ATOM      1  C   UNL     1      13.970 -15.435  30.648  1.00  0.00    -0.031 C 
ATOM      2  C   UNL     1      13.372 -14.787  29.636  1.00  0.00    -0.031 C 
ENDROOT
BRANCH   1   3
ATOM      3  C   UNL     1      13.211 -16.385  31.535  1.00  0.00     0.027 C 
BRANCH   3   4
ATOM      4  C   UNL     1      11.735 -16.529  31.125  1.00  0.00     0.004 C 
BRANCH   4   5
ATOM      5  C   UNL     1      10.760 -15.661  31.942  1.00  0.00     0.000 C 
BRANCH   5   6
ATOM      6  C   UNL     1       9.744 -16.497  32.737  1.00  0.00     0.000 C 
BRANCH   6   7
ATOM      7  C   UNL     1      10.186 -17.960  32.922  1.00  0.00     0.000 C 
BRANCH   7   8
ATOM      8  C   UNL     1       9.228 -19.017  32.332  1.00  0.00     0.006 C 
BRANCH   8   9
ATOM      9  C   UNL     1       9.829 -19.861  31.198  1.00  0.00     0.053 C 
BRANCH   9  10
ATOM     10  C   UNL     1       9.137 -21.182  31.057  1.00  0.00     0.041 C 
ATOM     11  O   UNL     1       9.793 -22.253  31.139  1.00  0.00    -0.550 OA
ATOM     12  O   UNL     1       7.773 -21.228  30.802  1.00  0.00    -0.550 OA
ENDBRANCH   9  10
ENDBRANCH   8   9
ENDBRANCH   7   8
ENDBRANCH   6   7
ENDBRANCH   5   6
ENDBRANCH   4   5
ENDBRANCH   3   4
ENDBRANCH   1   3
BRANCH   2  13
ATOM     13  C   UNL     1      14.133 -13.840  28.747  1.00  0.00     0.027 C 
BRANCH  13  14
ATOM     14  C   UNL     1      13.245 -12.715  28.197  1.00  0.00     0.004 C 
BRANCH  14  15
ATOM     15  C   UNL     1      11.802 -13.181  27.954  1.00  0.00     0.000 C 
BRANCH  15  16
ATOM     16  C   UNL     1      11.529 -13.369  26.455  1.00  0.00     0.000 C 
BRANCH  16  17
ATOM     17  C   UNL     1      11.489 -14.849  26.033  1.00  0.00    -0.000 C 
BRANCH  17  18
ATOM     18  C   UNL     1      12.805 -15.393  25.449  1.00  0.00    -0.000 C 
BRANCH  18  19
ATOM     19  C   UNL     1      13.096 -16.840  25.873  1.00  0.00    -0.003 C 
ATOM     20  C   UNL     1      14.566 -17.191  25.659  1.00  0.00     0.004 C 
ENDBRANCH  18  19
ENDBRANCH  17  18
ENDBRANCH  16  17
ENDBRANCH  15  16
ENDBRANCH  14  15
ENDBRANCH  13  14
ENDBRANCH   2  13
TORSDOF 15
ENDMDL
MODEL 6
REMARK VINA RESULT:    -4.789      3.407      5.759
REMARK INTER + INTRA:         -11.163
REMARK INTER:                  -9.981
REMARK INTRA:                  -1.182
REMARK UNBOUND:                -2.173
REMARK SMILES CCCCCCCCC=CCCCCCCCC(=O)[O-]
REMARK SMILES IDX 10 1 9 2 11 3 12 4 13 5 14 6 15 7 16 8 17 9 18 10 19 11
REMARK SMILES IDX 20 12 8 13 7 14 6 15 5 16 4 17 3 18 2 19 1 20
REMARK H PARENT
REMARK Flexibility Score: inf
ROOT
ATOM      1  C   UNL     1      12.315 -17.214  31.675  1.00  0.00    -0.031 C 
ATOM      2  C   UNL     1      11.368 -16.325  32.012  1.00  0.00    -0.031 C 
ENDROOT
BRANCH   1   3
ATOM      3  C   UNL     1      13.616 -16.782  31.052  1.00  0.00     0.027 C 
BRANCH   3   4
ATOM      4  C   UNL     1      13.673 -15.268  30.785  1.00  0.00     0.004 C 
BRANCH   4   5
ATOM      5  C   UNL     1      13.434 -14.873  29.316  1.00  0.00     0.000 C 
BRANCH   5   6
ATOM      6  C   UNL     1      12.091 -14.156  29.105  1.00  0.00     0.000 C 
BRANCH   6   7
ATOM      7  C   UNL     1      12.248 -12.764  28.465  1.00  0.00     0.000 C 
BRANCH   7   8
ATOM      8  C   UNL     1      13.310 -12.668  27.350  1.00  0.00     0.006 C 
BRANCH   8   9
ATOM      9  C   UNL     1      12.768 -12.887  25.930  1.00  0.00     0.053 C 
BRANCH   9  10
ATOM     10  C   UNL     1      13.050 -14.272  25.431  1.00  0.00     0.041 C 
ATOM     11  O   UNL     1      14.085 -14.502  24.753  1.00  0.00    -0.550 OA
ATOM     12  O   UNL     1      12.151 -15.299  25.685  1.00  0.00    -0.550 OA
ENDBRANCH   9  10
ENDBRANCH   8   9
ENDBRANCH   7   8
ENDBRANCH   6   7
ENDBRANCH   5   6
ENDBRANCH   4   5
ENDBRANCH   3   4
ENDBRANCH   1   3
BRANCH   2  13
ATOM     13  C   UNL     1      10.068 -16.756  32.637  1.00  0.00     0.027 C 
BRANCH  13  14
ATOM     14  C   UNL     1      10.101 -18.219  33.102  1.00  0.00     0.004 C 
BRANCH  14  15
ATOM     15  C   UNL     1       9.136 -19.104  32.298  1.00  0.00     0.000 C 
BRANCH  15  16
ATOM     16  C   UNL     1       9.874 -20.299  31.677  1.00  0.00     0.000 C 
BRANCH  16  17
ATOM     17  C   UNL     1      10.136 -21.433  32.685  1.00  0.00    -0.000 C 
BRANCH  17  18
ATOM     18  C   UNL     1       9.156 -22.616  32.602  1.00  0.00    -0.000 C 
BRANCH  18  19
ATOM     19  C   UNL     1       9.842 -23.977  32.785  1.00  0.00    -0.003 C 
ATOM     20  C   UNL     1      10.231 -24.583  31.439  1.00  0.00     0.004 C 
ENDBRANCH  18  19
ENDBRANCH  17  18
ENDBRANCH  16  17
ENDBRANCH  15  16
ENDBRANCH  14  15
ENDBRANCH  13  14
ENDBRANCH   2  13
TORSDOF 15
ENDMDL
MODEL 7
REMARK VINA RESULT:    -4.765      8.932     11.189
REMARK INTER + INTRA:         -11.117
REMARK INTER:                 -10.161
REMARK INTRA:                  -0.956
REMARK UNBOUND:                -2.173
REMARK SMILES CCCCCCCCC=CCCCCCCCC(=O)[O-]
REMARK SMILES IDX 10 1 9 2 11 3 12 4 13 5 14 6 15 7 16 8 17 9 18 10 19 11
REMARK SMILES IDX 20 12 8 13 7 14 6 15 5 16 4 17 3 18 2 19 1 20
REMARK H PARENT
REMARK Flexibility Score: inf
ROOT
ATOM      1  C   UNL     1       9.641 -21.373  20.797  1.00  0.00    -0.031 C 
ATOM      2  C   UNL     1       8.480 -22.045  20.821  1.00  0.00    -0.031 C 
ENDROOT
BRANCH   1   3
ATOM      3  C   UNL     1      10.967 -22.084  20.857  1.00  0.00     0.027 C 
BRANCH   3   4
ATOM      4  C   UNL     1      10.857 -23.494  21.464  1.00  0.00     0.004 C 
BRANCH   4   5
ATOM      5  C   UNL     1      12.042 -23.893  22.363  1.00  0.00     0.000 C 
BRANCH   5   6
ATOM      6  C   UNL     1      11.841 -25.260  23.038  1.00  0.00     0.000 C 
BRANCH   6   7
ATOM      7  C   UNL     1      11.573 -25.148  24.551  1.00  0.00     0.000 C 
BRANCH   7   8
ATOM      8  C   UNL     1      12.737 -24.574  25.385  1.00  0.00     0.006 C 
BRANCH   8   9
ATOM      9  C   UNL     1      14.092 -25.255  25.143  1.00  0.00     0.053 C 
BRANCH   9  10
ATOM     10  C   UNL     1      14.425 -26.240  26.222  1.00  0.00     0.041 C 
ATOM     11  O   UNL     1      13.673 -27.227  26.434  1.00  0.00    -0.550 OA
ATOM     12  O   UNL     1      15.548 -26.047  27.016  1.00  0.00    -0.550 OA
ENDBRANCH   9  10
ENDBRANCH   8   9
ENDBRANCH   7   8
ENDBRANCH   6   7
ENDBRANCH   5   6
ENDBRANCH   4   5
ENDBRANCH   3   4
ENDBRANCH   1   3
BRANCH   2  13
ATOM     13  C   UNL     1       7.155 -21.334  20.757  1.00  0.00     0.027 C 
BRANCH  13  14
ATOM     14  C   UNL     1       7.314 -19.809  20.673  1.00  0.00     0.004 C 
BRANCH  14  15
ATOM     15  C   UNL     1       6.427 -19.077  21.692  1.00  0.00     0.000 C 
BRANCH  15  16
ATOM     16  C   UNL     1       7.270 -18.185  22.614  1.00  0.00     0.000 C 
BRANCH  16  17
ATOM     17  C   UNL     1       6.815 -16.714  22.607  1.00  0.00    -0.000 C 
BRANCH  17  18
ATOM     18  C   UNL     1       6.488 -16.142  21.217  1.00  0.00    -0.000 C 
BRANCH  18  19
ATOM     19  C   UNL     1       5.028 -15.683  21.086  1.00  0.00    -0.003 C 
ATOM     20  C   UNL     1       4.477 -15.213  22.429  1.00  0.00     0.004 C 
ENDBRANCH  18  19
ENDBRANCH  17  18
ENDBRANCH  16  17
ENDBRANCH  15  16
ENDBRANCH  14  15
ENDBRANCH  13  14
ENDBRANCH   2  13
TORSDOF 15
ENDMDL
MODEL 8
REMARK VINA RESULT:    -4.749      8.643     11.391
REMARK INTER + INTRA:         -11.087
REMARK INTER:                  -9.887
REMARK INTRA:                  -1.200
REMARK UNBOUND:                -2.173
REMARK SMILES CCCCCCCCC=CCCCCCCCC(=O)[O-]
REMARK SMILES IDX 10 1 9 2 11 3 12 4 13 5 14 6 15 7 16 8 17 9 18 10 19 11
REMARK SMILES IDX 20 12 8 13 7 14 6 15 5 16 4 17 3 18 2 19 1 20
REMARK H PARENT
REMARK Flexibility Score: inf
ROOT
ATOM      1  C   UNL     1      10.915 -23.762  21.860  1.00  0.00    -0.031 C 
ATOM      2  C   UNL     1      10.960 -22.655  21.102  1.00  0.00    -0.031 C 
ENDROOT
BRANCH   1   3
ATOM      3  C   UNL     1      12.129 -24.266  22.594  1.00  0.00     0.027 C 
BRANCH   3   4
ATOM      4  C   UNL     1      11.801 -25.410  23.569  1.00  0.00     0.004 C 
BRANCH   4   5
ATOM      5  C   UNL     1      11.842 -25.010  25.056  1.00  0.00     0.000 C 
BRANCH   5   6
ATOM      6  C   UNL     1      12.819 -25.870  25.875  1.00  0.00     0.000 C 
BRANCH   6   7
ATOM      7  C   UNL     1      14.234 -25.912  25.268  1.00  0.00     0.000 C 
BRANCH   7   8
ATOM      8  C   UNL     1      15.154 -24.737  25.660  1.00  0.00     0.006 C 
BRANCH   8   9
ATOM      9  C   UNL     1      15.380 -23.704  24.547  1.00  0.00     0.053 C 
BRANCH   9  10
ATOM     10  C   UNL     1      14.544 -22.476  24.744  1.00  0.00     0.041 C 
ATOM     11  O   UNL     1      14.373 -21.667  23.795  1.00  0.00    -0.550 OA
ATOM     12  O   UNL     1      13.983 -22.210  25.986  1.00  0.00    -0.550 OA
ENDBRANCH   9  10
ENDBRANCH   8   9
ENDBRANCH   7   8
ENDBRANCH   6   7
ENDBRANCH   5   6
ENDBRANCH   4   5
ENDBRANCH   3   4
ENDBRANCH   1   3
BRANCH   2  13
ATOM     13  C   UNL     1       9.745 -22.150  20.371  1.00  0.00     0.027 C 
BRANCH  13  14
ATOM     14  C   UNL     1       8.443 -22.753  20.916  1.00  0.00     0.004 C 
BRANCH  14  15
ATOM     15  C   UNL     1       7.249 -21.801  20.750  1.00  0.00     0.000 C 
BRANCH  15  16
ATOM     16  C   UNL     1       7.712 -20.338  20.727  1.00  0.00     0.000 C 
BRANCH  16  17
ATOM     17  C   UNL     1       6.554 -19.344  20.517  1.00  0.00    -0.000 C 
BRANCH  17  18
ATOM     18  C   UNL     1       6.927 -17.863  20.707  1.00  0.00    -0.000 C 
BRANCH  18  19
ATOM     19  C   UNL     1       5.994 -17.130  21.681  1.00  0.00    -0.003 C 
ATOM     20  C   UNL     1       5.028 -16.215  20.933  1.00  0.00     0.004 C 
ENDBRANCH  18  19
ENDBRANCH  17  18
ENDBRANCH  16  17
ENDBRANCH  15  16
ENDBRANCH  14  15
ENDBRANCH  13  14
ENDBRANCH   2  13
TORSDOF 15
ENDMDL
MODEL 9
REMARK VINA RESULT:    -4.722      9.232     11.108
REMARK INTER + INTRA:         -11.036
REMARK INTER:                 -10.041
REMARK INTRA:                  -0.995
REMARK UNBOUND:                -2.173
REMARK SMILES CCCCCCCCC=CCCCCCCCC(=O)[O-]
REMARK SMILES IDX 10 1 9 2 11 3 12 4 13 5 14 6 15 7 16 8 17 9 18 10 19 11
REMARK SMILES IDX 20 12 8 13 7 14 6 15 5 16 4 17 3 18 2 19 1 20
REMARK H PARENT
REMARK Flexibility Score: inf
ROOT
ATOM      1  C   UNL     1       8.248 -21.302  20.744  1.00  0.00    -0.031 C 
ATOM      2  C   UNL     1       9.494 -20.805  20.724  1.00  0.00    -0.031 C 
ENDROOT
BRANCH   1   3
ATOM      3  C   UNL     1       7.054 -20.429  21.025  1.00  0.00     0.027 C 
BRANCH   3   4
ATOM      4  C   UNL     1       7.435 -18.954  21.241  1.00  0.00     0.004 C 
BRANCH   4   5
ATOM      5  C   UNL     1       6.807 -18.312  22.492  1.00  0.00     0.000 C 
BRANCH   5   6
ATOM      6  C   UNL     1       6.811 -16.775  22.435  1.00  0.00     0.000 C 
BRANCH   6   7
ATOM      7  C   UNL     1       6.433 -16.225  21.048  1.00  0.00     0.000 C 
BRANCH   7   8
ATOM      8  C   UNL     1       5.203 -15.294  21.022  1.00  0.00     0.006 C 
BRANCH   8   9
ATOM      9  C   UNL     1       4.102 -15.662  22.028  1.00  0.00     0.053 C 
BRANCH   9  10
ATOM     10  C   UNL     1       3.207 -16.745  21.507  1.00  0.00     0.041 C 
ATOM     11  O   UNL     1       3.015 -16.868  20.269  1.00  0.00    -0.550 OA
ATOM     12  O   UNL     1       2.559 -17.597  22.393  1.00  0.00    -0.550 OA
ENDBRANCH   9  10
ENDBRANCH   8   9
ENDBRANCH   7   8
ENDBRANCH   6   7
ENDBRANCH   5   6
ENDBRANCH   4   5
ENDBRANCH   3   4
ENDBRANCH   1   3
BRANCH   2  13
ATOM     13  C   UNL     1      10.687 -21.678  20.440  1.00  0.00     0.027 C 
BRANCH  13  14
ATOM     14  C   UNL     1      10.517 -23.099  20.994  1.00  0.00     0.004 C 
BRANCH  14  15
ATOM     15  C   UNL     1      11.705 -23.526  21.870  1.00  0.00     0.000 C 
BRANCH  15  16
ATOM     16  C   UNL     1      11.298 -24.644  22.840  1.00  0.00     0.000 C 
BRANCH  16  17
ATOM     17  C   UNL     1      12.488 -25.513  23.288  1.00  0.00    -0.000 C 
BRANCH  17  18
ATOM     18  C   UNL     1      12.611 -25.712  24.809  1.00  0.00    -0.000 C 
BRANCH  18  19
ATOM     19  C   UNL     1      12.201 -24.468  25.611  1.00  0.00    -0.003 C 
ATOM     20  C   UNL     1      13.338 -23.451  25.668  1.00  0.00     0.004 C 
ENDBRANCH  18  19
ENDBRANCH  17  18
ENDBRANCH  16  17
ENDBRANCH  15  16
ENDBRANCH  14  15
ENDBRANCH  13  14
ENDBRANCH   2  13
TORSDOF 15
ENDMDL
