MODEL 1
REMARK VINA RESULT:    -2.356      0.000      0.000
REMARK INTER + INTRA:          -6.250
REMARK INTER:                  -4.284
REMARK INTRA:                  -1.966
REMARK UNBOUND:                -1.966
REMARK SMILES CCCCCCCCCCCCCC[C@@H](C)C(=O)[O-]
REMARK SMILES IDX 9 1 10 2 11 3 12 4 13 5 14 6 15 7 16 8 17 9 18 10 19 11 8 12
REMARK SMILES IDX 7 13 6 14 5 15 4 16 3 17 2 18 1 19
REMARK H PARENT
REMARK Flexibility Score: inf
ROOT
ATOM      1  C   UNL     1      -8.792  -5.243   6.709  1.00  0.00     0.000 C 
ENDROOT
BRANCH   1   2
ATOM      2  C   UNL     1      -8.099  -6.560   6.309  1.00  0.00     0.000 C 
BRANCH   2   3
ATOM      3  C   UNL     1      -8.632  -7.816   7.024  1.00  0.00     0.000 C 
BRANCH   3   4
ATOM      4  C   UNL     1      -8.585  -7.762   8.564  1.00  0.00     0.000 C 
BRANCH   4   5
ATOM      5  C   UNL     1      -7.180  -7.897   9.179  1.00  0.00     0.001 C 
BRANCH   5   6
ATOM      6  C   UNL     1      -6.828  -6.734  10.125  1.00  0.00     0.009 C 
BRANCH   6   7
ATOM      7  C   UNL     1      -6.373  -5.469   9.368  1.00  0.00     0.032 C 
ATOM      8  C   UNL     1      -7.182  -4.229   9.773  1.00  0.00     0.014 C 
BRANCH   7   9
ATOM      9  C   UNL     1      -4.912  -5.222   9.623  1.00  0.00     0.044 C 
ATOM     10  O   UNL     1      -4.153  -6.178   9.936  1.00  0.00    -0.550 OA
ATOM     11  O   UNL     1      -4.387  -3.939   9.518  1.00  0.00    -0.550 OA
ENDBRANCH   7   9
ENDBRANCH   6   7
ENDBRANCH   5   6
ENDBRANCH   4   5
ENDBRANCH   3   4
ENDBRANCH   2   3
ENDBRANCH   1   2
BRANCH   1  12
ATOM     12  C   UNL     1     -10.304  -5.218   6.395  1.00  0.00     0.000 C 
BRANCH  12  13
ATOM     13  C   UNL     1     -11.124  -4.527   7.498  1.00  0.00    -0.000 C 
BRANCH  13  14
ATOM     14  C   UNL     1     -10.427  -4.571   8.866  1.00  0.00    -0.000 C 
BRANCH  14  15
ATOM     15  C   UNL     1     -10.700  -3.311   9.708  1.00  0.00    -0.000 C 
BRANCH  15  16
ATOM     16  C   UNL     1     -10.949  -2.064   8.845  1.00  0.00    -0.000 C 
BRANCH  16  17
ATOM     17  C   UNL     1      -9.654  -1.293   8.535  1.00  0.00    -0.000 C 
BRANCH  17  18
ATOM     18  C   UNL     1      -8.750  -1.143   9.769  1.00  0.00    -0.003 C 
ATOM     19  C   UNL     1      -8.071   0.224   9.845  1.00  0.00     0.004 C 
ENDBRANCH  17  18
ENDBRANCH  16  17
ENDBRANCH  15  16
ENDBRANCH  14  15
ENDBRANCH  13  14
ENDBRANCH  12  13
ENDBRANCH   1  12
TORSDOF 14
ENDMDL
MODEL 2
REMARK VINA RESULT:    -2.313     12.381     15.494
REMARK INTER + INTRA:          -6.173
REMARK INTER:                  -5.652
REMARK INTRA:                  -0.521
REMARK UNBOUND:                -1.966
REMARK SMILES CCCCCCCCCCCCCC[C@@H](C)C(=O)[O-]
REMARK SMILES IDX 9 1 10 2 11 3 12 4 13 5 14 6 15 7 16 8 17 9 18 10 19 11 8 12
REMARK SMILES IDX 7 13 6 14 5 15 4 16 3 17 2 18 1 19
REMARK H PARENT
REMARK Flexibility Score: inf
ROOT
ATOM      1  C   UNL     1       7.324  -6.247   5.688  1.00  0.00     0.000 C 
ENDROOT
BRANCH   1   2
ATOM      2  C   UNL     1       8.482  -5.801   4.774  1.00  0.00     0.000 C 
BRANCH   2   3
ATOM      3  C   UNL     1       8.940  -6.855   3.749  1.00  0.00     0.000 C 
BRANCH   3   4
ATOM      4  C   UNL     1       8.871  -8.317   4.237  1.00  0.00     0.000 C 
BRANCH   4   5
ATOM      5  C   UNL     1       7.525  -9.022   3.991  1.00  0.00     0.001 C 
BRANCH   5   6
ATOM      6  C   UNL     1       6.839  -8.563   2.692  1.00  0.00     0.009 C 
BRANCH   6   7
ATOM      7  C   UNL     1       5.385  -9.067   2.577  1.00  0.00     0.032 C 
ATOM      8  C   UNL     1       4.484  -8.492   3.679  1.00  0.00     0.014 C 
BRANCH   7   9
ATOM      9  C   UNL     1       4.826  -8.703   1.230  1.00  0.00     0.044 C 
ATOM     10  O   UNL     1       5.566  -8.722   0.211  1.00  0.00    -0.550 OA
ATOM     11  O   UNL     1       3.490  -8.341   1.098  1.00  0.00    -0.550 OA
ENDBRANCH   7   9
ENDBRANCH   6   7
ENDBRANCH   5   6
ENDBRANCH   4   5
ENDBRANCH   3   4
ENDBRANCH   2   3
ENDBRANCH   1   2
BRANCH   1  12
ATOM     12  C   UNL     1       7.784  -7.040   6.930  1.00  0.00     0.000 C 
BRANCH  12  13
ATOM     13  C   UNL     1       6.603  -7.595   7.746  1.00  0.00    -0.000 C 
BRANCH  13  14
ATOM     14  C   UNL     1       6.767  -7.360   9.256  1.00  0.00    -0.000 C 
BRANCH  14  15
ATOM     15  C   UNL     1       5.432  -7.043   9.953  1.00  0.00    -0.000 C 
BRANCH  15  16
ATOM     16  C   UNL     1       5.018  -5.570   9.801  1.00  0.00    -0.000 C 
BRANCH  16  17
ATOM     17  C   UNL     1       3.532  -5.339  10.125  1.00  0.00    -0.000 C 
BRANCH  17  18
ATOM     18  C   UNL     1       2.939  -4.153   9.348  1.00  0.00    -0.003 C 
ATOM     19  C   UNL     1       3.119  -2.819  10.073  1.00  0.00     0.004 C 
ENDBRANCH  17  18
ENDBRANCH  16  17
ENDBRANCH  15  16
ENDBRANCH  14  15
ENDBRANCH  13  14
ENDBRANCH  12  13
ENDBRANCH   1  12
TORSDOF 14
ENDMDL
MODEL 3
REMARK VINA RESULT:    -1.960      2.074      5.042
REMARK INTER + INTRA:          -5.530
REMARK INTER:                  -3.726
REMARK INTRA:                  -1.804
REMARK UNBOUND:                -1.966
REMARK SMILES CCCCCCCCCCCCCC[C@@H](C)C(=O)[O-]
REMARK SMILES IDX 9 1 10 2 11 3 12 4 13 5 14 6 15 7 16 8 17 9 18 10 19 11 8 12
REMARK SMILES IDX 7 13 6 14 5 15 4 16 3 17 2 18 1 19
REMARK H PARENT
REMARK Flexibility Score: inf
ROOT
ATOM      1  C   UNL     1      -9.656  -5.520   6.756  1.00  0.00     0.000 C 
ENDROOT
BRANCH   1   2
ATOM      2  C   UNL     1     -10.963  -4.734   6.976  1.00  0.00     0.000 C 
BRANCH   2   3
ATOM      3  C   UNL     1     -11.125  -4.128   8.382  1.00  0.00     0.000 C 
BRANCH   3   4
ATOM      4  C   UNL     1     -10.120  -4.638   9.435  1.00  0.00     0.000 C 
BRANCH   4   5
ATOM      5  C   UNL     1      -9.189  -3.561  10.022  1.00  0.00     0.001 C 
BRANCH   5   6
ATOM      6  C   UNL     1      -8.157  -3.043   9.004  1.00  0.00     0.009 C 
BRANCH   6   7
ATOM      7  C   UNL     1      -8.529  -1.660   8.430  1.00  0.00     0.032 C 
ATOM      8  C   UNL     1      -9.789  -1.080   9.089  1.00  0.00     0.014 C 
BRANCH   7   9
ATOM      9  C   UNL     1      -7.380  -0.708   8.615  1.00  0.00     0.044 C 
ATOM     10  O   UNL     1      -6.453  -0.662   7.764  1.00  0.00    -0.550 OA
ATOM     11  O   UNL     1      -7.331   0.127   9.725  1.00  0.00    -0.550 OA
ENDBRANCH   7   9
ENDBRANCH   6   7
ENDBRANCH   5   6
ENDBRANCH   4   5
ENDBRANCH   3   4
ENDBRANCH   2   3
ENDBRANCH   1   2
BRANCH   1  12
ATOM     12  C   UNL     1      -9.870  -6.919   6.136  1.00  0.00     0.000 C 
BRANCH  12  13
ATOM     13  C   UNL     1      -8.745  -7.903   6.500  1.00  0.00    -0.000 C 
BRANCH  13  14
ATOM     14  C   UNL     1      -9.216  -9.010   7.457  1.00  0.00    -0.000 C 
BRANCH  14  15
ATOM     15  C   UNL     1      -9.593  -8.467   8.847  1.00  0.00    -0.000 C 
BRANCH  15  16
ATOM     16  C   UNL     1      -8.721  -9.054   9.969  1.00  0.00    -0.000 C 
BRANCH  16  17
ATOM     17  C   UNL     1      -7.340  -8.381  10.054  1.00  0.00    -0.000 C 
BRANCH  17  18
ATOM     18  C   UNL     1      -7.433  -6.847  10.067  1.00  0.00    -0.003 C 
ATOM     19  C   UNL     1      -6.076  -6.168   9.881  1.00  0.00     0.004 C 
ENDBRANCH  17  18
ENDBRANCH  16  17
ENDBRANCH  15  16
ENDBRANCH  14  15
ENDBRANCH  13  14
ENDBRANCH  12  13
ENDBRANCH   1  12
TORSDOF 14
ENDMDL
MODEL 4
REMARK VINA RESULT:    -1.919     17.251     19.571
REMARK INTER + INTRA:          -5.457
REMARK INTER:                  -4.763
REMARK INTRA:                  -0.694
REMARK UNBOUND:                -1.966
REMARK SMILES CCCCCCCCCCCCCC[C@@H](C)C(=O)[O-]
REMARK SMILES IDX 9 1 10 2 11 3 12 4 13 5 14 6 15 7 16 8 17 9 18 10 19 11 8 12
REMARK SMILES IDX 7 13 6 14 5 15 4 16 3 17 2 18 1 19
REMARK H PARENT
REMARK Flexibility Score: inf
ROOT
ATOM      1  C   UNL     1       8.028  -8.334  -4.124  1.00  0.00     0.000 C 
ENDROOT
BRANCH   1   2
ATOM      2  C   UNL     1       8.934  -9.085  -3.130  1.00  0.00     0.000 C 
BRANCH   2   3
ATOM      3  C   UNL     1       8.653  -8.789  -1.645  1.00  0.00     0.000 C 
BRANCH   3   4
ATOM      4  C   UNL     1       7.162  -8.763  -1.253  1.00  0.00     0.000 C 
BRANCH   4   5
ATOM      5  C   UNL     1       6.868  -9.125   0.214  1.00  0.00     0.001 C 
BRANCH   5   6
ATOM      6  C   UNL     1       5.449  -8.722   0.655  1.00  0.00     0.009 C 
BRANCH   6   7
ATOM      7  C   UNL     1       5.308  -8.627   2.189  1.00  0.00     0.032 C 
ATOM      8  C   UNL     1       6.555  -8.023   2.849  1.00  0.00     0.014 C 
BRANCH   7   9
ATOM      9  C   UNL     1       4.103  -7.798   2.538  1.00  0.00     0.044 C 
ATOM     10  O   UNL     1       4.244  -6.614   2.944  1.00  0.00    -0.550 OA
ATOM     11  O   UNL     1       2.824  -8.331   2.417  1.00  0.00    -0.550 OA
ENDBRANCH   7   9
ENDBRANCH   6   7
ENDBRANCH   5   6
ENDBRANCH   4   5
ENDBRANCH   3   4
ENDBRANCH   2   3
ENDBRANCH   1   2
BRANCH   1  12
ATOM     12  C   UNL     1       8.736  -7.951  -5.442  1.00  0.00     0.000 C 
BRANCH  12  13
ATOM     13  C   UNL     1       7.749  -7.498  -6.532  1.00  0.00    -0.000 C 
BRANCH  13  14
ATOM     14  C   UNL     1       7.112  -6.134  -6.220  1.00  0.00    -0.000 C 
BRANCH  14  15
ATOM     15  C   UNL     1       5.573  -6.189  -6.218  1.00  0.00    -0.000 C 
BRANCH  15  16
ATOM     16  C   UNL     1       5.007  -6.985  -7.405  1.00  0.00    -0.000 C 
BRANCH  16  17
ATOM     17  C   UNL     1       5.046  -6.189  -8.721  1.00  0.00    -0.000 C 
BRANCH  17  18
ATOM     18  C   UNL     1       4.442  -6.969  -9.898  1.00  0.00    -0.003 C 
ATOM     19  C   UNL     1       4.094  -8.413  -9.538  1.00  0.00     0.004 C 
ENDBRANCH  17  18
ENDBRANCH  16  17
ENDBRANCH  15  16
ENDBRANCH  14  15
ENDBRANCH  13  14
ENDBRANCH  12  13
ENDBRANCH   1  12
TORSDOF 14
ENDMDL
MODEL 5
REMARK VINA RESULT:    -1.627     20.912     22.832
REMARK INTER + INTRA:          -4.925
REMARK INTER:                  -3.453
REMARK INTRA:                  -1.472
REMARK UNBOUND:                -1.966
REMARK SMILES CCCCCCCCCCCCCC[C@@H](C)C(=O)[O-]
REMARK SMILES IDX 9 1 10 2 11 3 12 4 13 5 14 6 15 7 16 8 17 9 18 10 19 11 8 12
REMARK SMILES IDX 7 13 6 14 5 15 4 16 3 17 2 18 1 19
REMARK H PARENT
REMARK Flexibility Score: inf
ROOT
ATOM      1  C   UNL     1       5.524  -5.464  -6.408  1.00  0.00     0.000 C 
ENDROOT
BRANCH   1   2
ATOM      2  C   UNL     1       5.169  -6.800  -5.726  1.00  0.00     0.000 C 
BRANCH   2   3
ATOM      3  C   UNL     1       6.379  -7.622  -5.243  1.00  0.00     0.000 C 
BRANCH   3   4
ATOM      4  C   UNL     1       6.854  -8.720  -6.216  1.00  0.00     0.000 C 
BRANCH   4   5
ATOM      5  C   UNL     1       5.926  -8.972  -7.418  1.00  0.00     0.001 C 
BRANCH   5   6
ATOM      6  C   UNL     1       6.517  -8.462  -8.745  1.00  0.00     0.009 C 
BRANCH   6   7
ATOM      7  C   UNL     1       5.430  -8.047  -9.759  1.00  0.00     0.032 C 
ATOM      8  C   UNL     1       4.038  -8.555  -9.357  1.00  0.00     0.014 C 
BRANCH   7   9
ATOM      9  C   UNL     1       5.401  -6.550  -9.888  1.00  0.00     0.044 C 
ATOM     10  O   UNL     1       4.312  -5.926  -9.786  1.00  0.00    -0.550 OA
ATOM     11  O   UNL     1       6.575  -5.842 -10.122  1.00  0.00    -0.550 OA
ENDBRANCH   7   9
ENDBRANCH   6   7
ENDBRANCH   5   6
ENDBRANCH   4   5
ENDBRANCH   3   4
ENDBRANCH   2   3
ENDBRANCH   1   2
BRANCH   1  12
ATOM     12  C   UNL     1       6.543  -4.615  -5.616  1.00  0.00     0.000 C 
BRANCH  12  13
ATOM     13  C   UNL     1       7.994  -4.877  -6.052  1.00  0.00    -0.000 C 
BRANCH  13  14
ATOM     14  C   UNL     1       8.193  -4.717  -7.568  1.00  0.00    -0.000 C 
BRANCH  14  15
ATOM     15  C   UNL     1       9.124  -3.543  -7.920  1.00  0.00    -0.000 C 
BRANCH  15  16
ATOM     16  C   UNL     1       8.968  -3.078  -9.377  1.00  0.00    -0.000 C 
BRANCH  16  17
ATOM     17  C   UNL     1       8.486  -1.620  -9.482  1.00  0.00    -0.000 C 
BRANCH  17  18
ATOM     18  C   UNL     1       6.957  -1.499  -9.401  1.00  0.00    -0.003 C 
ATOM     19  C   UNL     1       6.232  -2.653 -10.095  1.00  0.00     0.004 C 
ENDBRANCH  17  18
ENDBRANCH  16  17
ENDBRANCH  15  16
ENDBRANCH  14  15
ENDBRANCH  13  14
ENDBRANCH  12  13
ENDBRANCH   1  12
TORSDOF 14
ENDMDL
MODEL 6
REMARK VINA RESULT:    -1.603     12.579     15.815
REMARK INTER + INTRA:          -4.881
REMARK INTER:                  -3.676
REMARK INTRA:                  -1.205
REMARK UNBOUND:                -1.966
REMARK SMILES CCCCCCCCCCCCCC[C@@H](C)C(=O)[O-]
REMARK SMILES IDX 9 1 10 2 11 3 12 4 13 5 14 6 15 7 16 8 17 9 18 10 19 11 8 12
REMARK SMILES IDX 7 13 6 14 5 15 4 16 3 17 2 18 1 19
REMARK H PARENT
REMARK Flexibility Score: inf
ROOT
ATOM      1  C   UNL     1       8.004  -6.300   4.957  1.00  0.00     0.000 C 
ENDROOT
BRANCH   1   2
ATOM      2  C   UNL     1       8.699  -7.630   4.610  1.00  0.00     0.000 C 
BRANCH   2   3
ATOM      3  C   UNL     1       7.770  -8.716   4.036  1.00  0.00     0.000 C 
BRANCH   3   4
ATOM      4  C   UNL     1       6.594  -9.121   4.947  1.00  0.00     0.000 C 
BRANCH   4   5
ATOM      5  C   UNL     1       5.283  -8.353   4.698  1.00  0.00     0.001 C 
BRANCH   5   6
ATOM      6  C   UNL     1       5.153  -7.845   3.251  1.00  0.00     0.009 C 
BRANCH   6   7
ATOM      7  C   UNL     1       4.744  -8.959   2.264  1.00  0.00     0.032 C 
ATOM      8  C   UNL     1       3.221  -9.048   2.091  1.00  0.00     0.014 C 
BRANCH   7   9
ATOM      9  C   UNL     1       5.389  -8.716   0.928  1.00  0.00     0.044 C 
ATOM     10  O   UNL     1       4.746  -8.144   0.009  1.00  0.00    -0.550 OA
ATOM     11  O   UNL     1       6.699  -9.122   0.696  1.00  0.00    -0.550 OA
ENDBRANCH   7   9
ENDBRANCH   6   7
ENDBRANCH   5   6
ENDBRANCH   4   5
ENDBRANCH   3   4
ENDBRANCH   2   3
ENDBRANCH   1   2
BRANCH   1  12
ATOM     12  C   UNL     1       8.124  -5.906   6.445  1.00  0.00     0.000 C 
BRANCH  12  13
ATOM     13  C   UNL     1       8.583  -7.077   7.330  1.00  0.00    -0.000 C 
BRANCH  13  14
ATOM     14  C   UNL     1       8.040  -6.982   8.764  1.00  0.00    -0.000 C 
BRANCH  14  15
ATOM     15  C   UNL     1       6.790  -6.088   8.864  1.00  0.00    -0.000 C 
BRANCH  15  16
ATOM     16  C   UNL     1       5.930  -6.408  10.097  1.00  0.00    -0.000 C 
BRANCH  16  17
ATOM     17  C   UNL     1       4.979  -7.594   9.860  1.00  0.00    -0.000 C 
BRANCH  17  18
ATOM     18  C   UNL     1       3.509  -7.230  10.121  1.00  0.00    -0.003 C 
ATOM     19  C   UNL     1       3.262  -5.721  10.121  1.00  0.00     0.004 C 
ENDBRANCH  17  18
ENDBRANCH  16  17
ENDBRANCH  15  16
ENDBRANCH  14  15
ENDBRANCH  13  14
ENDBRANCH  12  13
ENDBRANCH   1  12
TORSDOF 14
ENDMDL
MODEL 7
REMARK VINA RESULT:    -1.138      2.471      6.376
REMARK INTER + INTRA:          -4.035
REMARK INTER:                  -2.709
REMARK INTRA:                  -1.326
REMARK UNBOUND:                -1.966
REMARK SMILES CCCCCCCCCCCCCC[C@@H](C)C(=O)[O-]
REMARK SMILES IDX 9 1 10 2 11 3 12 4 13 5 14 6 15 7 16 8 17 9 18 10 19 11 8 12
REMARK SMILES IDX 7 13 6 14 5 15 4 16 3 17 2 18 1 19
REMARK H PARENT
REMARK Flexibility Score: inf
ROOT
ATOM      1  C   UNL     1      -6.802  -2.121   8.979  1.00  0.00     0.000 C 
ENDROOT
BRANCH   1   2
ATOM      2  C   UNL     1      -7.931  -1.134   8.624  1.00  0.00     0.000 C 
BRANCH   2   3
ATOM      3  C   UNL     1      -8.859  -0.763   9.795  1.00  0.00     0.000 C 
BRANCH   3   4
ATOM      4  C   UNL     1     -10.358  -0.678   9.442  1.00  0.00     0.000 C 
BRANCH   4   5
ATOM      5  C   UNL     1     -10.803  -1.575   8.273  1.00  0.00     0.001 C 
BRANCH   5   6
ATOM      6  C   UNL     1     -10.972  -3.050   8.683  1.00  0.00     0.009 C 
BRANCH   6   7
ATOM      7  C   UNL     1      -9.959  -3.981   7.983  1.00  0.00     0.032 C 
ATOM      8  C   UNL     1     -10.253  -5.463   8.253  1.00  0.00     0.014 C 
BRANCH   7   9
ATOM      9  C   UNL     1      -9.975  -3.726   6.502  1.00  0.00     0.044 C 
ATOM     10  O   UNL     1      -9.070  -3.030   5.969  1.00  0.00    -0.550 OA
ATOM     11  O   UNL     1     -10.987  -4.254   5.708  1.00  0.00    -0.550 OA
ENDBRANCH   7   9
ENDBRANCH   6   7
ENDBRANCH   5   6
ENDBRANCH   4   5
ENDBRANCH   3   4
ENDBRANCH   2   3
ENDBRANCH   1   2
BRANCH   1  12
ATOM     12  C   UNL     1      -7.280  -3.346   9.788  1.00  0.00     0.000 C 
BRANCH  12  13
ATOM     13  C   UNL     1      -6.133  -4.315  10.124  1.00  0.00    -0.000 C 
BRANCH  13  14
ATOM     14  C   UNL     1      -6.027  -5.474   9.121  1.00  0.00    -0.000 C 
BRANCH  14  15
ATOM     15  C   UNL     1      -6.214  -6.850   9.787  1.00  0.00    -0.000 C 
BRANCH  15  16
ATOM     16  C   UNL     1      -7.678  -7.316   9.784  1.00  0.00    -0.000 C 
BRANCH  16  17
ATOM     17  C   UNL     1      -7.825  -8.793   9.376  1.00  0.00    -0.000 C 
BRANCH  17  18
ATOM     18  C   UNL     1      -8.463  -8.959   7.988  1.00  0.00    -0.003 C 
ATOM     19  C   UNL     1      -8.181  -7.778   7.060  1.00  0.00     0.004 C 
ENDBRANCH  17  18
ENDBRANCH  16  17
ENDBRANCH  15  16
ENDBRANCH  14  15
ENDBRANCH  13  14
ENDBRANCH  12  13
ENDBRANCH   1  12
TORSDOF 14
ENDMDL
MODEL 8
REMARK VINA RESULT:    -1.112      1.983      4.358
REMARK INTER + INTRA:          -3.989
REMARK INTER:                  -3.682
REMARK INTRA:                  -0.307
REMARK UNBOUND:                -1.966
REMARK SMILES CCCCCCCCCCCCCC[C@@H](C)C(=O)[O-]
REMARK SMILES IDX 9 1 10 2 11 3 12 4 13 5 14 6 15 7 16 8 17 9 18 10 19 11 8 12
REMARK SMILES IDX 7 13 6 14 5 15 4 16 3 17 2 18 1 19
REMARK H PARENT
REMARK Flexibility Score: inf
ROOT
ATOM      1  C   UNL     1     -10.563  -3.039   7.573  1.00  0.00     0.000 C 
ENDROOT
BRANCH   1   2
ATOM      2  C   UNL     1     -10.802  -4.556   7.692  1.00  0.00     0.000 C 
BRANCH   2   3
ATOM      3  C   UNL     1     -10.100  -5.409   6.619  1.00  0.00     0.000 C 
BRANCH   3   4
ATOM      4  C   UNL     1     -10.787  -6.750   6.295  1.00  0.00     0.000 C 
BRANCH   4   5
ATOM      5  C   UNL     1     -10.899  -7.728   7.479  1.00  0.00     0.001 C 
BRANCH   5   6
ATOM      6  C   UNL     1     -10.108  -9.029   7.257  1.00  0.00     0.009 C 
BRANCH   6   7
ATOM      7  C   UNL     1      -8.612  -8.883   7.606  1.00  0.00     0.032 C 
ATOM      8  C   UNL     1      -7.891  -7.902   6.670  1.00  0.00     0.014 C 
BRANCH   7   9
ATOM      9  C   UNL     1      -8.466  -8.419   9.029  1.00  0.00     0.044 C 
ATOM     10  O   UNL     1      -7.414  -8.673   9.673  1.00  0.00    -0.550 OA
ATOM     11  O   UNL     1      -9.491  -7.710   9.646  1.00  0.00    -0.550 OA
ENDBRANCH   7   9
ENDBRANCH   6   7
ENDBRANCH   5   6
ENDBRANCH   4   5
ENDBRANCH   3   4
ENDBRANCH   2   3
ENDBRANCH   1   2
BRANCH   1  12
ATOM     12  C   UNL     1      -9.083  -2.659   7.349  1.00  0.00     0.000 C 
BRANCH  12  13
ATOM     13  C   UNL     1      -8.753  -1.245   7.857  1.00  0.00    -0.000 C 
BRANCH  13  14
ATOM     14  C   UNL     1      -7.944  -1.262   9.164  1.00  0.00    -0.000 C 
BRANCH  14  15
ATOM     15  C   UNL     1      -8.226  -2.512  10.017  1.00  0.00    -0.000 C 
BRANCH  15  16
ATOM     16  C   UNL     1      -7.008  -3.443  10.125  1.00  0.00    -0.000 C 
BRANCH  16  17
ATOM     17  C   UNL     1      -7.304  -4.863   9.610  1.00  0.00    -0.000 C 
BRANCH  17  18
ATOM     18  C   UNL     1      -6.086  -5.508   8.931  1.00  0.00    -0.003 C 
ATOM     19  C   UNL     1      -4.768  -5.169   9.629  1.00  0.00     0.004 C 
ENDBRANCH  17  18
ENDBRANCH  16  17
ENDBRANCH  15  16
ENDBRANCH  14  15
ENDBRANCH  13  14
ENDBRANCH  12  13
ENDBRANCH   1  12
TORSDOF 14
ENDMDL
