MODEL 1
REMARK VINA RESULT:    -7.476      0.000      0.000
REMARK INTER + INTRA:          -9.105
REMARK INTER:                  -8.788
REMARK INTRA:                  -0.317
REMARK UNBOUND:                -0.317
REMARK SMILES O=c1c(O)c(-c2ccc(O)c(O)c2)oc2cc(O)ccc12
REMARK SMILES IDX 5 1 3 2 2 3 1 4 21 5 15 6 14 7 16 8 17 9 19 10 20 11 6 12
REMARK SMILES IDX 7 13 8 14 9 15 13 16 11 17 10 18 12 20 4 22 18 24
REMARK H PARENT 10 19 12 21 4 23 18 25
REMARK Flexibility Score: inf
ROOT
ATOM      1  C   UNL     1      -9.646 -16.175 -15.511  1.00  0.00     0.180 A 
ATOM      2  C   UNL     1     -10.640 -16.424 -16.481  1.00  0.00     0.208 A 
ATOM      3  C   UNL     1     -11.433 -17.575 -16.358  1.00  0.00     0.235 A 
ATOM      4  O   UNL     1     -12.320 -17.826 -17.219  1.00  0.00    -0.285 OA
ATOM      5  C   UNL     1     -11.234 -18.437 -15.267  1.00  0.00     0.069 A 
ATOM      6  C   UNL     1     -10.235 -18.106 -14.327  1.00  0.00     0.142 A 
ATOM      7  O   UNL     1      -9.500 -17.011 -14.485  1.00  0.00    -0.452 OA
ATOM      8  C   UNL     1     -10.013 -18.934 -13.221  1.00  0.00     0.094 A 
ATOM      9  C   UNL     1     -10.775 -20.093 -13.043  1.00  0.00     0.119 A 
ATOM     10  C   UNL     1     -11.766 -20.426 -13.976  1.00  0.00     0.047 A 
ATOM     11  C   UNL     1     -11.997 -19.604 -15.084  1.00  0.00     0.020 A 
ENDROOT
BRANCH   1  12
ATOM     12  C   UNL     1      -8.758 -14.993 -15.582  1.00  0.00     0.025 A 
ATOM     13  C   UNL     1      -7.556 -15.076 -16.302  1.00  0.00     0.016 A 
ATOM     14  C   UNL     1      -6.711 -13.967 -16.399  1.00  0.00     0.051 A 
ATOM     15  C   UNL     1      -7.061 -12.756 -15.795  1.00  0.00     0.157 A 
ATOM     16  C   UNL     1      -9.119 -13.769 -14.992  1.00  0.00     0.062 A 
ATOM     17  C   UNL     1      -8.273 -12.653 -15.091  1.00  0.00     0.158 A 
BRANCH  15  18
ATOM     18  O   UNL     1      -6.198 -11.667 -15.908  1.00  0.00    -0.504 OA
ATOM     19  H   UNL     1      -5.374 -11.571 -15.327  1.00  0.00     0.293 HD
ENDBRANCH  15  18
BRANCH  17  20
ATOM     20  O   UNL     1      -8.635 -11.445 -14.498  1.00  0.00    -0.504 OA
ATOM     21  H   UNL     1      -8.054 -11.004 -13.794  1.00  0.00     0.293 HD
ENDBRANCH  17  20
ENDBRANCH   1  12
BRANCH   2  22
ATOM     22  O   UNL     1     -10.848 -15.522 -17.529  1.00  0.00    -0.502 OA
ATOM     23  H   UNL     1     -10.794 -15.801 -18.501  1.00  0.00     0.293 HD
ENDBRANCH   2  22
BRANCH   9  24
ATOM     24  O   UNL     1     -10.541 -20.906 -11.937  1.00  0.00    -0.508 OA
ATOM     25  H   UNL     1     -10.045 -21.785 -12.021  1.00  0.00     0.293 HD
ENDBRANCH   9  24
TORSDOF 5
ENDMDL
MODEL 2
REMARK VINA RESULT:    -7.102      2.823      3.574
REMARK INTER + INTRA:          -8.665
REMARK INTER:                  -8.605
REMARK INTRA:                  -0.060
REMARK UNBOUND:                -0.317
REMARK SMILES O=c1c(O)c(-c2ccc(O)c(O)c2)oc2cc(O)ccc12
REMARK SMILES IDX 5 1 3 2 2 3 1 4 21 5 15 6 14 7 16 8 17 9 19 10 20 11 6 12
REMARK SMILES IDX 7 13 8 14 9 15 13 16 11 17 10 18 12 20 4 22 18 24
REMARK H PARENT 10 19 12 21 4 23 18 25
REMARK Flexibility Score: inf
ROOT
ATOM      1  C   UNL     1     -11.693 -15.961 -17.253  1.00  0.00     0.180 A 
ATOM      2  C   UNL     1     -12.354 -17.050 -17.860  1.00  0.00     0.208 A 
ATOM      3  C   UNL     1     -12.314 -18.302 -17.228  1.00  0.00     0.235 A 
ATOM      4  O   UNL     1     -12.887 -19.295 -17.756  1.00  0.00    -0.285 OA
ATOM      5  C   UNL     1     -11.639 -18.437 -16.004  1.00  0.00     0.069 A 
ATOM      6  C   UNL     1     -11.023 -17.294 -15.451  1.00  0.00     0.142 A 
ATOM      7  O   UNL     1     -11.077 -16.129 -16.085  1.00  0.00    -0.452 OA
ATOM      8  C   UNL     1     -10.350 -17.385 -14.227  1.00  0.00     0.094 A 
ATOM      9  C   UNL     1     -10.281 -18.606 -13.549  1.00  0.00     0.119 A 
ATOM     10  C   UNL     1     -10.890 -19.744 -14.096  1.00  0.00     0.047 A 
ATOM     11  C   UNL     1     -11.566 -19.663 -15.318  1.00  0.00     0.020 A 
ENDROOT
BRANCH   1  12
ATOM     12  C   UNL     1     -11.674 -14.614 -17.867  1.00  0.00     0.025 A 
ATOM     13  C   UNL     1     -12.887 -13.958 -18.129  1.00  0.00     0.016 A 
ATOM     14  C   UNL     1     -12.893 -12.677 -18.689  1.00  0.00     0.051 A 
ATOM     15  C   UNL     1     -11.690 -12.027 -18.980  1.00  0.00     0.157 A 
ATOM     16  C   UNL     1     -10.465 -13.951 -18.141  1.00  0.00     0.062 A 
ATOM     17  C   UNL     1     -10.469 -12.664 -18.701  1.00  0.00     0.158 A 
BRANCH  15  18
ATOM     18  O   UNL     1     -11.727 -10.751 -19.540  1.00  0.00    -0.504 OA
ATOM     19  H   UNL     1     -11.639 -10.598 -20.537  1.00  0.00     0.293 HD
ENDBRANCH  15  18
BRANCH  17  20
ATOM     20  O   UNL     1      -9.266 -12.016 -18.975  1.00  0.00    -0.504 OA
ATOM     21  H   UNL     1      -9.042 -11.683 -19.906  1.00  0.00     0.293 HD
ENDBRANCH  17  20
ENDBRANCH   1  12
BRANCH   2  22
ATOM     22  O   UNL     1     -13.059 -16.875 -19.054  1.00  0.00    -0.502 OA
ATOM     23  H   UNL     1     -12.975 -17.519 -19.830  1.00  0.00     0.293 HD
ENDBRANCH   2  22
BRANCH   9  24
ATOM     24  O   UNL     1      -9.606 -18.679 -12.333  1.00  0.00    -0.508 OA
ATOM     25  H   UNL     1      -8.881 -19.367 -12.170  1.00  0.00     0.293 HD
ENDBRANCH   9  24
TORSDOF 5
ENDMDL
MODEL 3
REMARK VINA RESULT:    -7.005      3.123      3.908
REMARK INTER + INTRA:          -8.551
REMARK INTER:                  -8.229
REMARK INTRA:                  -0.322
REMARK UNBOUND:                -0.317
REMARK SMILES O=c1c(O)c(-c2ccc(O)c(O)c2)oc2cc(O)ccc12
REMARK SMILES IDX 5 1 3 2 2 3 1 4 21 5 15 6 14 7 16 8 17 9 19 10 20 11 6 12
REMARK SMILES IDX 7 13 8 14 9 15 13 16 11 17 10 18 12 20 4 22 18 24
REMARK H PARENT 10 19 12 21 4 23 18 25
REMARK Flexibility Score: inf
ROOT
ATOM      1  C   UNL     1      -9.272 -18.143 -17.454  1.00  0.00     0.180 A 
ATOM      2  C   UNL     1     -10.552 -18.265 -18.033  1.00  0.00     0.208 A 
ATOM      3  C   UNL     1     -11.587 -18.833 -17.274  1.00  0.00     0.235 A 
ATOM      4  O   UNL     1     -12.738 -18.964 -17.775  1.00  0.00    -0.285 OA
ATOM      5  C   UNL     1     -11.331 -19.245 -15.957  1.00  0.00     0.069 A 
ATOM      6  C   UNL     1     -10.029 -19.068 -15.441  1.00  0.00     0.142 A 
ATOM      7  O   UNL     1      -9.075 -18.533 -16.196  1.00  0.00    -0.452 OA
ATOM      8  C   UNL     1      -9.737 -19.456 -14.129  1.00  0.00     0.094 A 
ATOM      9  C   UNL     1     -10.729 -20.023 -13.324  1.00  0.00     0.119 A 
ATOM     10  C   UNL     1     -12.022 -20.203 -13.833  1.00  0.00     0.047 A 
ATOM     11  C   UNL     1     -12.325 -19.817 -15.142  1.00  0.00     0.020 A 
ENDROOT
BRANCH   1  12
ATOM     12  C   UNL     1      -8.125 -17.572 -18.196  1.00  0.00     0.025 A 
ATOM     13  C   UNL     1      -7.818 -16.210 -18.048  1.00  0.00     0.016 A 
ATOM     14  C   UNL     1      -6.727 -15.654 -18.723  1.00  0.00     0.051 A 
ATOM     15  C   UNL     1      -5.920 -16.450 -19.540  1.00  0.00     0.157 A 
ATOM     16  C   UNL     1      -7.300 -18.376 -19.001  1.00  0.00     0.062 A 
ATOM     17  C   UNL     1      -6.203 -17.820 -19.677  1.00  0.00     0.158 A 
BRANCH  15  18
ATOM     18  O   UNL     1      -4.840 -15.867 -20.201  1.00  0.00    -0.504 OA
ATOM     19  H   UNL     1      -4.814 -15.773 -21.210  1.00  0.00     0.293 HD
ENDBRANCH  15  18
BRANCH  17  20
ATOM     20  O   UNL     1      -5.394 -18.623 -20.479  1.00  0.00    -0.504 OA
ATOM     21  H   UNL     1      -5.778 -19.381 -21.030  1.00  0.00     0.293 HD
ENDBRANCH  17  20
ENDBRANCH   1  12
BRANCH   2  22
ATOM     22  O   UNL     1     -10.789 -17.802 -19.330  1.00  0.00    -0.502 OA
ATOM     23  H   UNL     1     -10.060 -17.762 -20.032  1.00  0.00     0.293 HD
ENDBRANCH   2  22
BRANCH   9  24
ATOM     24  O   UNL     1     -10.421 -20.405 -12.020  1.00  0.00    -0.508 OA
ATOM     25  H   UNL     1     -10.561 -19.778 -11.237  1.00  0.00     0.293 HD
ENDBRANCH   9  24
TORSDOF 5
ENDMDL
MODEL 4
REMARK VINA RESULT:    -7.000      1.888      3.819
REMARK INTER + INTRA:          -8.545
REMARK INTER:                  -8.229
REMARK INTRA:                  -0.316
REMARK UNBOUND:                -0.317
REMARK SMILES O=c1c(O)c(-c2ccc(O)c(O)c2)oc2cc(O)ccc12
REMARK SMILES IDX 5 1 3 2 2 3 1 4 21 5 15 6 14 7 16 8 17 9 19 10 20 11 6 12
REMARK SMILES IDX 7 13 8 14 9 15 13 16 11 17 10 18 12 20 4 22 18 24
REMARK H PARENT 10 19 12 21 4 23 18 25
REMARK Flexibility Score: inf
ROOT
ATOM      1  C   UNL     1     -10.024 -15.135 -15.383  1.00  0.00     0.180 A 
ATOM      2  C   UNL     1      -9.621 -16.287 -14.675  1.00  0.00     0.208 A 
ATOM      3  C   UNL     1     -10.079 -17.541 -15.106  1.00  0.00     0.235 A 
ATOM      4  O   UNL     1      -9.742 -18.585 -14.482  1.00  0.00    -0.285 OA
ATOM      5  C   UNL     1     -10.905 -17.622 -16.238  1.00  0.00     0.069 A 
ATOM      6  C   UNL     1     -11.244 -16.426 -16.906  1.00  0.00     0.142 A 
ATOM      7  O   UNL     1     -10.797 -15.258 -16.460  1.00  0.00    -0.452 OA
ATOM      8  C   UNL     1     -12.057 -16.466 -18.044  1.00  0.00     0.094 A 
ATOM      9  C   UNL     1     -12.540 -17.688 -18.524  1.00  0.00     0.119 A 
ATOM     10  C   UNL     1     -12.207 -18.878 -17.863  1.00  0.00     0.047 A 
ATOM     11  C   UNL     1     -11.394 -18.849 -16.725  1.00  0.00     0.020 A 
ENDROOT
BRANCH   1  12
ATOM     12  C   UNL     1      -9.599 -13.776 -14.979  1.00  0.00     0.025 A 
ATOM     13  C   UNL     1     -10.382 -13.051 -14.066  1.00  0.00     0.016 A 
ATOM     14  C   UNL     1      -9.990 -11.775 -13.655  1.00  0.00     0.051 A 
ATOM     15  C   UNL     1      -8.805 -11.210 -14.134  1.00  0.00     0.157 A 
ATOM     16  C   UNL     1      -8.397 -13.216 -15.444  1.00  0.00     0.062 A 
ATOM     17  C   UNL     1      -8.000 -11.935 -15.030  1.00  0.00     0.158 A 
BRANCH  15  18
ATOM     18  O   UNL     1      -8.440  -9.934 -13.707  1.00  0.00    -0.504 OA
ATOM     19  H   UNL     1      -9.118  -9.191 -13.591  1.00  0.00     0.293 HD
ENDBRANCH  15  18
BRANCH  17  20
ATOM     20  O   UNL     1      -6.809 -11.384 -15.501  1.00  0.00    -0.504 OA
ATOM     21  H   UNL     1      -6.132 -10.967 -14.872  1.00  0.00     0.293 HD
ENDBRANCH  17  20
ENDBRANCH   1  12
BRANCH   2  22
ATOM     22  O   UNL     1      -8.758 -16.179 -13.580  1.00  0.00    -0.502 OA
ATOM     23  H   UNL     1      -8.505 -15.286 -13.178  1.00  0.00     0.293 HD
ENDBRANCH   2  22
BRANCH   9  24
ATOM     24  O   UNL     1     -13.349 -17.710 -19.658  1.00  0.00    -0.508 OA
ATOM     25  H   UNL     1     -13.242 -18.421 -20.371  1.00  0.00     0.293 HD
ENDBRANCH   9  24
TORSDOF 5
ENDMDL
MODEL 5
REMARK VINA RESULT:    -6.854      2.827      6.766
REMARK INTER + INTRA:          -8.374
REMARK INTER:                  -8.409
REMARK INTRA:                   0.036
REMARK UNBOUND:                -0.317
REMARK SMILES O=c1c(O)c(-c2ccc(O)c(O)c2)oc2cc(O)ccc12
REMARK SMILES IDX 5 1 3 2 2 3 1 4 21 5 15 6 14 7 16 8 17 9 19 10 20 11 6 12
REMARK SMILES IDX 7 13 8 14 9 15 13 16 11 17 10 18 12 20 4 22 18 24
REMARK H PARENT 10 19 12 21 4 23 18 25
REMARK Flexibility Score: inf
ROOT
ATOM      1  C   UNL     1     -10.744 -16.023 -16.160  1.00  0.00     0.180 A 
ATOM      2  C   UNL     1      -9.571 -15.476 -16.723  1.00  0.00     0.208 A 
ATOM      3  C   UNL     1      -9.686 -14.380 -17.592  1.00  0.00     0.235 A 
ATOM      4  O   UNL     1      -8.653 -13.880 -18.117  1.00  0.00    -0.285 OA
ATOM      5  C   UNL     1     -10.955 -13.845 -17.864  1.00  0.00     0.069 A 
ATOM      6  C   UNL     1     -12.077 -14.434 -17.244  1.00  0.00     0.142 A 
ATOM      7  O   UNL     1     -11.926 -15.476 -16.434  1.00  0.00    -0.452 OA
ATOM      8  C   UNL     1     -13.358 -13.923 -17.482  1.00  0.00     0.094 A 
ATOM      9  C   UNL     1     -13.534 -12.829 -18.336  1.00  0.00     0.119 A 
ATOM     10  C   UNL     1     -12.422 -12.242 -18.955  1.00  0.00     0.047 A 
ATOM     11  C   UNL     1     -11.138 -12.745 -18.723  1.00  0.00     0.020 A 
ENDROOT
BRANCH   1  12
ATOM     12  C   UNL     1     -10.708 -17.190 -15.250  1.00  0.00     0.025 A 
ATOM     13  C   UNL     1      -9.849 -17.171 -14.139  1.00  0.00     0.016 A 
ATOM     14  C   UNL     1      -9.813 -18.252 -13.254  1.00  0.00     0.051 A 
ATOM     15  C   UNL     1     -10.642 -19.359 -13.456  1.00  0.00     0.157 A 
ATOM     16  C   UNL     1     -11.556 -18.295 -15.440  1.00  0.00     0.062 A 
ATOM     17  C   UNL     1     -11.522 -19.380 -14.551  1.00  0.00     0.158 A 
BRANCH  15  18
ATOM     18  O   UNL     1     -10.583 -20.424 -12.558  1.00  0.00    -0.504 OA
ATOM     19  H   UNL     1     -11.385 -21.012 -12.368  1.00  0.00     0.293 HD
ENDBRANCH  15  18
BRANCH  17  20
ATOM     20  O   UNL     1     -12.362 -20.474 -14.750  1.00  0.00    -0.504 OA
ATOM     21  H   UNL     1     -12.379 -20.978 -15.630  1.00  0.00     0.293 HD
ENDBRANCH  17  20
ENDBRANCH   1  12
BRANCH   2  22
ATOM     22  O   UNL     1      -8.318 -15.999 -16.395  1.00  0.00    -0.502 OA
ATOM     23  H   UNL     1      -7.855 -16.693 -16.969  1.00  0.00     0.293 HD
ENDBRANCH   2  22
BRANCH   9  24
ATOM     24  O   UNL     1     -14.815 -12.333 -18.562  1.00  0.00    -0.508 OA
ATOM     25  H   UNL     1     -15.289 -12.474 -19.447  1.00  0.00     0.293 HD
ENDBRANCH   9  24
TORSDOF 5
ENDMDL
MODEL 6
REMARK VINA RESULT:    -6.765      2.494      3.005
REMARK INTER + INTRA:          -8.269
REMARK INTER:                  -8.270
REMARK INTRA:                   0.001
REMARK UNBOUND:                -0.317
REMARK SMILES O=c1c(O)c(-c2ccc(O)c(O)c2)oc2cc(O)ccc12
REMARK SMILES IDX 5 1 3 2 2 3 1 4 21 5 15 6 14 7 16 8 17 9 19 10 20 11 6 12
REMARK SMILES IDX 7 13 8 14 9 15 13 16 11 17 10 18 12 20 4 22 18 24
REMARK H PARENT 10 19 12 21 4 23 18 25
REMARK Flexibility Score: inf
ROOT
ATOM      1  C   UNL     1     -11.194 -14.474 -16.284  1.00  0.00     0.180 A 
ATOM      2  C   UNL     1     -12.052 -15.008 -17.268  1.00  0.00     0.208 A 
ATOM      3  C   UNL     1     -12.235 -16.398 -17.323  1.00  0.00     0.235 A 
ATOM      4  O   UNL     1     -12.988 -16.901 -18.202  1.00  0.00    -0.285 OA
ATOM      5  C   UNL     1     -11.581 -17.218 -16.390  1.00  0.00     0.069 A 
ATOM      6  C   UNL     1     -10.758 -16.605 -15.421  1.00  0.00     0.142 A 
ATOM      7  O   UNL     1     -10.605 -15.286 -15.409  1.00  0.00    -0.452 OA
ATOM      8  C   UNL     1     -10.098 -17.387 -14.468  1.00  0.00     0.094 A 
ATOM      9  C   UNL     1     -10.246 -18.778 -14.470  1.00  0.00     0.119 A 
ATOM     10  C   UNL     1     -11.061 -19.391 -15.432  1.00  0.00     0.047 A 
ATOM     11  C   UNL     1     -11.726 -18.618 -16.389  1.00  0.00     0.020 A 
ENDROOT
BRANCH   1  12
ATOM     12  C   UNL     1     -10.935 -13.020 -16.173  1.00  0.00     0.025 A 
ATOM     13  C   UNL     1     -10.984 -12.405 -14.912  1.00  0.00     0.016 A 
ATOM     14  C   UNL     1     -10.723 -11.039 -14.780  1.00  0.00     0.051 A 
ATOM     15  C   UNL     1     -10.393 -10.271 -15.901  1.00  0.00     0.157 A 
ATOM     16  C   UNL     1     -10.583 -12.251 -17.296  1.00  0.00     0.062 A 
ATOM     17  C   UNL     1     -10.318 -10.879 -17.165  1.00  0.00     0.158 A 
BRANCH  15  18
ATOM     18  O   UNL     1     -10.139  -8.910 -15.739  1.00  0.00    -0.504 OA
ATOM     19  H   UNL     1      -9.520  -8.560 -15.018  1.00  0.00     0.293 HD
ENDBRANCH  15  18
BRANCH  17  20
ATOM     20  O   UNL     1      -9.976 -10.122 -18.285  1.00  0.00    -0.504 OA
ATOM     21  H   UNL     1      -9.602 -10.553 -19.123  1.00  0.00     0.293 HD
ENDBRANCH  17  20
ENDBRANCH   1  12
BRANCH   2  22
ATOM     22  O   UNL     1     -12.727 -14.163 -18.153  1.00  0.00    -0.502 OA
ATOM     23  H   UNL     1     -12.952 -14.441 -19.101  1.00  0.00     0.293 HD
ENDBRANCH   2  22
BRANCH   9  24
ATOM     24  O   UNL     1      -9.581 -19.542 -13.514  1.00  0.00    -0.508 OA
ATOM     25  H   UNL     1      -8.653 -19.912 -13.683  1.00  0.00     0.293 HD
ENDBRANCH   9  24
TORSDOF 5
ENDMDL
MODEL 7
REMARK VINA RESULT:    -6.617      3.043      6.958
REMARK INTER + INTRA:          -8.095
REMARK INTER:                  -7.778
REMARK INTRA:                  -0.317
REMARK UNBOUND:                -0.317
REMARK SMILES O=c1c(O)c(-c2ccc(O)c(O)c2)oc2cc(O)ccc12
REMARK SMILES IDX 5 1 3 2 2 3 1 4 21 5 15 6 14 7 16 8 17 9 19 10 20 11 6 12
REMARK SMILES IDX 7 13 8 14 9 15 13 16 11 17 10 18 12 20 4 22 18 24
REMARK H PARENT 10 19 12 21 4 23 18 25
REMARK Flexibility Score: inf
ROOT
ATOM      1  C   UNL     1     -10.539 -15.555 -16.850  1.00  0.00     0.180 A 
ATOM      2  C   UNL     1      -9.861 -15.934 -15.672  1.00  0.00     0.208 A 
ATOM      3  C   UNL     1      -9.456 -14.935 -14.774  1.00  0.00     0.235 A 
ATOM      4  O   UNL     1      -8.837 -15.248 -13.719  1.00  0.00    -0.285 OA
ATOM      5  C   UNL     1      -9.750 -13.592 -15.057  1.00  0.00     0.069 A 
ATOM      6  C   UNL     1     -10.452 -13.296 -16.244  1.00  0.00     0.142 A 
ATOM      7  O   UNL     1     -10.810 -14.271 -17.073  1.00  0.00    -0.452 OA
ATOM      8  C   UNL     1     -10.773 -11.971 -16.557  1.00  0.00     0.094 A 
ATOM      9  C   UNL     1     -10.399 -10.933 -15.697  1.00  0.00     0.119 A 
ATOM     10  C   UNL     1      -9.700 -11.222 -14.517  1.00  0.00     0.047 A 
ATOM     11  C   UNL     1      -9.375 -12.544 -14.196  1.00  0.00     0.020 A 
ENDROOT
BRANCH   1  12
ATOM     12  C   UNL     1     -10.982 -16.548 -17.855  1.00  0.00     0.025 A 
ATOM     13  C   UNL     1     -10.105 -16.924 -18.885  1.00  0.00     0.016 A 
ATOM     14  C   UNL     1     -10.494 -17.875 -19.833  1.00  0.00     0.051 A 
ATOM     15  C   UNL     1     -11.755 -18.474 -19.758  1.00  0.00     0.157 A 
ATOM     16  C   UNL     1     -12.241 -17.166 -17.769  1.00  0.00     0.062 A 
ATOM     17  C   UNL     1     -12.632 -18.122 -18.718  1.00  0.00     0.158 A 
BRANCH  15  18
ATOM     18  O   UNL     1     -12.115 -19.417 -20.719  1.00  0.00    -0.504 OA
ATOM     19  H   UNL     1     -12.506 -20.318 -20.468  1.00  0.00     0.293 HD
ENDBRANCH  15  18
BRANCH  17  20
ATOM     20  O   UNL     1     -13.885 -18.727 -18.629  1.00  0.00    -0.504 OA
ATOM     21  H   UNL     1     -14.424 -18.955 -19.456  1.00  0.00     0.293 HD
ENDBRANCH  17  20
ENDBRANCH   1  12
BRANCH   2  22
ATOM     22  O   UNL     1      -9.625 -17.283 -15.394  1.00  0.00    -0.502 OA
ATOM     23  H   UNL     1      -9.839 -17.695 -14.494  1.00  0.00     0.293 HD
ENDBRANCH   2  22
BRANCH   9  24
ATOM     24  O   UNL     1     -10.726  -9.619 -16.023  1.00  0.00    -0.508 OA
ATOM     25  H   UNL     1     -10.435  -9.202 -16.900  1.00  0.00     0.293 HD
ENDBRANCH   9  24
TORSDOF 5
ENDMDL
MODEL 8
REMARK VINA RESULT:    -6.540      2.978      7.204
REMARK INTER + INTRA:          -8.004
REMARK INTER:                  -7.769
REMARK INTRA:                  -0.235
REMARK UNBOUND:                -0.317
REMARK SMILES O=c1c(O)c(-c2ccc(O)c(O)c2)oc2cc(O)ccc12
REMARK SMILES IDX 5 1 3 2 2 3 1 4 21 5 15 6 14 7 16 8 17 9 19 10 20 11 6 12
REMARK SMILES IDX 7 13 8 14 9 15 13 16 11 17 10 18 12 20 4 22 18 24
REMARK H PARENT 10 19 12 21 4 23 18 25
REMARK Flexibility Score: inf
ROOT
ATOM      1  C   UNL     1      -8.504 -17.320 -18.169  1.00  0.00     0.180 A 
ATOM      2  C   UNL     1      -7.462 -17.972 -18.862  1.00  0.00     0.208 A 
ATOM      3  C   UNL     1      -6.181 -17.399 -18.852  1.00  0.00     0.235 A 
ATOM      4  O   UNL     1      -5.236 -17.957 -19.474  1.00  0.00    -0.285 OA
ATOM      5  C   UNL     1      -5.962 -16.210 -18.138  1.00  0.00     0.069 A 
ATOM      6  C   UNL     1      -7.050 -15.632 -17.451  1.00  0.00     0.142 A 
ATOM      7  O   UNL     1      -8.250 -16.201 -17.493  1.00  0.00    -0.452 OA
ATOM      8  C   UNL     1      -6.870 -14.453 -16.720  1.00  0.00     0.094 A 
ATOM      9  C   UNL     1      -5.614 -13.839 -16.669  1.00  0.00     0.119 A 
ATOM     10  C   UNL     1      -4.531 -14.409 -17.352  1.00  0.00     0.047 A 
ATOM     11  C   UNL     1      -4.701 -15.588 -18.084  1.00  0.00     0.020 A 
ENDROOT
BRANCH   1  12
ATOM     12  C   UNL     1      -9.886 -17.850 -18.148  1.00  0.00     0.025 A 
ATOM     13  C   UNL     1     -10.670 -17.775 -19.310  1.00  0.00     0.016 A 
ATOM     14  C   UNL     1     -11.971 -18.287 -19.320  1.00  0.00     0.051 A 
ATOM     15  C   UNL     1     -12.500 -18.895 -18.179  1.00  0.00     0.157 A 
ATOM     16  C   UNL     1     -10.412 -18.480 -17.007  1.00  0.00     0.062 A 
ATOM     17  C   UNL     1     -11.717 -18.997 -17.017  1.00  0.00     0.158 A 
BRANCH  15  18
ATOM     18  O   UNL     1     -13.801 -19.396 -18.218  1.00  0.00    -0.504 OA
ATOM     19  H   UNL     1     -14.610 -18.800 -18.092  1.00  0.00     0.293 HD
ENDBRANCH  15  18
BRANCH  17  20
ATOM     20  O   UNL     1     -12.233 -19.616 -15.879  1.00  0.00    -0.504 OA
ATOM     21  H   UNL     1     -11.681 -19.722 -15.036  1.00  0.00     0.293 HD
ENDBRANCH  17  20
ENDBRANCH   1  12
BRANCH   2  22
ATOM     22  O   UNL     1      -7.700 -19.180 -19.523  1.00  0.00    -0.502 OA
ATOM     23  H   UNL     1      -8.431 -19.819 -19.235  1.00  0.00     0.293 HD
ENDBRANCH   2  22
BRANCH   9  24
ATOM     24  O   UNL     1      -5.452 -12.665 -15.938  1.00  0.00    -0.508 OA
ATOM     25  H   UNL     1      -4.844 -11.921 -16.258  1.00  0.00     0.293 HD
ENDBRANCH   9  24
TORSDOF 5
ENDMDL
MODEL 9
REMARK VINA RESULT:    -6.383      2.305      6.783
REMARK INTER + INTRA:          -7.820
REMARK INTER:                  -7.509
REMARK INTRA:                  -0.311
REMARK UNBOUND:                -0.317
REMARK SMILES O=c1c(O)c(-c2ccc(O)c(O)c2)oc2cc(O)ccc12
REMARK SMILES IDX 5 1 3 2 2 3 1 4 21 5 15 6 14 7 16 8 17 9 19 10 20 11 6 12
REMARK SMILES IDX 7 13 8 14 9 15 13 16 11 17 10 18 12 20 4 22 18 24
REMARK H PARENT 10 19 12 21 4 23 18 25
REMARK Flexibility Score: inf
ROOT
ATOM      1  C   UNL     1      -9.966 -16.252 -16.250  1.00  0.00     0.180 A 
ATOM      2  C   UNL     1      -9.164 -16.446 -17.394  1.00  0.00     0.208 A 
ATOM      3  C   UNL     1      -8.900 -15.349 -18.229  1.00  0.00     0.235 A 
ATOM      4  O   UNL     1      -8.195 -15.499 -19.265  1.00  0.00    -0.285 OA
ATOM      5  C   UNL     1      -9.421 -14.088 -17.897  1.00  0.00     0.069 A 
ATOM      6  C   UNL     1     -10.195 -13.972 -16.723  1.00  0.00     0.142 A 
ATOM      7  O   UNL     1     -10.428 -15.037 -15.964  1.00  0.00    -0.452 OA
ATOM      8  C   UNL     1     -10.723 -12.730 -16.353  1.00  0.00     0.094 A 
ATOM      9  C   UNL     1     -10.490 -11.600 -17.143  1.00  0.00     0.119 A 
ATOM     10  C   UNL     1      -9.723 -11.712 -18.311  1.00  0.00     0.047 A 
ATOM     11  C   UNL     1      -9.190 -12.948 -18.689  1.00  0.00     0.020 A 
ENDROOT
BRANCH   1  12
ATOM     12  C   UNL     1     -10.304 -17.363 -15.331  1.00  0.00     0.025 A 
ATOM     13  C   UNL     1      -9.601 -17.496 -14.123  1.00  0.00     0.016 A 
ATOM     14  C   UNL     1      -9.917 -18.524 -13.231  1.00  0.00     0.051 A 
ATOM     15  C   UNL     1     -10.947 -19.422 -13.522  1.00  0.00     0.157 A 
ATOM     16  C   UNL     1     -11.354 -18.254 -15.613  1.00  0.00     0.062 A 
ATOM     17  C   UNL     1     -11.674 -19.285 -14.717  1.00  0.00     0.158 A 
BRANCH  15  18
ATOM     18  O   UNL     1     -11.239 -20.439 -12.614  1.00  0.00    -0.504 OA
ATOM     19  H   UNL     1     -11.609 -21.334 -12.909  1.00  0.00     0.293 HD
ENDBRANCH  15  18
BRANCH  17  20
ATOM     20  O   UNL     1     -12.713 -20.168 -15.008  1.00  0.00    -0.504 OA
ATOM     21  H   UNL     1     -12.578 -21.172 -14.985  1.00  0.00     0.293 HD
ENDBRANCH  17  20
ENDBRANCH   1  12
BRANCH   2  22
ATOM     22  O   UNL     1      -8.619 -17.703 -17.672  1.00  0.00    -0.502 OA
ATOM     23  H   UNL     1      -8.216 -18.288 -16.952  1.00  0.00     0.293 HD
ENDBRANCH   2  22
BRANCH   9  24
ATOM     24  O   UNL     1     -11.023 -10.372 -16.761  1.00  0.00    -0.508 OA
ATOM     25  H   UNL     1     -10.521  -9.506 -16.913  1.00  0.00     0.293 HD
ENDBRANCH   9  24
TORSDOF 5
ENDMDL
