MODEL 1
REMARK VINA RESULT:    -5.489      0.000      0.000
REMARK INTER + INTRA:          -9.753
REMARK INTER:                  -9.340
REMARK INTRA:                  -0.413
REMARK UNBOUND:                -0.413
REMARK SMILES CCCCCCCCCCCCCC(=O)[O-]
REMARK SMILES IDX 8 1 9 2 10 3 11 4 12 5 13 6 14 7 15 8 16 9 7 10 6 11 5 12
REMARK SMILES IDX 4 13 3 14 2 15 1 16
REMARK H PARENT
REMARK Flexibility Score: inf
ROOT
ATOM      1  C   UNL     1      41.487  65.233  24.729  1.00  0.00     0.000 C 
ENDROOT
BRANCH   1   2
ATOM      2  C   UNL     1      41.902  63.758  24.595  1.00  0.00     0.000 C 
BRANCH   2   3
ATOM      3  C   UNL     1      42.323  63.130  25.935  1.00  0.00     0.000 C 
BRANCH   3   4
ATOM      4  C   UNL     1      43.181  61.856  25.823  1.00  0.00     0.000 C 
BRANCH   4   5
ATOM      5  C   UNL     1      44.558  61.998  26.490  1.00  0.00     0.006 C 
BRANCH   5   6
ATOM      6  C   UNL     1      45.667  62.105  25.439  1.00  0.00     0.053 C 
BRANCH   6   7
ATOM      7  C   UNL     1      46.738  63.040  25.903  1.00  0.00     0.041 C 
ATOM      8  O   UNL     1      47.586  63.487  25.085  1.00  0.00    -0.550 OA
ATOM      9  O   UNL     1      46.834  63.379  27.247  1.00  0.00    -0.550 OA
ENDBRANCH   6   7
ENDBRANCH   5   6
ENDBRANCH   4   5
ENDBRANCH   3   4
ENDBRANCH   2   3
ENDBRANCH   1   2
BRANCH   1  10
ATOM     10  C   UNL     1      41.218  65.906  23.369  1.00  0.00     0.000 C 
BRANCH  10  11
ATOM     11  C   UNL     1      39.863  66.634  23.254  1.00  0.00    -0.000 C 
BRANCH  11  12
ATOM     12  C   UNL     1      39.193  66.991  24.595  1.00  0.00    -0.000 C 
BRANCH  12  13
ATOM     13  C   UNL     1      37.705  67.375  24.495  1.00  0.00    -0.000 C 
BRANCH  13  14
ATOM     14  C   UNL     1      37.001  67.391  25.860  1.00  0.00    -0.000 C 
BRANCH  14  15
ATOM     15  C   UNL     1      35.478  67.438  25.691  1.00  0.00    -0.003 C 
ATOM     16  C   UNL     1      34.835  66.119  26.109  1.00  0.00     0.004 C 
ENDBRANCH  14  15
ENDBRANCH  13  14
ENDBRANCH  12  13
ENDBRANCH  11  12
ENDBRANCH  10  11
ENDBRANCH   1  10
TORSDOF 12
ENDMDL
MODEL 2
REMARK VINA RESULT:    -5.425      5.739      7.297
REMARK INTER + INTRA:          -9.643
REMARK INTER:                  -9.114
REMARK INTRA:                  -0.529
REMARK UNBOUND:                -0.413
REMARK SMILES CCCCCCCCCCCCCC(=O)[O-]
REMARK SMILES IDX 8 1 9 2 10 3 11 4 12 5 13 6 14 7 15 8 16 9 7 10 6 11 5 12
REMARK SMILES IDX 4 13 3 14 2 15 1 16
REMARK H PARENT
REMARK Flexibility Score: inf
ROOT
ATOM      1  C   UNL     1      41.819  67.967  24.307  1.00  0.00     0.000 C 
ENDROOT
BRANCH   1   2
ATOM      2  C   UNL     1      42.857  69.016  23.872  1.00  0.00     0.000 C 
BRANCH   2   3
ATOM      3  C   UNL     1      43.387  69.857  25.047  1.00  0.00     0.000 C 
BRANCH   3   4
ATOM      4  C   UNL     1      44.312  71.024  24.655  1.00  0.00     0.000 C 
BRANCH   4   5
ATOM      5  C   UNL     1      43.833  72.380  25.196  1.00  0.00     0.006 C 
BRANCH   5   6
ATOM      6  C   UNL     1      42.864  73.050  24.217  1.00  0.00     0.053 C 
BRANCH   6   7
ATOM      7  C   UNL     1      41.688  73.615  24.948  1.00  0.00     0.041 C 
ATOM      8  O   UNL     1      41.610  73.510  26.201  1.00  0.00    -0.550 OA
ATOM      9  O   UNL     1      40.651  74.213  24.242  1.00  0.00    -0.550 OA
ENDBRANCH   6   7
ENDBRANCH   5   6
ENDBRANCH   4   5
ENDBRANCH   3   4
ENDBRANCH   2   3
ENDBRANCH   1   2
BRANCH   1  10
ATOM     10  C   UNL     1      41.251  67.160  23.124  1.00  0.00     0.000 C 
BRANCH  10  11
ATOM     11  C   UNL     1      39.933  66.413  23.412  1.00  0.00    -0.000 C 
BRANCH  11  12
ATOM     12  C   UNL     1      39.222  66.815  24.718  1.00  0.00    -0.000 C 
BRANCH  12  13
ATOM     13  C   UNL     1      37.776  67.316  24.542  1.00  0.00    -0.000 C 
BRANCH  13  14
ATOM     14  C   UNL     1      37.083  67.617  25.879  1.00  0.00    -0.000 C 
BRANCH  14  15
ATOM     15  C   UNL     1      35.559  67.629  25.717  1.00  0.00    -0.003 C 
ATOM     16  C   UNL     1      34.953  66.283  26.099  1.00  0.00     0.004 C 
ENDBRANCH  14  15
ENDBRANCH  13  14
ENDBRANCH  12  13
ENDBRANCH  11  12
ENDBRANCH  10  11
ENDBRANCH   1  10
TORSDOF 12
ENDMDL
MODEL 3
REMARK VINA RESULT:    -5.299      5.806      8.661
REMARK INTER + INTRA:          -9.429
REMARK INTER:                  -8.947
REMARK INTRA:                  -0.482
REMARK UNBOUND:                -0.413
REMARK SMILES CCCCCCCCCCCCCC(=O)[O-]
REMARK SMILES IDX 8 1 9 2 10 3 11 4 12 5 13 6 14 7 15 8 16 9 7 10 6 11 5 12
REMARK SMILES IDX 4 13 3 14 2 15 1 16
REMARK H PARENT
REMARK Flexibility Score: inf
ROOT
ATOM      1  C   UNL     1      39.907  66.598  23.082  1.00  0.00     0.000 C 
ENDROOT
BRANCH   1   2
ATOM      2  C   UNL     1      39.269  66.748  24.474  1.00  0.00     0.000 C 
BRANCH   2   3
ATOM      3  C   UNL     1      37.898  67.446  24.432  1.00  0.00     0.000 C 
BRANCH   3   4
ATOM      4  C   UNL     1      37.110  67.427  25.755  1.00  0.00     0.000 C 
BRANCH   4   5
ATOM      5  C   UNL     1      35.591  67.545  25.552  1.00  0.00     0.006 C 
BRANCH   5   6
ATOM      6  C   UNL     1      34.831  66.832  26.674  1.00  0.00     0.053 C 
BRANCH   6   7
ATOM      7  C   UNL     1      34.714  65.370  26.380  1.00  0.00     0.041 C 
ATOM      8  O   UNL     1      34.272  64.981  25.266  1.00  0.00    -0.550 OA
ATOM      9  O   UNL     1      35.043  64.436  27.354  1.00  0.00    -0.550 OA
ENDBRANCH   6   7
ENDBRANCH   5   6
ENDBRANCH   4   5
ENDBRANCH   3   4
ENDBRANCH   2   3
ENDBRANCH   1   2
BRANCH   1  10
ATOM     10  C   UNL     1      41.362  67.103  23.033  1.00  0.00     0.000 C 
BRANCH  10  11
ATOM     11  C   UNL     1      41.774  68.028  24.196  1.00  0.00    -0.000 C 
BRANCH  11  12
ATOM     12  C   UNL     1      43.006  68.914  23.925  1.00  0.00    -0.000 C 
BRANCH  12  13
ATOM     13  C   UNL     1      43.288  69.980  25.000  1.00  0.00    -0.000 C 
BRANCH  13  14
ATOM     14  C   UNL     1      44.388  70.968  24.585  1.00  0.00    -0.000 C 
BRANCH  14  15
ATOM     15  C   UNL     1      44.117  72.363  25.159  1.00  0.00    -0.003 C 
ATOM     16  C   UNL     1      42.821  72.945  24.605  1.00  0.00     0.004 C 
ENDBRANCH  14  15
ENDBRANCH  13  14
ENDBRANCH  12  13
ENDBRANCH  11  12
ENDBRANCH  10  11
ENDBRANCH   1  10
TORSDOF 12
ENDMDL
MODEL 4
REMARK VINA RESULT:    -5.288      6.098      8.288
REMARK INTER + INTRA:          -9.411
REMARK INTER:                  -8.782
REMARK INTRA:                  -0.629
REMARK UNBOUND:                -0.413
REMARK SMILES CCCCCCCCCCCCCC(=O)[O-]
REMARK SMILES IDX 8 1 9 2 10 3 11 4 12 5 13 6 14 7 15 8 16 9 7 10 6 11 5 12
REMARK SMILES IDX 4 13 3 14 2 15 1 16
REMARK H PARENT
REMARK Flexibility Score: inf
ROOT
ATOM      1  C   UNL     1      41.738  68.208  23.863  1.00  0.00     0.000 C 
ENDROOT
BRANCH   1   2
ATOM      2  C   UNL     1      41.585  67.252  25.059  1.00  0.00     0.000 C 
BRANCH   2   3
ATOM      3  C   UNL     1      40.115  66.919  25.375  1.00  0.00     0.000 C 
BRANCH   3   4
ATOM      4  C   UNL     1      39.194  66.785  24.148  1.00  0.00     0.000 C 
BRANCH   4   5
ATOM      5  C   UNL     1      37.827  67.458  24.347  1.00  0.00     0.006 C 
BRANCH   5   6
ATOM      6  C   UNL     1      37.329  67.275  25.784  1.00  0.00     0.053 C 
BRANCH   6   7
ATOM      7  C   UNL     1      35.845  67.091  25.805  1.00  0.00     0.041 C 
ATOM      8  O   UNL     1      35.082  68.069  25.584  1.00  0.00    -0.550 OA
ATOM      9  O   UNL     1      35.302  65.852  26.120  1.00  0.00    -0.550 OA
ENDBRANCH   6   7
ENDBRANCH   5   6
ENDBRANCH   4   5
ENDBRANCH   3   4
ENDBRANCH   2   3
ENDBRANCH   1   2
BRANCH   1  10
ATOM     10  C   UNL     1      43.094  68.939  23.852  1.00  0.00     0.000 C 
BRANCH  10  11
ATOM     11  C   UNL     1      43.296  69.964  24.987  1.00  0.00    -0.000 C 
BRANCH  11  12
ATOM     12  C   UNL     1      43.993  71.274  24.573  1.00  0.00    -0.000 C 
BRANCH  12  13
ATOM     13  C   UNL     1      43.314  72.560  25.081  1.00  0.00    -0.000 C 
BRANCH  13  14
ATOM     14  C   UNL     1      42.526  73.290  23.983  1.00  0.00    -0.000 C 
BRANCH  14  15
ATOM     15  C   UNL     1      41.233  73.893  24.545  1.00  0.00    -0.003 C 
ATOM     16  C   UNL     1      41.241  73.892  26.070  1.00  0.00     0.004 C 
ENDBRANCH  14  15
ENDBRANCH  13  14
ENDBRANCH  12  13
ENDBRANCH  11  12
ENDBRANCH  10  11
ENDBRANCH   1  10
TORSDOF 12
ENDMDL
MODEL 5
REMARK VINA RESULT:    -5.281      5.759      8.497
REMARK INTER + INTRA:          -9.398
REMARK INTER:                  -8.958
REMARK INTRA:                  -0.440
REMARK UNBOUND:                -0.413
REMARK SMILES CCCCCCCCCCCCCC(=O)[O-]
REMARK SMILES IDX 8 1 9 2 10 3 11 4 12 5 13 6 14 7 15 8 16 9 7 10 6 11 5 12
REMARK SMILES IDX 4 13 3 14 2 15 1 16
REMARK H PARENT
REMARK Flexibility Score: inf
ROOT
ATOM      1  C   UNL     1      41.845  67.974  24.383  1.00  0.00     0.000 C 
ENDROOT
BRANCH   1   2
ATOM      2  C   UNL     1      42.867  69.008  23.881  1.00  0.00     0.000 C 
BRANCH   2   3
ATOM      3  C   UNL     1      43.474  69.850  25.018  1.00  0.00     0.000 C 
BRANCH   3   4
ATOM      4  C   UNL     1      44.241  71.107  24.567  1.00  0.00     0.000 C 
BRANCH   4   5
ATOM      5  C   UNL     1      43.675  72.403  25.166  1.00  0.00     0.006 C 
BRANCH   5   6
ATOM      6  C   UNL     1      42.730  73.096  24.180  1.00  0.00     0.053 C 
BRANCH   6   7
ATOM      7  C   UNL     1      41.550  73.668  24.898  1.00  0.00     0.041 C 
ATOM      8  O   UNL     1      40.609  74.199  24.250  1.00  0.00    -0.550 OA
ATOM      9  O   UNL     1      41.510  73.662  26.287  1.00  0.00    -0.550 OA
ENDBRANCH   6   7
ENDBRANCH   5   6
ENDBRANCH   4   5
ENDBRANCH   3   4
ENDBRANCH   2   3
ENDBRANCH   1   2
BRANCH   1  10
ATOM     10  C   UNL     1      41.121  67.243  23.236  1.00  0.00     0.000 C 
BRANCH  10  11
ATOM     11  C   UNL     1      41.172  65.703  23.304  1.00  0.00    -0.000 C 
BRANCH  11  12
ATOM     12  C   UNL     1      41.665  65.120  24.643  1.00  0.00    -0.000 C 
BRANCH  12  13
ATOM     13  C   UNL     1      41.828  63.589  24.663  1.00  0.00    -0.000 C 
BRANCH  13  14
ATOM     14  C   UNL     1      42.445  63.074  25.972  1.00  0.00    -0.000 C 
BRANCH  14  15
ATOM     15  C   UNL     1      43.289  61.819  25.723  1.00  0.00    -0.003 C 
ATOM     16  C   UNL     1      44.761  62.074  26.030  1.00  0.00     0.004 C 
ENDBRANCH  14  15
ENDBRANCH  13  14
ENDBRANCH  12  13
ENDBRANCH  11  12
ENDBRANCH  10  11
ENDBRANCH   1  10
TORSDOF 12
ENDMDL
MODEL 6
REMARK VINA RESULT:    -5.267      4.401      8.784
REMARK INTER + INTRA:          -9.374
REMARK INTER:                  -8.879
REMARK INTRA:                  -0.495
REMARK UNBOUND:                -0.413
REMARK SMILES CCCCCCCCCCCCCC(=O)[O-]
REMARK SMILES IDX 8 1 9 2 10 3 11 4 12 5 13 6 14 7 15 8 16 9 7 10 6 11 5 12
REMARK SMILES IDX 4 13 3 14 2 15 1 16
REMARK H PARENT
REMARK Flexibility Score: inf
ROOT
ATOM      1  C   UNL     1      39.794  66.709  23.149  1.00  0.00     0.000 C 
ENDROOT
BRANCH   1   2
ATOM      2  C   UNL     1      39.194  67.059  24.521  1.00  0.00     0.000 C 
BRANCH   2   3
ATOM      3  C   UNL     1      37.713  67.469  24.440  1.00  0.00     0.000 C 
BRANCH   3   4
ATOM      4  C   UNL     1      36.955  67.462  25.781  1.00  0.00     0.000 C 
BRANCH   4   5
ATOM      5  C   UNL     1      35.429  67.512  25.609  1.00  0.00     0.006 C 
BRANCH   5   6
ATOM      6  C   UNL     1      34.726  66.732  26.724  1.00  0.00     0.053 C 
BRANCH   6   7
ATOM      7  C   UNL     1      34.682  65.274  26.396  1.00  0.00     0.041 C 
ATOM      8  O   UNL     1      34.324  64.892  25.250  1.00  0.00    -0.550 OA
ATOM      9  O   UNL     1      34.987  64.332  27.370  1.00  0.00    -0.550 OA
ENDBRANCH   6   7
ENDBRANCH   5   6
ENDBRANCH   4   5
ENDBRANCH   3   4
ENDBRANCH   2   3
ENDBRANCH   1   2
BRANCH   1  10
ATOM     10  C   UNL     1      41.113  65.921  23.256  1.00  0.00     0.000 C 
BRANCH  10  11
ATOM     11  C   UNL     1      41.402  65.310  24.642  1.00  0.00    -0.000 C 
BRANCH  11  12
ATOM     12  C   UNL     1      41.820  63.827  24.633  1.00  0.00    -0.000 C 
BRANCH  12  13
ATOM     13  C   UNL     1      42.584  63.360  25.886  1.00  0.00    -0.000 C 
BRANCH  13  14
ATOM     14  C   UNL     1      42.904  61.858  25.863  1.00  0.00    -0.000 C 
BRANCH  14  15
ATOM     15  C   UNL     1      44.259  61.577  26.522  1.00  0.00    -0.003 C 
ATOM     16  C   UNL     1      45.396  62.241  25.752  1.00  0.00     0.004 C 
ENDBRANCH  14  15
ENDBRANCH  13  14
ENDBRANCH  12  13
ENDBRANCH  11  12
ENDBRANCH  10  11
ENDBRANCH   1  10
TORSDOF 12
ENDMDL
MODEL 7
REMARK VINA RESULT:    -5.216      3.480      4.842
REMARK INTER + INTRA:          -9.288
REMARK INTER:                  -8.770
REMARK INTRA:                  -0.519
REMARK UNBOUND:                -0.413
REMARK SMILES CCCCCCCCCCCCCC(=O)[O-]
REMARK SMILES IDX 8 1 9 2 10 3 11 4 12 5 13 6 14 7 15 8 16 9 7 10 6 11 5 12
REMARK SMILES IDX 4 13 3 14 2 15 1 16
REMARK H PARENT
REMARK Flexibility Score: inf
ROOT
ATOM      1  C   UNL     1      41.215  65.786  23.099  1.00  0.00     0.000 C 
ENDROOT
BRANCH   1   2
ATOM      2  C   UNL     1      41.397  65.268  24.536  1.00  0.00     0.000 C 
BRANCH   2   3
ATOM      3  C   UNL     1      41.752  63.771  24.593  1.00  0.00     0.000 C 
BRANCH   3   4
ATOM      4  C   UNL     1      42.546  63.330  25.836  1.00  0.00     0.000 C 
BRANCH   4   5
ATOM      5  C   UNL     1      42.986  61.860  25.778  1.00  0.00     0.006 C 
BRANCH   5   6
ATOM      6  C   UNL     1      44.230  61.625  26.640  1.00  0.00     0.053 C 
BRANCH   6   7
ATOM      7  C   UNL     1      45.437  62.230  25.995  1.00  0.00     0.041 C 
ATOM      8  O   UNL     1      45.756  61.907  24.820  1.00  0.00    -0.550 OA
ATOM      9  O   UNL     1      46.239  63.112  26.708  1.00  0.00    -0.550 OA
ENDBRANCH   6   7
ENDBRANCH   5   6
ENDBRANCH   4   5
ENDBRANCH   3   4
ENDBRANCH   2   3
ENDBRANCH   1   2
BRANCH   1  10
ATOM     10  C   UNL     1      41.288  67.322  23.003  1.00  0.00     0.000 C 
BRANCH  10  11
ATOM     11  C   UNL     1      41.918  68.026  24.221  1.00  0.00    -0.000 C 
BRANCH  11  12
ATOM     12  C   UNL     1      43.049  69.020  23.894  1.00  0.00    -0.000 C 
BRANCH  12  13
ATOM     13  C   UNL     1      43.389  70.012  25.022  1.00  0.00    -0.000 C 
BRANCH  13  14
ATOM     14  C   UNL     1      44.390  71.091  24.585  1.00  0.00    -0.000 C 
BRANCH  14  15
ATOM     15  C   UNL     1      44.032  72.450  25.196  1.00  0.00    -0.003 C 
ATOM     16  C   UNL     1      42.738  72.998  24.605  1.00  0.00     0.004 C 
ENDBRANCH  14  15
ENDBRANCH  13  14
ENDBRANCH  12  13
ENDBRANCH  11  12
ENDBRANCH  10  11
ENDBRANCH   1  10
TORSDOF 12
ENDMDL
MODEL 8
REMARK VINA RESULT:    -5.208      1.674      3.605
REMARK INTER + INTRA:          -9.274
REMARK INTER:                  -8.792
REMARK INTRA:                  -0.481
REMARK UNBOUND:                -0.413
REMARK SMILES CCCCCCCCCCCCCC(=O)[O-]
REMARK SMILES IDX 8 1 9 2 10 3 11 4 12 5 13 6 14 7 15 8 16 9 7 10 6 11 5 12
REMARK SMILES IDX 4 13 3 14 2 15 1 16
REMARK H PARENT
REMARK Flexibility Score: inf
ROOT
ATOM      1  C   UNL     1      39.158  67.155  25.064  1.00  0.00     0.000 C 
ENDROOT
BRANCH   1   2
ATOM      2  C   UNL     1      39.994  66.431  23.996  1.00  0.00     0.000 C 
BRANCH   2   3
ATOM      3  C   UNL     1      41.376  65.993  24.513  1.00  0.00     0.000 C 
BRANCH   3   4
ATOM      4  C   UNL     1      41.720  64.508  24.292  1.00  0.00     0.000 C 
BRANCH   4   5
ATOM      5  C   UNL     1      42.200  63.806  25.571  1.00  0.00     0.006 C 
BRANCH   5   6
ATOM      6  C   UNL     1      42.505  62.329  25.304  1.00  0.00     0.053 C 
BRANCH   6   7
ATOM      7  C   UNL     1      43.718  61.898  26.066  1.00  0.00     0.041 C 
ATOM      8  O   UNL     1      43.599  61.182  27.095  1.00  0.00    -0.550 OA
ATOM      9  O   UNL     1      44.978  62.329  25.670  1.00  0.00    -0.550 OA
ENDBRANCH   6   7
ENDBRANCH   5   6
ENDBRANCH   4   5
ENDBRANCH   3   4
ENDBRANCH   2   3
ENDBRANCH   1   2
BRANCH   1  10
ATOM     10  C   UNL     1      37.655  67.191  24.725  1.00  0.00     0.000 C 
BRANCH  10  11
ATOM     11  C   UNL     1      36.740  67.708  25.853  1.00  0.00    -0.000 C 
BRANCH  11  12
ATOM     12  C   UNL     1      35.261  67.290  25.744  1.00  0.00    -0.000 C 
BRANCH  12  13
ATOM     13  C   UNL     1      34.869  66.065  26.592  1.00  0.00    -0.000 C 
BRANCH  13  14
ATOM     14  C   UNL     1      34.743  64.781  25.759  1.00  0.00    -0.000 C 
BRANCH  14  15
ATOM     15  C   UNL     1      34.717  63.543  26.662  1.00  0.00    -0.003 C 
ATOM     16  C   UNL     1      35.109  63.895  28.093  1.00  0.00     0.004 C 
ENDBRANCH  14  15
ENDBRANCH  13  14
ENDBRANCH  12  13
ENDBRANCH  11  12
ENDBRANCH  10  11
ENDBRANCH   1  10
TORSDOF 12
ENDMDL
MODEL 9
REMARK VINA RESULT:    -5.147      4.497      8.587
REMARK INTER + INTRA:          -9.170
REMARK INTER:                  -8.660
REMARK INTRA:                  -0.510
REMARK UNBOUND:                -0.413
REMARK SMILES CCCCCCCCCCCCCC(=O)[O-]
REMARK SMILES IDX 8 1 9 2 10 3 11 4 12 5 13 6 14 7 15 8 16 9 7 10 6 11 5 12
REMARK SMILES IDX 4 13 3 14 2 15 1 16
REMARK H PARENT
REMARK Flexibility Score: inf
ROOT
ATOM      1  C   UNL     1      38.907  66.783  24.634  1.00  0.00     0.000 C 
ENDROOT
BRANCH   1   2
ATOM      2  C   UNL     1      37.539  67.481  24.550  1.00  0.00     0.000 C 
BRANCH   2   3
ATOM      3  C   UNL     1      36.829  67.573  25.913  1.00  0.00     0.000 C 
BRANCH   3   4
ATOM      4  C   UNL     1      35.291  67.559  25.854  1.00  0.00     0.000 C 
BRANCH   4   5
ATOM      5  C   UNL     1      34.704  66.140  25.814  1.00  0.00     0.006 C 
BRANCH   5   6
ATOM      6  C   UNL     1      35.015  65.380  27.107  1.00  0.00     0.053 C 
BRANCH   6   7
ATOM      7  C   UNL     1      34.781  63.915  26.924  1.00  0.00     0.041 C 
ATOM      8  O   UNL     1      34.792  63.142  27.918  1.00  0.00    -0.550 OA
ATOM      9  O   UNL     1      34.603  63.392  25.649  1.00  0.00    -0.550 OA
ENDBRANCH   6   7
ENDBRANCH   5   6
ENDBRANCH   4   5
ENDBRANCH   3   4
ENDBRANCH   2   3
ENDBRANCH   1   2
BRANCH   1  10
ATOM     10  C   UNL     1      39.670  66.799  23.296  1.00  0.00     0.000 C 
BRANCH  10  11
ATOM     11  C   UNL     1      41.007  66.030  23.294  1.00  0.00    -0.000 C 
BRANCH  11  12
ATOM     12  C   UNL     1      41.407  65.404  24.644  1.00  0.00    -0.000 C 
BRANCH  12  13
ATOM     13  C   UNL     1      41.785  63.912  24.582  1.00  0.00    -0.000 C 
BRANCH  13  14
ATOM     14  C   UNL     1      42.430  63.406  25.880  1.00  0.00    -0.000 C 
BRANCH  14  15
ATOM     15  C   UNL     1      42.975  61.984  25.704  1.00  0.00    -0.003 C 
ATOM     16  C   UNL     1      44.476  61.932  25.970  1.00  0.00     0.004 C 
ENDBRANCH  14  15
ENDBRANCH  13  14
ENDBRANCH  12  13
ENDBRANCH  11  12
ENDBRANCH  10  11
ENDBRANCH   1  10
TORSDOF 12
ENDMDL
