MODEL 1
REMARK VINA RESULT:     9.077      0.000      0.000
REMARK INTER + INTRA:          22.535
REMARK INTER:                  23.936
REMARK INTRA:                  -1.400
REMARK UNBOUND:                -1.400
REMARK SMILES CCCCCCCCCCCCCCCCCCCCCCCCCCCCCC(=O)[O-]
REMARK SMILES IDX 16 1 17 2 18 3 19 4 20 5 21 6 22 7 23 8 24 9 25 10 26 11
REMARK SMILES IDX 27 12 28 13 29 14 30 15 31 16 32 17 15 18 14 19 13 20 12 21
REMARK SMILES IDX 11 22 10 23 9 24 8 25 7 26 6 27 5 28 4 29 3 30 2 31 1 32
REMARK H PARENT
REMARK Flexibility Score: inf
ROOT
ATOM      1  C   UNL     1      27.654  49.219  24.932  1.00  0.00     0.000 C 
ENDROOT
BRANCH   1   2
ATOM      2  C   UNL     1      28.453  48.581  26.079  1.00  0.00     0.000 C 
BRANCH   2   3
ATOM      3  C   UNL     1      29.960  48.876  25.993  1.00  0.00     0.000 C 
BRANCH   3   4
ATOM      4  C   UNL     1      30.850  47.656  26.308  1.00  0.00     0.000 C 
BRANCH   4   5
ATOM      5  C   UNL     1      32.241  48.062  26.830  1.00  0.00     0.000 C 
BRANCH   5   6
ATOM      6  C   UNL     1      33.380  47.365  26.065  1.00  0.00     0.000 C 
BRANCH   6   7
ATOM      7  C   UNL     1      33.354  45.837  26.233  1.00  0.00     0.000 C 
BRANCH   7   8
ATOM      8  C   UNL     1      33.510  45.128  24.878  1.00  0.00     0.000 C 
BRANCH   8   9
ATOM      9  C   UNL     1      32.587  45.713  23.793  1.00  0.00     0.000 C 
BRANCH   9  10
ATOM     10  C   UNL     1      33.369  46.352  22.633  1.00  0.00     0.000 C 
BRANCH  10  11
ATOM     11  C   UNL     1      34.569  47.190  23.110  1.00  0.00     0.000 C 
BRANCH  11  12
ATOM     12  C   UNL     1      35.943  46.680  22.644  1.00  0.00     0.000 C 
BRANCH  12  13
ATOM     13  C   UNL     1      36.860  46.285  23.811  1.00  0.00     0.006 C 
BRANCH  13  14
ATOM     14  C   UNL     1      38.100  45.538  23.308  1.00  0.00     0.053 C 
BRANCH  14  15
ATOM     15  C   UNL     1      39.031  45.220  24.437  1.00  0.00     0.041 C 
ATOM     16  O   UNL     1      40.009  44.447  24.256  1.00  0.00    -0.550 OA
ATOM     17  O   UNL     1      38.812  45.769  25.695  1.00  0.00    -0.550 OA
ENDBRANCH  14  15
ENDBRANCH  13  14
ENDBRANCH  12  13
ENDBRANCH  11  12
ENDBRANCH  10  11
ENDBRANCH   9  10
ENDBRANCH   8   9
ENDBRANCH   7   8
ENDBRANCH   6   7
ENDBRANCH   5   6
ENDBRANCH   4   5
ENDBRANCH   3   4
ENDBRANCH   2   3
ENDBRANCH   1   2
BRANCH   1  18
ATOM     18  C   UNL     1      26.203  49.529  25.335  1.00  0.00     0.000 C 
BRANCH  18  19
ATOM     19  C   UNL     1      25.882  51.032  25.253  1.00  0.00     0.000 C 
BRANCH  19  20
ATOM     20  C   UNL     1      24.396  51.309  24.971  1.00  0.00     0.000 C 
BRANCH  20  21
ATOM     21  C   UNL     1      23.617  51.938  26.143  1.00  0.00     0.000 C 
BRANCH  21  22
ATOM     22  C   UNL     1      23.120  53.374  25.870  1.00  0.00     0.000 C 
BRANCH  22  23
ATOM     23  C   UNL     1      22.329  53.955  27.054  1.00  0.00     0.000 C 
BRANCH  23  24
ATOM     24  C   UNL     1      21.547  52.883  27.834  1.00  0.00    -0.000 C 
BRANCH  24  25
ATOM     25  C   UNL     1      20.316  53.401  28.603  1.00  0.00    -0.000 C 
BRANCH  25  26
ATOM     26  C   UNL     1      20.673  54.470  29.651  1.00  0.00    -0.000 C 
BRANCH  26  27
ATOM     27  C   UNL     1      21.141  53.867  30.985  1.00  0.00    -0.000 C 
BRANCH  27  28
ATOM     28  C   UNL     1      21.715  54.921  31.950  1.00  0.00    -0.000 C 
BRANCH  28  29
ATOM     29  C   UNL     1      23.248  54.808  32.097  1.00  0.00    -0.000 C 
BRANCH  29  30
ATOM     30  C   UNL     1      23.710  54.667  33.557  1.00  0.00    -0.000 C 
BRANCH  30  31
ATOM     31  C   UNL     1      22.664  53.986  34.452  1.00  0.00    -0.003 C 
ATOM     32  C   UNL     1      23.138  53.918  35.900  1.00  0.00     0.004 C 
ENDBRANCH  30  31
ENDBRANCH  29  30
ENDBRANCH  28  29
ENDBRANCH  27  28
ENDBRANCH  26  27
ENDBRANCH  25  26
ENDBRANCH  24  25
ENDBRANCH  23  24
ENDBRANCH  22  23
ENDBRANCH  21  22
ENDBRANCH  20  21
ENDBRANCH  19  20
ENDBRANCH  18  19
ENDBRANCH   1  18
TORSDOF 28
ENDMDL
MODEL 2
REMARK VINA RESULT:     9.414      1.172      2.129
REMARK INTER + INTRA:          23.423
REMARK INTER:                  24.500
REMARK INTRA:                  -1.077
REMARK UNBOUND:                -1.400
REMARK SMILES CCCCCCCCCCCCCCCCCCCCCCCCCCCCCC(=O)[O-]
REMARK SMILES IDX 16 1 17 2 18 3 19 4 20 5 21 6 22 7 23 8 24 9 25 10 26 11
REMARK SMILES IDX 27 12 28 13 29 14 30 15 31 16 32 17 15 18 14 19 13 20 12 21
REMARK SMILES IDX 11 22 10 23 9 24 8 25 7 26 6 27 5 28 4 29 3 30 2 31 1 32
REMARK H PARENT
REMARK Flexibility Score: inf
ROOT
ATOM      1  C   UNL     1      26.422  49.612  25.817  1.00  0.00     0.000 C 
ENDROOT
BRANCH   1   2
ATOM      2  C   UNL     1      27.833  49.418  26.396  1.00  0.00     0.000 C 
BRANCH   2   3
ATOM      3  C   UNL     1      28.892  49.161  25.312  1.00  0.00     0.000 C 
BRANCH   3   4
ATOM      4  C   UNL     1      29.650  47.829  25.488  1.00  0.00     0.000 C 
BRANCH   4   5
ATOM      5  C   UNL     1      30.730  47.907  26.583  1.00  0.00     0.000 C 
BRANCH   5   6
ATOM      6  C   UNL     1      32.155  47.851  26.007  1.00  0.00     0.000 C 
BRANCH   6   7
ATOM      7  C   UNL     1      33.119  47.047  26.894  1.00  0.00     0.000 C 
BRANCH   7   8
ATOM      8  C   UNL     1      33.806  45.929  26.094  1.00  0.00     0.000 C 
BRANCH   8   9
ATOM      9  C   UNL     1      32.961  45.448  24.900  1.00  0.00     0.000 C 
BRANCH   9  10
ATOM     10  C   UNL     1      33.104  46.360  23.670  1.00  0.00     0.000 C 
BRANCH  10  11
ATOM     11  C   UNL     1      34.416  47.165  23.670  1.00  0.00     0.000 C 
BRANCH  11  12
ATOM     12  C   UNL     1      35.319  46.935  22.447  1.00  0.00     0.000 C 
BRANCH  12  13
ATOM     13  C   UNL     1      36.747  46.517  22.828  1.00  0.00     0.006 C 
BRANCH  13  14
ATOM     14  C   UNL     1      36.758  45.734  24.145  1.00  0.00     0.053 C 
BRANCH  14  15
ATOM     15  C   UNL     1      38.158  45.402  24.562  1.00  0.00     0.041 C 
ATOM     16  O   UNL     1      38.611  45.823  25.659  1.00  0.00    -0.550 OA
ATOM     17  O   UNL     1      38.968  44.637  23.731  1.00  0.00    -0.550 OA
ENDBRANCH  14  15
ENDBRANCH  13  14
ENDBRANCH  12  13
ENDBRANCH  11  12
ENDBRANCH  10  11
ENDBRANCH   9  10
ENDBRANCH   8   9
ENDBRANCH   7   8
ENDBRANCH   6   7
ENDBRANCH   5   6
ENDBRANCH   4   5
ENDBRANCH   3   4
ENDBRANCH   2   3
ENDBRANCH   1   2
BRANCH   1  18
ATOM     18  C   UNL     1      25.516  50.430  26.753  1.00  0.00     0.000 C 
BRANCH  18  19
ATOM     19  C   UNL     1      24.194  50.836  26.079  1.00  0.00     0.000 C 
BRANCH  19  20
ATOM     20  C   UNL     1      23.008  50.858  27.058  1.00  0.00     0.000 C 
BRANCH  20  21
ATOM     21  C   UNL     1      23.167  51.819  28.252  1.00  0.00     0.000 C 
BRANCH  21  22
ATOM     22  C   UNL     1      22.535  53.210  28.027  1.00  0.00     0.000 C 
BRANCH  22  23
ATOM     23  C   UNL     1      21.089  53.287  28.546  1.00  0.00     0.000 C 
BRANCH  23  24
ATOM     24  C   UNL     1      21.008  53.354  30.082  1.00  0.00    -0.000 C 
BRANCH  24  25
ATOM     25  C   UNL     1      20.685  54.745  30.660  1.00  0.00    -0.000 C 
BRANCH  25  26
ATOM     26  C   UNL     1      20.399  54.713  32.172  1.00  0.00    -0.000 C 
BRANCH  26  27
ATOM     27  C   UNL     1      21.612  55.125  33.020  1.00  0.00    -0.000 C 
BRANCH  27  28
ATOM     28  C   UNL     1      22.646  53.995  33.174  1.00  0.00    -0.000 C 
BRANCH  28  29
ATOM     29  C   UNL     1      23.947  54.479  33.852  1.00  0.00    -0.000 C 
BRANCH  29  30
ATOM     30  C   UNL     1      24.947  55.108  32.867  1.00  0.00    -0.000 C 
BRANCH  30  31
ATOM     31  C   UNL     1      24.559  54.887  31.398  1.00  0.00    -0.003 C 
ATOM     32  C   UNL     1      25.788  54.609  30.539  1.00  0.00     0.004 C 
ENDBRANCH  30  31
ENDBRANCH  29  30
ENDBRANCH  28  29
ENDBRANCH  27  28
ENDBRANCH  26  27
ENDBRANCH  25  26
ENDBRANCH  24  25
ENDBRANCH  23  24
ENDBRANCH  22  23
ENDBRANCH  21  22
ENDBRANCH  20  21
ENDBRANCH  19  20
ENDBRANCH  18  19
ENDBRANCH   1  18
TORSDOF 28
ENDMDL
MODEL 3
REMARK VINA RESULT:     9.614      1.215      2.094
REMARK INTER + INTRA:          23.951
REMARK INTER:                  22.086
REMARK INTRA:                   1.865
REMARK UNBOUND:                -1.400
REMARK SMILES CCCCCCCCCCCCCCCCCCCCCCCCCCCCCC(=O)[O-]
REMARK SMILES IDX 16 1 17 2 18 3 19 4 20 5 21 6 22 7 23 8 24 9 25 10 26 11
REMARK SMILES IDX 27 12 28 13 29 14 30 15 31 16 32 17 15 18 14 19 13 20 12 21
REMARK SMILES IDX 11 22 10 23 9 24 8 25 7 26 6 27 5 28 4 29 3 30 2 31 1 32
REMARK H PARENT
REMARK Flexibility Score: inf
ROOT
ATOM      1  C   UNL     1      26.748  49.974  25.431  1.00  0.00     0.000 C 
ENDROOT
BRANCH   1   2
ATOM      2  C   UNL     1      27.832  49.218  26.217  1.00  0.00     0.000 C 
BRANCH   2   3
ATOM      3  C   UNL     1      29.037  48.828  25.346  1.00  0.00     0.000 C 
BRANCH   3   4
ATOM      4  C   UNL     1      29.970  47.790  26.006  1.00  0.00     0.000 C 
BRANCH   4   5
ATOM      5  C   UNL     1      31.435  48.263  26.055  1.00  0.00     0.000 C 
BRANCH   5   6
ATOM      6  C   UNL     1      32.429  47.089  26.054  1.00  0.00     0.000 C 
BRANCH   6   7
ATOM      7  C   UNL     1      32.130  46.063  24.949  1.00  0.00     0.000 C 
BRANCH   7   8
ATOM      8  C   UNL     1      33.373  45.801  24.085  1.00  0.00     0.000 C 
BRANCH   8   9
ATOM      9  C   UNL     1      34.474  46.858  24.292  1.00  0.00     0.000 C 
BRANCH   9  10
ATOM     10  C   UNL     1      35.650  46.686  23.316  1.00  0.00     0.000 C 
BRANCH  10  11
ATOM     11  C   UNL     1      36.745  45.750  23.857  1.00  0.00     0.000 C 
BRANCH  11  12
ATOM     12  C   UNL     1      37.069  45.926  25.350  1.00  0.00     0.000 C 
BRANCH  12  13
ATOM     13  C   UNL     1      38.578  45.971  25.633  1.00  0.00     0.006 C 
BRANCH  13  14
ATOM     14  C   UNL     1      39.296  44.785  24.981  1.00  0.00     0.053 C 
BRANCH  14  15
ATOM     15  C   UNL     1      39.329  44.930  23.490  1.00  0.00     0.041 C 
ATOM     16  O   UNL     1      38.629  45.809  22.921  1.00  0.00    -0.550 OA
ATOM     17  O   UNL     1      40.125  44.084  22.727  1.00  0.00    -0.550 OA
ENDBRANCH  14  15
ENDBRANCH  13  14
ENDBRANCH  12  13
ENDBRANCH  11  12
ENDBRANCH  10  11
ENDBRANCH   9  10
ENDBRANCH   8   9
ENDBRANCH   7   8
ENDBRANCH   6   7
ENDBRANCH   5   6
ENDBRANCH   4   5
ENDBRANCH   3   4
ENDBRANCH   2   3
ENDBRANCH   1   2
BRANCH   1  18
ATOM     18  C   UNL     1      25.502  50.259  26.285  1.00  0.00     0.000 C 
BRANCH  18  19
ATOM     19  C   UNL     1      24.502  51.184  25.568  1.00  0.00     0.000 C 
BRANCH  19  20
ATOM     20  C   UNL     1      23.867  52.219  26.512  1.00  0.00     0.000 C 
BRANCH  20  21
ATOM     21  C   UNL     1      23.001  51.627  27.641  1.00  0.00     0.000 C 
BRANCH  21  22
ATOM     22  C   UNL     1      21.620  52.299  27.792  1.00  0.00     0.000 C 
BRANCH  22  23
ATOM     23  C   UNL     1      21.666  53.533  28.709  1.00  0.00     0.000 C 
BRANCH  23  24
ATOM     24  C   UNL     1      20.269  54.104  29.014  1.00  0.00    -0.000 C 
BRANCH  24  25
ATOM     25  C   UNL     1      20.142  54.837  30.363  1.00  0.00    -0.000 C 
BRANCH  25  26
ATOM     26  C   UNL     1      21.249  54.450  31.360  1.00  0.00    -0.000 C 
BRANCH  26  27
ATOM     27  C   UNL     1      20.892  54.794  32.814  1.00  0.00    -0.000 C 
BRANCH  27  28
ATOM     28  C   UNL     1      20.754  53.548  33.708  1.00  0.00    -0.000 C 
BRANCH  28  29
ATOM     29  C   UNL     1      21.633  53.634  34.974  1.00  0.00    -0.000 C 
BRANCH  29  30
ATOM     30  C   UNL     1      22.550  54.869  34.995  1.00  0.00    -0.000 C 
BRANCH  30  31
ATOM     31  C   UNL     1      24.036  54.513  34.848  1.00  0.00    -0.003 C 
ATOM     32  C   UNL     1      24.525  54.768  33.426  1.00  0.00     0.004 C 
ENDBRANCH  30  31
ENDBRANCH  29  30
ENDBRANCH  28  29
ENDBRANCH  27  28
ENDBRANCH  26  27
ENDBRANCH  25  26
ENDBRANCH  24  25
ENDBRANCH  23  24
ENDBRANCH  22  23
ENDBRANCH  21  22
ENDBRANCH  20  21
ENDBRANCH  19  20
ENDBRANCH  18  19
ENDBRANCH   1  18
TORSDOF 28
ENDMDL
MODEL 4
REMARK VINA RESULT:    10.681      5.653     15.261
REMARK INTER + INTRA:          26.764
REMARK INTER:                  26.300
REMARK INTRA:                   0.465
REMARK UNBOUND:                -1.400
REMARK SMILES CCCCCCCCCCCCCCCCCCCCCCCCCCCCCC(=O)[O-]
REMARK SMILES IDX 16 1 17 2 18 3 19 4 20 5 21 6 22 7 23 8 24 9 25 10 26 11
REMARK SMILES IDX 27 12 28 13 29 14 30 15 31 16 32 17 15 18 14 19 13 20 12 21
REMARK SMILES IDX 11 22 10 23 9 24 8 25 7 26 6 27 5 28 4 29 3 30 2 31 1 32
REMARK H PARENT
REMARK Flexibility Score: inf
ROOT
ATOM      1  C   UNL     1      24.959  50.437  26.520  1.00  0.00     0.000 C 
ENDROOT
BRANCH   1   2
ATOM      2  C   UNL     1      23.778  51.414  26.407  1.00  0.00     0.000 C 
BRANCH   2   3
ATOM      3  C   UNL     1      22.651  51.106  27.406  1.00  0.00     0.000 C 
BRANCH   3   4
ATOM      4  C   UNL     1      22.684  51.990  28.671  1.00  0.00     0.000 C 
BRANCH   4   5
ATOM      5  C   UNL     1      22.035  53.367  28.443  1.00  0.00     0.000 C 
BRANCH   5   6
ATOM      6  C   UNL     1      20.617  53.452  29.036  1.00  0.00     0.000 C 
BRANCH   6   7
ATOM      7  C   UNL     1      20.597  54.110  30.425  1.00  0.00     0.000 C 
BRANCH   7   8
ATOM      8  C   UNL     1      21.921  54.836  30.713  1.00  0.00     0.000 C 
BRANCH   8   9
ATOM      9  C   UNL     1      23.066  53.868  31.061  1.00  0.00     0.000 C 
BRANCH   9  10
ATOM     10  C   UNL     1      24.002  54.425  32.147  1.00  0.00     0.000 C 
BRANCH  10  11
ATOM     11  C   UNL     1      23.244  54.951  33.378  1.00  0.00     0.000 C 
BRANCH  11  12
ATOM     12  C   UNL     1      24.057  54.968  34.684  1.00  0.00     0.000 C 
BRANCH  12  13
ATOM     13  C   UNL     1      23.429  54.107  35.790  1.00  0.00     0.006 C 
BRANCH  13  14
ATOM     14  C   UNL     1      21.985  54.537  36.069  1.00  0.00     0.053 C 
BRANCH  14  15
ATOM     15  C   UNL     1      21.011  53.603  35.420  1.00  0.00     0.041 C 
ATOM     16  O   UNL     1      20.262  52.875  36.125  1.00  0.00    -0.550 OA
ATOM     17  O   UNL     1      20.938  53.526  34.034  1.00  0.00    -0.550 OA
ENDBRANCH  14  15
ENDBRANCH  13  14
ENDBRANCH  12  13
ENDBRANCH  11  12
ENDBRANCH  10  11
ENDBRANCH   9  10
ENDBRANCH   8   9
ENDBRANCH   7   8
ENDBRANCH   6   7
ENDBRANCH   5   6
ENDBRANCH   4   5
ENDBRANCH   3   4
ENDBRANCH   2   3
ENDBRANCH   1   2
BRANCH   1  18
ATOM     18  C   UNL     1      25.702  50.265  25.185  1.00  0.00     0.000 C 
BRANCH  18  19
ATOM     19  C   UNL     1      27.226  50.404  25.342  1.00  0.00     0.000 C 
BRANCH  19  20
ATOM     20  C   UNL     1      27.881  49.149  25.944  1.00  0.00     0.000 C 
BRANCH  20  21
ATOM     21  C   UNL     1      29.316  48.867  25.461  1.00  0.00     0.000 C 
BRANCH  21  22
ATOM     22  C   UNL     1      29.964  47.622  26.105  1.00  0.00     0.000 C 
BRANCH  22  23
ATOM     23  C   UNL     1      30.867  47.983  27.297  1.00  0.00     0.000 C 
BRANCH  23  24
ATOM     24  C   UNL     1      32.288  47.403  27.168  1.00  0.00    -0.000 C 
BRANCH  24  25
ATOM     25  C   UNL     1      32.859  47.386  25.738  1.00  0.00    -0.000 C 
BRANCH  25  26
ATOM     26  C   UNL     1      32.978  45.965  25.159  1.00  0.00    -0.000 C 
BRANCH  26  27
ATOM     27  C   UNL     1      33.332  45.955  23.663  1.00  0.00    -0.000 C 
BRANCH  27  28
ATOM     28  C   UNL     1      34.456  46.945  23.307  1.00  0.00    -0.000 C 
BRANCH  28  29
ATOM     29  C   UNL     1      35.735  46.703  24.138  1.00  0.00    -0.000 C 
BRANCH  29  30
ATOM     30  C   UNL     1      36.890  46.107  23.316  1.00  0.00    -0.000 C 
BRANCH  30  31
ATOM     31  C   UNL     1      37.920  45.368  24.182  1.00  0.00    -0.003 C 
ATOM     32  C   UNL     1      37.968  45.943  25.594  1.00  0.00     0.004 C 
ENDBRANCH  30  31
ENDBRANCH  29  30
ENDBRANCH  28  29
ENDBRANCH  27  28
ENDBRANCH  26  27
ENDBRANCH  25  26
ENDBRANCH  24  25
ENDBRANCH  23  24
ENDBRANCH  22  23
ENDBRANCH  21  22
ENDBRANCH  20  21
ENDBRANCH  19  20
ENDBRANCH  18  19
ENDBRANCH   1  18
TORSDOF 28
ENDMDL
MODEL 5
REMARK VINA RESULT:    10.693      5.149     14.973
REMARK INTER + INTRA:          26.797
REMARK INTER:                  26.172
REMARK INTRA:                   0.625
REMARK UNBOUND:                -1.400
REMARK SMILES CCCCCCCCCCCCCCCCCCCCCCCCCCCCCC(=O)[O-]
REMARK SMILES IDX 16 1 17 2 18 3 19 4 20 5 21 6 22 7 23 8 24 9 25 10 26 11
REMARK SMILES IDX 27 12 28 13 29 14 30 15 31 16 32 17 15 18 14 19 13 20 12 21
REMARK SMILES IDX 11 22 10 23 9 24 8 25 7 26 6 27 5 28 4 29 3 30 2 31 1 32
REMARK H PARENT
REMARK Flexibility Score: inf
ROOT
ATOM      1  C   UNL     1      25.275  50.324  25.873  1.00  0.00     0.000 C 
ENDROOT
BRANCH   1   2
ATOM      2  C   UNL     1      23.928  51.033  25.656  1.00  0.00     0.000 C 
BRANCH   2   3
ATOM      3  C   UNL     1      23.700  52.194  26.638  1.00  0.00     0.000 C 
BRANCH   3   4
ATOM      4  C   UNL     1      23.573  51.747  28.109  1.00  0.00     0.000 C 
BRANCH   4   5
ATOM      5  C   UNL     1      22.208  52.113  28.720  1.00  0.00     0.000 C 
BRANCH   5   6
ATOM      6  C   UNL     1      21.353  52.971  27.771  1.00  0.00     0.000 C 
BRANCH   6   7
ATOM      7  C   UNL     1      21.036  54.358  28.354  1.00  0.00     0.000 C 
BRANCH   7   8
ATOM      8  C   UNL     1      20.101  54.247  29.569  1.00  0.00     0.000 C 
BRANCH   8   9
ATOM      9  C   UNL     1      20.866  54.193  30.904  1.00  0.00     0.000 C 
BRANCH   9  10
ATOM     10  C   UNL     1      20.070  54.808  32.068  1.00  0.00     0.000 C 
BRANCH  10  11
ATOM     11  C   UNL     1      19.984  53.878  33.291  1.00  0.00     0.000 C 
BRANCH  11  12
ATOM     12  C   UNL     1      21.260  53.813  34.148  1.00  0.00     0.000 C 
BRANCH  12  13
ATOM     13  C   UNL     1      21.546  55.125  34.893  1.00  0.00     0.006 C 
BRANCH  13  14
ATOM     14  C   UNL     1      22.874  55.047  35.653  1.00  0.00     0.053 C 
BRANCH  14  15
ATOM     15  C   UNL     1      24.031  54.958  34.706  1.00  0.00     0.041 C 
ATOM     16  O   UNL     1      25.208  54.868  35.146  1.00  0.00    -0.550 OA
ATOM     17  O   UNL     1      23.811  54.987  33.334  1.00  0.00    -0.550 OA
ENDBRANCH  14  15
ENDBRANCH  13  14
ENDBRANCH  12  13
ENDBRANCH  11  12
ENDBRANCH  10  11
ENDBRANCH   9  10
ENDBRANCH   8   9
ENDBRANCH   7   8
ENDBRANCH   6   7
ENDBRANCH   5   6
ENDBRANCH   4   5
ENDBRANCH   3   4
ENDBRANCH   2   3
ENDBRANCH   1   2
BRANCH   1  18
ATOM     18  C   UNL     1      25.924  49.889  24.549  1.00  0.00     0.000 C 
BRANCH  18  19
ATOM     19  C   UNL     1      27.461  49.893  24.622  1.00  0.00     0.000 C 
BRANCH  19  20
ATOM     20  C   UNL     1      28.002  49.077  25.808  1.00  0.00     0.000 C 
BRANCH  20  21
ATOM     21  C   UNL     1      29.304  48.302  25.525  1.00  0.00     0.000 C 
BRANCH  21  22
ATOM     22  C   UNL     1      30.464  48.651  26.484  1.00  0.00     0.000 C 
BRANCH  22  23
ATOM     23  C   UNL     1      31.785  47.979  26.073  1.00  0.00     0.000 C 
BRANCH  23  24
ATOM     24  C   UNL     1      32.375  47.091  27.184  1.00  0.00    -0.000 C 
BRANCH  24  25
ATOM     25  C   UNL     1      33.687  46.371  26.819  1.00  0.00    -0.000 C 
BRANCH  25  26
ATOM     26  C   UNL     1      33.698  45.846  25.373  1.00  0.00    -0.000 C 
BRANCH  26  27
ATOM     27  C   UNL     1      32.312  45.392  24.890  1.00  0.00    -0.000 C 
BRANCH  27  28
ATOM     28  C   UNL     1      32.079  45.665  23.393  1.00  0.00    -0.000 C 
BRANCH  28  29
ATOM     29  C   UNL     1      33.393  45.973  22.642  1.00  0.00    -0.000 C 
BRANCH  29  30
ATOM     30  C   UNL     1      34.129  47.209  23.188  1.00  0.00    -0.000 C 
BRANCH  30  31
ATOM     31  C   UNL     1      35.616  47.238  22.802  1.00  0.00    -0.003 C 
ATOM     32  C   UNL     1      36.410  46.205  23.594  1.00  0.00     0.004 C 
ENDBRANCH  30  31
ENDBRANCH  29  30
ENDBRANCH  28  29
ENDBRANCH  27  28
ENDBRANCH  26  27
ENDBRANCH  25  26
ENDBRANCH  24  25
ENDBRANCH  23  24
ENDBRANCH  22  23
ENDBRANCH  21  22
ENDBRANCH  20  21
ENDBRANCH  19  20
ENDBRANCH  18  19
ENDBRANCH   1  18
TORSDOF 28
ENDMDL
