MODEL 1
REMARK VINA RESULT:    -4.304      0.000      0.000
REMARK INTER + INTRA:          -6.585
REMARK INTER:                  -6.569
REMARK INTRA:                  -0.016
REMARK UNBOUND:                -0.016
REMARK SMILES CC1=CCC[C@H](C)C(=O)C[C@H](C(C)C)C(=O)C1
REMARK SMILES IDX 8 1 9 2 6 3 7 4 5 5 4 6 3 7 2 8 1 9 10 11 11 12 15 13 16 14
REMARK SMILES IDX 17 15 12 17 13 18 14 19
REMARK H PARENT
REMARK Flexibility Score: 70.00
ROOT
ATOM      1  C   UNL     1     -15.753 -21.207  23.635  1.00  0.00     0.136 C 
ATOM      2  O   UNL     1     -16.632 -20.697  24.313  1.00  0.00    -0.299 OA
ENDROOT
BRANCH   1   3
ATOM      3  C   UNL     1     -16.103 -21.629  22.216  1.00  0.00     0.053 C 
ATOM      4  C   UNL     1     -17.565 -21.343  21.830  1.00  0.00     0.016 C 
BRANCH   3   5
ATOM      5  C   UNL     1     -15.079 -21.107  21.182  1.00  0.00     0.015 C 
BRANCH   5   6
ATOM      6  C   UNL     1     -14.276 -22.213  20.473  1.00  0.00     0.028 C 
BRANCH   6   7
ATOM      7  C   UNL     1     -12.834 -21.833  20.242  1.00  0.00    -0.028 C 
ATOM      8  C   UNL     1     -11.786 -22.224  21.009  1.00  0.00    -0.070 CG0
ATOM      9  C   UNL     1     -10.425 -21.670  20.671  1.00  0.00     0.039 C 
ATOM     10  G   UNL     1     -11.907 -23.214  22.163  1.00  0.00     0.000 G0
ENDBRANCH   6   7
ENDBRANCH   5   6
ENDBRANCH   3   5
ENDBRANCH   1   3
BRANCH   1  11
ATOM     11  C   UNL     1     -14.374 -21.364  24.251  1.00  0.00     0.087 C 
BRANCH  11  12
ATOM     12  C   UNL     1     -13.753 -22.755  23.959  1.00  0.00     0.066 C 
BRANCH  12  13
ATOM     13  C   UNL     1     -12.318 -22.622  23.470  1.00  0.00     0.140 C 
ATOM     14  O   UNL     1     -11.482 -22.040  24.146  1.00  0.00    -0.299 OA
BRANCH  13  15
ATOM     15  C   UNL     1     -11.915 -23.230  22.150  1.00  0.00     0.106 CG0
ATOM     16  G   UNL     1     -11.784 -22.214  21.021  1.00  0.00     0.000 G0
ENDBRANCH  13  15
ENDBRANCH  12  13
BRANCH  12  17
ATOM     17  C   UNL     1     -13.928 -23.747  25.153  1.00  0.00    -0.006 C 
ATOM     18  C   UNL     1     -13.050 -24.997  24.987  1.00  0.00     0.008 C 
ATOM     19  C   UNL     1     -13.711 -23.121  26.544  1.00  0.00     0.008 C 
ENDBRANCH  12  17
ENDBRANCH  11  12
ENDBRANCH   1  11
TORSDOF 1
ENDMDL
MODEL 2
REMARK VINA RESULT:    -3.927      2.501      4.876
REMARK INTER + INTRA:          -6.010
REMARK INTER:                  -6.071
REMARK INTRA:                   0.061
REMARK UNBOUND:                -0.016
REMARK SMILES CC1=CCC[C@H](C)C(=O)C[C@H](C(C)C)C(=O)C1
REMARK SMILES IDX 8 1 9 2 6 3 7 4 5 5 4 6 3 7 2 8 1 9 10 11 11 12 15 13 16 14
REMARK SMILES IDX 17 15 12 17 13 18 14 19
REMARK H PARENT
REMARK Flexibility Score: 70.00
ROOT
ATOM      1  C   UNL     1     -13.140 -22.434  20.101  1.00  0.00     0.136 C 
ATOM      2  O   UNL     1     -13.708 -22.837  19.096  1.00  0.00    -0.299 OA
ENDROOT
BRANCH   1   3
ATOM      3  C   UNL     1     -13.995 -21.847  21.213  1.00  0.00     0.053 C 
ATOM      4  C   UNL     1     -15.331 -21.262  20.723  1.00  0.00     0.016 C 
BRANCH   3   5
ATOM      5  C   UNL     1     -14.149 -22.818  22.406  1.00  0.00     0.015 C 
BRANCH   5   6
ATOM      6  C   UNL     1     -12.898 -22.927  23.299  1.00  0.00     0.028 C 
BRANCH   6   7
ATOM      7  C   UNL     1     -12.466 -21.598  23.868  1.00  0.00    -0.028 C 
ATOM      8  C   UNL     1     -11.325 -20.940  23.544  1.00  0.00    -0.070 CG0
ATOM      9  C   UNL     1     -11.021 -19.661  24.284  1.00  0.00     0.039 C 
ATOM     10  G   UNL     1     -10.363 -21.403  22.455  1.00  0.00     0.000 G0
ENDBRANCH   6   7
ENDBRANCH   5   6
ENDBRANCH   3   5
ENDBRANCH   1   3
BRANCH   1  11
ATOM     11  C   UNL     1     -11.630 -22.569  20.172  1.00  0.00     0.087 C 
BRANCH  11  12
ATOM     12  C   UNL     1     -10.904 -21.228  19.888  1.00  0.00     0.066 C 
BRANCH  12  13
ATOM     13  C   UNL     1     -10.435 -20.575  21.180  1.00  0.00     0.140 C 
ATOM     14  O   UNL     1     -10.133 -19.391  21.204  1.00  0.00    -0.299 OA
BRANCH  13  15
ATOM     15  C   UNL     1     -10.361 -21.388  22.448  1.00  0.00     0.106 CG0
ATOM     16  G   UNL     1     -11.325 -20.920  23.533  1.00  0.00     0.000 G0
ENDBRANCH  13  15
ENDBRANCH  12  13
BRANCH  12  17
ATOM     17  C   UNL     1      -9.787 -21.375  18.806  1.00  0.00    -0.006 C 
ATOM     18  C   UNL     1      -9.066 -22.728  18.915  1.00  0.00     0.008 C 
ATOM     19  C   UNL     1     -10.258 -21.133  17.360  1.00  0.00     0.008 C 
ENDBRANCH  12  17
ENDBRANCH  11  12
ENDBRANCH   1  11
TORSDOF 1
ENDMDL
MODEL 3
REMARK VINA RESULT:    -3.873      2.238      3.687
REMARK INTER + INTRA:          -5.926
REMARK INTER:                  -5.519
REMARK INTRA:                  -0.407
REMARK UNBOUND:                -0.016
REMARK SMILES CC1=CCC[C@H](C)C(=O)C[C@H](C(C)C)C(=O)C1
REMARK SMILES IDX 8 1 9 2 6 3 7 4 5 5 4 6 3 7 2 8 1 9 10 11 11 12 15 13 16 14
REMARK SMILES IDX 17 15 12 17 13 18 14 19
REMARK H PARENT
REMARK Flexibility Score: 70.00
ROOT
ATOM      1  C   UNL     1     -12.849 -21.426  21.417  1.00  0.00     0.136 C 
ATOM      2  O   UNL     1     -13.916 -21.886  21.038  1.00  0.00    -0.299 OA
ENDROOT
BRANCH   1   3
ATOM      3  C   UNL     1     -11.774 -21.170  20.371  1.00  0.00     0.053 C 
ATOM      4  C   UNL     1     -10.953 -19.895  20.627  1.00  0.00     0.016 C 
BRANCH   3   5
ATOM      5  C   UNL     1     -10.904 -22.421  20.110  1.00  0.00     0.015 C 
BRANCH   5   6
ATOM      6  C   UNL     1      -9.425 -22.259  20.511  1.00  0.00     0.028 C 
BRANCH   6   7
ATOM      7  C   UNL     1      -8.992 -23.246  21.567  1.00  0.00    -0.028 C 
ATOM      8  C   UNL     1      -9.043 -23.035  22.906  1.00  0.00    -0.070 CG0
ATOM      9  C   UNL     1      -8.483 -24.109  23.805  1.00  0.00     0.039 C 
ATOM     10  G   UNL     1      -9.665 -21.797  23.543  1.00  0.00     0.000 G0
ENDBRANCH   6   7
ENDBRANCH   5   6
ENDBRANCH   3   5
ENDBRANCH   1   3
BRANCH   1  11
ATOM     11  C   UNL     1     -12.682 -21.127  22.896  1.00  0.00     0.087 C 
BRANCH  11  12
ATOM     12  C   UNL     1     -12.220 -22.370  23.700  1.00  0.00     0.066 C 
BRANCH  12  13
ATOM     13  C   UNL     1     -10.891 -22.109  24.394  1.00  0.00     0.140 C 
ATOM     14  O   UNL     1     -10.803 -22.165  25.611  1.00  0.00    -0.299 OA
BRANCH  13  15
ATOM     15  C   UNL     1      -9.664 -21.801  23.573  1.00  0.00     0.106 CG0
ATOM     16  G   UNL     1      -9.045 -23.027  22.910  1.00  0.00     0.000 G0
ENDBRANCH  13  15
ENDBRANCH  12  13
BRANCH  12  17
ATOM     17  C   UNL     1     -13.337 -22.913  24.648  1.00  0.00    -0.006 C 
ATOM     18  C   UNL     1     -14.548 -21.969  24.697  1.00  0.00     0.008 C 
ATOM     19  C   UNL     1     -13.791 -24.353  24.345  1.00  0.00     0.008 C 
ENDBRANCH  12  17
ENDBRANCH  11  12
ENDBRANCH   1  11
TORSDOF 1
ENDMDL
MODEL 4
REMARK VINA RESULT:    -3.841      2.281      4.492
REMARK INTER + INTRA:          -5.878
REMARK INTER:                  -6.015
REMARK INTRA:                   0.137
REMARK UNBOUND:                -0.016
REMARK SMILES CC1=CCC[C@H](C)C(=O)C[C@H](C(C)C)C(=O)C1
REMARK SMILES IDX 8 1 9 2 6 3 7 4 5 5 4 6 3 7 2 8 1 9 10 11 11 12 15 13 16 14
REMARK SMILES IDX 17 15 12 17 13 18 14 19
REMARK H PARENT
REMARK Flexibility Score: 70.00
ROOT
ATOM      1  C   UNL     1     -11.617 -22.070  20.013  1.00  0.00     0.136 C 
ATOM      2  O   UNL     1     -11.753 -23.184  19.529  1.00  0.00    -0.299 OA
ENDROOT
BRANCH   1   3
ATOM      3  C   UNL     1     -10.298 -21.350  19.780  1.00  0.00     0.053 C 
ATOM      4  C   UNL     1      -9.590 -21.762  18.478  1.00  0.00     0.016 C 
BRANCH   3   5
ATOM      5  C   UNL     1     -10.430 -19.819  19.952  1.00  0.00     0.015 C 
BRANCH   5   6
ATOM      6  C   UNL     1     -10.289 -19.330  21.405  1.00  0.00     0.028 C 
BRANCH   6   7
ATOM      7  C   UNL     1      -9.327 -20.165  22.214  1.00  0.00    -0.028 C 
ATOM      8  C   UNL     1      -9.671 -20.993  23.232  1.00  0.00    -0.070 CG0
ATOM      9  C   UNL     1      -8.557 -21.681  23.981  1.00  0.00     0.039 C 
ATOM     10  G   UNL     1     -11.113 -21.290  23.629  1.00  0.00     0.000 G0
ENDBRANCH   6   7
ENDBRANCH   5   6
ENDBRANCH   3   5
ENDBRANCH   1   3
BRANCH   1  11
ATOM     11  C   UNL     1     -12.780 -21.481  20.792  1.00  0.00     0.087 C 
BRANCH  11  12
ATOM     12  C   UNL     1     -13.044 -22.237  22.120  1.00  0.00     0.066 C 
BRANCH  12  13
ATOM     13  C   UNL     1     -11.752 -22.443  22.899  1.00  0.00     0.140 C 
ATOM     14  O   UNL     1     -11.208 -23.537  22.923  1.00  0.00    -0.299 OA
BRANCH  13  15
ATOM     15  C   UNL     1     -11.124 -21.283  23.630  1.00  0.00     0.106 CG0
ATOM     16  G   UNL     1      -9.681 -21.010  23.221  1.00  0.00     0.000 G0
ENDBRANCH  13  15
ENDBRANCH  12  13
BRANCH  12  17
ATOM     17  C   UNL     1     -14.194 -21.590  22.955  1.00  0.00    -0.006 C 
ATOM     18  C   UNL     1     -15.447 -21.344  22.100  1.00  0.00     0.008 C 
ATOM     19  C   UNL     1     -14.563 -22.356  24.239  1.00  0.00     0.008 C 
ENDBRANCH  12  17
ENDBRANCH  11  12
ENDBRANCH   1  11
TORSDOF 1
ENDMDL
MODEL 5
REMARK VINA RESULT:    -3.822      8.241     10.743
REMARK INTER + INTRA:          -5.849
REMARK INTER:                  -5.351
REMARK INTRA:                  -0.498
REMARK UNBOUND:                -0.016
REMARK SMILES CC1=CCC[C@H](C)C(=O)C[C@H](C(C)C)C(=O)C1
REMARK SMILES IDX 8 1 9 2 6 3 7 4 5 5 4 6 3 7 2 8 1 9 10 11 11 12 15 13 16 14
REMARK SMILES IDX 17 15 12 17 13 18 14 19
REMARK H PARENT
REMARK Flexibility Score: 70.00
ROOT
ATOM      1  C   UNL     1      -5.275 -16.689  26.310  1.00  0.00     0.136 C 
ATOM      2  O   UNL     1      -5.740 -17.089  27.368  1.00  0.00    -0.299 OA
ENDROOT
BRANCH   1   3
ATOM      3  C   UNL     1      -4.333 -17.613  25.553  1.00  0.00     0.053 C 
ATOM      4  C   UNL     1      -2.955 -17.770  26.218  1.00  0.00     0.016 C 
BRANCH   3   5
ATOM      5  C   UNL     1      -5.001 -18.960  25.194  1.00  0.00     0.015 C 
BRANCH   5   6
ATOM      6  C   UNL     1      -5.906 -18.906  23.948  1.00  0.00     0.028 C 
BRANCH   6   7
ATOM      7  C   UNL     1      -7.351 -18.633  24.286  1.00  0.00    -0.028 C 
ATOM      8  C   UNL     1      -8.054 -17.539  23.899  1.00  0.00    -0.070 CG0
ATOM      9  C   UNL     1      -9.467 -17.399  24.409  1.00  0.00     0.039 C 
ATOM     10  G   UNL     1      -7.507 -16.474  22.955  1.00  0.00     0.000 G0
ENDBRANCH   6   7
ENDBRANCH   5   6
ENDBRANCH   3   5
ENDBRANCH   1   3
BRANCH   1  11
ATOM     11  C   UNL     1      -5.687 -15.312  25.822  1.00  0.00     0.087 C 
BRANCH  11  12
ATOM     12  C   UNL     1      -5.631 -15.192  24.277  1.00  0.00     0.066 C 
BRANCH  12  13
ATOM     13  C   UNL     1      -7.028 -15.225  23.675  1.00  0.00     0.140 C 
ATOM     14  O   UNL     1      -7.761 -14.250  23.750  1.00  0.00    -0.299 OA
BRANCH  13  15
ATOM     15  C   UNL     1      -7.508 -16.463  22.959  1.00  0.00     0.106 CG0
ATOM     16  G   UNL     1      -8.063 -17.534  23.892  1.00  0.00     0.000 G0
ENDBRANCH  13  15
ENDBRANCH  12  13
BRANCH  12  17
ATOM     17  C   UNL     1      -4.763 -13.982  23.806  1.00  0.00    -0.006 C 
ATOM     18  C   UNL     1      -3.403 -13.947  24.521  1.00  0.00     0.008 C 
ATOM     19  C   UNL     1      -4.569 -13.888  22.281  1.00  0.00     0.008 C 
ENDBRANCH  12  17
ENDBRANCH  11  12
ENDBRANCH   1  11
TORSDOF 1
ENDMDL
MODEL 6
REMARK VINA RESULT:    -3.817      1.837      3.947
REMARK INTER + INTRA:          -5.841
REMARK INTER:                  -5.936
REMARK INTRA:                   0.095
REMARK UNBOUND:                -0.016
REMARK SMILES CC1=CCC[C@H](C)C(=O)C[C@H](C(C)C)C(=O)C1
REMARK SMILES IDX 8 1 9 2 6 3 7 4 5 5 4 6 3 7 2 8 1 9 10 11 11 12 15 13 16 14
REMARK SMILES IDX 17 15 12 17 13 18 14 19
REMARK H PARENT
REMARK Flexibility Score: 70.00
ROOT
ATOM      1  C   UNL     1     -13.740 -21.494  21.165  1.00  0.00     0.136 C 
ATOM      2  O   UNL     1     -14.663 -21.920  20.486  1.00  0.00    -0.299 OA
ENDROOT
BRANCH   1   3
ATOM      3  C   UNL     1     -12.337 -21.563  20.582  1.00  0.00     0.053 C 
ATOM      4  C   UNL     1     -11.440 -20.380  20.987  1.00  0.00     0.016 C 
BRANCH   3   5
ATOM      5  C   UNL     1     -11.677 -22.942  20.809  1.00  0.00     0.015 C 
BRANCH   5   6
ATOM      6  C   UNL     1     -10.620 -22.962  21.929  1.00  0.00     0.028 C 
BRANCH   6   7
ATOM      7  C   UNL     1     -10.936 -23.960  23.015  1.00  0.00    -0.028 C 
ATOM      8  C   UNL     1     -11.703 -23.715  24.107  1.00  0.00    -0.070 CG0
ATOM      9  C   UNL     1     -11.835 -24.815  25.131  1.00  0.00     0.039 C 
ATOM     10  G   UNL     1     -12.461 -22.411  24.332  1.00  0.00     0.000 G0
ENDBRANCH   6   7
ENDBRANCH   5   6
ENDBRANCH   3   5
ENDBRANCH   1   3
BRANCH   1  11
ATOM     11  C   UNL     1     -14.064 -20.912  22.529  1.00  0.00     0.087 C 
BRANCH  11  12
ATOM     12  C   UNL     1     -14.864 -21.900  23.417  1.00  0.00     0.066 C 
BRANCH  12  13
ATOM     13  C   UNL     1     -13.962 -22.559  24.451  1.00  0.00     0.140 C 
ATOM     14  O   UNL     1     -14.439 -23.233  25.353  1.00  0.00    -0.299 OA
BRANCH  13  15
ATOM     15  C   UNL     1     -12.466 -22.401  24.353  1.00  0.00     0.106 CG0
ATOM     16  G   UNL     1     -11.726 -23.710  24.101  1.00  0.00     0.000 G0
ENDBRANCH  13  15
ENDBRANCH  12  13
BRANCH  12  17
ATOM     17  C   UNL     1     -16.152 -21.252  24.018  1.00  0.00    -0.006 C 
ATOM     18  C   UNL     1     -15.824 -20.000  24.847  1.00  0.00     0.008 C 
ATOM     19  C   UNL     1     -17.252 -20.938  22.986  1.00  0.00     0.008 C 
ENDBRANCH  12  17
ENDBRANCH  11  12
ENDBRANCH   1  11
TORSDOF 1
ENDMDL
MODEL 7
REMARK VINA RESULT:    -3.773      2.069      5.365
REMARK INTER + INTRA:          -5.774
REMARK INTER:                  -5.641
REMARK INTRA:                  -0.133
REMARK UNBOUND:                -0.016
REMARK SMILES CC1=CCC[C@H](C)C(=O)C[C@H](C(C)C)C(=O)C1
REMARK SMILES IDX 8 1 9 2 6 3 7 4 5 5 4 6 3 7 2 8 1 9 10 11 11 12 15 13 16 14
REMARK SMILES IDX 17 15 12 17 13 18 14 19
REMARK H PARENT
REMARK Flexibility Score: 70.00
ROOT
ATOM      1  C   UNL     1     -10.429 -22.944  23.283  1.00  0.00     0.136 C 
ATOM      2  O   UNL     1      -9.583 -22.742  24.143  1.00  0.00    -0.299 OA
ENDROOT
BRANCH   1   3
ATOM      3  C   UNL     1     -11.235 -24.231  23.368  1.00  0.00     0.053 C 
ATOM      4  C   UNL     1     -10.388 -25.471  23.704  1.00  0.00     0.016 C 
BRANCH   3   5
ATOM      5  C   UNL     1     -12.485 -24.079  24.264  1.00  0.00     0.015 C 
BRANCH   5   6
ATOM      6  C   UNL     1     -13.078 -22.657  24.289  1.00  0.00     0.028 C 
BRANCH   6   7
ATOM      7  C   UNL     1     -14.345 -22.536  23.479  1.00  0.00    -0.028 C 
ATOM      8  C   UNL     1     -14.467 -21.864  22.308  1.00  0.00    -0.070 CG0
ATOM      9  C   UNL     1     -15.840 -21.781  21.688  1.00  0.00     0.039 C 
ATOM     10  G   UNL     1     -13.293 -21.224  21.575  1.00  0.00     0.000 G0
ENDBRANCH   6   7
ENDBRANCH   5   6
ENDBRANCH   3   5
ENDBRANCH   1   3
BRANCH   1  11
ATOM     11  C   UNL     1     -10.625 -21.889  22.210  1.00  0.00     0.087 C 
BRANCH  11  12
ATOM     12  C   UNL     1     -11.121 -22.495  20.871  1.00  0.00     0.066 C 
BRANCH  12  13
ATOM     13  C   UNL     1     -12.580 -22.145  20.619  1.00  0.00     0.140 C 
ATOM     14  O   UNL     1     -13.179 -22.623  19.667  1.00  0.00    -0.299 OA
BRANCH  13  15
ATOM     15  C   UNL     1     -13.304 -21.217  21.563  1.00  0.00     0.106 CG0
ATOM     16  G   UNL     1     -14.460 -21.877  22.305  1.00  0.00     0.000 G0
ENDBRANCH  13  15
ENDBRANCH  12  13
BRANCH  12  17
ATOM     17  C   UNL     1     -10.171 -22.158  19.678  1.00  0.00    -0.006 C 
ATOM     18  C   UNL     1      -9.956 -20.643  19.534  1.00  0.00     0.008 C 
ATOM     19  C   UNL     1      -8.816 -22.891  19.710  1.00  0.00     0.008 C 
ENDBRANCH  12  17
ENDBRANCH  11  12
ENDBRANCH   1  11
TORSDOF 1
ENDMDL
MODEL 8
REMARK VINA RESULT:    -3.721      2.268      4.524
REMARK INTER + INTRA:          -5.694
REMARK INTER:                  -5.443
REMARK INTRA:                  -0.251
REMARK UNBOUND:                -0.016
REMARK SMILES CC1=CCC[C@H](C)C(=O)C[C@H](C(C)C)C(=O)C1
REMARK SMILES IDX 8 1 9 2 6 3 7 4 5 5 4 6 3 7 2 8 1 9 10 11 11 12 15 13 16 14
REMARK SMILES IDX 17 15 12 17 13 18 14 19
REMARK H PARENT
REMARK Flexibility Score: 70.00
ROOT
ATOM      1  C   UNL     1     -11.383 -21.280  21.401  1.00  0.00     0.136 C 
ATOM      2  O   UNL     1     -11.137 -20.159  20.981  1.00  0.00    -0.299 OA
ENDROOT
BRANCH   1   3
ATOM      3  C   UNL     1     -10.841 -22.468  20.621  1.00  0.00     0.053 C 
ATOM      4  C   UNL     1     -11.150 -22.411  19.115  1.00  0.00     0.016 C 
BRANCH   3   5
ATOM      5  C   UNL     1      -9.352 -22.741  20.934  1.00  0.00     0.015 C 
BRANCH   5   6
ATOM      6  C   UNL     1      -8.976 -22.572  22.418  1.00  0.00     0.028 C 
BRANCH   6   7
ATOM      7  C   UNL     1      -9.033 -23.868  23.189  1.00  0.00    -0.028 C 
ATOM      8  C   UNL     1      -9.936 -24.167  24.156  1.00  0.00    -0.070 CG0
ATOM      9  C   UNL     1      -9.780 -25.483  24.876  1.00  0.00     0.039 C 
ATOM     10  G   UNL     1     -11.110 -23.266  24.522  1.00  0.00     0.000 G0
ENDBRANCH   6   7
ENDBRANCH   5   6
ENDBRANCH   3   5
ENDBRANCH   1   3
BRANCH   1  11
ATOM     11  C   UNL     1     -12.194 -21.403  22.679  1.00  0.00     0.087 C 
BRANCH  11  12
ATOM     12  C   UNL     1     -12.986 -22.734  22.749  1.00  0.00     0.066 C 
BRANCH  12  13
ATOM     13  C   UNL     1     -12.410 -23.659  23.811  1.00  0.00     0.140 C 
ATOM     14  O   UNL     1     -12.963 -24.714  24.086  1.00  0.00    -0.299 OA
BRANCH  13  15
ATOM     15  C   UNL     1     -11.131 -23.285  24.519  1.00  0.00     0.106 CG0
ATOM     16  G   UNL     1      -9.944 -24.167  24.147  1.00  0.00     0.000 G0
ENDBRANCH  13  15
ENDBRANCH  12  13
BRANCH  12  17
ATOM     17  C   UNL     1     -14.526 -22.504  22.874  1.00  0.00    -0.006 C 
ATOM     18  C   UNL     1     -14.890 -21.808  24.195  1.00  0.00     0.008 C 
ATOM     19  C   UNL     1     -15.162 -21.762  21.684  1.00  0.00     0.008 C 
ENDBRANCH  12  17
ENDBRANCH  11  12
ENDBRANCH   1  11
TORSDOF 1
ENDMDL
MODEL 9
REMARK VINA RESULT:    -3.682      2.565      3.877
REMARK INTER + INTRA:          -5.635
REMARK INTER:                  -5.358
REMARK INTRA:                  -0.277
REMARK UNBOUND:                -0.016
REMARK SMILES CC1=CCC[C@H](C)C(=O)C[C@H](C(C)C)C(=O)C1
REMARK SMILES IDX 8 1 9 2 6 3 7 4 5 5 4 6 3 7 2 8 1 9 10 11 11 12 15 13 16 14
REMARK SMILES IDX 17 15 12 17 13 18 14 19
REMARK H PARENT
REMARK Flexibility Score: 70.00
ROOT
ATOM      1  C   UNL     1     -12.861 -21.967  21.002  1.00  0.00     0.136 C 
ATOM      2  O   UNL     1     -13.810 -21.960  20.232  1.00  0.00    -0.299 OA
ENDROOT
BRANCH   1   3
ATOM      3  C   UNL     1     -11.472 -22.176  20.417  1.00  0.00     0.053 C 
ATOM      4  C   UNL     1     -11.426 -23.231  19.298  1.00  0.00     0.016 C 
BRANCH   3   5
ATOM      5  C   UNL     1     -10.794 -20.841  20.033  1.00  0.00     0.015 C 
BRANCH   5   6
ATOM      6  C   UNL     1     -11.166 -19.657  20.945  1.00  0.00     0.028 C 
BRANCH   6   7
ATOM      7  C   UNL     1     -10.093 -19.337  21.957  1.00  0.00    -0.028 C 
ATOM      8  C   UNL     1     -10.247 -19.381  23.304  1.00  0.00    -0.070 CG0
ATOM      9  C   UNL     1      -9.082 -18.942  24.156  1.00  0.00     0.039 C 
ATOM     10  G   UNL     1     -11.510 -19.883  23.994  1.00  0.00     0.000 G0
ENDBRANCH   6   7
ENDBRANCH   5   6
ENDBRANCH   3   5
ENDBRANCH   1   3
BRANCH   1  11
ATOM     11  C   UNL     1     -13.135 -21.749  22.479  1.00  0.00     0.087 C 
BRANCH  11  12
ATOM     12  C   UNL     1     -12.041 -22.378  23.381  1.00  0.00     0.066 C 
BRANCH  12  13
ATOM     13  C   UNL     1     -11.480 -21.352  24.356  1.00  0.00     0.140 C 
ATOM     14  O   UNL     1     -10.984 -21.707  25.415  1.00  0.00    -0.299 OA
BRANCH  13  15
ATOM     15  C   UNL     1     -11.514 -19.886  24.005  1.00  0.00     0.106 CG0
ATOM     16  G   UNL     1     -10.247 -19.391  23.316  1.00  0.00     0.000 G0
ENDBRANCH  13  15
ENDBRANCH  12  13
BRANCH  12  17
ATOM     17  C   UNL     1     -12.517 -23.703  24.057  1.00  0.00    -0.006 C 
ATOM     18  C   UNL     1     -14.047 -23.842  24.018  1.00  0.00     0.008 C 
ATOM     19  C   UNL     1     -11.849 -24.978  23.509  1.00  0.00     0.008 C 
ENDBRANCH  12  17
ENDBRANCH  11  12
ENDBRANCH   1  11
TORSDOF 1
ENDMDL
