MODEL 1
REMARK VINA RESULT:    -6.444      0.000      0.000
REMARK INTER + INTRA:         -15.562
REMARK INTER:                 -13.601
REMARK INTRA:                  -1.961
REMARK UNBOUND:                -1.961
REMARK SMILES CCC(=O)CCCCC[C@@H]1NC(=O)[C@@H]2CCCCN2C(=O)[C@@H]([C@@H](C)CC)NC(=O)[C@@H](Cc2cn(OC)c3ccccc23)NC1=O
REMARK SMILES IDX 9 1 10 2 44 3 43 4 45 6 30 7 28 8 27 9 29 11 22 12 23 14
REMARK SMILES IDX 24 15 25 16 26 17 31 18 32 19 33 20 42 21 34 22 37 23 41 24
REMARK SMILES IDX 38 25 40 26 39 27 35 28 36 29 11 30 12 31 13 33 14 34 19 35
REMARK SMILES IDX 15 36 18 37 16 38 17 39 20 40 21 41 8 43 7 44 6 45 5 46 3 47
REMARK SMILES IDX 4 48 2 49 1 50
REMARK H PARENT 43 5 27 10 11 32
REMARK Flexibility Score: 80.00
ROOT
ATOM      1  C   UNL     1      16.234 -29.862  21.773  1.00  0.00     0.035 C 
ENDROOT
BRANCH   1   2
ATOM      2  C   UNL     1      17.707 -30.309  21.598  1.00  0.00     0.171 C 
BRANCH   2   3
ATOM      3  C   UNL     1      18.342 -30.689  22.919  1.00  0.00     0.243 C 
ATOM      4  N   UNL     1      19.771 -30.825  23.008  1.00  0.00    -0.342 N 
ATOM      5  H   UNL     1      20.343 -30.676  22.142  1.00  0.00     0.164 HD
ATOM      6  O   UNL     1      17.622 -30.923  23.929  1.00  0.00    -0.273 OA
BRANCH   4   7
ATOM      7  C   UNL     1      20.451 -31.145  24.275  1.00  0.00     0.175 C 
BRANCH   7   8
ATOM      8  C   UNL     1      20.065 -32.528  24.729  1.00  0.00     0.243 C 
ATOM      9  N   UNL     1      20.034 -33.626  23.806  1.00  0.00    -0.342 N 
ATOM     10  H   UNL     1      20.520 -33.514  22.883  1.00  0.00     0.164 HD
ATOM     11  O   UNL     1      19.773 -32.712  25.940  1.00  0.00    -0.273 OA
BRANCH   9  12
ATOM     12  C   UNL     1      19.182 -34.804  24.024  1.00  0.00     0.174 CG0
ATOM     13  G   UNL     1      17.940 -34.673  23.173  1.00  0.00     0.000 G0
BRANCH  12  14
ATOM     14  C   UNL     1      19.950 -36.134  23.766  1.00  0.00     0.018 C 
ATOM     15  C   UNL     1      21.365 -35.863  23.211  1.00  0.00     0.010 C 
BRANCH  14  16
ATOM     16  C   UNL     1      20.056 -36.964  25.076  1.00  0.00     0.002 C 
ATOM     17  C   UNL     1      18.964 -36.622  26.096  1.00  0.00     0.004 C 
ENDBRANCH  14  16
ENDBRANCH  12  14
ENDBRANCH   9  12
ENDBRANCH   7   8
BRANCH   7  18
ATOM     18  C   UNL     1      21.982 -31.010  24.128  1.00  0.00     0.073 C 
BRANCH  18  19
ATOM     19  C   UNL     1      22.417 -29.566  24.161  1.00  0.00    -0.016 A 
ATOM     20  C   UNL     1      23.026 -28.914  25.232  1.00  0.00     0.134 A 
ATOM     21  C   UNL     1      22.392 -28.652  23.123  1.00  0.00     0.006 A 
ATOM     22  N   UNL     1      23.363 -27.653  24.867  1.00  0.00    -0.191 N 
ATOM     23  C   UNL     1      22.977 -27.502  23.590  1.00  0.00     0.087 A 
ATOM     24  C   UNL     1      21.904 -28.747  21.819  1.00  0.00     0.011 A 
ATOM     25  C   UNL     1      23.134 -26.376  22.780  1.00  0.00     0.030 A 
ATOM     26  C   UNL     1      22.046 -27.623  20.980  1.00  0.00     0.001 A 
ATOM     27  C   UNL     1      22.657 -26.444  21.458  1.00  0.00     0.002 A 
BRANCH  22  28
ATOM     28  O   UNL     1      23.997 -26.699  25.633  1.00  0.00    -0.417 OA
ATOM     29  C   UNL     1      23.284 -25.747  26.414  1.00  0.00     0.313 C 
ENDBRANCH  22  28
ENDBRANCH  18  19
ENDBRANCH   7  18
ENDBRANCH   4   7
ENDBRANCH   2   3
BRANCH   2  30
ATOM     30  N   UNL     1      17.847 -31.420  20.646  1.00  0.00    -0.343 N 
ATOM     31  C   UNL     1      17.373 -32.744  20.922  1.00  0.00     0.243 C 
ATOM     32  H   UNL     1      18.524 -31.304  19.855  1.00  0.00     0.164 HD
ATOM     33  O   UNL     1      16.171 -32.921  21.242  1.00  0.00    -0.273 OA
BRANCH  31  34
ATOM     34  C   UNL     1      18.313 -33.921  20.805  1.00  0.00     0.174 C 
ATOM     35  N   UNL     1      17.962 -35.000  21.767  1.00  0.00    -0.329 N 
ATOM     36  C   UNL     1      18.390 -34.407  19.339  1.00  0.00     0.035 C 
ATOM     37  C   UNL     1      17.162 -36.169  21.379  1.00  0.00     0.120 C 
ATOM     38  C   UNL     1      17.255 -35.362  18.997  1.00  0.00     0.004 C 
ATOM     39  C   UNL     1      17.333 -36.573  19.912  1.00  0.00     0.022 C 
BRANCH  35  40
ATOM     40  C   UNL     1      17.931 -34.682  23.167  1.00  0.00     0.246 CG0
ATOM     41  O   UNL     1      16.844 -34.314  23.687  1.00  0.00    -0.272 OA
ATOM     42  G   UNL     1      19.171 -34.764  24.028  1.00  0.00     0.000 G0
ENDBRANCH  35  40
ENDBRANCH  31  34
ENDBRANCH   2  30
ENDBRANCH   1   2
BRANCH   1  43
ATOM     43  C   UNL     1      16.073 -28.393  22.199  1.00  0.00     0.003 C 
BRANCH  43  44
ATOM     44  C   UNL     1      15.240 -28.212  23.480  1.00  0.00     0.001 C 
BRANCH  44  45
ATOM     45  C   UNL     1      13.751 -28.410  23.176  1.00  0.00     0.008 C 
BRANCH  45  46
ATOM     46  C   UNL     1      13.167 -29.597  23.959  1.00  0.00     0.075 C 
BRANCH  46  47
ATOM     47  C   UNL     1      13.175 -30.912  23.199  1.00  0.00     0.132 C 
ATOM     48  O   UNL     1      13.654 -31.887  23.758  1.00  0.00    -0.300 OA
BRANCH  47  49
ATOM     49  C   UNL     1      12.643 -31.044  21.782  1.00  0.00     0.072 C 
ATOM     50  C   UNL     1      11.214 -30.523  21.621  1.00  0.00     0.012 C 
ENDBRANCH  47  49
ENDBRANCH  46  47
ENDBRANCH  45  46
ENDBRANCH  44  45
ENDBRANCH  43  44
ENDBRANCH   1  43
TORSDOF 12
ENDMDL
MODEL 2
REMARK VINA RESULT:    -6.330      2.455      5.000
REMARK INTER + INTRA:         -15.321
REMARK INTER:                 -13.628
REMARK INTRA:                  -1.693
REMARK UNBOUND:                -1.961
REMARK SMILES CCC(=O)CCCCC[C@@H]1NC(=O)[C@@H]2CCCCN2C(=O)[C@@H]([C@@H](C)CC)NC(=O)[C@@H](Cc2cn(OC)c3ccccc23)NC1=O
REMARK SMILES IDX 9 1 10 2 44 3 43 4 45 6 30 7 28 8 27 9 29 11 22 12 23 14
REMARK SMILES IDX 24 15 25 16 26 17 31 18 32 19 33 20 42 21 34 22 37 23 41 24
REMARK SMILES IDX 38 25 40 26 39 27 35 28 36 29 11 30 12 31 13 33 14 34 19 35
REMARK SMILES IDX 15 36 18 37 16 38 17 39 20 40 21 41 8 43 7 44 6 45 5 46 3 47
REMARK SMILES IDX 4 48 2 49 1 50
REMARK H PARENT 43 5 27 10 11 32
REMARK Flexibility Score: 80.00
ROOT
ATOM      1  C   UNL     1      18.348 -28.987  21.424  1.00  0.00     0.035 C 
ENDROOT
BRANCH   1   2
ATOM      2  C   UNL     1      19.310 -30.169  21.704  1.00  0.00     0.171 C 
BRANCH   2   3
ATOM      3  C   UNL     1      19.263 -30.604  23.154  1.00  0.00     0.243 C 
ATOM      4  N   UNL     1      20.302 -31.448  23.678  1.00  0.00    -0.342 N 
ATOM      5  H   UNL     1      21.065 -31.763  23.031  1.00  0.00     0.164 HD
ATOM      6  O   UNL     1      18.297 -30.261  23.892  1.00  0.00    -0.273 OA
BRANCH   4   7
ATOM      7  C   UNL     1      20.337 -31.865  25.090  1.00  0.00     0.175 C 
BRANCH   7   8
ATOM      8  C   UNL     1      19.238 -32.860  25.359  1.00  0.00     0.243 C 
ATOM      9  N   UNL     1      18.639 -33.604  24.289  1.00  0.00    -0.342 N 
ATOM     10  H   UNL     1      19.136 -33.639  23.366  1.00  0.00     0.164 HD
ATOM     11  O   UNL     1      18.853 -33.035  26.545  1.00  0.00    -0.273 OA
BRANCH   9  12
ATOM     12  C   UNL     1      17.272 -34.138  24.381  1.00  0.00     0.174 CG0
ATOM     13  G   UNL     1      16.511 -33.752  23.133  1.00  0.00     0.000 G0
BRANCH  12  14
ATOM     14  C   UNL     1      17.263 -35.673  24.638  1.00  0.00     0.018 C 
ATOM     15  C   UNL     1      18.634 -36.302  24.314  1.00  0.00     0.010 C 
BRANCH  14  16
ATOM     16  C   UNL     1      16.890 -35.975  26.117  1.00  0.00     0.002 C 
ATOM     17  C   UNL     1      17.700 -37.131  26.718  1.00  0.00     0.004 C 
ENDBRANCH  14  16
ENDBRANCH  12  14
ENDBRANCH   9  12
ENDBRANCH   7   8
BRANCH   7  18
ATOM     18  C   UNL     1      21.719 -32.445  25.460  1.00  0.00     0.073 C 
BRANCH  18  19
ATOM     19  C   UNL     1      22.819 -31.434  25.245  1.00  0.00    -0.016 A 
ATOM     20  C   UNL     1      23.966 -31.617  24.475  1.00  0.00     0.134 A 
ATOM     21  C   UNL     1      22.856 -30.120  25.677  1.00  0.00     0.006 A 
ATOM     22  N   UNL     1      24.678 -30.465  24.434  1.00  0.00    -0.191 N 
ATOM     23  C   UNL     1      23.999 -29.564  25.163  1.00  0.00     0.087 A 
ATOM     24  C   UNL     1      21.978 -29.384  26.474  1.00  0.00     0.011 A 
ATOM     25  C   UNL     1      24.333 -28.228  25.390  1.00  0.00     0.030 A 
ATOM     26  C   UNL     1      22.293 -28.033  26.725  1.00  0.00     0.001 A 
ATOM     27  C   UNL     1      23.464 -27.458  26.186  1.00  0.00     0.002 A 
BRANCH  22  28
ATOM     28  O   UNL     1      25.860 -30.231  23.765  1.00  0.00    -0.417 OA
ATOM     29  C   UNL     1      26.815 -31.257  23.517  1.00  0.00     0.313 C 
ENDBRANCH  22  28
ENDBRANCH  18  19
ENDBRANCH   7  18
ENDBRANCH   4   7
ENDBRANCH   2   3
BRANCH   2  30
ATOM     30  N   UNL     1      19.047 -31.324  20.835  1.00  0.00    -0.343 N 
ATOM     31  C   UNL     1      17.876 -32.140  20.958  1.00  0.00     0.243 C 
ATOM     32  H   UNL     1      19.847 -31.708  20.277  1.00  0.00     0.164 HD
ATOM     33  O   UNL     1      16.739 -31.609  20.912  1.00  0.00    -0.273 OA
BRANCH  31  34
ATOM     34  C   UNL     1      18.013 -33.636  21.121  1.00  0.00     0.174 C 
ATOM     35  N   UNL     1      16.833 -34.222  21.812  1.00  0.00    -0.329 N 
ATOM     36  C   UNL     1      18.319 -34.302  19.759  1.00  0.00     0.035 C 
ATOM     37  C   UNL     1      15.726 -34.851  21.080  1.00  0.00     0.120 C 
ATOM     38  C   UNL     1      17.051 -34.569  18.960  1.00  0.00     0.004 C 
ATOM     39  C   UNL     1      16.149 -35.495  19.758  1.00  0.00     0.022 C 
BRANCH  35  40
ATOM     40  C   UNL     1      16.496 -33.732  23.119  1.00  0.00     0.246 CG0
ATOM     41  O   UNL     1      15.533 -32.928  23.241  1.00  0.00    -0.272 OA
ATOM     42  G   UNL     1      17.273 -34.145  24.348  1.00  0.00     0.000 G0
ENDBRANCH  35  40
ENDBRANCH  31  34
ENDBRANCH   2  30
ENDBRANCH   1   2
BRANCH   1  43
ATOM     43  C   UNL     1      19.007 -27.802  20.699  1.00  0.00     0.003 C 
BRANCH  43  44
ATOM     44  C   UNL     1      20.504 -27.643  21.017  1.00  0.00     0.001 C 
BRANCH  44  45
ATOM     45  C   UNL     1      20.936 -26.186  20.813  1.00  0.00     0.008 C 
BRANCH  45  46
ATOM     46  C   UNL     1      22.405 -25.970  21.212  1.00  0.00     0.075 C 
BRANCH  46  47
ATOM     47  C   UNL     1      23.370 -25.922  20.041  1.00  0.00     0.132 C 
ATOM     48  O   UNL     1      23.980 -26.945  19.765  1.00  0.00    -0.300 OA
BRANCH  47  49
ATOM     49  C   UNL     1      23.619 -24.659  19.235  1.00  0.00     0.072 C 
ATOM     50  C   UNL     1      24.308 -23.555  20.037  1.00  0.00     0.012 C 
ENDBRANCH  47  49
ENDBRANCH  46  47
ENDBRANCH  45  46
ENDBRANCH  44  45
ENDBRANCH  43  44
ENDBRANCH   1  43
TORSDOF 12
ENDMDL
MODEL 3
REMARK VINA RESULT:    -6.328      2.520      7.787
REMARK INTER + INTRA:         -15.318
REMARK INTER:                 -13.308
REMARK INTRA:                  -2.009
REMARK UNBOUND:                -1.961
REMARK SMILES CCC(=O)CCCCC[C@@H]1NC(=O)[C@@H]2CCCCN2C(=O)[C@@H]([C@@H](C)CC)NC(=O)[C@@H](Cc2cn(OC)c3ccccc23)NC1=O
REMARK SMILES IDX 9 1 10 2 44 3 43 4 45 6 30 7 28 8 27 9 29 11 22 12 23 14
REMARK SMILES IDX 24 15 25 16 26 17 31 18 32 19 33 20 42 21 34 22 37 23 41 24
REMARK SMILES IDX 38 25 40 26 39 27 35 28 36 29 11 30 12 31 13 33 14 34 19 35
REMARK SMILES IDX 15 36 18 37 16 38 17 39 20 40 21 41 8 43 7 44 6 45 5 46 3 47
REMARK SMILES IDX 4 48 2 49 1 50
REMARK H PARENT 43 5 27 10 11 32
REMARK Flexibility Score: 80.00
ROOT
ATOM      1  C   UNL     1      22.446 -28.456  21.691  1.00  0.00     0.035 C 
ENDROOT
BRANCH   1   2
ATOM      2  C   UNL     1      21.125 -29.004  22.287  1.00  0.00     0.171 C 
BRANCH   2   3
ATOM      3  C   UNL     1      20.818 -30.401  21.789  1.00  0.00     0.243 C 
ATOM      4  N   UNL     1      19.453 -30.788  21.554  1.00  0.00    -0.342 N 
ATOM      5  H   UNL     1      18.694 -30.093  21.754  1.00  0.00     0.164 HD
ATOM      6  O   UNL     1      21.749 -31.236  21.617  1.00  0.00    -0.273 OA
BRANCH   4   7
ATOM      7  C   UNL     1      19.095 -32.115  21.025  1.00  0.00     0.175 C 
BRANCH   7   8
ATOM      8  C   UNL     1      19.353 -33.170  22.068  1.00  0.00     0.243 C 
ATOM      9  N   UNL     1      19.785 -32.812  23.389  1.00  0.00    -0.342 N 
ATOM     10  H   UNL     1      19.676 -31.815  23.695  1.00  0.00     0.164 HD
ATOM     11  O   UNL     1      19.178 -34.381  21.766  1.00  0.00    -0.273 OA
BRANCH   9  12
ATOM     12  C   UNL     1      20.553 -33.737  24.235  1.00  0.00     0.174 CG0
ATOM     13  G   UNL     1      21.750 -33.005  24.798  1.00  0.00     0.000 G0
BRANCH  12  14
ATOM     14  C   UNL     1      19.670 -34.383  25.343  1.00  0.00     0.018 C 
ATOM     15  C   UNL     1      18.370 -33.579  25.560  1.00  0.00     0.010 C 
BRANCH  14  16
ATOM     16  C   UNL     1      19.316 -35.850  24.970  1.00  0.00     0.002 C 
ATOM     17  C   UNL     1      20.527 -36.658  24.490  1.00  0.00     0.004 C 
ENDBRANCH  14  16
ENDBRANCH  12  14
ENDBRANCH   9  12
ENDBRANCH   7   8
BRANCH   7  18
ATOM     18  C   UNL     1      17.625 -32.142  20.554  1.00  0.00     0.073 C 
BRANCH  18  19
ATOM     19  C   UNL     1      16.706 -31.507  21.568  1.00  0.00    -0.016 A 
ATOM     20  C   UNL     1      16.413 -30.148  21.677  1.00  0.00     0.134 A 
ATOM     21  C   UNL     1      15.910 -32.144  22.504  1.00  0.00     0.006 A 
ATOM     22  N   UNL     1      15.476 -29.958  22.637  1.00  0.00    -0.191 N 
ATOM     23  C   UNL     1      15.177 -31.170  23.132  1.00  0.00     0.087 A 
ATOM     24  C   UNL     1      15.780 -33.491  22.843  1.00  0.00     0.011 A 
ATOM     25  C   UNL     1      14.247 -31.477  24.127  1.00  0.00     0.030 A 
ATOM     26  C   UNL     1      14.852 -33.830  23.848  1.00  0.00     0.001 A 
ATOM     27  C   UNL     1      14.090 -32.828  24.487  1.00  0.00     0.002 A 
BRANCH  22  28
ATOM     28  O   UNL     1      14.911 -28.766  23.033  1.00  0.00    -0.417 OA
ATOM     29  C   UNL     1      15.683 -27.595  23.275  1.00  0.00     0.313 C 
ENDBRANCH  22  28
ENDBRANCH  18  19
ENDBRANCH   7  18
ENDBRANCH   4   7
ENDBRANCH   2   3
BRANCH   2  30
ATOM     30  N   UNL     1      21.124 -28.993  23.756  1.00  0.00    -0.343 N 
ATOM     31  C   UNL     1      21.779 -29.997  24.541  1.00  0.00     0.243 C 
ATOM     32  H   UNL     1      20.426 -28.380  24.240  1.00  0.00     0.164 HD
ATOM     33  O   UNL     1      22.998 -30.236  24.356  1.00  0.00    -0.273 OA
BRANCH  31  34
ATOM     34  C   UNL     1      21.007 -30.747  25.602  1.00  0.00     0.174 C 
ATOM     35  N   UNL     1      21.610 -32.079  25.879  1.00  0.00    -0.329 N 
ATOM     36  C   UNL     1      20.839 -29.874  26.867  1.00  0.00     0.035 C 
ATOM     37  C   UNL     1      22.519 -32.309  27.010  1.00  0.00     0.120 C 
ATOM     38  C   UNL     1      22.053 -29.959  27.781  1.00  0.00     0.004 C 
ATOM     39  C   UNL     1      22.247 -31.403  28.213  1.00  0.00     0.022 C 
BRANCH  35  40
ATOM     40  C   UNL     1      21.748 -33.005  24.791  1.00  0.00     0.246 CG0
ATOM     41  O   UNL     1      22.894 -33.216  24.310  1.00  0.00    -0.272 OA
ATOM     42  G   UNL     1      20.556 -33.721  24.199  1.00  0.00     0.000 G0
ENDBRANCH  35  40
ENDBRANCH  31  34
ENDBRANCH   2  30
ENDBRANCH   1   2
BRANCH   1  43
ATOM     43  C   UNL     1      22.248 -27.366  20.625  1.00  0.00     0.003 C 
BRANCH  43  44
ATOM     44  C   UNL     1      23.491 -26.487  20.406  1.00  0.00     0.001 C 
BRANCH  44  45
ATOM     45  C   UNL     1      23.100 -25.184  19.699  1.00  0.00     0.008 C 
BRANCH  45  46
ATOM     46  C   UNL     1      24.007 -24.017  20.122  1.00  0.00     0.075 C 
BRANCH  46  47
ATOM     47  C   UNL     1      23.613 -23.362  21.434  1.00  0.00     0.132 C 
ATOM     48  O   UNL     1      24.345 -22.488  21.876  1.00  0.00    -0.300 OA
BRANCH  47  49
ATOM     49  C   UNL     1      22.376 -23.772  22.216  1.00  0.00     0.072 C 
ATOM     50  C   UNL     1      22.600 -23.804  23.728  1.00  0.00     0.012 C 
ENDBRANCH  47  49
ENDBRANCH  46  47
ENDBRANCH  45  46
ENDBRANCH  44  45
ENDBRANCH  43  44
ENDBRANCH   1  43
TORSDOF 12
ENDMDL
MODEL 4
REMARK VINA RESULT:    -6.326      2.763      5.766
REMARK INTER + INTRA:         -15.313
REMARK INTER:                 -13.239
REMARK INTRA:                  -2.075
REMARK UNBOUND:                -1.961
REMARK SMILES CCC(=O)CCCCC[C@@H]1NC(=O)[C@@H]2CCCCN2C(=O)[C@@H]([C@@H](C)CC)NC(=O)[C@@H](Cc2cn(OC)c3ccccc23)NC1=O
REMARK SMILES IDX 9 1 10 2 44 3 43 4 45 6 30 7 28 8 27 9 29 11 22 12 23 14
REMARK SMILES IDX 24 15 25 16 26 17 31 18 32 19 33 20 42 21 34 22 37 23 41 24
REMARK SMILES IDX 38 25 40 26 39 27 35 28 36 29 11 30 12 31 13 33 14 34 19 35
REMARK SMILES IDX 15 36 18 37 16 38 17 39 20 40 21 41 8 43 7 44 6 45 5 46 3 47
REMARK SMILES IDX 4 48 2 49 1 50
REMARK H PARENT 43 5 27 10 11 32
REMARK Flexibility Score: 80.00
ROOT
ATOM      1  C   UNL     1      19.287 -28.985  21.370  1.00  0.00     0.035 C 
ENDROOT
BRANCH   1   2
ATOM      2  C   UNL     1      19.940 -30.325  21.788  1.00  0.00     0.171 C 
BRANCH   2   3
ATOM      3  C   UNL     1      19.659 -30.663  23.237  1.00  0.00     0.243 C 
ATOM      4  N   UNL     1      20.642 -31.378  24.005  1.00  0.00    -0.342 N 
ATOM      5  H   UNL     1      21.531 -31.670  23.532  1.00  0.00     0.164 HD
ATOM      6  O   UNL     1      18.552 -30.354  23.761  1.00  0.00    -0.273 OA
BRANCH   4   7
ATOM      7  C   UNL     1      20.446 -31.693  25.430  1.00  0.00     0.175 C 
BRANCH   7   8
ATOM      8  C   UNL     1      19.317 -32.676  25.589  1.00  0.00     0.243 C 
ATOM      9  N   UNL     1      18.719 -33.304  24.445  1.00  0.00    -0.342 N 
ATOM     10  H   UNL     1      19.233 -33.268  23.531  1.00  0.00     0.164 HD
ATOM     11  O   UNL     1      18.903 -32.948  26.747  1.00  0.00    -0.273 OA
BRANCH   9  12
ATOM     12  C   UNL     1      17.337 -33.805  24.464  1.00  0.00     0.174 CG0
ATOM     13  G   UNL     1      16.613 -33.290  23.241  1.00  0.00     0.000 G0
BRANCH  12  14
ATOM     14  C   UNL     1      17.281 -35.356  24.587  1.00  0.00     0.018 C 
ATOM     15  C   UNL     1      18.639 -35.993  24.222  1.00  0.00     0.010 C 
BRANCH  14  16
ATOM     16  C   UNL     1      16.883 -35.774  26.030  1.00  0.00     0.002 C 
ATOM     17  C   UNL     1      17.599 -37.042  26.509  1.00  0.00     0.004 C 
ENDBRANCH  14  16
ENDBRANCH  12  14
ENDBRANCH   9  12
ENDBRANCH   7   8
BRANCH   7  18
ATOM     18  C   UNL     1      21.749 -32.231  26.060  1.00  0.00     0.073 C 
BRANCH  18  19
ATOM     19  C   UNL     1      22.471 -33.168  25.123  1.00  0.00    -0.016 A 
ATOM     20  C   UNL     1      22.134 -34.496  24.865  1.00  0.00     0.134 A 
ATOM     21  C   UNL     1      23.524 -32.871  24.277  1.00  0.00     0.006 A 
ATOM     22  N   UNL     1      22.945 -34.994  23.900  1.00  0.00    -0.191 N 
ATOM     23  C   UNL     1      23.782 -34.005  23.549  1.00  0.00     0.087 A 
ATOM     24  C   UNL     1      24.264 -31.702  24.096  1.00  0.00     0.011 A 
ATOM     25  C   UNL     1      24.782 -34.042  22.575  1.00  0.00     0.030 A 
ATOM     26  C   UNL     1      25.284 -31.712  23.123  1.00  0.00     0.001 A 
ATOM     27  C   UNL     1      25.542 -32.876  22.367  1.00  0.00     0.002 A 
BRANCH  22  28
ATOM     28  O   UNL     1      22.921 -36.259  23.355  1.00  0.00    -0.417 OA
ATOM     29  C   UNL     1      21.788 -37.115  23.455  1.00  0.00     0.313 C 
ENDBRANCH  22  28
ENDBRANCH  18  19
ENDBRANCH   7  18
ENDBRANCH   4   7
ENDBRANCH   2   3
BRANCH   2  30
ATOM     30  N   UNL     1      19.523 -31.445  20.932  1.00  0.00    -0.343 N 
ATOM     31  C   UNL     1      18.220 -32.035  21.004  1.00  0.00     0.243 C 
ATOM     32  H   UNL     1      20.270 -31.982  20.432  1.00  0.00     0.164 HD
ATOM     33  O   UNL     1      17.200 -31.312  20.877  1.00  0.00    -0.273 OA
BRANCH  31  34
ATOM     34  C   UNL     1      18.078 -33.525  21.209  1.00  0.00     0.174 C 
ATOM     35  N   UNL     1      16.822 -33.861  21.934  1.00  0.00    -0.329 N 
ATOM     36  C   UNL     1      18.228 -34.273  19.864  1.00  0.00     0.035 C 
ATOM     37  C   UNL     1      15.603 -34.290  21.236  1.00  0.00     0.120 C 
ATOM     38  C   UNL     1      16.918 -34.319  19.091  1.00  0.00     0.004 C 
ATOM     39  C   UNL     1      15.873 -35.038  19.928  1.00  0.00     0.022 C 
BRANCH  35  40
ATOM     40  C   UNL     1      16.607 -33.281  23.230  1.00  0.00     0.246 CG0
ATOM     41  O   UNL     1      15.786 -32.332  23.346  1.00  0.00    -0.272 OA
ATOM     42  G   UNL     1      17.349 -33.770  24.453  1.00  0.00     0.000 G0
ENDBRANCH  35  40
ENDBRANCH  31  34
ENDBRANCH   2  30
ENDBRANCH   1   2
BRANCH   1  43
ATOM     43  C   UNL     1      20.293 -27.911  20.921  1.00  0.00     0.003 C 
BRANCH  43  44
ATOM     44  C   UNL     1      21.734 -28.434  20.796  1.00  0.00     0.001 C 
BRANCH  44  45
ATOM     45  C   UNL     1      22.699 -27.510  21.548  1.00  0.00     0.008 C 
BRANCH  45  46
ATOM     46  C   UNL     1      23.560 -26.682  20.581  1.00  0.00     0.075 C 
BRANCH  46  47
ATOM     47  C   UNL     1      23.075 -25.258  20.374  1.00  0.00     0.132 C 
ATOM     48  O   UNL     1      23.590 -24.607  19.477  1.00  0.00    -0.300 OA
BRANCH  47  49
ATOM     49  C   UNL     1      22.010 -24.619  21.250  1.00  0.00     0.072 C 
ATOM     50  C   UNL     1      22.550 -24.118  22.590  1.00  0.00     0.012 C 
ENDBRANCH  47  49
ENDBRANCH  46  47
ENDBRANCH  45  46
ENDBRANCH  44  45
ENDBRANCH  43  44
ENDBRANCH   1  43
TORSDOF 12
ENDMDL
MODEL 5
REMARK VINA RESULT:    -6.223      2.967      8.397
REMARK INTER + INTRA:         -15.096
REMARK INTER:                 -13.379
REMARK INTRA:                  -1.717
REMARK UNBOUND:                -1.961
REMARK SMILES CCC(=O)CCCCC[C@@H]1NC(=O)[C@@H]2CCCCN2C(=O)[C@@H]([C@@H](C)CC)NC(=O)[C@@H](Cc2cn(OC)c3ccccc23)NC1=O
REMARK SMILES IDX 9 1 10 2 44 3 43 4 45 6 30 7 28 8 27 9 29 11 22 12 23 14
REMARK SMILES IDX 24 15 25 16 26 17 31 18 32 19 33 20 42 21 34 22 37 23 41 24
REMARK SMILES IDX 38 25 40 26 39 27 35 28 36 29 11 30 12 31 13 33 14 34 19 35
REMARK SMILES IDX 15 36 18 37 16 38 17 39 20 40 21 41 8 43 7 44 6 45 5 46 3 47
REMARK SMILES IDX 4 48 2 49 1 50
REMARK H PARENT 43 5 27 10 11 32
REMARK Flexibility Score: 80.00
ROOT
ATOM      1  C   UNL     1      20.807 -29.385  21.261  1.00  0.00     0.035 C 
ENDROOT
BRANCH   1   2
ATOM      2  C   UNL     1      20.291 -30.276  22.419  1.00  0.00     0.171 C 
BRANCH   2   3
ATOM      3  C   UNL     1      20.796 -31.699  22.305  1.00  0.00     0.243 C 
ATOM      4  N   UNL     1      20.104 -32.757  22.989  1.00  0.00    -0.342 N 
ATOM      5  H   UNL     1      19.269 -32.512  23.574  1.00  0.00     0.164 HD
ATOM      6  O   UNL     1      21.842 -31.953  21.644  1.00  0.00    -0.273 OA
BRANCH   4   7
ATOM      7  C   UNL     1      20.518 -34.165  22.878  1.00  0.00     0.175 C 
BRANCH   7   8
ATOM      8  C   UNL     1      21.893 -34.345  23.467  1.00  0.00     0.243 C 
ATOM      9  N   UNL     1      22.361 -33.490  24.521  1.00  0.00    -0.342 N 
ATOM     10  H   UNL     1      21.658 -32.914  25.045  1.00  0.00     0.164 HD
ATOM     11  O   UNL     1      22.630 -35.264  23.024  1.00  0.00    -0.273 OA
BRANCH   9  12
ATOM     12  C   UNL     1      23.792 -33.244  24.747  1.00  0.00     0.174 CG0
ATOM     13  G   UNL     1      24.078 -31.777  24.520  1.00  0.00     0.000 G0
BRANCH  12  14
ATOM     14  C   UNL     1      24.254 -33.736  26.150  1.00  0.00     0.018 C 
ATOM     15  C   UNL     1      23.245 -34.738  26.750  1.00  0.00     0.010 C 
BRANCH  14  16
ATOM     16  C   UNL     1      25.655 -34.402  26.060  1.00  0.00     0.002 C 
ATOM     17  C   UNL     1      25.912 -35.085  24.712  1.00  0.00     0.004 C 
ENDBRANCH  14  16
ENDBRANCH  12  14
ENDBRANCH   9  12
ENDBRANCH   7   8
BRANCH   7  18
ATOM     18  C   UNL     1      19.492 -35.097  23.559  1.00  0.00     0.073 C 
BRANCH  18  19
ATOM     19  C   UNL     1      18.085 -34.799  23.104  1.00  0.00    -0.016 A 
ATOM     20  C   UNL     1      17.166 -33.978  23.755  1.00  0.00     0.134 A 
ATOM     21  C   UNL     1      17.478 -35.190  21.924  1.00  0.00     0.006 A 
ATOM     22  N   UNL     1      16.041 -33.868  23.006  1.00  0.00    -0.191 N 
ATOM     23  C   UNL     1      16.238 -34.603  21.900  1.00  0.00     0.087 A 
ATOM     24  C   UNL     1      17.920 -36.008  20.884  1.00  0.00     0.011 A 
ATOM     25  C   UNL     1      15.364 -34.775  20.826  1.00  0.00     0.030 A 
ATOM     26  C   UNL     1      17.056 -36.204  19.787  1.00  0.00     0.001 A 
ATOM     27  C   UNL     1      15.784 -35.591  19.759  1.00  0.00     0.002 A 
BRANCH  22  28
ATOM     28  O   UNL     1      14.911 -33.134  23.293  1.00  0.00    -0.417 OA
ATOM     29  C   UNL     1      14.304 -33.134  24.581  1.00  0.00     0.313 C 
ENDBRANCH  22  28
ENDBRANCH  18  19
ENDBRANCH   7  18
ENDBRANCH   4   7
ENDBRANCH   2   3
BRANCH   2  30
ATOM     30  N   UNL     1      20.638 -29.734  23.740  1.00  0.00    -0.343 N 
ATOM     31  C   UNL     1      21.988 -29.638  24.211  1.00  0.00     0.243 C 
ATOM     32  H   UNL     1      19.871 -29.646  24.449  1.00  0.00     0.164 HD
ATOM     33  O   UNL     1      22.844 -29.024  23.527  1.00  0.00    -0.273 OA
BRANCH  31  34
ATOM     34  C   UNL     1      22.370 -30.254  25.537  1.00  0.00     0.174 C 
ATOM     35  N   UNL     1      23.762 -30.778  25.516  1.00  0.00    -0.329 N 
ATOM     36  C   UNL     1      22.105 -29.259  26.691  1.00  0.00     0.035 C 
ATOM     37  C   UNL     1      24.897 -30.013  26.050  1.00  0.00     0.120 C 
ATOM     38  C   UNL     1      23.262 -28.289  26.881  1.00  0.00     0.004 C 
ATOM     39  C   UNL     1      24.522 -29.077  27.202  1.00  0.00     0.022 C 
BRANCH  35  40
ATOM     40  C   UNL     1      24.105 -31.764  24.532  1.00  0.00     0.246 CG0
ATOM     41  O   UNL     1      24.686 -31.398  23.475  1.00  0.00    -0.272 OA
ATOM     42  G   UNL     1      23.775 -33.227  24.723  1.00  0.00     0.000 G0
ENDBRANCH  35  40
ENDBRANCH  31  34
ENDBRANCH   2  30
ENDBRANCH   1   2
BRANCH   1  43
ATOM     43  C   UNL     1      20.013 -28.081  21.073  1.00  0.00     0.003 C 
BRANCH  43  44
ATOM     44  C   UNL     1      20.856 -26.925  20.509  1.00  0.00     0.001 C 
BRANCH  44  45
ATOM     45  C   UNL     1      22.171 -26.799  21.288  1.00  0.00     0.008 C 
BRANCH  45  46
ATOM     46  C   UNL     1      23.294 -26.220  20.413  1.00  0.00     0.075 C 
BRANCH  46  47
ATOM     47  C   UNL     1      23.379 -24.704  20.427  1.00  0.00     0.132 C 
ATOM     48  O   UNL     1      23.752 -24.146  19.405  1.00  0.00    -0.300 OA
BRANCH  47  49
ATOM     49  C   UNL     1      23.050 -23.875  21.657  1.00  0.00     0.072 C 
ATOM     50  C   UNL     1      24.013 -22.708  21.876  1.00  0.00     0.012 C 
ENDBRANCH  47  49
ENDBRANCH  46  47
ENDBRANCH  45  46
ENDBRANCH  44  45
ENDBRANCH  43  44
ENDBRANCH   1  43
TORSDOF 12
ENDMDL
MODEL 6
REMARK VINA RESULT:    -6.131      2.362      4.748
REMARK INTER + INTRA:         -14.901
REMARK INTER:                 -12.787
REMARK INTRA:                  -2.114
REMARK UNBOUND:                -1.961
REMARK SMILES CCC(=O)CCCCC[C@@H]1NC(=O)[C@@H]2CCCCN2C(=O)[C@@H]([C@@H](C)CC)NC(=O)[C@@H](Cc2cn(OC)c3ccccc23)NC1=O
REMARK SMILES IDX 9 1 10 2 44 3 43 4 45 6 30 7 28 8 27 9 29 11 22 12 23 14
REMARK SMILES IDX 24 15 25 16 26 17 31 18 32 19 33 20 42 21 34 22 37 23 41 24
REMARK SMILES IDX 38 25 40 26 39 27 35 28 36 29 11 30 12 31 13 33 14 34 19 35
REMARK SMILES IDX 15 36 18 37 16 38 17 39 20 40 21 41 8 43 7 44 6 45 5 46 3 47
REMARK SMILES IDX 4 48 2 49 1 50
REMARK H PARENT 43 5 27 10 11 32
REMARK Flexibility Score: 80.00
ROOT
ATOM      1  C   UNL     1      18.616 -28.824  21.319  1.00  0.00     0.035 C 
ENDROOT
BRANCH   1   2
ATOM      2  C   UNL     1      19.398 -30.094  21.735  1.00  0.00     0.171 C 
BRANCH   2   3
ATOM      3  C   UNL     1      19.155 -30.458  23.184  1.00  0.00     0.243 C 
ATOM      4  N   UNL     1      20.164 -31.171  23.919  1.00  0.00    -0.342 N 
ATOM      5  H   UNL     1      21.047 -31.444  23.421  1.00  0.00     0.164 HD
ATOM      6  O   UNL     1      18.056 -30.172  23.738  1.00  0.00    -0.273 OA
BRANCH   4   7
ATOM      7  C   UNL     1      20.006 -31.511  25.343  1.00  0.00     0.175 C 
BRANCH   7   8
ATOM      8  C   UNL     1      19.005 -32.626  25.496  1.00  0.00     0.243 C 
ATOM      9  N   UNL     1      18.486 -33.315  24.349  1.00  0.00    -0.342 N 
ATOM     10  H   UNL     1      18.989 -33.211  23.435  1.00  0.00     0.164 HD
ATOM     11  O   UNL     1      18.631 -32.954  26.653  1.00  0.00    -0.273 OA
BRANCH   9  12
ATOM     12  C   UNL     1      17.175 -33.981  24.367  1.00  0.00     0.174 CG0
ATOM     13  G   UNL     1      16.421 -33.610  23.111  1.00  0.00     0.000 G0
BRANCH  12  14
ATOM     14  C   UNL     1      17.307 -35.520  24.556  1.00  0.00     0.018 C 
ATOM     15  C   UNL     1      18.730 -36.006  24.208  1.00  0.00     0.010 C 
BRANCH  14  16
ATOM     16  C   UNL     1      16.966 -35.921  26.019  1.00  0.00     0.002 C 
ATOM     17  C   UNL     1      17.556 -37.276  26.426  1.00  0.00     0.004 C 
ENDBRANCH  14  16
ENDBRANCH  12  14
ENDBRANCH   9  12
ENDBRANCH   7   8
BRANCH   7  18
ATOM     18  C   UNL     1      21.363 -31.887  25.974  1.00  0.00     0.073 C 
BRANCH  18  19
ATOM     19  C   UNL     1      22.474 -31.000  25.469  1.00  0.00    -0.016 A 
ATOM     20  C   UNL     1      22.678 -29.663  25.805  1.00  0.00     0.134 A 
ATOM     21  C   UNL     1      23.546 -31.359  24.671  1.00  0.00     0.006 A 
ATOM     22  N   UNL     1      23.826 -29.219  25.239  1.00  0.00    -0.191 N 
ATOM     23  C   UNL     1      24.346 -30.251  24.555  1.00  0.00     0.087 A 
ATOM     24  C   UNL     1      23.870 -32.564  24.046  1.00  0.00     0.011 A 
ATOM     25  C   UNL     1      25.536 -30.277  23.827  1.00  0.00     0.030 A 
ATOM     26  C   UNL     1      25.065 -32.618  23.300  1.00  0.00     0.001 A 
ATOM     27  C   UNL     1      25.893 -31.480  23.190  1.00  0.00     0.002 A 
BRANCH  22  28
ATOM     28  O   UNL     1      24.384 -27.964  25.346  1.00  0.00    -0.417 OA
ATOM     29  C   UNL     1      24.149 -27.114  26.464  1.00  0.00     0.313 C 
ENDBRANCH  22  28
ENDBRANCH  18  19
ENDBRANCH   7  18
ENDBRANCH   4   7
ENDBRANCH   2   3
BRANCH   2  30
ATOM     30  N   UNL     1      19.091 -31.248  20.879  1.00  0.00    -0.343 N 
ATOM     31  C   UNL     1      17.907 -32.041  21.038  1.00  0.00     0.243 C 
ATOM     32  H   UNL     1      19.867 -31.650  20.302  1.00  0.00     0.164 HD
ATOM     33  O   UNL     1      16.780 -31.488  21.019  1.00  0.00    -0.273 OA
BRANCH  31  34
ATOM     34  C   UNL     1      18.020 -33.539  21.204  1.00  0.00     0.174 C 
ATOM     35  N   UNL     1      16.801 -34.112  21.835  1.00  0.00    -0.329 N 
ATOM     36  C   UNL     1      18.386 -34.206  19.858  1.00  0.00     0.035 C 
ATOM     37  C   UNL     1      15.725 -34.728  21.048  1.00  0.00     0.120 C 
ATOM     38  C   UNL     1      17.158 -34.459  18.997  1.00  0.00     0.004 C 
ATOM     39  C   UNL     1      16.206 -35.376  19.747  1.00  0.00     0.022 C 
BRANCH  35  40
ATOM     40  C   UNL     1      16.404 -33.620  23.124  1.00  0.00     0.246 CG0
ATOM     41  O   UNL     1      15.396 -32.868  23.208  1.00  0.00    -0.272 OA
ATOM     42  G   UNL     1      17.170 -33.969  24.380  1.00  0.00     0.000 G0
ENDBRANCH  35  40
ENDBRANCH  31  34
ENDBRANCH   2  30
ENDBRANCH   1   2
BRANCH   1  43
ATOM     43  C   UNL     1      19.423 -27.850  20.443  1.00  0.00     0.003 C 
BRANCH  43  44
ATOM     44  C   UNL     1      20.239 -26.828  21.253  1.00  0.00     0.001 C 
BRANCH  44  45
ATOM     45  C   UNL     1      20.453 -25.551  20.431  1.00  0.00     0.008 C 
BRANCH  45  46
ATOM     46  C   UNL     1      21.835 -25.535  19.759  1.00  0.00     0.075 C 
BRANCH  46  47
ATOM     47  C   UNL     1      23.002 -25.520  20.731  1.00  0.00     0.132 C 
ATOM     48  O   UNL     1      23.106 -24.557  21.478  1.00  0.00    -0.300 OA
BRANCH  47  49
ATOM     49  C   UNL     1      24.041 -26.627  20.784  1.00  0.00     0.072 C 
ATOM     50  C   UNL     1      23.710 -27.719  21.802  1.00  0.00     0.012 C 
ENDBRANCH  47  49
ENDBRANCH  46  47
ENDBRANCH  45  46
ENDBRANCH  44  45
ENDBRANCH  43  44
ENDBRANCH   1  43
TORSDOF 12
ENDMDL
MODEL 7
REMARK VINA RESULT:    -6.106      2.761      8.344
REMARK INTER + INTRA:         -14.849
REMARK INTER:                 -11.817
REMARK INTRA:                  -3.032
REMARK UNBOUND:                -1.961
REMARK SMILES CCC(=O)CCCCC[C@@H]1NC(=O)[C@@H]2CCCCN2C(=O)[C@@H]([C@@H](C)CC)NC(=O)[C@@H](Cc2cn(OC)c3ccccc23)NC1=O
REMARK SMILES IDX 9 1 10 2 44 3 43 4 45 6 30 7 28 8 27 9 29 11 22 12 23 14
REMARK SMILES IDX 24 15 25 16 26 17 31 18 32 19 33 20 42 21 34 22 37 23 41 24
REMARK SMILES IDX 38 25 40 26 39 27 35 28 36 29 11 30 12 31 13 33 14 34 19 35
REMARK SMILES IDX 15 36 18 37 16 38 17 39 20 40 21 41 8 43 7 44 6 45 5 46 3 47
REMARK SMILES IDX 4 48 2 49 1 50
REMARK H PARENT 43 5 27 10 11 32
REMARK Flexibility Score: 80.00
ROOT
ATOM      1  C   UNL     1      22.521 -36.445  24.776  1.00  0.00     0.035 C 
ENDROOT
BRANCH   1   2
ATOM      2  C   UNL     1      22.387 -35.377  23.662  1.00  0.00     0.171 C 
BRANCH   2   3
ATOM      3  C   UNL     1      21.393 -34.296  24.034  1.00  0.00     0.243 C 
ATOM      4  N   UNL     1      20.759 -33.526  22.999  1.00  0.00    -0.342 N 
ATOM      5  H   UNL     1      21.019 -33.719  22.001  1.00  0.00     0.164 HD
ATOM      6  O   UNL     1      21.149 -34.044  25.247  1.00  0.00    -0.273 OA
BRANCH   4   7
ATOM      7  C   UNL     1      19.750 -32.495  23.294  1.00  0.00     0.175 C 
BRANCH   7   8
ATOM      8  C   UNL     1      20.376 -31.376  24.085  1.00  0.00     0.243 C 
ATOM      9  N   UNL     1      21.794 -31.161  24.064  1.00  0.00    -0.342 N 
ATOM     10  H   UNL     1      22.357 -31.620  23.308  1.00  0.00     0.164 HD
ATOM     11  O   UNL     1      19.632 -30.621  24.766  1.00  0.00    -0.273 OA
BRANCH   9  12
ATOM     12  C   UNL     1      22.499 -30.499  25.172  1.00  0.00     0.174 CG0
ATOM     13  G   UNL     1      23.563 -31.432  25.702  1.00  0.00     0.000 G0
BRANCH  12  14
ATOM     14  C   UNL     1      23.070 -29.113  24.754  1.00  0.00     0.018 C 
ATOM     15  C   UNL     1      22.681 -28.764  23.301  1.00  0.00     0.010 C 
BRANCH  14  16
ATOM     16  C   UNL     1      22.555 -28.001  25.709  1.00  0.00     0.002 C 
ATOM     17  C   UNL     1      21.721 -28.546  26.875  1.00  0.00     0.004 C 
ENDBRANCH  14  16
ENDBRANCH  12  14
ENDBRANCH   9  12
ENDBRANCH   7   8
BRANCH   7  18
ATOM     18  C   UNL     1      19.103 -31.968  21.995  1.00  0.00     0.073 C 
BRANCH  18  19
ATOM     19  C   UNL     1      17.788 -32.652  21.714  1.00  0.00    -0.016 A 
ATOM     20  C   UNL     1      16.520 -32.147  21.996  1.00  0.00     0.134 A 
ATOM     21  C   UNL     1      17.582 -33.844  21.042  1.00  0.00     0.006 A 
ATOM     22  N   UNL     1      15.575 -32.991  21.517  1.00  0.00    -0.191 N 
ATOM     23  C   UNL     1      16.225 -34.015  20.941  1.00  0.00     0.087 A 
ATOM     24  C   UNL     1      18.478 -34.777  20.520  1.00  0.00     0.011 A 
ATOM     25  C   UNL     1      15.670 -35.118  20.291  1.00  0.00     0.030 A 
ATOM     26  C   UNL     1      17.945 -35.904  19.862  1.00  0.00     0.001 A 
ATOM     27  C   UNL     1      16.548 -36.074  19.749  1.00  0.00     0.002 A 
BRANCH  22  28
ATOM     28  O   UNL     1      14.207 -32.840  21.579  1.00  0.00    -0.417 OA
ATOM     29  C   UNL     1      13.524 -31.769  20.938  1.00  0.00     0.313 C 
ENDBRANCH  22  28
ENDBRANCH  18  19
ENDBRANCH   7  18
ENDBRANCH   4   7
ENDBRANCH   2   3
BRANCH   2  30
ATOM     30  N   UNL     1      23.675 -34.763  23.315  1.00  0.00    -0.343 N 
ATOM     31  C   UNL     1      24.426 -33.959  24.233  1.00  0.00     0.243 C 
ATOM     32  H   UNL     1      23.932 -34.706  22.300  1.00  0.00     0.164 HD
ATOM     33  O   UNL     1      24.738 -34.424  25.357  1.00  0.00    -0.273 OA
BRANCH  31  34
ATOM     34  C   UNL     1      24.859 -32.566  23.836  1.00  0.00     0.174 C 
ATOM     35  N   UNL     1      24.828 -31.633  24.994  1.00  0.00    -0.329 N 
ATOM     36  C   UNL     1      26.229 -32.610  23.119  1.00  0.00     0.035 C 
ATOM     37  C   UNL     1      26.031 -31.304  25.770  1.00  0.00     0.120 C 
ATOM     38  C   UNL     1      27.386 -32.619  24.107  1.00  0.00     0.004 C 
ATOM     39  C   UNL     1      27.325 -31.359  24.955  1.00  0.00     0.022 C 
BRANCH  35  40
ATOM     40  C   UNL     1      23.587 -31.455  25.693  1.00  0.00     0.246 CG0
ATOM     41  O   UNL     1      23.391 -32.092  26.763  1.00  0.00    -0.272 OA
ATOM     42  G   UNL     1      22.506 -30.535  25.174  1.00  0.00     0.000 G0
ENDBRANCH  35  40
ENDBRANCH  31  34
ENDBRANCH   2  30
ENDBRANCH   1   2
BRANCH   1  43
ATOM     43  C   UNL     1      21.519 -37.605  24.656  1.00  0.00     0.003 C 
BRANCH  43  44
ATOM     44  C   UNL     1      20.521 -37.437  23.497  1.00  0.00     0.001 C 
BRANCH  44  45
ATOM     45  C   UNL     1      19.119 -37.872  23.939  1.00  0.00     0.008 C 
BRANCH  45  46
ATOM     46  C   UNL     1      18.885 -37.596  25.432  1.00  0.00     0.075 C 
BRANCH  46  47
ATOM     47  C   UNL     1      17.849 -36.521  25.715  1.00  0.00     0.132 C 
ATOM     48  O   UNL     1      16.963 -36.783  26.514  1.00  0.00    -0.300 OA
BRANCH  47  49
ATOM     49  C   UNL     1      17.864 -35.167  25.026  1.00  0.00     0.072 C 
ATOM     50  C   UNL     1      16.473 -34.683  24.616  1.00  0.00     0.012 C 
ENDBRANCH  47  49
ENDBRANCH  46  47
ENDBRANCH  45  46
ENDBRANCH  44  45
ENDBRANCH  43  44
ENDBRANCH   1  43
TORSDOF 12
ENDMDL
MODEL 8
REMARK VINA RESULT:    -6.052      2.713      5.490
REMARK INTER + INTRA:         -14.735
REMARK INTER:                 -12.666
REMARK INTRA:                  -2.069
REMARK UNBOUND:                -1.961
REMARK SMILES CCC(=O)CCCCC[C@@H]1NC(=O)[C@@H]2CCCCN2C(=O)[C@@H]([C@@H](C)CC)NC(=O)[C@@H](Cc2cn(OC)c3ccccc23)NC1=O
REMARK SMILES IDX 9 1 10 2 44 3 43 4 45 6 30 7 28 8 27 9 29 11 22 12 23 14
REMARK SMILES IDX 24 15 25 16 26 17 31 18 32 19 33 20 42 21 34 22 37 23 41 24
REMARK SMILES IDX 38 25 40 26 39 27 35 28 36 29 11 30 12 31 13 33 14 34 19 35
REMARK SMILES IDX 15 36 18 37 16 38 17 39 20 40 21 41 8 43 7 44 6 45 5 46 3 47
REMARK SMILES IDX 4 48 2 49 1 50
REMARK H PARENT 43 5 27 10 11 32
REMARK Flexibility Score: 80.00
ROOT
ATOM      1  C   UNL     1      19.347 -28.698  21.553  1.00  0.00     0.035 C 
ENDROOT
BRANCH   1   2
ATOM      2  C   UNL     1      20.033 -30.036  21.925  1.00  0.00     0.171 C 
BRANCH   2   3
ATOM      3  C   UNL     1      19.722 -30.453  23.347  1.00  0.00     0.243 C 
ATOM      4  N   UNL     1      20.721 -31.140  24.121  1.00  0.00    -0.342 N 
ATOM      5  H   UNL     1      21.643 -31.356  23.670  1.00  0.00     0.164 HD
ATOM      6  O   UNL     1      18.581 -30.235  23.841  1.00  0.00    -0.273 OA
BRANCH   4   7
ATOM      7  C   UNL     1      20.495 -31.528  25.523  1.00  0.00     0.175 C 
BRANCH   7   8
ATOM      8  C   UNL     1      19.417 -32.577  25.599  1.00  0.00     0.243 C 
ATOM      9  N   UNL     1      18.875 -33.165  24.408  1.00  0.00    -0.342 N 
ATOM     10  H   UNL     1      19.404 -33.049  23.509  1.00  0.00     0.164 HD
ATOM     11  O   UNL     1      18.997 -32.938  26.730  1.00  0.00    -0.273 OA
BRANCH   9  12
ATOM     12  C   UNL     1      17.522 -33.738  24.367  1.00  0.00     0.174 CG0
ATOM     13  G   UNL     1      16.798 -33.196  23.156  1.00  0.00     0.000 G0
BRANCH  12  14
ATOM     14  C   UNL     1      17.546 -35.294  24.405  1.00  0.00     0.018 C 
ATOM     15  C   UNL     1      18.949 -35.839  24.058  1.00  0.00     0.010 C 
BRANCH  14  16
ATOM     16  C   UNL     1      17.121 -35.812  25.807  1.00  0.00     0.002 C 
ATOM     17  C   UNL     1      18.024 -36.932  26.336  1.00  0.00     0.004 C 
ENDBRANCH  14  16
ENDBRANCH  12  14
ENDBRANCH   9  12
ENDBRANCH   7   8
BRANCH   7  18
ATOM     18  C   UNL     1      21.804 -32.024  26.175  1.00  0.00     0.073 C 
BRANCH  18  19
ATOM     19  C   UNL     1      22.849 -32.357  25.139  1.00  0.00    -0.016 A 
ATOM     20  C   UNL     1      23.830 -31.494  24.652  1.00  0.00     0.134 A 
ATOM     21  C   UNL     1      23.098 -33.585  24.554  1.00  0.00     0.006 A 
ATOM     22  N   UNL     1      24.649 -32.165  23.806  1.00  0.00    -0.191 N 
ATOM     23  C   UNL     1      24.200 -33.429  23.752  1.00  0.00     0.087 A 
ATOM     24  C   UNL     1      22.444 -34.813  24.668  1.00  0.00     0.011 A 
ATOM     25  C   UNL     1      24.738 -34.493  23.026  1.00  0.00     0.030 A 
ATOM     26  C   UNL     1      22.963 -35.905  23.942  1.00  0.00     0.001 A 
ATOM     27  C   UNL     1      24.103 -35.745  23.125  1.00  0.00     0.002 A 
BRANCH  22  28
ATOM     28  O   UNL     1      25.746 -31.673  23.134  1.00  0.00    -0.417 OA
ATOM     29  C   UNL     1      26.975 -31.375  23.789  1.00  0.00     0.313 C 
ENDBRANCH  22  28
ENDBRANCH  18  19
ENDBRANCH   7  18
ENDBRANCH   4   7
ENDBRANCH   2   3
BRANCH   2  30
ATOM     30  N   UNL     1      19.677 -31.124  21.003  1.00  0.00    -0.343 N 
ATOM     31  C   UNL     1      18.398 -31.769  21.019  1.00  0.00     0.243 C 
ATOM     32  H   UNL     1      20.455 -31.605  20.491  1.00  0.00     0.164 HD
ATOM     33  O   UNL     1      17.353 -31.082  20.910  1.00  0.00    -0.273 OA
BRANCH  31  34
ATOM     34  C   UNL     1      18.314 -33.273  21.144  1.00  0.00     0.174 C 
ATOM     35  N   UNL     1      17.060 -33.696  21.825  1.00  0.00    -0.329 N 
ATOM     36  C   UNL     1      18.519 -33.942  19.765  1.00  0.00     0.035 C 
ATOM     37  C   UNL     1      15.873 -34.137  21.081  1.00  0.00     0.120 C 
ATOM     38  C   UNL     1      17.226 -34.000  18.964  1.00  0.00     0.004 C 
ATOM     39  C   UNL     1      16.197 -34.803  19.742  1.00  0.00     0.022 C 
BRANCH  35  40
ATOM     40  C   UNL     1      16.798 -33.195  23.144  1.00  0.00     0.246 CG0
ATOM     41  O   UNL     1      15.935 -32.289  23.294  1.00  0.00    -0.272 OA
ATOM     42  G   UNL     1      17.539 -33.715  24.355  1.00  0.00     0.000 G0
ENDBRANCH  35  40
ENDBRANCH  31  34
ENDBRANCH   2  30
ENDBRANCH   1   2
BRANCH   1  43
ATOM     43  C   UNL     1      20.217 -27.767  20.691  1.00  0.00     0.003 C 
BRANCH  43  44
ATOM     44  C   UNL     1      21.727 -27.964  20.906  1.00  0.00     0.001 C 
BRANCH  44  45
ATOM     45  C   UNL     1      22.331 -26.727  21.581  1.00  0.00     0.008 C 
BRANCH  45  46
ATOM     46  C   UNL     1      21.812 -25.426  20.949  1.00  0.00     0.075 C 
BRANCH  46  47
ATOM     47  C   UNL     1      21.495 -24.328  21.949  1.00  0.00     0.132 C 
ATOM     48  O   UNL     1      20.332 -23.962  22.041  1.00  0.00    -0.300 OA
BRANCH  47  49
ATOM     49  C   UNL     1      22.561 -23.663  22.802  1.00  0.00     0.072 C 
ATOM     50  C   UNL     1      23.625 -22.933  21.981  1.00  0.00     0.012 C 
ENDBRANCH  47  49
ENDBRANCH  46  47
ENDBRANCH  45  46
ENDBRANCH  44  45
ENDBRANCH  43  44
ENDBRANCH   1  43
TORSDOF 12
ENDMDL
MODEL 9
REMARK VINA RESULT:    -5.863      2.786      7.387
REMARK INTER + INTRA:         -14.336
REMARK INTER:                 -12.122
REMARK INTRA:                  -2.214
REMARK UNBOUND:                -1.961
REMARK SMILES CCC(=O)CCCCC[C@@H]1NC(=O)[C@@H]2CCCCN2C(=O)[C@@H]([C@@H](C)CC)NC(=O)[C@@H](Cc2cn(OC)c3ccccc23)NC1=O
REMARK SMILES IDX 9 1 10 2 44 3 43 4 45 6 30 7 28 8 27 9 29 11 22 12 23 14
REMARK SMILES IDX 24 15 25 16 26 17 31 18 32 19 33 20 42 21 34 22 37 23 41 24
REMARK SMILES IDX 38 25 40 26 39 27 35 28 36 29 11 30 12 31 13 33 14 34 19 35
REMARK SMILES IDX 15 36 18 37 16 38 17 39 20 40 21 41 8 43 7 44 6 45 5 46 3 47
REMARK SMILES IDX 4 48 2 49 1 50
REMARK H PARENT 43 5 27 10 11 32
REMARK Flexibility Score: 80.00
ROOT
ATOM      1  C   UNL     1      21.439 -29.130  21.859  1.00  0.00     0.035 C 
ENDROOT
BRANCH   1   2
ATOM      2  C   UNL     1      20.902 -30.024  23.004  1.00  0.00     0.171 C 
BRANCH   2   3
ATOM      3  C   UNL     1      21.078 -31.498  22.701  1.00  0.00     0.243 C 
ATOM      4  N   UNL     1      20.258 -32.467  23.375  1.00  0.00    -0.342 N 
ATOM      5  H   UNL     1      19.563 -32.128  24.084  1.00  0.00     0.164 HD
ATOM      6  O   UNL     1      21.967 -31.879  21.888  1.00  0.00    -0.273 OA
BRANCH   4   7
ATOM      7  C   UNL     1      20.350 -33.908  23.088  1.00  0.00     0.175 C 
BRANCH   7   8
ATOM      8  C   UNL     1      21.729 -34.412  23.423  1.00  0.00     0.243 C 
ATOM      9  N   UNL     1      22.488 -33.829  24.492  1.00  0.00    -0.342 N 
ATOM     10  H   UNL     1      21.985 -33.230  25.192  1.00  0.00     0.164 HD
ATOM     11  O   UNL     1      22.210 -35.363  22.752  1.00  0.00    -0.273 OA
BRANCH   9  12
ATOM     12  C   UNL     1      23.957 -33.871  24.519  1.00  0.00     0.174 CG0
ATOM     13  G   UNL     1      24.490 -32.469  24.332  1.00  0.00     0.000 G0
BRANCH  12  14
ATOM     14  C   UNL     1      24.496 -34.552  25.810  1.00  0.00     0.018 C 
ATOM     15  C   UNL     1      23.379 -34.720  26.862  1.00  0.00     0.010 C 
BRANCH  14  16
ATOM     16  C   UNL     1      25.109 -35.942  25.478  1.00  0.00     0.002 C 
ATOM     17  C   UNL     1      24.050 -37.026  25.242  1.00  0.00     0.004 C 
ENDBRANCH  14  16
ENDBRANCH  12  14
ENDBRANCH   9  12
ENDBRANCH   7   8
BRANCH   7  18
ATOM     18  C   UNL     1      19.265 -34.694  23.856  1.00  0.00     0.073 C 
BRANCH  18  19
ATOM     19  C   UNL     1      17.928 -34.615  23.162  1.00  0.00    -0.016 A 
ATOM     20  C   UNL     1      16.826 -33.872  23.580  1.00  0.00     0.134 A 
ATOM     21  C   UNL     1      17.572 -35.173  21.947  1.00  0.00     0.006 A 
ATOM     22  N   UNL     1      15.835 -33.966  22.660  1.00  0.00    -0.191 N 
ATOM     23  C   UNL     1      16.295 -34.754  21.675  1.00  0.00     0.087 A 
ATOM     24  C   UNL     1      18.271 -36.006  21.073  1.00  0.00     0.011 A 
ATOM     25  C   UNL     1      15.635 -35.121  20.500  1.00  0.00     0.030 A 
ATOM     26  C   UNL     1      17.628 -36.397  19.881  1.00  0.00     0.001 A 
ATOM     27  C   UNL     1      16.316 -35.957  19.596  1.00  0.00     0.002 A 
BRANCH  22  28
ATOM     28  O   UNL     1      14.596 -33.364  22.696  1.00  0.00    -0.417 OA
ATOM     29  C   UNL     1      14.330 -32.206  23.479  1.00  0.00     0.313 C 
ENDBRANCH  22  28
ENDBRANCH  18  19
ENDBRANCH   7  18
ENDBRANCH   4   7
ENDBRANCH   2   3
BRANCH   2  30
ATOM     30  N   UNL     1      21.521 -29.711  24.299  1.00  0.00    -0.343 N 
ATOM     31  C   UNL     1      22.918 -29.900  24.559  1.00  0.00     0.243 C 
ATOM     32  H   UNL     1      20.889 -29.580  25.125  1.00  0.00     0.164 HD
ATOM     33  O   UNL     1      23.769 -29.362  23.809  1.00  0.00    -0.273 OA
BRANCH  31  34
ATOM     34  C   UNL     1      23.359 -30.725  25.746  1.00  0.00     0.174 C 
ATOM     35  N   UNL     1      24.567 -31.534  25.431  1.00  0.00    -0.329 N 
ATOM     36  C   UNL     1      23.528 -29.829  26.994  1.00  0.00     0.035 C 
ATOM     37  C   UNL     1      25.921 -31.098  25.796  1.00  0.00     0.120 C 
ATOM     38  C   UNL     1      24.895 -29.161  27.032  1.00  0.00     0.004 C 
ATOM     39  C   UNL     1      25.971 -30.234  27.059  1.00  0.00     0.022 C 
BRANCH  35  40
ATOM     40  C   UNL     1      24.502 -32.459  24.335  1.00  0.00     0.246 CG0
ATOM     41  O   UNL     1      24.897 -32.086  23.197  1.00  0.00    -0.272 OA
ATOM     42  G   UNL     1      23.962 -33.860  24.506  1.00  0.00     0.000 G0
ENDBRANCH  35  40
ENDBRANCH  31  34
ENDBRANCH   2  30
ENDBRANCH   1   2
BRANCH   1  43
ATOM     43  C   UNL     1      20.558 -27.906  21.555  1.00  0.00     0.003 C 
BRANCH  43  44
ATOM     44  C   UNL     1      19.061 -28.239  21.445  1.00  0.00     0.001 C 
BRANCH  44  45
ATOM     45  C   UNL     1      18.872 -29.638  20.847  1.00  0.00     0.008 C 
BRANCH  45  46
ATOM     46  C   UNL     1      17.570 -30.292  21.337  1.00  0.00     0.075 C 
BRANCH  46  47
ATOM     47  C   UNL     1      17.209 -29.964  22.776  1.00  0.00     0.132 C 
ATOM     48  O   UNL     1      17.799 -30.567  23.661  1.00  0.00    -0.300 OA
BRANCH  47  49
ATOM     49  C   UNL     1      16.139 -28.951  23.142  1.00  0.00     0.072 C 
ATOM     50  C   UNL     1      15.097 -28.747  22.042  1.00  0.00     0.012 C 
ENDBRANCH  47  49
ENDBRANCH  46  47
ENDBRANCH  45  46
ENDBRANCH  44  45
ENDBRANCH  43  44
ENDBRANCH   1  43
TORSDOF 12
ENDMDL
