MODEL 1
REMARK VINA RESULT:    -0.127      0.000      0.000
REMARK INTER + INTRA:           0.197
REMARK INTER:                  -0.150
REMARK INTRA:                   0.347
REMARK UNBOUND:                 0.347
REMARK SMILES O=c1c(O)c(-c2ccc(O)cc2)oc2cc(O)cc(O)c12
REMARK SMILES IDX 5 1 3 2 2 3 1 4 21 5 19 6 18 7 16 8 15 9 14 10 13 11 6 12
REMARK SMILES IDX 7 13 8 14 9 15 12 16 11 17 10 18 4 20 20 22 17 24
REMARK H PARENT 10 19 4 21 20 23 17 25
REMARK Flexibility Score: inf
ROOT
ATOM      1  C   UNL     1      14.995  39.929 -12.168  1.00  0.00     0.180 A 
ATOM      2  C   UNL     1      14.161  39.032 -12.863  1.00  0.00     0.208 A 
ATOM      3  C   UNL     1      12.941  38.651 -12.281  1.00  0.00     0.238 A 
ATOM      4  O   UNL     1      12.191  37.840 -12.889  1.00  0.00    -0.285 OA
ATOM      5  C   UNL     1      12.569  39.185 -11.030  1.00  0.00     0.111 A 
ATOM      6  C   UNL     1      11.356  38.855 -10.378  1.00  0.00     0.134 A 
ATOM      7  C   UNL     1      11.054  39.437  -9.138  1.00  0.00     0.093 A 
ATOM      8  C   UNL     1      11.935  40.338  -8.538  1.00  0.00     0.123 A 
ATOM      9  C   UNL     1      13.135  40.668  -9.179  1.00  0.00     0.094 A 
ATOM     10  C   UNL     1      13.456  40.099 -10.414  1.00  0.00     0.146 A 
ATOM     11  O   UNL     1      14.604  40.424 -10.997  1.00  0.00    -0.452 OA
ENDROOT
BRANCH   1  12
ATOM     12  C   UNL     1      16.304  40.365 -12.707  1.00  0.00     0.021 A 
ATOM     13  C   UNL     1      17.004  39.588 -13.649  1.00  0.00     0.016 A 
ATOM     14  C   UNL     1      18.250  40.008 -14.125  1.00  0.00     0.047 A 
ATOM     15  C   UNL     1      18.817  41.200 -13.656  1.00  0.00     0.115 A 
ATOM     16  C   UNL     1      16.890  41.548 -12.227  1.00  0.00     0.016 A 
ATOM     17  C   UNL     1      18.136  41.965 -12.706  1.00  0.00     0.047 A 
BRANCH  15  18
ATOM     18  O   UNL     1      20.057  41.629 -14.125  1.00  0.00    -0.508 OA
ATOM     19  H   UNL     1      20.830  41.806 -13.494  1.00  0.00     0.293 HD
ENDBRANCH  15  18
ENDBRANCH   1  12
BRANCH   2  20
ATOM     20  O   UNL     1      14.530  38.556 -14.123  1.00  0.00    -0.502 OA
ATOM     21  H   UNL     1      15.443  38.735 -14.526  1.00  0.00     0.293 HD
ENDBRANCH   2  20
BRANCH   6  22
ATOM     22  O   UNL     1      10.454  37.958 -10.950  1.00  0.00    -0.507 OA
ATOM     23  H   UNL     1      10.166  37.112 -10.471  1.00  0.00     0.293 HD
ENDBRANCH   6  22
BRANCH   8  24
ATOM     24  O   UNL     1      11.611  40.903  -7.307  1.00  0.00    -0.508 OA
ATOM     25  H   UNL     1      11.113  40.378  -6.598  1.00  0.00     0.293 HD
ENDBRANCH   8  24
TORSDOF 5
ENDMDL
MODEL 2
REMARK VINA RESULT:     2.023      2.406      5.916
REMARK INTER + INTRA:           2.724
REMARK INTER:                   2.334
REMARK INTRA:                   0.390
REMARK UNBOUND:                 0.347
REMARK SMILES O=c1c(O)c(-c2ccc(O)cc2)oc2cc(O)cc(O)c12
REMARK SMILES IDX 5 1 3 2 2 3 1 4 21 5 19 6 18 7 16 8 15 9 14 10 13 11 6 12
REMARK SMILES IDX 7 13 8 14 9 15 12 16 11 17 10 18 4 20 20 22 17 24
REMARK H PARENT 10 19 4 21 20 23 17 25
REMARK Flexibility Score: inf
ROOT
ATOM      1  C   UNL     1      14.969  40.954 -11.158  1.00  0.00     0.180 A 
ATOM      2  C   UNL     1      16.280  41.077 -11.655  1.00  0.00     0.208 A 
ATOM      3  C   UNL     1      16.797  40.053 -12.465  1.00  0.00     0.238 A 
ATOM      4  O   UNL     1      17.974  40.147 -12.907  1.00  0.00    -0.285 OA
ATOM      5  C   UNL     1      15.992  38.939 -12.779  1.00  0.00     0.111 A 
ATOM      6  C   UNL     1      16.436  37.868 -13.592  1.00  0.00     0.134 A 
ATOM      7  C   UNL     1      15.570  36.798 -13.865  1.00  0.00     0.093 A 
ATOM      8  C   UNL     1      14.274  36.779 -13.347  1.00  0.00     0.123 A 
ATOM      9  C   UNL     1      13.830  37.836 -12.544  1.00  0.00     0.094 A 
ATOM     10  C   UNL     1      14.677  38.910 -12.257  1.00  0.00     0.146 A 
ATOM     11  O   UNL     1      14.233  39.896 -11.488  1.00  0.00    -0.452 OA
ENDROOT
BRANCH   1  12
ATOM     12  C   UNL     1      14.359  41.981 -10.283  1.00  0.00     0.021 A 
ATOM     13  C   UNL     1      14.833  43.307 -10.268  1.00  0.00     0.016 A 
ATOM     14  C   UNL     1      14.257  44.254  -9.416  1.00  0.00     0.047 A 
ATOM     15  C   UNL     1      13.212  43.886  -8.559  1.00  0.00     0.115 A 
ATOM     16  C   UNL     1      13.324  41.617  -9.406  1.00  0.00     0.016 A 
ATOM     17  C   UNL     1      12.750  42.567  -8.555  1.00  0.00     0.047 A 
BRANCH  15  18
ATOM     18  O   UNL     1      12.629  44.822  -7.707  1.00  0.00    -0.508 OA
ATOM     19  H   UNL     1      12.316  45.724  -8.045  1.00  0.00     0.293 HD
ENDBRANCH  15  18
ENDBRANCH   1  12
BRANCH   2  20
ATOM     20  O   UNL     1      17.040  42.214 -11.369  1.00  0.00    -0.502 OA
ATOM     21  H   UNL     1      17.979  42.344 -11.729  1.00  0.00     0.293 HD
ENDBRANCH   2  20
BRANCH   6  22
ATOM     22  O   UNL     1      17.725  37.857 -14.125  1.00  0.00    -0.507 OA
ATOM     23  H   UNL     1      17.916  38.183 -15.065  1.00  0.00     0.293 HD
ENDBRANCH   6  22
BRANCH   8  24
ATOM     24  O   UNL     1      13.433  35.707 -13.635  1.00  0.00    -0.508 OA
ATOM     25  H   UNL     1      13.789  34.762 -13.719  1.00  0.00     0.293 HD
ENDBRANCH   8  24
TORSDOF 5
ENDMDL
MODEL 3
REMARK VINA RESULT:     2.529      1.916      6.950
REMARK INTER + INTRA:           3.319
REMARK INTER:                   3.158
REMARK INTRA:                   0.161
REMARK UNBOUND:                 0.347
REMARK SMILES O=c1c(O)c(-c2ccc(O)cc2)oc2cc(O)cc(O)c12
REMARK SMILES IDX 5 1 3 2 2 3 1 4 21 5 19 6 18 7 16 8 15 9 14 10 13 11 6 12
REMARK SMILES IDX 7 13 8 14 9 15 12 16 11 17 10 18 4 20 20 22 17 24
REMARK H PARENT 10 19 4 21 20 23 17 25
REMARK Flexibility Score: inf
ROOT
ATOM      1  C   UNL     1      13.651  39.690 -10.902  1.00  0.00     0.180 A 
ATOM      2  C   UNL     1      14.494  40.801 -11.093  1.00  0.00     0.208 A 
ATOM      3  C   UNL     1      15.657  40.644 -11.864  1.00  0.00     0.238 A 
ATOM      4  O   UNL     1      16.426  41.630 -12.033  1.00  0.00    -0.285 OA
ATOM      5  C   UNL     1      15.946  39.393 -12.444  1.00  0.00     0.111 A 
ATOM      6  C   UNL     1      17.094  39.153 -13.238  1.00  0.00     0.134 A 
ATOM      7  C   UNL     1      17.306  37.880 -13.787  1.00  0.00     0.093 A 
ATOM      8  C   UNL     1      16.396  36.846 -13.562  1.00  0.00     0.123 A 
ATOM      9  C   UNL     1      15.259  37.077 -12.779  1.00  0.00     0.094 A 
ATOM     10  C   UNL     1      15.031  38.337 -12.221  1.00  0.00     0.146 A 
ATOM     11  O   UNL     1      13.947  38.527 -11.477  1.00  0.00    -0.452 OA
ENDROOT
BRANCH   1  12
ATOM     12  C   UNL     1      12.417  39.769 -10.087  1.00  0.00     0.021 A 
ATOM     13  C   UNL     1      12.371  40.521  -8.898  1.00  0.00     0.016 A 
ATOM     14  C   UNL     1      11.201  40.561  -8.132  1.00  0.00     0.047 A 
ATOM     15  C   UNL     1      10.070  39.842  -8.538  1.00  0.00     0.115 A 
ATOM     16  C   UNL     1      11.284  39.035 -10.475  1.00  0.00     0.016 A 
ATOM     17  C   UNL     1      10.116  39.079  -9.707  1.00  0.00     0.047 A 
BRANCH  15  18
ATOM     18  O   UNL     1       8.899  39.877  -7.784  1.00  0.00    -0.508 OA
ATOM     19  H   UNL     1       8.828  39.399  -6.893  1.00  0.00     0.293 HD
ENDBRANCH  15  18
ENDBRANCH   1  12
BRANCH   2  20
ATOM     20  O   UNL     1      14.160  42.043 -10.548  1.00  0.00    -0.502 OA
ATOM     21  H   UNL     1      13.245  42.237 -10.159  1.00  0.00     0.293 HD
ENDBRANCH   2  20
BRANCH   6  22
ATOM     22  O   UNL     1      18.023  40.166 -13.482  1.00  0.00    -0.507 OA
ATOM     23  H   UNL     1      18.942  40.160 -13.056  1.00  0.00     0.293 HD
ENDBRANCH   6  22
BRANCH   8  24
ATOM     24  O   UNL     1      16.628  35.591 -14.121  1.00  0.00    -0.508 OA
ATOM     25  H   UNL     1      15.877  35.041 -14.519  1.00  0.00     0.293 HD
ENDBRANCH   8  24
TORSDOF 5
ENDMDL
