MODEL 1
REMARK VINA RESULT:    -2.001      0.000      0.000
REMARK INTER + INTRA:          -3.924
REMARK INTER:                  -3.054
REMARK INTRA:                  -0.870
REMARK UNBOUND:                -0.870
REMARK SMILES CCCCCCCCCCC(=O)[O-]
REMARK SMILES IDX 7 1 8 2 9 3 10 4 11 5 12 6 13 7 6 8 5 9 4 10 3 11 2 12 1 13
REMARK H PARENT
REMARK Flexibility Score: inf
ROOT
ATOM      1  C   UNL     1     116.286  12.716  24.355  1.00  0.00     0.000 C 
ENDROOT
BRANCH   1   2
ATOM      2  C   UNL     1     115.795  13.053  25.774  1.00  0.00     0.000 C 
BRANCH   2   3
ATOM      3  C   UNL     1     116.210  14.465  26.221  1.00  0.00     0.006 C 
BRANCH   3   4
ATOM      4  C   UNL     1     116.979  14.462  27.549  1.00  0.00     0.053 C 
BRANCH   4   5
ATOM      5  C   UNL     1     116.179  13.780  28.613  1.00  0.00     0.041 C 
ATOM      6  O   UNL     1     115.099  14.286  29.016  1.00  0.00    -0.550 OA
ATOM      7  O   UNL     1     116.601  12.560  29.125  1.00  0.00    -0.550 OA
ENDBRANCH   4   5
ENDBRANCH   3   4
ENDBRANCH   2   3
ENDBRANCH   1   2
BRANCH   1   8
ATOM      8  C   UNL     1     116.489  13.965  23.478  1.00  0.00     0.000 C 
BRANCH   8   9
ATOM      9  C   UNL     1     117.379  13.760  22.238  1.00  0.00    -0.000 C 
BRANCH   9  10
ATOM     10  C   UNL     1     118.287  14.967  21.944  1.00  0.00    -0.000 C 
BRANCH  10  11
ATOM     11  C   UNL     1     118.070  16.122  22.934  1.00  0.00    -0.000 C 
BRANCH  11  12
ATOM     12  C   UNL     1     119.341  16.474  23.723  1.00  0.00    -0.003 C 
ATOM     13  C   UNL     1     119.037  16.635  25.210  1.00  0.00     0.004 C 
ENDBRANCH  11  12
ENDBRANCH  10  11
ENDBRANCH   9  10
ENDBRANCH   8   9
ENDBRANCH   1   8
TORSDOF 9
ENDMDL
MODEL 2
REMARK VINA RESULT:    -1.991      1.910      3.551
REMARK INTER + INTRA:          -3.909
REMARK INTER:                  -2.829
REMARK INTRA:                  -1.080
REMARK UNBOUND:                -0.870
REMARK SMILES CCCCCCCCCCC(=O)[O-]
REMARK SMILES IDX 7 1 8 2 9 3 10 4 11 5 12 6 13 7 6 8 5 9 4 10 3 11 2 12 1 13
REMARK H PARENT
REMARK Flexibility Score: inf
ROOT
ATOM      1  C   UNL     1     115.960  15.960  25.017  1.00  0.00     0.000 C 
ENDROOT
BRANCH   1   2
ATOM      2  C   UNL     1     117.449  15.902  24.633  1.00  0.00     0.000 C 
BRANCH   2   3
ATOM      3  C   UNL     1     118.372  16.323  25.789  1.00  0.00     0.006 C 
BRANCH   3   4
ATOM      4  C   UNL     1     117.603  16.608  27.086  1.00  0.00     0.053 C 
BRANCH   4   5
ATOM      5  C   UNL     1     118.111  15.740  28.193  1.00  0.00     0.041 C 
ATOM      6  O   UNL     1     119.074  16.124  28.909  1.00  0.00    -0.550 OA
ATOM      7  O   UNL     1     117.490  14.528  28.467  1.00  0.00    -0.550 OA
ENDBRANCH   4   5
ENDBRANCH   3   4
ENDBRANCH   2   3
ENDBRANCH   1   2
BRANCH   1   8
ATOM      8  C   UNL     1     115.258  14.594  24.907  1.00  0.00     0.000 C 
BRANCH   8   9
ATOM      9  C   UNL     1     116.062  13.396  25.444  1.00  0.00    -0.000 C 
BRANCH   9  10
ATOM     10  C   UNL     1     116.147  12.233  24.441  1.00  0.00    -0.000 C 
BRANCH  10  11
ATOM     11  C   UNL     1     115.894  12.683  22.993  1.00  0.00    -0.000 C 
BRANCH  11  12
ATOM     12  C   UNL     1     117.188  12.795  22.172  1.00  0.00    -0.003 C 
ATOM     13  C   UNL     1     117.262  14.134  21.445  1.00  0.00     0.004 C 
ENDBRANCH  11  12
ENDBRANCH  10  11
ENDBRANCH   9  10
ENDBRANCH   8   9
ENDBRANCH   1   8
TORSDOF 9
ENDMDL
MODEL 3
REMARK VINA RESULT:    -1.983      1.696      3.339
REMARK INTER + INTRA:          -3.895
REMARK INTER:                  -2.697
REMARK INTRA:                  -1.198
REMARK UNBOUND:                -0.870
REMARK SMILES CCCCCCCCCCC(=O)[O-]
REMARK SMILES IDX 7 1 8 2 9 3 10 4 11 5 12 6 13 7 6 8 5 9 4 10 3 11 2 12 1 13
REMARK H PARENT
REMARK Flexibility Score: inf
ROOT
ATOM      1  C   UNL     1     116.908  16.537  23.111  1.00  0.00     0.000 C 
ENDROOT
BRANCH   1   2
ATOM      2  C   UNL     1     116.633  16.822  24.598  1.00  0.00     0.000 C 
BRANCH   2   3
ATOM      3  C   UNL     1     117.433  15.898  25.531  1.00  0.00     0.006 C 
BRANCH   3   4
ATOM      4  C   UNL     1     116.635  15.478  26.773  1.00  0.00     0.053 C 
BRANCH   4   5
ATOM      5  C   UNL     1     117.563  15.131  27.895  1.00  0.00     0.041 C 
ATOM      6  O   UNL     1     117.343  14.118  28.610  1.00  0.00    -0.550 OA
ATOM      7  O   UNL     1     118.699  15.898  28.120  1.00  0.00    -0.550 OA
ENDBRANCH   4   5
ENDBRANCH   3   4
ENDBRANCH   2   3
ENDBRANCH   1   2
BRANCH   1   8
ATOM      8  C   UNL     1     118.209  15.746  22.881  1.00  0.00     0.000 C 
BRANCH   8   9
ATOM      9  C   UNL     1     118.082  14.527  21.949  1.00  0.00    -0.000 C 
BRANCH   9  10
ATOM     10  C   UNL     1     116.732  13.803  22.089  1.00  0.00    -0.000 C 
BRANCH  10  11
ATOM     11  C   UNL     1     116.852  12.475  22.852  1.00  0.00    -0.000 C 
BRANCH  11  12
ATOM     12  C   UNL     1     116.314  12.565  24.289  1.00  0.00    -0.003 C 
ATOM     13  C   UNL     1     114.933  13.212  24.318  1.00  0.00     0.004 C 
ENDBRANCH  11  12
ENDBRANCH  10  11
ENDBRANCH   9  10
ENDBRANCH   8   9
ENDBRANCH   1   8
TORSDOF 9
ENDMDL
MODEL 4
REMARK VINA RESULT:    -1.959      2.503      4.501
REMARK INTER + INTRA:          -3.859
REMARK INTER:                  -2.920
REMARK INTRA:                  -0.939
REMARK UNBOUND:                -0.870
REMARK SMILES CCCCCCCCCCC(=O)[O-]
REMARK SMILES IDX 7 1 8 2 9 3 10 4 11 5 12 6 13 7 6 8 5 9 4 10 3 11 2 12 1 13
REMARK H PARENT
REMARK Flexibility Score: inf
ROOT
ATOM      1  C   UNL     1     114.636  14.225  28.852  1.00  0.00     0.000 C 
ENDROOT
BRANCH   1   2
ATOM      2  C   UNL     1     115.855  13.322  29.104  1.00  0.00     0.000 C 
BRANCH   2   3
ATOM      3  C   UNL     1     117.185  14.091  29.027  1.00  0.00     0.006 C 
BRANCH   3   4
ATOM      4  C   UNL     1     117.218  15.099  27.870  1.00  0.00     0.053 C 
BRANCH   4   5
ATOM      5  C   UNL     1     118.458  15.933  27.943  1.00  0.00     0.041 C 
ATOM      6  O   UNL     1     119.024  16.133  29.049  1.00  0.00    -0.550 OA
ATOM      7  O   UNL     1     119.016  16.451  26.780  1.00  0.00    -0.550 OA
ENDBRANCH   4   5
ENDBRANCH   3   4
ENDBRANCH   2   3
ENDBRANCH   1   2
BRANCH   1   8
ATOM      8  C   UNL     1     113.582  13.571  27.940  1.00  0.00     0.000 C 
BRANCH   8   9
ATOM      9  C   UNL     1     114.041  12.291  27.218  1.00  0.00    -0.000 C 
BRANCH   9  10
ATOM     10  C   UNL     1     114.262  12.498  25.710  1.00  0.00    -0.000 C 
BRANCH  10  11
ATOM     11  C   UNL     1     115.742  12.718  25.357  1.00  0.00    -0.000 C 
BRANCH  11  12
ATOM     12  C   UNL     1     115.982  14.034  24.601  1.00  0.00    -0.003 C 
ATOM     13  C   UNL     1     116.623  13.777  23.240  1.00  0.00     0.004 C 
ENDBRANCH  11  12
ENDBRANCH  10  11
ENDBRANCH   9  10
ENDBRANCH   8   9
ENDBRANCH   1   8
TORSDOF 9
ENDMDL
MODEL 5
REMARK VINA RESULT:    -1.958      2.776      5.182
REMARK INTER + INTRA:          -3.858
REMARK INTER:                  -2.600
REMARK INTRA:                  -1.259
REMARK UNBOUND:                -0.870
REMARK SMILES CCCCCCCCCCC(=O)[O-]
REMARK SMILES IDX 7 1 8 2 9 3 10 4 11 5 12 6 13 7 6 8 5 9 4 10 3 11 2 12 1 13
REMARK H PARENT
REMARK Flexibility Score: inf
ROOT
ATOM      1  C   UNL     1     114.088  12.931  26.467  1.00  0.00     0.000 C 
ENDROOT
BRANCH   1   2
ATOM      2  C   UNL     1     115.054  12.409  25.389  1.00  0.00     0.000 C 
BRANCH   2   3
ATOM      3  C   UNL     1     116.266  13.333  25.188  1.00  0.00     0.006 C 
BRANCH   3   4
ATOM      4  C   UNL     1     115.900  14.645  24.480  1.00  0.00     0.053 C 
BRANCH   4   5
ATOM      5  C   UNL     1     117.137  15.369  24.054  1.00  0.00     0.041 C 
ATOM      6  O   UNL     1     117.608  15.196  22.899  1.00  0.00    -0.550 OA
ATOM      7  O   UNL     1     117.745  16.274  24.916  1.00  0.00    -0.550 OA
ENDBRANCH   4   5
ENDBRANCH   3   4
ENDBRANCH   2   3
ENDBRANCH   1   2
BRANCH   1   8
ATOM      8  C   UNL     1     113.944  11.970  27.662  1.00  0.00     0.000 C 
BRANCH   8   9
ATOM      9  C   UNL     1     115.107  11.996  28.670  1.00  0.00    -0.000 C 
BRANCH   9  10
ATOM     10  C   UNL     1     115.529  13.423  29.062  1.00  0.00    -0.000 C 
BRANCH  10  11
ATOM     11  C   UNL     1     117.016  13.695  28.785  1.00  0.00    -0.000 C 
BRANCH  11  12
ATOM     12  C   UNL     1     117.279  15.134  28.316  1.00  0.00    -0.003 C 
ATOM     13  C   UNL     1     115.976  15.839  27.950  1.00  0.00     0.004 C 
ENDBRANCH  11  12
ENDBRANCH  10  11
ENDBRANCH   9  10
ENDBRANCH   8   9
ENDBRANCH   1   8
TORSDOF 9
ENDMDL
MODEL 6
REMARK VINA RESULT:    -1.899      3.112      5.480
REMARK INTER + INTRA:          -3.767
REMARK INTER:                  -2.609
REMARK INTRA:                  -1.159
REMARK UNBOUND:                -0.870
REMARK SMILES CCCCCCCCCCC(=O)[O-]
REMARK SMILES IDX 7 1 8 2 9 3 10 4 11 5 12 6 13 7 6 8 5 9 4 10 3 11 2 12 1 13
REMARK H PARENT
REMARK Flexibility Score: inf
ROOT
ATOM      1  C   UNL     1     116.682  16.292  26.223  1.00  0.00     0.000 C 
ENDROOT
BRANCH   1   2
ATOM      2  C   UNL     1     116.334  15.563  24.914  1.00  0.00     0.000 C 
BRANCH   2   3
ATOM      3  C   UNL     1     115.481  14.305  25.149  1.00  0.00     0.006 C 
BRANCH   3   4
ATOM      4  C   UNL     1     116.291  13.008  25.020  1.00  0.00     0.053 C 
BRANCH   4   5
ATOM      5  C   UNL     1     116.084  12.398  23.670  1.00  0.00     0.041 C 
ATOM      6  O   UNL     1     117.047  12.296  22.865  1.00  0.00    -0.550 OA
ATOM      7  O   UNL     1     114.837  11.896  23.318  1.00  0.00    -0.550 OA
ENDBRANCH   4   5
ENDBRANCH   3   4
ENDBRANCH   2   3
ENDBRANCH   1   2
BRANCH   1   8
ATOM      8  C   UNL     1     118.049  15.876  26.797  1.00  0.00     0.000 C 
BRANCH   8   9
ATOM      9  C   UNL     1     118.131  15.834  28.334  1.00  0.00    -0.000 C 
BRANCH   9  10
ATOM     10  C   UNL     1     116.905  15.168  28.983  1.00  0.00    -0.000 C 
BRANCH  10  11
ATOM     11  C   UNL     1     117.064  13.646  29.120  1.00  0.00    -0.000 C 
BRANCH  11  12
ATOM     12  C   UNL     1     115.813  12.875  28.672  1.00  0.00    -0.003 C 
ATOM     13  C   UNL     1     114.569  13.756  28.749  1.00  0.00     0.004 C 
ENDBRANCH  11  12
ENDBRANCH  10  11
ENDBRANCH   9  10
ENDBRANCH   8   9
ENDBRANCH   1   8
TORSDOF 9
ENDMDL
MODEL 7
REMARK VINA RESULT:    -1.884      2.369      3.886
REMARK INTER + INTRA:          -3.745
REMARK INTER:                  -2.401
REMARK INTRA:                  -1.344
REMARK UNBOUND:                -0.870
REMARK SMILES CCCCCCCCCCC(=O)[O-]
REMARK SMILES IDX 7 1 8 2 9 3 10 4 11 5 12 6 13 7 6 8 5 9 4 10 3 11 2 12 1 13
REMARK H PARENT
REMARK Flexibility Score: inf
ROOT
ATOM      1  C   UNL     1     116.946  16.405  28.309  1.00  0.00     0.000 C 
ENDROOT
BRANCH   1   2
ATOM      2  C   UNL     1     116.009  15.191  28.436  1.00  0.00     0.000 C 
BRANCH   2   3
ATOM      3  C   UNL     1     116.474  13.997  27.584  1.00  0.00     0.006 C 
BRANCH   3   4
ATOM      4  C   UNL     1     115.342  13.002  27.295  1.00  0.00     0.053 C 
BRANCH   4   5
ATOM      5  C   UNL     1     115.148  12.851  25.819  1.00  0.00     0.041 C 
ATOM      6  O   UNL     1     114.006  13.001  25.311  1.00  0.00    -0.550 OA
ATOM      7  O   UNL     1     116.238  12.591  24.997  1.00  0.00    -0.550 OA
ENDBRANCH   4   5
ENDBRANCH   3   4
ENDBRANCH   2   3
ENDBRANCH   1   2
BRANCH   1   8
ATOM      8  C   UNL     1     118.396  16.012  27.968  1.00  0.00     0.000 C 
BRANCH   8   9
ATOM      9  C   UNL     1     118.931  16.566  26.635  1.00  0.00    -0.000 C 
BRANCH   9  10
ATOM     10  C   UNL     1     117.811  16.969  25.660  1.00  0.00    -0.000 C 
BRANCH  10  11
ATOM     11  C   UNL     1     117.555  15.902  24.584  1.00  0.00    -0.000 C 
BRANCH  11  12
ATOM     12  C   UNL     1     116.135  15.974  24.003  1.00  0.00    -0.003 C 
ATOM     13  C   UNL     1     115.153  16.544  25.023  1.00  0.00     0.004 C 
ENDBRANCH  11  12
ENDBRANCH  10  11
ENDBRANCH   9  10
ENDBRANCH   8   9
ENDBRANCH   1   8
TORSDOF 9
ENDMDL
