MODEL 1
REMARK VINA RESULT:    -5.599      0.000      0.000
REMARK INTER + INTRA:          -6.740
REMARK INTER:                  -6.581
REMARK INTRA:                  -0.159
REMARK UNBOUND:                -0.159
REMARK SMILES O=c1c(O)c(-c2ccc(O)cc2)oc2cc(O)cc(O)c12
REMARK SMILES IDX 5 1 3 2 2 3 1 4 21 5 19 6 18 7 16 8 15 9 14 10 13 11 6 12
REMARK SMILES IDX 7 13 8 14 9 15 12 16 11 17 10 18 4 20 20 22 17 24
REMARK H PARENT 10 19 4 21 20 23 17 25
REMARK Flexibility Score: inf
ROOT
ATOM      1  C   UNL     1      -9.757   7.419   6.592  1.00  0.00     0.180 A 
ATOM      2  C   UNL     1     -10.619   8.430   6.125  1.00  0.00     0.208 A 
ATOM      3  C   UNL     1     -10.069   9.652   5.709  1.00  0.00     0.238 A 
ATOM      4  O   UNL     1     -10.830  10.562   5.279  1.00  0.00    -0.285 OA
ATOM      5  C   UNL     1      -8.675   9.851   5.785  1.00  0.00     0.111 A 
ATOM      6  C   UNL     1      -8.041  11.054   5.390  1.00  0.00     0.134 A 
ATOM      7  C   UNL     1      -6.649  11.177   5.504  1.00  0.00     0.093 A 
ATOM      8  C   UNL     1      -5.879  10.125   6.006  1.00  0.00     0.123 A 
ATOM      9  C   UNL     1      -6.499   8.934   6.397  1.00  0.00     0.094 A 
ATOM     10  C   UNL     1      -7.886   8.790   6.289  1.00  0.00     0.146 A 
ATOM     11  O   UNL     1      -8.449   7.647   6.663  1.00  0.00    -0.452 OA
ENDROOT
BRANCH   1  12
ATOM     12  C   UNL     1     -10.260   6.097   7.029  1.00  0.00     0.021 A 
ATOM     13  C   UNL     1     -10.224   5.709   8.381  1.00  0.00     0.016 A 
ATOM     14  C   UNL     1     -10.727   4.464   8.773  1.00  0.00     0.047 A 
ATOM     15  C   UNL     1     -11.284   3.599   7.825  1.00  0.00     0.115 A 
ATOM     16  C   UNL     1     -10.840   5.232   6.085  1.00  0.00     0.016 A 
ATOM     17  C   UNL     1     -11.342   3.988   6.480  1.00  0.00     0.047 A 
BRANCH  15  18
ATOM     18  O   UNL     1     -11.780   2.363   8.229  1.00  0.00    -0.508 OA
ATOM     19  H   UNL     1     -11.177   1.554   8.321  1.00  0.00     0.293 HD
ENDBRANCH  15  18
ENDBRANCH   1  12
BRANCH   2  20
ATOM     20  O   UNL     1     -12.002   8.226   6.107  1.00  0.00    -0.502 OA
ATOM     21  H   UNL     1     -12.511   7.892   6.916  1.00  0.00     0.293 HD
ENDBRANCH   2  20
BRANCH   6  22
ATOM     22  O   UNL     1      -8.782  12.124   4.887  1.00  0.00    -0.507 OA
ATOM     23  H   UNL     1      -8.764  12.370   3.904  1.00  0.00     0.293 HD
ENDBRANCH   6  22
BRANCH   8  24
ATOM     24  O   UNL     1      -4.498  10.273   6.111  1.00  0.00    -0.508 OA
ATOM     25  H   UNL     1      -3.863   9.768   5.503  1.00  0.00     0.293 HD
ENDBRANCH   8  24
TORSDOF 5
ENDMDL
MODEL 2
REMARK VINA RESULT:    -5.386      1.911      2.643
REMARK INTER + INTRA:          -6.490
REMARK INTER:                  -6.455
REMARK INTRA:                  -0.035
REMARK UNBOUND:                -0.159
REMARK SMILES O=c1c(O)c(-c2ccc(O)cc2)oc2cc(O)cc(O)c12
REMARK SMILES IDX 5 1 3 2 2 3 1 4 21 5 19 6 18 7 16 8 15 9 14 10 13 11 6 12
REMARK SMILES IDX 7 13 8 14 9 15 12 16 11 17 10 18 4 20 20 22 17 24
REMARK H PARENT 10 19 4 21 20 23 17 25
REMARK Flexibility Score: inf
ROOT
ATOM      1  C   UNL     1     -11.722   7.641   6.800  1.00  0.00     0.180 A 
ATOM      2  C   UNL     1     -12.923   8.208   6.330  1.00  0.00     0.208 A 
ATOM      3  C   UNL     1     -12.884   9.475   5.727  1.00  0.00     0.238 A 
ATOM      4  O   UNL     1     -13.952   9.988   5.293  1.00  0.00    -0.285 OA
ATOM      5  C   UNL     1     -11.656  10.160   5.622  1.00  0.00     0.111 A 
ATOM      6  C   UNL     1     -11.532  11.441   5.032  1.00  0.00     0.134 A 
ATOM      7  C   UNL     1     -10.275  12.061   4.974  1.00  0.00     0.093 A 
ATOM      8  C   UNL     1      -9.143  11.428   5.492  1.00  0.00     0.123 A 
ATOM      9  C   UNL     1      -9.260  10.162   6.076  1.00  0.00     0.094 A 
ATOM     10  C   UNL     1     -10.503   9.526   6.142  1.00  0.00     0.146 A 
ATOM     11  O   UNL     1     -10.585   8.323   6.696  1.00  0.00    -0.452 OA
ENDROOT
BRANCH   1  12
ATOM     12  C   UNL     1     -11.679   6.301   7.429  1.00  0.00     0.021 A 
ATOM     13  C   UNL     1     -12.474   5.989   8.546  1.00  0.00     0.016 A 
ATOM     14  C   UNL     1     -12.433   4.709   9.108  1.00  0.00     0.047 A 
ATOM     15  C   UNL     1     -11.611   3.723   8.555  1.00  0.00     0.115 A 
ATOM     16  C   UNL     1     -10.871   5.299   6.865  1.00  0.00     0.016 A 
ATOM     17  C   UNL     1     -10.832   4.020   7.429  1.00  0.00     0.047 A 
BRANCH  15  18
ATOM     18  O   UNL     1     -11.580   2.453   9.125  1.00  0.00    -0.508 OA
ATOM     19  H   UNL     1     -11.071   1.690   8.692  1.00  0.00     0.293 HD
ENDBRANCH  15  18
ENDBRANCH   1  12
BRANCH   2  20
ATOM     20  O   UNL     1     -14.135   7.530   6.491  1.00  0.00    -0.502 OA
ATOM     21  H   UNL     1     -14.980   7.997   6.796  1.00  0.00     0.293 HD
ENDBRANCH   2  20
BRANCH   6  22
ATOM     22  O   UNL     1     -12.643  12.100   4.507  1.00  0.00    -0.507 OA
ATOM     23  H   UNL     1     -12.578  12.678   3.676  1.00  0.00     0.293 HD
ENDBRANCH   6  22
BRANCH   8  24
ATOM     24  O   UNL     1      -7.907  12.066   5.423  1.00  0.00    -0.508 OA
ATOM     25  H   UNL     1      -7.108  11.626   4.981  1.00  0.00     0.293 HD
ENDBRANCH   8  24
TORSDOF 5
ENDMDL
MODEL 3
REMARK VINA RESULT:    -5.170      1.906      3.910
REMARK INTER + INTRA:          -6.236
REMARK INTER:                  -6.288
REMARK INTRA:                   0.052
REMARK UNBOUND:                -0.159
REMARK SMILES O=c1c(O)c(-c2ccc(O)cc2)oc2cc(O)cc(O)c12
REMARK SMILES IDX 5 1 3 2 2 3 1 4 21 5 19 6 18 7 16 8 15 9 14 10 13 11 6 12
REMARK SMILES IDX 7 13 8 14 9 15 12 16 11 17 10 18 4 20 20 22 17 24
REMARK H PARENT 10 19 4 21 20 23 17 25
REMARK Flexibility Score: inf
ROOT
ATOM      1  C   UNL     1     -11.000   7.628   6.683  1.00  0.00     0.180 A 
ATOM      2  C   UNL     1      -9.707   8.164   6.520  1.00  0.00     0.208 A 
ATOM      3  C   UNL     1      -9.569   9.439   5.952  1.00  0.00     0.238 A 
ATOM      4  O   UNL     1      -8.417   9.934   5.810  1.00  0.00    -0.285 OA
ATOM      5  C   UNL     1     -10.717  10.148   5.540  1.00  0.00     0.111 A 
ATOM      6  C   UNL     1     -10.663  11.436   4.956  1.00  0.00     0.134 A 
ATOM      7  C   UNL     1     -11.850  12.072   4.565  1.00  0.00     0.093 A 
ATOM      8  C   UNL     1     -13.087  11.447   4.744  1.00  0.00     0.123 A 
ATOM      9  C   UNL     1     -13.146  10.174   5.321  1.00  0.00     0.094 A 
ATOM     10  C   UNL     1     -11.974   9.524   5.720  1.00  0.00     0.146 A 
ATOM     11  O   UNL     1     -12.058   8.319   6.270  1.00  0.00    -0.452 OA
ENDROOT
BRANCH   1  12
ATOM     12  C   UNL     1     -11.228   6.297   7.292  1.00  0.00     0.021 A 
ATOM     13  C   UNL     1     -10.515   5.163   6.864  1.00  0.00     0.016 A 
ATOM     14  C   UNL     1     -10.731   3.921   7.471  1.00  0.00     0.047 A 
ATOM     15  C   UNL     1     -11.649   3.800   8.518  1.00  0.00     0.115 A 
ATOM     16  C   UNL     1     -12.134   6.173   8.359  1.00  0.00     0.016 A 
ATOM     17  C   UNL     1     -12.348   4.930   8.963  1.00  0.00     0.047 A 
BRANCH  15  18
ATOM     18  O   UNL     1     -11.856   2.558   9.113  1.00  0.00    -0.508 OA
ATOM     19  H   UNL     1     -12.719   2.338   9.596  1.00  0.00     0.293 HD
ENDBRANCH  15  18
ENDBRANCH   1  12
BRANCH   2  20
ATOM     20  O   UNL     1      -8.583   7.420   6.890  1.00  0.00    -0.502 OA
ATOM     21  H   UNL     1      -8.255   6.628   6.350  1.00  0.00     0.293 HD
ENDBRANCH   2  20
BRANCH   6  22
ATOM     22  O   UNL     1      -9.445  12.087   4.762  1.00  0.00    -0.507 OA
ATOM     23  H   UNL     1      -9.076  12.744   5.441  1.00  0.00     0.293 HD
ENDBRANCH   6  22
BRANCH   8  24
ATOM     24  O   UNL     1     -14.251  12.100   4.346  1.00  0.00    -0.508 OA
ATOM     25  H   UNL     1     -14.552  12.962   4.784  1.00  0.00     0.293 HD
ENDBRANCH   8  24
TORSDOF 5
ENDMDL
MODEL 4
REMARK VINA RESULT:    -5.122      2.238      6.975
REMARK INTER + INTRA:          -6.180
REMARK INTER:                  -6.087
REMARK INTRA:                  -0.092
REMARK UNBOUND:                -0.159
REMARK SMILES O=c1c(O)c(-c2ccc(O)cc2)oc2cc(O)cc(O)c12
REMARK SMILES IDX 5 1 3 2 2 3 1 4 21 5 19 6 18 7 16 8 15 9 14 10 13 11 6 12
REMARK SMILES IDX 7 13 8 14 9 15 12 16 11 17 10 18 4 20 20 22 17 24
REMARK H PARENT 10 19 4 21 20 23 17 25
REMARK Flexibility Score: inf
ROOT
ATOM      1  C   UNL     1      -9.921   7.709   6.188  1.00  0.00     0.180 A 
ATOM      2  C   UNL     1      -9.817   6.458   5.548  1.00  0.00     0.208 A 
ATOM      3  C   UNL     1     -10.842   5.517   5.727  1.00  0.00     0.238 A 
ATOM      4  O   UNL     1     -10.765   4.398   5.150  1.00  0.00    -0.285 OA
ATOM      5  C   UNL     1     -11.941   5.832   6.554  1.00  0.00     0.111 A 
ATOM      6  C   UNL     1     -13.014   4.939   6.788  1.00  0.00     0.134 A 
ATOM      7  C   UNL     1     -14.067   5.323   7.631  1.00  0.00     0.093 A 
ATOM      8  C   UNL     1     -14.068   6.578   8.244  1.00  0.00     0.123 A 
ATOM      9  C   UNL     1     -13.011   7.465   8.015  1.00  0.00     0.094 A 
ATOM     10  C   UNL     1     -11.953   7.102   7.176  1.00  0.00     0.146 A 
ATOM     11  O   UNL     1     -10.964   7.964   6.972  1.00  0.00    -0.452 OA
ENDROOT
BRANCH   1  12
ATOM     12  C   UNL     1      -8.889   8.760   6.033  1.00  0.00     0.021 A 
ATOM     13  C   UNL     1      -9.200  10.017   5.485  1.00  0.00     0.016 A 
ATOM     14  C   UNL     1      -8.214  11.002   5.371  1.00  0.00     0.047 A 
ATOM     15  C   UNL     1      -6.913  10.750   5.815  1.00  0.00     0.115 A 
ATOM     16  C   UNL     1      -7.585   8.521   6.498  1.00  0.00     0.016 A 
ATOM     17  C   UNL     1      -6.601   9.507   6.382  1.00  0.00     0.047 A 
BRANCH  15  18
ATOM     18  O   UNL     1      -5.940  11.740   5.695  1.00  0.00    -0.508 OA
ATOM     19  H   UNL     1      -6.187  12.711   5.546  1.00  0.00     0.293 HD
ENDBRANCH  15  18
ENDBRANCH   1  12
BRANCH   2  20
ATOM     20  O   UNL     1      -8.693   6.152   4.775  1.00  0.00    -0.502 OA
ATOM     21  H   UNL     1      -8.731   6.091   3.765  1.00  0.00     0.293 HD
ENDBRANCH   2  20
BRANCH   6  22
ATOM     22  O   UNL     1     -13.042   3.677   6.193  1.00  0.00    -0.507 OA
ATOM     23  H   UNL     1     -13.784   3.402   5.559  1.00  0.00     0.293 HD
ENDBRANCH   6  22
BRANCH   8  24
ATOM     24  O   UNL     1     -15.125   6.935   9.078  1.00  0.00    -0.508 OA
ATOM     25  H   UNL     1     -15.942   6.345   9.180  1.00  0.00     0.293 HD
ENDBRANCH   8  24
TORSDOF 5
ENDMDL
MODEL 5
REMARK VINA RESULT:    -4.832      5.115      7.555
REMARK INTER + INTRA:          -5.839
REMARK INTER:                  -6.139
REMARK INTRA:                   0.300
REMARK UNBOUND:                -0.159
REMARK SMILES O=c1c(O)c(-c2ccc(O)cc2)oc2cc(O)cc(O)c12
REMARK SMILES IDX 5 1 3 2 2 3 1 4 21 5 19 6 18 7 16 8 15 9 14 10 13 11 6 12
REMARK SMILES IDX 7 13 8 14 9 15 12 16 11 17 10 18 4 20 20 22 17 24
REMARK H PARENT 10 19 4 21 20 23 17 25
REMARK Flexibility Score: inf
ROOT
ATOM      1  C   UNL     1     -13.758   7.749   5.150  1.00  0.00     0.180 A 
ATOM      2  C   UNL     1     -14.219   7.859   6.477  1.00  0.00     0.208 A 
ATOM      3  C   UNL     1     -13.946   6.820   7.378  1.00  0.00     0.238 A 
ATOM      4  O   UNL     1     -14.345   6.912   8.572  1.00  0.00    -0.285 OA
ATOM      5  C   UNL     1     -13.236   5.683   6.938  1.00  0.00     0.111 A 
ATOM      6  C   UNL     1     -12.923   4.591   7.783  1.00  0.00     0.134 A 
ATOM      7  C   UNL     1     -12.221   3.492   7.267  1.00  0.00     0.093 A 
ATOM      8  C   UNL     1     -11.827   3.462   5.927  1.00  0.00     0.123 A 
ATOM      9  C   UNL     1     -12.134   4.539   5.088  1.00  0.00     0.094 A 
ATOM     10  C   UNL     1     -12.831   5.645   5.584  1.00  0.00     0.146 A 
ATOM     11  O   UNL     1     -13.104   6.655   4.767  1.00  0.00    -0.452 OA
ENDROOT
BRANCH   1  12
ATOM     12  C   UNL     1     -13.990   8.812   4.146  1.00  0.00     0.021 A 
ATOM     13  C   UNL     1     -14.143  10.157   4.524  1.00  0.00     0.016 A 
ATOM     14  C   UNL     1     -14.337  11.147   3.554  1.00  0.00     0.047 A 
ATOM     15  C   UNL     1     -14.366  10.808   2.199  1.00  0.00     0.115 A 
ATOM     16  C   UNL     1     -13.998   8.481   2.780  1.00  0.00     0.016 A 
ATOM     17  C   UNL     1     -14.193   9.472   1.813  1.00  0.00     0.047 A 
BRANCH  15  18
ATOM     18  O   UNL     1     -14.561  11.803   1.244  1.00  0.00    -0.508 OA
ATOM     19  H   UNL     1     -15.008  12.681   1.477  1.00  0.00     0.293 HD
ENDBRANCH  15  18
ENDBRANCH   1  12
BRANCH   2  20
ATOM     20  O   UNL     1     -14.964   8.973   6.875  1.00  0.00    -0.502 OA
ATOM     21  H   UNL     1     -14.560   9.732   7.411  1.00  0.00     0.293 HD
ENDBRANCH   2  20
BRANCH   6  22
ATOM     22  O   UNL     1     -13.302   4.588   9.125  1.00  0.00    -0.507 OA
ATOM     23  H   UNL     1     -12.648   4.359   9.865  1.00  0.00     0.293 HD
ENDBRANCH   6  22
BRANCH   8  24
ATOM     24  O   UNL     1     -11.132   2.358   5.439  1.00  0.00    -0.508 OA
ATOM     25  H   UNL     1     -10.123   2.363   5.351  1.00  0.00     0.293 HD
ENDBRANCH   8  24
TORSDOF 5
ENDMDL
MODEL 6
REMARK VINA RESULT:    -4.379      2.160      3.268
REMARK INTER + INTRA:          -5.306
REMARK INTER:                  -5.008
REMARK INTRA:                  -0.298
REMARK UNBOUND:                -0.159
REMARK SMILES O=c1c(O)c(-c2ccc(O)cc2)oc2cc(O)cc(O)c12
REMARK SMILES IDX 5 1 3 2 2 3 1 4 21 5 19 6 18 7 16 8 15 9 14 10 13 11 6 12
REMARK SMILES IDX 7 13 8 14 9 15 12 16 11 17 10 18 4 20 20 22 17 24
REMARK H PARENT 10 19 4 21 20 23 17 25
REMARK Flexibility Score: inf
ROOT
ATOM      1  C   UNL     1     -11.749   7.264   6.818  1.00  0.00     0.180 A 
ATOM      2  C   UNL     1     -12.772   7.860   7.582  1.00  0.00     0.208 A 
ATOM      3  C   UNL     1     -12.742   9.247   7.792  1.00  0.00     0.238 A 
ATOM      4  O   UNL     1     -13.659   9.793   8.466  1.00  0.00    -0.285 OA
ATOM      5  C   UNL     1     -11.686  10.011   7.253  1.00  0.00     0.111 A 
ATOM      6  C   UNL     1     -11.581  11.413   7.422  1.00  0.00     0.134 A 
ATOM      7  C   UNL     1     -10.495  12.100   6.862  1.00  0.00     0.093 A 
ATOM      8  C   UNL     1      -9.513  11.417   6.141  1.00  0.00     0.123 A 
ATOM      9  C   UNL     1      -9.612  10.032   5.971  1.00  0.00     0.094 A 
ATOM     10  C   UNL     1     -10.689   9.328   6.519  1.00  0.00     0.146 A 
ATOM     11  O   UNL     1     -10.761   8.015   6.339  1.00  0.00    -0.452 OA
ENDROOT
BRANCH   1  12
ATOM     12  C   UNL     1     -11.722   5.811   6.538  1.00  0.00     0.021 A 
ATOM     13  C   UNL     1     -12.370   5.268   5.413  1.00  0.00     0.016 A 
ATOM     14  C   UNL     1     -12.309   3.895   5.156  1.00  0.00     0.047 A 
ATOM     15  C   UNL     1     -11.591   3.050   6.008  1.00  0.00     0.115 A 
ATOM     16  C   UNL     1     -10.984   4.959   7.378  1.00  0.00     0.016 A 
ATOM     17  C   UNL     1     -10.925   3.586   7.118  1.00  0.00     0.047 A 
BRANCH  15  18
ATOM     18  O   UNL     1     -11.539   1.684   5.741  1.00  0.00    -0.508 OA
ATOM     19  H   UNL     1     -10.708   1.251   5.355  1.00  0.00     0.293 HD
ENDBRANCH  15  18
ENDBRANCH   1  12
BRANCH   2  20
ATOM     20  O   UNL     1     -13.780   7.073   8.147  1.00  0.00    -0.502 OA
ATOM     21  H   UNL     1     -14.087   6.203   7.730  1.00  0.00     0.293 HD
ENDBRANCH   2  20
BRANCH   6  22
ATOM     22  O   UNL     1     -12.543  12.125   8.138  1.00  0.00    -0.507 OA
ATOM     23  H   UNL     1     -12.408  12.376   9.111  1.00  0.00     0.293 HD
ENDBRANCH   6  22
BRANCH   8  24
ATOM     24  O   UNL     1      -8.443  12.123   5.596  1.00  0.00    -0.508 OA
ATOM     25  H   UNL     1      -8.554  12.700   4.770  1.00  0.00     0.293 HD
ENDBRANCH   8  24
TORSDOF 5
ENDMDL
MODEL 7
REMARK VINA RESULT:    -3.668      3.955      6.595
REMARK INTER + INTRA:          -4.471
REMARK INTER:                  -4.208
REMARK INTRA:                  -0.263
REMARK UNBOUND:                -0.159
REMARK SMILES O=c1c(O)c(-c2ccc(O)cc2)oc2cc(O)cc(O)c12
REMARK SMILES IDX 5 1 3 2 2 3 1 4 21 5 19 6 18 7 16 8 15 9 14 10 13 11 6 12
REMARK SMILES IDX 7 13 8 14 9 15 12 16 11 17 10 18 4 20 20 22 17 24
REMARK H PARENT 10 19 4 21 20 23 17 25
REMARK Flexibility Score: inf
ROOT
ATOM      1  C   UNL     1     -10.125  11.089   5.858  1.00  0.00     0.180 A 
ATOM      2  C   UNL     1     -11.013  11.343   6.922  1.00  0.00     0.208 A 
ATOM      3  C   UNL     1     -12.363  11.591   6.634  1.00  0.00     0.238 A 
ATOM      4  O   UNL     1     -13.170  11.809   7.579  1.00  0.00    -0.285 OA
ATOM      5  C   UNL     1     -12.800  11.599   5.292  1.00  0.00     0.111 A 
ATOM      6  C   UNL     1     -14.143  11.843   4.917  1.00  0.00     0.134 A 
ATOM      7  C   UNL     1     -14.496  11.843   3.560  1.00  0.00     0.093 A 
ATOM      8  C   UNL     1     -13.537  11.606   2.573  1.00  0.00     0.123 A 
ATOM      9  C   UNL     1     -12.208  11.363   2.938  1.00  0.00     0.094 A 
ATOM     10  C   UNL     1     -11.836  11.357   4.286  1.00  0.00     0.146 A 
ATOM     11  O   UNL     1     -10.570  11.119   4.605  1.00  0.00    -0.452 OA
ENDROOT
BRANCH   1  12
ATOM     12  C   UNL     1      -8.690  10.800   6.083  1.00  0.00     0.021 A 
ATOM     13  C   UNL     1      -7.763  11.831   6.321  1.00  0.00     0.016 A 
ATOM     14  C   UNL     1      -6.417  11.532   6.555  1.00  0.00     0.047 A 
ATOM     15  C   UNL     1      -5.984  10.203   6.568  1.00  0.00     0.115 A 
ATOM     16  C   UNL     1      -8.252   9.465   6.120  1.00  0.00     0.016 A 
ATOM     17  C   UNL     1      -6.905   9.169   6.353  1.00  0.00     0.047 A 
BRANCH  15  18
ATOM     18  O   UNL     1      -4.640   9.919   6.802  1.00  0.00    -0.508 OA
ATOM     19  H   UNL     1      -4.164   9.169   6.314  1.00  0.00     0.293 HD
ENDBRANCH  15  18
ENDBRANCH   1  12
BRANCH   2  20
ATOM     20  O   UNL     1     -10.545  11.379   8.239  1.00  0.00    -0.502 OA
ATOM     21  H   UNL     1      -9.973  12.138   8.590  1.00  0.00     0.293 HD
ENDBRANCH   2  20
BRANCH   6  22
ATOM     22  O   UNL     1     -15.125  12.085   5.878  1.00  0.00    -0.507 OA
ATOM     23  H   UNL     1     -15.710  11.342   6.242  1.00  0.00     0.293 HD
ENDBRANCH   6  22
BRANCH   8  24
ATOM     24  O   UNL     1     -13.914  11.613   1.232  1.00  0.00    -0.508 OA
ATOM     25  H   UNL     1     -13.506  10.970   0.564  1.00  0.00     0.293 HD
ENDBRANCH   8  24
TORSDOF 5
ENDMDL
