MODEL 1
REMARK VINA RESULT:    -5.069      0.000      0.000
REMARK INTER + INTRA:          -7.508
REMARK INTER:                  -7.143
REMARK INTRA:                  -0.365
REMARK UNBOUND:                -0.365
REMARK SMILES CCCCCCCCC(=O)[O-]
REMARK SMILES IDX 6 1 7 2 8 3 9 4 10 5 11 6 5 7 4 8 3 9 2 10 1 11
REMARK H PARENT
REMARK Flexibility Score: inf
ROOT
ATOM      1  C   UNL     1       9.852  53.883  21.267  1.00  0.00     0.000 C 
ENDROOT
BRANCH   1   2
ATOM      2  C   UNL     1      10.051  53.185  22.627  1.00  0.00     0.006 C 
BRANCH   2   3
ATOM      3  C   UNL     1      10.378  54.135  23.791  1.00  0.00     0.053 C 
BRANCH   3   4
ATOM      4  C   UNL     1       9.369  54.040  24.893  1.00  0.00     0.041 C 
ATOM      5  O   UNL     1       8.155  53.838  24.626  1.00  0.00    -0.550 OA
ATOM      6  O   UNL     1       9.764  54.209  26.214  1.00  0.00    -0.550 OA
ENDBRANCH   3   4
ENDBRANCH   2   3
ENDBRANCH   1   2
BRANCH   1   7
ATOM      7  C   UNL     1       8.385  54.089  20.849  1.00  0.00     0.000 C 
BRANCH   7   8
ATOM      8  C   UNL     1       7.997  55.570  20.735  1.00  0.00    -0.000 C 
BRANCH   8   9
ATOM      9  C   UNL     1       7.419  55.881  19.349  1.00  0.00    -0.000 C 
BRANCH   9  10
ATOM     10  C   UNL     1       7.236  54.600  18.528  1.00  0.00    -0.003 C 
ATOM     11  C   UNL     1       6.838  54.918  17.090  1.00  0.00     0.004 C 
ENDBRANCH   9  10
ENDBRANCH   8   9
ENDBRANCH   7   8
ENDBRANCH   1   7
TORSDOF 7
ENDMDL
MODEL 2
REMARK VINA RESULT:    -4.918      1.786      2.502
REMARK INTER + INTRA:          -7.296
REMARK INTER:                  -6.780
REMARK INTRA:                  -0.516
REMARK UNBOUND:                -0.365
REMARK SMILES CCCCCCCCC(=O)[O-]
REMARK SMILES IDX 6 1 7 2 8 3 9 4 10 5 11 6 5 7 4 8 3 9 2 10 1 11
REMARK H PARENT
REMARK Flexibility Score: inf
ROOT
ATOM      1  C   UNL     1       6.727  54.347  21.966  1.00  0.00     0.000 C 
ENDROOT
BRANCH   1   2
ATOM      2  C   UNL     1       8.204  54.711  22.221  1.00  0.00     0.006 C 
BRANCH   2   3
ATOM      3  C   UNL     1       9.217  53.788  21.525  1.00  0.00     0.053 C 
BRANCH   3   4
ATOM      4  C   UNL     1      10.028  53.002  22.508  1.00  0.00     0.041 C 
ATOM      5  O   UNL     1      10.554  53.576  23.498  1.00  0.00    -0.550 OA
ATOM      6  O   UNL     1      10.233  51.642  22.312  1.00  0.00    -0.550 OA
ENDBRANCH   3   4
ENDBRANCH   2   3
ENDBRANCH   1   2
BRANCH   1   7
ATOM      7  C   UNL     1       6.029  55.180  20.876  1.00  0.00     0.000 C 
BRANCH   7   8
ATOM      8  C   UNL     1       6.806  56.450  20.503  1.00  0.00    -0.000 C 
BRANCH   8   9
ATOM      9  C   UNL     1       7.266  56.403  19.041  1.00  0.00    -0.000 C 
BRANCH   9  10
ATOM     10  C   UNL     1       7.206  54.973  18.490  1.00  0.00    -0.003 C 
ATOM     11  C   UNL     1       6.877  54.969  17.000  1.00  0.00     0.004 C 
ENDBRANCH   9  10
ENDBRANCH   8   9
ENDBRANCH   7   8
ENDBRANCH   1   7
TORSDOF 7
ENDMDL
MODEL 3
REMARK VINA RESULT:    -4.905      1.103      1.775
REMARK INTER + INTRA:          -7.278
REMARK INTER:                  -6.847
REMARK INTRA:                  -0.431
REMARK UNBOUND:                -0.365
REMARK SMILES CCCCCCCCC(=O)[O-]
REMARK SMILES IDX 6 1 7 2 8 3 9 4 10 5 11 6 5 7 4 8 3 9 2 10 1 11
REMARK H PARENT
REMARK Flexibility Score: inf
ROOT
ATOM      1  C   UNL     1       9.675  53.655  21.161  1.00  0.00     0.000 C 
ENDROOT
BRANCH   1   2
ATOM      2  C   UNL     1      10.275  53.592  22.580  1.00  0.00     0.006 C 
BRANCH   2   3
ATOM      3  C   UNL     1       9.747  54.666  23.544  1.00  0.00     0.053 C 
BRANCH   3   4
ATOM      4  C   UNL     1       9.091  54.065  24.749  1.00  0.00     0.041 C 
ATOM      5  O   UNL     1       7.950  53.541  24.654  1.00  0.00    -0.550 OA
ATOM      6  O   UNL     1       9.726  54.115  25.984  1.00  0.00    -0.550 OA
ENDBRANCH   3   4
ENDBRANCH   2   3
ENDBRANCH   1   2
BRANCH   1   7
ATOM      7  C   UNL     1       8.287  54.314  21.069  1.00  0.00     0.000 C 
BRANCH   7   8
ATOM      8  C   UNL     1       7.892  54.680  19.632  1.00  0.00    -0.000 C 
BRANCH   8   9
ATOM      9  C   UNL     1       7.289  56.089  19.570  1.00  0.00    -0.000 C 
BRANCH   9  10
ATOM     10  C   UNL     1       6.872  56.571  20.964  1.00  0.00    -0.003 C 
ATOM     11  C   UNL     1       5.355  56.540  21.127  1.00  0.00     0.004 C 
ENDBRANCH   9  10
ENDBRANCH   8   9
ENDBRANCH   7   8
ENDBRANCH   1   7
TORSDOF 7
ENDMDL
MODEL 4
REMARK VINA RESULT:    -4.901      3.176      5.555
REMARK INTER + INTRA:          -7.272
REMARK INTER:                  -6.702
REMARK INTRA:                  -0.570
REMARK UNBOUND:                -0.365
REMARK SMILES CCCCCCCCC(=O)[O-]
REMARK SMILES IDX 6 1 7 2 8 3 9 4 10 5 11 6 5 7 4 8 3 9 2 10 1 11
REMARK H PARENT
REMARK Flexibility Score: inf
ROOT
ATOM      1  C   UNL     1       8.892  54.401  21.103  1.00  0.00     0.000 C 
ENDROOT
BRANCH   1   2
ATOM      2  C   UNL     1       7.442  53.913  20.905  1.00  0.00     0.006 C 
BRANCH   2   3
ATOM      3  C   UNL     1       6.490  54.966  20.314  1.00  0.00     0.053 C 
BRANCH   3   4
ATOM      4  C   UNL     1       7.077  55.642  19.114  1.00  0.00     0.041 C 
ATOM      5  O   UNL     1       7.200  55.014  18.029  1.00  0.00    -0.550 OA
ATOM      6  O   UNL     1       7.520  56.956  19.202  1.00  0.00    -0.550 OA
ENDBRANCH   3   4
ENDBRANCH   2   3
ENDBRANCH   1   2
BRANCH   1   7
ATOM      7  C   UNL     1       9.928  53.287  21.339  1.00  0.00     0.000 C 
BRANCH   7   8
ATOM      8  C   UNL     1      10.214  53.041  22.827  1.00  0.00    -0.000 C 
BRANCH   8   9
ATOM      9  C   UNL     1      10.127  54.348  23.626  1.00  0.00    -0.000 C 
BRANCH   9  10
ATOM     10  C   UNL     1       9.281  54.164  24.891  1.00  0.00    -0.003 C 
ATOM     11  C   UNL     1       7.966  53.456  24.577  1.00  0.00     0.004 C 
ENDBRANCH   9  10
ENDBRANCH   8   9
ENDBRANCH   7   8
ENDBRANCH   1   7
TORSDOF 7
ENDMDL
MODEL 5
REMARK VINA RESULT:    -4.847      3.234      6.002
REMARK INTER + INTRA:          -7.196
REMARK INTER:                  -6.753
REMARK INTRA:                  -0.444
REMARK UNBOUND:                -0.365
REMARK SMILES CCCCCCCCC(=O)[O-]
REMARK SMILES IDX 6 1 7 2 8 3 9 4 10 5 11 6 5 7 4 8 3 9 2 10 1 11
REMARK H PARENT
REMARK Flexibility Score: inf
ROOT
ATOM      1  C   UNL     1       7.682  53.677  21.327  1.00  0.00     0.000 C 
ENDROOT
BRANCH   1   2
ATOM      2  C   UNL     1       6.542  54.377  20.559  1.00  0.00     0.006 C 
BRANCH   2   3
ATOM      3  C   UNL     1       6.471  54.027  19.064  1.00  0.00     0.053 C 
BRANCH   3   4
ATOM      4  C   UNL     1       6.963  55.148  18.201  1.00  0.00     0.041 C 
ATOM      5  O   UNL     1       7.370  56.218  18.725  1.00  0.00    -0.550 OA
ATOM      6  O   UNL     1       6.940  55.022  16.818  1.00  0.00    -0.550 OA
ENDBRANCH   3   4
ENDBRANCH   2   3
ENDBRANCH   1   2
BRANCH   1   7
ATOM      7  C   UNL     1       9.061  54.349  21.201  1.00  0.00     0.000 C 
BRANCH   7   8
ATOM      8  C   UNL     1      10.223  53.388  21.489  1.00  0.00    -0.000 C 
BRANCH   8   9
ATOM      9  C   UNL     1      10.287  53.036  22.980  1.00  0.00    -0.000 C 
BRANCH   9  10
ATOM     10  C   UNL     1      10.338  54.301  23.844  1.00  0.00    -0.003 C 
ATOM     11  C   UNL     1       9.261  54.275  24.925  1.00  0.00     0.004 C 
ENDBRANCH   9  10
ENDBRANCH   8   9
ENDBRANCH   7   8
ENDBRANCH   1   7
TORSDOF 7
ENDMDL
MODEL 6
REMARK VINA RESULT:    -4.842      3.295      6.129
REMARK INTER + INTRA:          -7.188
REMARK INTER:                  -6.759
REMARK INTRA:                  -0.430
REMARK UNBOUND:                -0.365
REMARK SMILES CCCCCCCCC(=O)[O-]
REMARK SMILES IDX 6 1 7 2 8 3 9 4 10 5 11 6 5 7 4 8 3 9 2 10 1 11
REMARK H PARENT
REMARK Flexibility Score: inf
ROOT
ATOM      1  C   UNL     1       7.641  55.464  21.272  1.00  0.00     0.000 C 
ENDROOT
BRANCH   1   2
ATOM      2  C   UNL     1       6.636  55.694  20.125  1.00  0.00     0.006 C 
BRANCH   2   3
ATOM      3  C   UNL     1       7.280  55.892  18.743  1.00  0.00     0.053 C 
BRANCH   3   4
ATOM      4  C   UNL     1       6.905  54.802  17.787  1.00  0.00     0.041 C 
ATOM      5  O   UNL     1       6.850  53.607  18.179  1.00  0.00    -0.550 OA
ATOM      6  O   UNL     1       6.649  55.102  16.455  1.00  0.00    -0.550 OA
ENDBRANCH   3   4
ENDBRANCH   2   3
ENDBRANCH   1   2
BRANCH   1   7
ATOM      7  C   UNL     1       8.118  54.010  21.439  1.00  0.00     0.000 C 
BRANCH   7   8
ATOM      8  C   UNL     1       9.647  53.876  21.420  1.00  0.00    -0.000 C 
BRANCH   8   9
ATOM      9  C   UNL     1      10.166  53.322  22.753  1.00  0.00    -0.000 C 
BRANCH   9  10
ATOM     10  C   UNL     1      10.238  54.424  23.816  1.00  0.00    -0.003 C 
ATOM     11  C   UNL     1       9.246  54.166  24.946  1.00  0.00     0.004 C 
ENDBRANCH   9  10
ENDBRANCH   8   9
ENDBRANCH   7   8
ENDBRANCH   1   7
TORSDOF 7
ENDMDL
MODEL 7
REMARK VINA RESULT:    -4.631      3.186      5.153
REMARK INTER + INTRA:          -6.892
REMARK INTER:                  -6.238
REMARK INTRA:                  -0.654
REMARK UNBOUND:                -0.365
REMARK SMILES CCCCCCCCC(=O)[O-]
REMARK SMILES IDX 6 1 7 2 8 3 9 4 10 5 11 6 5 7 4 8 3 9 2 10 1 11
REMARK H PARENT
REMARK Flexibility Score: inf
ROOT
ATOM      1  C   UNL     1       6.780  53.938  23.001  1.00  0.00     0.000 C 
ENDROOT
BRANCH   1   2
ATOM      2  C   UNL     1       7.133  54.219  21.526  1.00  0.00     0.006 C 
BRANCH   2   3
ATOM      3  C   UNL     1       7.647  55.641  21.254  1.00  0.00     0.053 C 
BRANCH   3   4
ATOM      4  C   UNL     1       6.883  56.314  20.155  1.00  0.00     0.041 C 
ATOM      5  O   UNL     1       5.906  57.061  20.428  1.00  0.00    -0.550 OA
ATOM      6  O   UNL     1       7.228  56.089  18.829  1.00  0.00    -0.550 OA
ENDBRANCH   3   4
ENDBRANCH   2   3
ENDBRANCH   1   2
BRANCH   1   7
ATOM      7  C   UNL     1       7.820  53.105  23.773  1.00  0.00     0.000 C 
BRANCH   7   8
ATOM      8  C   UNL     1       8.853  53.970  24.508  1.00  0.00    -0.000 C 
BRANCH   8   9
ATOM      9  C   UNL     1      10.141  54.104  23.687  1.00  0.00    -0.000 C 
BRANCH   9  10
ATOM     10  C   UNL     1      10.319  52.910  22.742  1.00  0.00    -0.003 C 
ATOM     11  C   UNL     1      10.599  53.372  21.315  1.00  0.00     0.004 C 
ENDBRANCH   9  10
ENDBRANCH   8   9
ENDBRANCH   7   8
ENDBRANCH   1   7
TORSDOF 7
ENDMDL
MODEL 8
REMARK VINA RESULT:    -4.603      2.266      2.695
REMARK INTER + INTRA:          -6.852
REMARK INTER:                  -6.403
REMARK INTRA:                  -0.449
REMARK UNBOUND:                -0.365
REMARK SMILES CCCCCCCCC(=O)[O-]
REMARK SMILES IDX 6 1 7 2 8 3 9 4 10 5 11 6 5 7 4 8 3 9 2 10 1 11
REMARK H PARENT
REMARK Flexibility Score: inf
ROOT
ATOM      1  C   UNL     1       7.602  53.637  23.088  1.00  0.00     0.000 C 
ENDROOT
BRANCH   1   2
ATOM      2  C   UNL     1       8.926  54.415  23.231  1.00  0.00     0.006 C 
BRANCH   2   3
ATOM      3  C   UNL     1      10.190  53.544  23.152  1.00  0.00     0.053 C 
BRANCH   3   4
ATOM      4  C   UNL     1      10.151  52.604  21.987  1.00  0.00     0.041 C 
ATOM      5  O   UNL     1      10.062  53.052  20.813  1.00  0.00    -0.550 OA
ATOM      6  O   UNL     1      10.178  51.231  22.199  1.00  0.00    -0.550 OA
ENDBRANCH   3   4
ENDBRANCH   2   3
ENDBRANCH   1   2
BRANCH   1   7
ATOM      7  C   UNL     1       6.524  54.334  22.239  1.00  0.00     0.000 C 
BRANCH   7   8
ATOM      8  C   UNL     1       7.058  54.840  20.892  1.00  0.00    -0.000 C 
BRANCH   8   9
ATOM      9  C   UNL     1       6.672  53.887  19.754  1.00  0.00    -0.000 C 
BRANCH   9  10
ATOM     10  C   UNL     1       7.352  54.291  18.442  1.00  0.00    -0.003 C 
ATOM     11  C   UNL     1       6.380  54.209  17.269  1.00  0.00     0.004 C 
ENDBRANCH   9  10
ENDBRANCH   8   9
ENDBRANCH   7   8
ENDBRANCH   1   7
TORSDOF 7
ENDMDL
MODEL 9
REMARK VINA RESULT:    -4.557      2.671      5.430
REMARK INTER + INTRA:          -6.787
REMARK INTER:                  -6.546
REMARK INTRA:                  -0.241
REMARK UNBOUND:                -0.365
REMARK SMILES CCCCCCCCC(=O)[O-]
REMARK SMILES IDX 6 1 7 2 8 3 9 4 10 5 11 6 5 7 4 8 3 9 2 10 1 11
REMARK H PARENT
REMARK Flexibility Score: inf
ROOT
ATOM      1  C   UNL     1       8.332  54.014  21.031  1.00  0.00     0.000 C 
ENDROOT
BRANCH   1   2
ATOM      2  C   UNL     1       7.875  55.165  20.112  1.00  0.00     0.006 C 
BRANCH   2   3
ATOM      3  C   UNL     1       7.333  56.397  20.854  1.00  0.00     0.053 C 
BRANCH   3   4
ATOM      4  C   UNL     1       5.861  56.295  21.111  1.00  0.00     0.041 C 
ATOM      5  O   UNL     1       5.374  55.237  21.590  1.00  0.00    -0.550 OA
ATOM      6  O   UNL     1       5.023  57.355  20.789  1.00  0.00    -0.550 OA
ENDBRANCH   3   4
ENDBRANCH   2   3
ENDBRANCH   1   2
BRANCH   1   7
ATOM      7  C   UNL     1       9.799  53.583  20.857  1.00  0.00     0.000 C 
BRANCH   7   8
ATOM      8  C   UNL     1      10.571  53.537  22.183  1.00  0.00    -0.000 C 
BRANCH   8   9
ATOM      9  C   UNL     1       9.790  54.243  23.298  1.00  0.00    -0.000 C 
BRANCH   9  10
ATOM     10  C   UNL     1      10.558  54.195  24.624  1.00  0.00    -0.003 C 
ATOM     11  C   UNL     1       9.609  54.288  25.814  1.00  0.00     0.004 C 
ENDBRANCH   9  10
ENDBRANCH   8   9
ENDBRANCH   7   8
ENDBRANCH   1   7
TORSDOF 7
ENDMDL
