MODEL 1
REMARK VINA RESULT:     0.289      0.000      0.000
REMARK INTER + INTRA:          -0.244
REMARK INTER:                   0.660
REMARK INTRA:                  -0.905
REMARK UNBOUND:                -0.905
REMARK SMILES CCCCCCCCCCCCCCCCCCCCCCCC(=O)[O-]
REMARK SMILES IDX 13 1 14 2 15 3 16 4 17 5 18 6 19 7 20 8 21 9 22 10 23 11
REMARK SMILES IDX 24 12 25 13 26 14 12 15 11 16 10 17 9 18 8 19 7 20 6 21 5 22
REMARK SMILES IDX 4 23 3 24 2 25 1 26
REMARK H PARENT
REMARK Flexibility Score: inf
ROOT
ATOM      1  C   UNL     1      20.672  20.521  15.664  1.00  0.00     0.000 C 
ENDROOT
BRANCH   1   2
ATOM      2  C   UNL     1      19.239  20.052  15.355  1.00  0.00     0.000 C 
BRANCH   2   3
ATOM      3  C   UNL     1      18.298  20.209  16.562  1.00  0.00     0.000 C 
BRANCH   3   4
ATOM      4  C   UNL     1      16.837  19.875  16.212  1.00  0.00     0.000 C 
BRANCH   4   5
ATOM      5  C   UNL     1      15.827  20.853  16.842  1.00  0.00     0.000 C 
BRANCH   5   6
ATOM      6  C   UNL     1      14.369  20.678  16.379  1.00  0.00     0.000 C 
BRANCH   6   7
ATOM      7  C   UNL     1      13.402  20.350  17.529  1.00  0.00     0.000 C 
BRANCH   7   8
ATOM      8  C   UNL     1      12.122  21.217  17.476  1.00  0.00     0.000 C 
BRANCH   8   9
ATOM      9  C   UNL     1      11.362  21.271  18.814  1.00  0.00     0.000 C 
BRANCH   9  10
ATOM     10  C   UNL     1      11.964  20.383  19.924  1.00  0.00     0.006 C 
BRANCH  10  11
ATOM     11  C   UNL     1      11.136  20.362  21.221  1.00  0.00     0.053 C 
BRANCH  11  12
ATOM     12  C   UNL     1      11.385  21.560  22.085  1.00  0.00     0.041 C 
ATOM     13  O   UNL     1      10.453  22.367  22.334  1.00  0.00    -0.550 OA
ATOM     14  O   UNL     1      12.655  21.792  22.601  1.00  0.00    -0.550 OA
ENDBRANCH  11  12
ENDBRANCH  10  11
ENDBRANCH   9  10
ENDBRANCH   8   9
ENDBRANCH   7   8
ENDBRANCH   6   7
ENDBRANCH   5   6
ENDBRANCH   4   5
ENDBRANCH   3   4
ENDBRANCH   2   3
ENDBRANCH   1   2
BRANCH   1  15
ATOM     15  C   UNL     1      21.718  19.875  14.740  1.00  0.00     0.000 C 
BRANCH  15  16
ATOM     16  C   UNL     1      23.051  20.640  14.628  1.00  0.00     0.000 C 
BRANCH  16  17
ATOM     17  C   UNL     1      23.857  20.686  15.944  1.00  0.00     0.000 C 
BRANCH  17  18
ATOM     18  C   UNL     1      25.310  20.213  15.761  1.00  0.00    -0.000 C 
BRANCH  18  19
ATOM     19  C   UNL     1      26.192  20.539  16.977  1.00  0.00    -0.000 C 
BRANCH  19  20
ATOM     20  C   UNL     1      27.694  20.524  16.638  1.00  0.00    -0.000 C 
BRANCH  20  21
ATOM     21  C   UNL     1      27.992  21.085  15.238  1.00  0.00    -0.000 C 
BRANCH  21  22
ATOM     22  C   UNL     1      28.868  20.138  14.401  1.00  0.00    -0.000 C 
BRANCH  22  23
ATOM     23  C   UNL     1      29.716  20.881  13.356  1.00  0.00    -0.000 C 
BRANCH  23  24
ATOM     24  C   UNL     1      29.407  20.436  11.916  1.00  0.00    -0.000 C 
BRANCH  24  25
ATOM     25  C   UNL     1      28.625  21.518  11.162  1.00  0.00    -0.003 C 
ATOM     26  C   UNL     1      28.486  22.784  12.003  1.00  0.00     0.004 C 
ENDBRANCH  24  25
ENDBRANCH  23  24
ENDBRANCH  22  23
ENDBRANCH  21  22
ENDBRANCH  20  21
ENDBRANCH  19  20
ENDBRANCH  18  19
ENDBRANCH  17  18
ENDBRANCH  16  17
ENDBRANCH  15  16
ENDBRANCH   1  15
TORSDOF 22
ENDMDL
MODEL 2
REMARK VINA RESULT:     1.357      5.696     14.929
REMARK INTER + INTRA:           2.197
REMARK INTER:                   3.232
REMARK INTRA:                  -1.035
REMARK UNBOUND:                -0.905
REMARK SMILES CCCCCCCCCCCCCCCCCCCCCCCC(=O)[O-]
REMARK SMILES IDX 13 1 14 2 15 3 16 4 17 5 18 6 19 7 20 8 21 9 22 10 23 11
REMARK SMILES IDX 24 12 25 13 26 14 12 15 11 16 10 17 9 18 8 19 7 20 6 21 5 22
REMARK SMILES IDX 4 23 3 24 2 25 1 26
REMARK H PARENT
REMARK Flexibility Score: inf
ROOT
ATOM      1  C   UNL     1      16.963  20.055  16.522  1.00  0.00     0.000 C 
ENDROOT
BRANCH   1   2
ATOM      2  C   UNL     1      18.095  20.248  15.497  1.00  0.00     0.000 C 
BRANCH   2   3
ATOM      3  C   UNL     1      19.486  20.011  16.108  1.00  0.00     0.000 C 
BRANCH   3   4
ATOM      4  C   UNL     1      20.614  20.162  15.072  1.00  0.00     0.000 C 
BRANCH   4   5
ATOM      5  C   UNL     1      21.940  20.646  15.690  1.00  0.00     0.000 C 
BRANCH   5   6
ATOM      6  C   UNL     1      23.193  19.875  15.237  1.00  0.00     0.000 C 
BRANCH   6   7
ATOM      7  C   UNL     1      24.472  20.732  15.256  1.00  0.00     0.000 C 
BRANCH   7   8
ATOM      8  C   UNL     1      25.541  20.157  16.214  1.00  0.00     0.000 C 
BRANCH   8   9
ATOM      9  C   UNL     1      26.985  20.414  15.745  1.00  0.00     0.000 C 
BRANCH   9  10
ATOM     10  C   UNL     1      27.131  20.632  14.224  1.00  0.00     0.006 C 
BRANCH  10  11
ATOM     11  C   UNL     1      28.574  20.482  13.710  1.00  0.00     0.053 C 
BRANCH  11  12
ATOM     12  C   UNL     1      29.055  21.697  12.978  1.00  0.00     0.041 C 
ATOM     13  O   UNL     1      29.886  22.473  13.516  1.00  0.00    -0.550 OA
ATOM     14  O   UNL     1      28.571  21.980  11.707  1.00  0.00    -0.550 OA
ENDBRANCH  11  12
ENDBRANCH  10  11
ENDBRANCH   9  10
ENDBRANCH   8   9
ENDBRANCH   7   8
ENDBRANCH   6   7
ENDBRANCH   5   6
ENDBRANCH   4   5
ENDBRANCH   3   4
ENDBRANCH   2   3
ENDBRANCH   1   2
BRANCH   1  15
ATOM     15  C   UNL     1      15.810  21.054  16.327  1.00  0.00     0.000 C 
BRANCH  15  16
ATOM     16  C   UNL     1      14.397  20.455  16.463  1.00  0.00     0.000 C 
BRANCH  16  17
ATOM     17  C   UNL     1      13.271  21.392  15.977  1.00  0.00     0.000 C 
BRANCH  17  18
ATOM     18  C   UNL     1      11.948  21.164  16.731  1.00  0.00    -0.000 C 
BRANCH  18  19
ATOM     19  C   UNL     1      12.025  19.981  17.709  1.00  0.00    -0.000 C 
BRANCH  19  20
ATOM     20  C   UNL     1      10.781  19.878  18.610  1.00  0.00    -0.000 C 
BRANCH  20  21
ATOM     21  C   UNL     1      10.757  20.950  19.712  1.00  0.00    -0.000 C 
BRANCH  21  22
ATOM     22  C   UNL     1       9.913  20.525  20.926  1.00  0.00    -0.000 C 
BRANCH  22  23
ATOM     23  C   UNL     1      10.756  19.888  22.043  1.00  0.00    -0.000 C 
BRANCH  23  24
ATOM     24  C   UNL     1      12.218  20.367  22.028  1.00  0.00    -0.000 C 
BRANCH  24  25
ATOM     25  C   UNL     1      12.465  21.412  23.123  1.00  0.00    -0.003 C 
ATOM     26  C   UNL     1      12.323  22.828  22.574  1.00  0.00     0.004 C 
ENDBRANCH  24  25
ENDBRANCH  23  24
ENDBRANCH  22  23
ENDBRANCH  21  22
ENDBRANCH  20  21
ENDBRANCH  19  20
ENDBRANCH  18  19
ENDBRANCH  17  18
ENDBRANCH  16  17
ENDBRANCH  15  16
ENDBRANCH   1  15
TORSDOF 22
ENDMDL
MODEL 3
REMARK VINA RESULT:     1.375      5.533     14.577
REMARK INTER + INTRA:           2.239
REMARK INTER:                   3.086
REMARK INTRA:                  -0.847
REMARK UNBOUND:                -0.905
REMARK SMILES CCCCCCCCCCCCCCCCCCCCCCCC(=O)[O-]
REMARK SMILES IDX 13 1 14 2 15 3 16 4 17 5 18 6 19 7 20 8 21 9 22 10 23 11
REMARK SMILES IDX 24 12 25 13 26 14 12 15 11 16 10 17 9 18 8 19 7 20 6 21 5 22
REMARK SMILES IDX 4 23 3 24 2 25 1 26
REMARK H PARENT
REMARK Flexibility Score: inf
ROOT
ATOM      1  C   UNL     1      16.487  20.862  16.376  1.00  0.00     0.000 C 
ENDROOT
BRANCH   1   2
ATOM      2  C   UNL     1      17.529  20.128  15.513  1.00  0.00     0.000 C 
BRANCH   2   3
ATOM      3  C   UNL     1      18.939  20.179  16.125  1.00  0.00     0.000 C 
BRANCH   3   4
ATOM      4  C   UNL     1      20.044  20.135  15.055  1.00  0.00     0.000 C 
BRANCH   4   5
ATOM      5  C   UNL     1      21.445  19.884  15.644  1.00  0.00     0.000 C 
BRANCH   5   6
ATOM      6  C   UNL     1      22.606  20.544  14.878  1.00  0.00     0.000 C 
BRANCH   6   7
ATOM      7  C   UNL     1      23.715  21.078  15.801  1.00  0.00     0.000 C 
BRANCH   7   8
ATOM      8  C   UNL     1      24.837  20.038  16.021  1.00  0.00     0.000 C 
BRANCH   8   9
ATOM      9  C   UNL     1      26.053  20.599  16.782  1.00  0.00     0.000 C 
BRANCH   9  10
ATOM     10  C   UNL     1      27.327  20.748  15.922  1.00  0.00     0.006 C 
BRANCH  10  11
ATOM     11  C   UNL     1      27.097  20.501  14.420  1.00  0.00     0.053 C 
BRANCH  11  12
ATOM     12  C   UNL     1      28.211  21.031  13.571  1.00  0.00     0.041 C 
ATOM     13  O   UNL     1      28.906  22.001  13.970  1.00  0.00    -0.550 OA
ATOM     14  O   UNL     1      28.469  20.463  12.329  1.00  0.00    -0.550 OA
ENDBRANCH  11  12
ENDBRANCH  10  11
ENDBRANCH   9  10
ENDBRANCH   8   9
ENDBRANCH   7   8
ENDBRANCH   6   7
ENDBRANCH   5   6
ENDBRANCH   4   5
ENDBRANCH   3   4
ENDBRANCH   2   3
ENDBRANCH   1   2
BRANCH   1  15
ATOM     15  C   UNL     1      15.531  19.898  17.098  1.00  0.00     0.000 C 
BRANCH  15  16
ATOM     16  C   UNL     1      14.094  20.424  17.287  1.00  0.00     0.000 C 
BRANCH  16  17
ATOM     17  C   UNL     1      13.339  20.665  15.962  1.00  0.00     0.000 C 
BRANCH  17  18
ATOM     18  C   UNL     1      12.804  22.104  15.844  1.00  0.00    -0.000 C 
BRANCH  18  19
ATOM     19  C   UNL     1      11.988  22.324  14.561  1.00  0.00    -0.000 C 
BRANCH  19  20
ATOM     20  C   UNL     1      10.496  21.991  14.746  1.00  0.00    -0.000 C 
BRANCH  20  21
ATOM     21  C   UNL     1      10.014  22.211  16.190  1.00  0.00    -0.000 C 
BRANCH  21  22
ATOM     22  C   UNL     1      10.208  20.964  17.069  1.00  0.00    -0.000 C 
BRANCH  22  23
ATOM     23  C   UNL     1      10.247  21.295  18.570  1.00  0.00    -0.000 C 
BRANCH  23  24
ATOM     24  C   UNL     1       9.875  22.758  18.864  1.00  0.00    -0.000 C 
BRANCH  24  25
ATOM     25  C   UNL     1      10.874  23.394  19.839  1.00  0.00    -0.003 C 
ATOM     26  C   UNL     1      11.109  22.496  21.050  1.00  0.00     0.004 C 
ENDBRANCH  24  25
ENDBRANCH  23  24
ENDBRANCH  22  23
ENDBRANCH  21  22
ENDBRANCH  20  21
ENDBRANCH  19  20
ENDBRANCH  18  19
ENDBRANCH  17  18
ENDBRANCH  16  17
ENDBRANCH  15  16
ENDBRANCH   1  15
TORSDOF 22
ENDMDL
MODEL 4
REMARK VINA RESULT:     1.445      5.449     14.722
REMARK INTER + INTRA:           2.398
REMARK INTER:                   2.975
REMARK INTRA:                  -0.577
REMARK UNBOUND:                -0.905
REMARK SMILES CCCCCCCCCCCCCCCCCCCCCCCC(=O)[O-]
REMARK SMILES IDX 13 1 14 2 15 3 16 4 17 5 18 6 19 7 20 8 21 9 22 10 23 11
REMARK SMILES IDX 24 12 25 13 26 14 12 15 11 16 10 17 9 18 8 19 7 20 6 21 5 22
REMARK SMILES IDX 4 23 3 24 2 25 1 26
REMARK H PARENT
REMARK Flexibility Score: inf
ROOT
ATOM      1  C   UNL     1      16.330  21.039  16.857  1.00  0.00     0.000 C 
ENDROOT
BRANCH   1   2
ATOM      2  C   UNL     1      17.251  20.345  15.837  1.00  0.00     0.000 C 
BRANCH   2   3
ATOM      3  C   UNL     1      18.647  20.052  16.411  1.00  0.00     0.000 C 
BRANCH   3   4
ATOM      4  C   UNL     1      19.715  19.915  15.312  1.00  0.00     0.000 C 
BRANCH   4   5
ATOM      5  C   UNL     1      20.837  20.965  15.427  1.00  0.00     0.000 C 
BRANCH   5   6
ATOM      6  C   UNL     1      22.184  20.429  15.946  1.00  0.00     0.000 C 
BRANCH   6   7
ATOM      7  C   UNL     1      23.162  20.052  14.819  1.00  0.00     0.000 C 
BRANCH   7   8
ATOM      8  C   UNL     1      24.608  20.499  15.132  1.00  0.00     0.000 C 
BRANCH   8   9
ATOM      9  C   UNL     1      25.177  19.877  16.421  1.00  0.00     0.000 C 
BRANCH   9  10
ATOM     10  C   UNL     1      26.602  20.350  16.780  1.00  0.00     0.006 C 
BRANCH  10  11
ATOM     11  C   UNL     1      27.173  21.399  15.808  1.00  0.00     0.053 C 
BRANCH  11  12
ATOM     12  C   UNL     1      28.217  20.832  14.897  1.00  0.00     0.041 C 
ATOM     13  O   UNL     1      28.198  21.098  13.667  1.00  0.00    -0.550 OA
ATOM     14  O   UNL     1      29.204  19.996  15.405  1.00  0.00    -0.550 OA
ENDBRANCH  11  12
ENDBRANCH  10  11
ENDBRANCH   9  10
ENDBRANCH   8   9
ENDBRANCH   7   8
ENDBRANCH   6   7
ENDBRANCH   5   6
ENDBRANCH   4   5
ENDBRANCH   3   4
ENDBRANCH   2   3
ENDBRANCH   1   2
BRANCH   1  15
ATOM     15  C   UNL     1      14.933  21.339  16.287  1.00  0.00     0.000 C 
BRANCH  15  16
ATOM     16  C   UNL     1      13.981  20.129  16.220  1.00  0.00     0.000 C 
BRANCH  16  17
ATOM     17  C   UNL     1      13.032  20.014  17.432  1.00  0.00     0.000 C 
BRANCH  17  18
ATOM     18  C   UNL     1      11.885  21.039  17.380  1.00  0.00    -0.000 C 
BRANCH  18  19
ATOM     19  C   UNL     1      10.608  20.528  18.065  1.00  0.00    -0.000 C 
BRANCH  19  20
ATOM     20  C   UNL     1      10.070  21.510  19.121  1.00  0.00    -0.000 C 
BRANCH  20  21
ATOM     21  C   UNL     1      10.690  21.286  20.510  1.00  0.00    -0.000 C 
BRANCH  21  22
ATOM     22  C   UNL     1      10.788  22.586  21.326  1.00  0.00    -0.000 C 
BRANCH  22  23
ATOM     23  C   UNL     1      11.361  22.362  22.735  1.00  0.00    -0.000 C 
BRANCH  23  24
ATOM     24  C   UNL     1      12.244  21.106  22.824  1.00  0.00    -0.000 C 
BRANCH  24  25
ATOM     25  C   UNL     1      11.466  19.928  23.422  1.00  0.00    -0.003 C 
ATOM     26  C   UNL     1      10.032  20.329  23.758  1.00  0.00     0.004 C 
ENDBRANCH  24  25
ENDBRANCH  23  24
ENDBRANCH  22  23
ENDBRANCH  21  22
ENDBRANCH  20  21
ENDBRANCH  19  20
ENDBRANCH  18  19
ENDBRANCH  17  18
ENDBRANCH  16  17
ENDBRANCH  15  16
ENDBRANCH   1  15
TORSDOF 22
ENDMDL
MODEL 5
REMARK VINA RESULT:     1.814      1.415      2.609
REMARK INTER + INTRA:           3.243
REMARK INTER:                   4.186
REMARK INTRA:                  -0.943
REMARK UNBOUND:                -0.905
REMARK SMILES CCCCCCCCCCCCCCCCCCCCCCCC(=O)[O-]
REMARK SMILES IDX 13 1 14 2 15 3 16 4 17 5 18 6 19 7 20 8 21 9 22 10 23 11
REMARK SMILES IDX 24 12 25 13 26 14 12 15 11 16 10 17 9 18 8 19 7 20 6 21 5 22
REMARK SMILES IDX 4 23 3 24 2 25 1 26
REMARK H PARENT
REMARK Flexibility Score: inf
ROOT
ATOM      1  C   UNL     1      23.024  20.776  15.988  1.00  0.00     0.000 C 
ENDROOT
BRANCH   1   2
ATOM      2  C   UNL     1      21.727  19.951  16.066  1.00  0.00     0.000 C 
BRANCH   2   3
ATOM      3  C   UNL     1      20.487  20.770  15.670  1.00  0.00     0.000 C 
BRANCH   3   4
ATOM      4  C   UNL     1      19.272  19.879  15.357  1.00  0.00     0.000 C 
BRANCH   4   5
ATOM      5  C   UNL     1      18.219  19.876  16.481  1.00  0.00     0.000 C 
BRANCH   5   6
ATOM      6  C   UNL     1      16.757  19.983  16.009  1.00  0.00     0.000 C 
BRANCH   6   7
ATOM      7  C   UNL     1      15.757  20.158  17.165  1.00  0.00     0.000 C 
BRANCH   7   8
ATOM      8  C   UNL     1      14.291  20.074  16.682  1.00  0.00     0.000 C 
BRANCH   8   9
ATOM      9  C   UNL     1      13.285  20.703  17.664  1.00  0.00     0.000 C 
BRANCH   9  10
ATOM     10  C   UNL     1      11.963  21.162  17.012  1.00  0.00     0.006 C 
BRANCH  10  11
ATOM     11  C   UNL     1      10.703  20.648  17.732  1.00  0.00     0.053 C 
BRANCH  11  12
ATOM     12  C   UNL     1      10.690  20.993  19.189  1.00  0.00     0.041 C 
ATOM     13  O   UNL     1      10.674  20.082  20.056  1.00  0.00    -0.550 OA
ATOM     14  O   UNL     1      10.679  22.324  19.588  1.00  0.00    -0.550 OA
ENDBRANCH  11  12
ENDBRANCH  10  11
ENDBRANCH   9  10
ENDBRANCH   8   9
ENDBRANCH   7   8
ENDBRANCH   6   7
ENDBRANCH   5   6
ENDBRANCH   4   5
ENDBRANCH   3   4
ENDBRANCH   2   3
ENDBRANCH   1   2
BRANCH   1  15
ATOM     15  C   UNL     1      24.219  19.955  15.473  1.00  0.00     0.000 C 
BRANCH  15  16
ATOM     16  C   UNL     1      25.453  19.948  16.396  1.00  0.00     0.000 C 
BRANCH  16  17
ATOM     17  C   UNL     1      26.104  21.336  16.577  1.00  0.00     0.000 C 
BRANCH  17  18
ATOM     18  C   UNL     1      27.639  21.260  16.659  1.00  0.00    -0.000 C 
BRANCH  18  19
ATOM     19  C   UNL     1      28.184  19.888  16.230  1.00  0.00    -0.000 C 
BRANCH  19  20
ATOM     20  C   UNL     1      29.691  19.922  15.919  1.00  0.00    -0.000 C 
BRANCH  20  21
ATOM     21  C   UNL     1      29.987  19.875  14.411  1.00  0.00    -0.000 C 
BRANCH  21  22
ATOM     22  C   UNL     1      29.449  21.111  13.669  1.00  0.00    -0.000 C 
BRANCH  22  23
ATOM     23  C   UNL     1      28.589  20.743  12.449  1.00  0.00    -0.000 C 
BRANCH  23  24
ATOM     24  C   UNL     1      28.512  21.879  11.413  1.00  0.00    -0.000 C 
BRANCH  24  25
ATOM     25  C   UNL     1      28.989  21.400  10.037  1.00  0.00    -0.003 C 
ATOM     26  C   UNL     1      28.596  19.947   9.792  1.00  0.00     0.004 C 
ENDBRANCH  24  25
ENDBRANCH  23  24
ENDBRANCH  22  23
ENDBRANCH  21  22
ENDBRANCH  20  21
ENDBRANCH  19  20
ENDBRANCH  18  19
ENDBRANCH  17  18
ENDBRANCH  16  17
ENDBRANCH  15  16
ENDBRANCH   1  15
TORSDOF 22
ENDMDL
MODEL 6
REMARK VINA RESULT:     1.967      1.395      3.359
REMARK INTER + INTRA:           3.591
REMARK INTER:                   4.257
REMARK INTRA:                  -0.666
REMARK UNBOUND:                -0.905
REMARK SMILES CCCCCCCCCCCCCCCCCCCCCCCC(=O)[O-]
REMARK SMILES IDX 13 1 14 2 15 3 16 4 17 5 18 6 19 7 20 8 21 9 22 10 23 11
REMARK SMILES IDX 24 12 25 13 26 14 12 15 11 16 10 17 9 18 8 19 7 20 6 21 5 22
REMARK SMILES IDX 4 23 3 24 2 25 1 26
REMARK H PARENT
REMARK Flexibility Score: inf
ROOT
ATOM      1  C   UNL     1      16.500  20.642  16.657  1.00  0.00     0.000 C 
ENDROOT
BRANCH   1   2
ATOM      2  C   UNL     1      15.525  19.875  17.569  1.00  0.00     0.000 C 
BRANCH   2   3
ATOM      3  C   UNL     1      14.084  19.891  17.033  1.00  0.00     0.000 C 
BRANCH   3   4
ATOM      4  C   UNL     1      13.650  21.290  16.561  1.00  0.00     0.000 C 
BRANCH   4   5
ATOM      5  C   UNL     1      13.084  21.295  15.128  1.00  0.00     0.000 C 
BRANCH   5   6
ATOM      6  C   UNL     1      11.834  22.169  14.920  1.00  0.00     0.000 C 
BRANCH   6   7
ATOM      7  C   UNL     1      11.038  22.406  16.216  1.00  0.00     0.000 C 
BRANCH   7   8
ATOM      8  C   UNL     1      10.629  21.079  16.897  1.00  0.00     0.000 C 
BRANCH   8   9
ATOM      9  C   UNL     1      10.011  21.273  18.294  1.00  0.00     0.000 C 
BRANCH   9  10
ATOM     10  C   UNL     1      10.635  22.424  19.112  1.00  0.00     0.006 C 
BRANCH  10  11
ATOM     11  C   UNL     1      10.560  22.215  20.636  1.00  0.00     0.053 C 
BRANCH  11  12
ATOM     12  C   UNL     1      11.527  21.182  21.124  1.00  0.00     0.041 C 
ATOM     13  O   UNL     1      11.760  21.063  22.355  1.00  0.00    -0.550 OA
ATOM     14  O   UNL     1      12.185  20.360  20.216  1.00  0.00    -0.550 OA
ENDBRANCH  11  12
ENDBRANCH  10  11
ENDBRANCH   9  10
ENDBRANCH   8   9
ENDBRANCH   7   8
ENDBRANCH   6   7
ENDBRANCH   5   6
ENDBRANCH   4   5
ENDBRANCH   3   4
ENDBRANCH   2   3
ENDBRANCH   1   2
BRANCH   1  15
ATOM     15  C   UNL     1      17.838  19.908  16.470  1.00  0.00     0.000 C 
BRANCH  15  16
ATOM     16  C   UNL     1      18.942  20.730  15.778  1.00  0.00     0.000 C 
BRANCH  16  17
ATOM     17  C   UNL     1      20.248  19.944  15.536  1.00  0.00     0.000 C 
BRANCH  17  18
ATOM     18  C   UNL     1      21.503  20.821  15.702  1.00  0.00    -0.000 C 
BRANCH  18  19
ATOM     19  C   UNL     1      22.634  20.416  14.744  1.00  0.00    -0.000 C 
BRANCH  19  20
ATOM     20  C   UNL     1      23.876  19.888  15.487  1.00  0.00    -0.000 C 
BRANCH  20  21
ATOM     21  C   UNL     1      24.788  21.017  15.995  1.00  0.00    -0.000 C 
BRANCH  21  22
ATOM     22  C   UNL     1      26.009  20.483  16.763  1.00  0.00    -0.000 C 
BRANCH  22  23
ATOM     23  C   UNL     1      27.153  20.048  15.831  1.00  0.00    -0.000 C 
BRANCH  23  24
ATOM     24  C   UNL     1      27.311  20.974  14.614  1.00  0.00    -0.000 C 
BRANCH  24  25
ATOM     25  C   UNL     1      27.332  20.169  13.309  1.00  0.00    -0.003 C 
ATOM     26  C   UNL     1      28.748  20.056  12.753  1.00  0.00     0.004 C 
ENDBRANCH  24  25
ENDBRANCH  23  24
ENDBRANCH  22  23
ENDBRANCH  21  22
ENDBRANCH  20  21
ENDBRANCH  19  20
ENDBRANCH  18  19
ENDBRANCH  17  18
ENDBRANCH  16  17
ENDBRANCH  15  16
ENDBRANCH   1  15
TORSDOF 22
ENDMDL
MODEL 7
REMARK VINA RESULT:     2.477      6.016     14.847
REMARK INTER + INTRA:           4.757
REMARK INTER:                   5.396
REMARK INTRA:                  -0.639
REMARK UNBOUND:                -0.905
REMARK SMILES CCCCCCCCCCCCCCCCCCCCCCCC(=O)[O-]
REMARK SMILES IDX 13 1 14 2 15 3 16 4 17 5 18 6 19 7 20 8 21 9 22 10 23 11
REMARK SMILES IDX 24 12 25 13 26 14 12 15 11 16 10 17 9 18 8 19 7 20 6 21 5 22
REMARK SMILES IDX 4 23 3 24 2 25 1 26
REMARK H PARENT
REMARK Flexibility Score: inf
ROOT
ATOM      1  C   UNL     1      19.308  20.556  16.215  1.00  0.00     0.000 C 
ENDROOT
BRANCH   1   2
ATOM      2  C   UNL     1      20.688  19.949  15.904  1.00  0.00     0.000 C 
BRANCH   2   3
ATOM      3  C   UNL     1      21.571  20.895  15.073  1.00  0.00     0.000 C 
BRANCH   3   4
ATOM      4  C   UNL     1      22.826  21.348  15.839  1.00  0.00     0.000 C 
BRANCH   4   5
ATOM      5  C   UNL     1      23.875  20.231  15.994  1.00  0.00     0.000 C 
BRANCH   5   6
ATOM      6  C   UNL     1      25.184  20.653  16.686  1.00  0.00     0.000 C 
BRANCH   6   7
ATOM      7  C   UNL     1      26.422  19.919  16.140  1.00  0.00     0.000 C 
BRANCH   7   8
ATOM      8  C   UNL     1      26.931  20.543  14.820  1.00  0.00     0.000 C 
BRANCH   8   9
ATOM      9  C   UNL     1      28.422  20.926  14.857  1.00  0.00     0.000 C 
BRANCH   9  10
ATOM     10  C   UNL     1      28.809  22.067  13.892  1.00  0.00     0.006 C 
BRANCH  10  11
ATOM     11  C   UNL     1      28.410  21.806  12.428  1.00  0.00     0.053 C 
BRANCH  11  12
ATOM     12  C   UNL     1      29.309  22.502  11.453  1.00  0.00     0.041 C 
ATOM     13  O   UNL     1      29.734  23.660  11.697  1.00  0.00    -0.550 OA
ATOM     14  O   UNL     1      29.663  21.874  10.264  1.00  0.00    -0.550 OA
ENDBRANCH  11  12
ENDBRANCH  10  11
ENDBRANCH   9  10
ENDBRANCH   8   9
ENDBRANCH   7   8
ENDBRANCH   6   7
ENDBRANCH   5   6
ENDBRANCH   4   5
ENDBRANCH   3   4
ENDBRANCH   2   3
ENDBRANCH   1   2
BRANCH   1  15
ATOM     15  C   UNL     1      18.172  19.875  15.432  1.00  0.00     0.000 C 
BRANCH  15  16
ATOM     16  C   UNL     1      16.802  19.875  16.137  1.00  0.00     0.000 C 
BRANCH  16  17
ATOM     17  C   UNL     1      16.071  21.234  16.082  1.00  0.00     0.000 C 
BRANCH  17  18
ATOM     18  C   UNL     1      14.806  21.258  16.959  1.00  0.00    -0.000 C 
BRANCH  18  19
ATOM     19  C   UNL     1      13.525  21.004  16.150  1.00  0.00    -0.000 C 
BRANCH  19  20
ATOM     20  C   UNL     1      13.067  22.246  15.364  1.00  0.00    -0.000 C 
BRANCH  20  21
ATOM     21  C   UNL     1      11.661  22.084  14.764  1.00  0.00    -0.000 C 
BRANCH  21  22
ATOM     22  C   UNL     1      10.654  21.512  15.776  1.00  0.00    -0.000 C 
BRANCH  22  23
ATOM     23  C   UNL     1      10.527  22.376  17.042  1.00  0.00    -0.000 C 
BRANCH  23  24
ATOM     24  C   UNL     1       9.875  21.621  18.213  1.00  0.00    -0.000 C 
BRANCH  24  25
ATOM     25  C   UNL     1      10.842  21.505  19.397  1.00  0.00    -0.003 C 
ATOM     26  C   UNL     1      12.126  20.788  18.992  1.00  0.00     0.004 C 
ENDBRANCH  24  25
ENDBRANCH  23  24
ENDBRANCH  22  23
ENDBRANCH  21  22
ENDBRANCH  20  21
ENDBRANCH  19  20
ENDBRANCH  18  19
ENDBRANCH  17  18
ENDBRANCH  16  17
ENDBRANCH  15  16
ENDBRANCH   1  15
TORSDOF 22
ENDMDL
MODEL 8
REMARK VINA RESULT:     2.950      1.163      2.804
REMARK INTER + INTRA:           5.839
REMARK INTER:                   6.615
REMARK INTRA:                  -0.776
REMARK UNBOUND:                -0.905
REMARK SMILES CCCCCCCCCCCCCCCCCCCCCCCC(=O)[O-]
REMARK SMILES IDX 13 1 14 2 15 3 16 4 17 5 18 6 19 7 20 8 21 9 22 10 23 11
REMARK SMILES IDX 24 12 25 13 26 14 12 15 11 16 10 17 9 18 8 19 7 20 6 21 5 22
REMARK SMILES IDX 4 23 3 24 2 25 1 26
REMARK H PARENT
REMARK Flexibility Score: inf
ROOT
ATOM      1  C   UNL     1      17.468  20.764  16.610  1.00  0.00     0.000 C 
ENDROOT
BRANCH   1   2
ATOM      2  C   UNL     1      16.262  19.892  17.003  1.00  0.00     0.000 C 
BRANCH   2   3
ATOM      3  C   UNL     1      14.919  20.590  16.729  1.00  0.00     0.000 C 
BRANCH   3   4
ATOM      4  C   UNL     1      14.015  20.630  17.973  1.00  0.00     0.000 C 
BRANCH   4   5
ATOM      5  C   UNL     1      12.915  21.706  17.886  1.00  0.00     0.000 C 
BRANCH   5   6
ATOM      6  C   UNL     1      11.599  21.246  17.233  1.00  0.00     0.000 C 
BRANCH   6   7
ATOM      7  C   UNL     1      11.089  19.900  17.778  1.00  0.00     0.000 C 
BRANCH   7   8
ATOM      8  C   UNL     1      11.057  19.875  19.324  1.00  0.00     0.000 C 
BRANCH   8   9
ATOM      9  C   UNL     1       9.882  20.667  19.927  1.00  0.00     0.000 C 
BRANCH   9  10
ATOM     10  C   UNL     1      10.222  22.126  20.297  1.00  0.00     0.006 C 
BRANCH  10  11
ATOM     11  C   UNL     1      11.650  22.314  20.839  1.00  0.00     0.053 C 
BRANCH  11  12
ATOM     12  C   UNL     1      11.751  22.037  22.307  1.00  0.00     0.041 C 
ATOM     13  O   UNL     1      12.516  21.133  22.731  1.00  0.00    -0.550 OA
ATOM     14  O   UNL     1      10.984  22.768  23.207  1.00  0.00    -0.550 OA
ENDBRANCH  11  12
ENDBRANCH  10  11
ENDBRANCH   9  10
ENDBRANCH   8   9
ENDBRANCH   7   8
ENDBRANCH   6   7
ENDBRANCH   5   6
ENDBRANCH   4   5
ENDBRANCH   3   4
ENDBRANCH   2   3
ENDBRANCH   1   2
BRANCH   1  15
ATOM     15  C   UNL     1      18.418  20.054  15.632  1.00  0.00     0.000 C 
BRANCH  15  16
ATOM     16  C   UNL     1      19.754  20.779  15.377  1.00  0.00     0.000 C 
BRANCH  16  17
ATOM     17  C   UNL     1      20.996  19.880  15.553  1.00  0.00     0.000 C 
BRANCH  17  18
ATOM     18  C   UNL     1      22.262  20.498  14.932  1.00  0.00    -0.000 C 
BRANCH  18  19
ATOM     19  C   UNL     1      23.332  20.830  15.985  1.00  0.00    -0.000 C 
BRANCH  19  20
ATOM     20  C   UNL     1      24.697  20.195  15.660  1.00  0.00    -0.000 C 
BRANCH  20  21
ATOM     21  C   UNL     1      25.671  20.243  16.849  1.00  0.00    -0.000 C 
BRANCH  21  22
ATOM     22  C   UNL     1      27.079  20.703  16.435  1.00  0.00    -0.000 C 
BRANCH  22  23
ATOM     23  C   UNL     1      27.386  20.420  14.954  1.00  0.00    -0.000 C 
BRANCH  23  24
ATOM     24  C   UNL     1      28.763  20.952  14.522  1.00  0.00    -0.000 C 
BRANCH  24  25
ATOM     25  C   UNL     1      28.621  22.037  13.448  1.00  0.00    -0.003 C 
ATOM     26  C   UNL     1      29.929  22.799  13.259  1.00  0.00     0.004 C 
ENDBRANCH  24  25
ENDBRANCH  23  24
ENDBRANCH  22  23
ENDBRANCH  21  22
ENDBRANCH  20  21
ENDBRANCH  19  20
ENDBRANCH  18  19
ENDBRANCH  17  18
ENDBRANCH  16  17
ENDBRANCH  15  16
ENDBRANCH   1  15
TORSDOF 22
ENDMDL
