MODEL 1
REMARK VINA RESULT:     6.720      0.000      0.000
REMARK INTER + INTRA:           9.644
REMARK INTER:                   9.077
REMARK INTRA:                   0.568
REMARK UNBOUND:                 0.568
REMARK SMILES CC(=O)CCC=C(C)CCC=C(C)C
REMARK SMILES IDX 7 1 6 2 8 3 9 4 10 5 11 6 13 7 12 8 14 9 5 10 4 11 2 12 3 13
REMARK SMILES IDX 1 14
REMARK H PARENT
REMARK Flexibility Score: inf
ROOT
ATOM      1  C   UNL     1      33.556  12.345  40.474  1.00  0.00    -0.077 C 
ATOM      2  C   UNL     1      34.773  12.934  40.406  1.00  0.00    -0.028 C 
ATOM      3  C   UNL     1      32.583  12.587  39.349  1.00  0.00     0.039 C 
ENDROOT
BRANCH   1   4
ATOM      4  C   UNL     1      33.144  11.429  41.614  1.00  0.00     0.034 C 
BRANCH   4   5
ATOM      5  C   UNL     1      32.281  10.258  41.128  1.00  0.00     0.032 C 
BRANCH   5   6
ATOM      6  C   UNL     1      32.805   9.691  39.828  1.00  0.00    -0.028 C 
ATOM      7  C   UNL     1      35.041   9.086  40.785  1.00  0.00     0.039 C 
ATOM      8  C   UNL     1      34.047   9.188  39.652  1.00  0.00    -0.080 C 
ATOM      9  C   UNL     1      34.442   8.719  38.276  1.00  0.00     0.039 C 
ENDBRANCH   5   6
ENDBRANCH   4   5
ENDBRANCH   1   4
BRANCH   2  10
ATOM     10  C   UNL     1      35.838  12.839  41.468  1.00  0.00     0.035 C 
BRANCH  10  11
ATOM     11  C   UNL     1      35.273  13.233  42.837  1.00  0.00     0.079 C 
BRANCH  11  12
ATOM     12  C   UNL     1      35.966  14.461  43.365  1.00  0.00     0.130 C 
ATOM     13  O   UNL     1      37.125  14.382  43.743  1.00  0.00    -0.300 OA
ATOM     14  C   UNL     1      35.260  15.782  43.451  1.00  0.00     0.087 C 
ENDBRANCH  11  12
ENDBRANCH  10  11
ENDBRANCH   2  10
TORSDOF 6
ENDMDL
MODEL 2
REMARK VINA RESULT:     6.861      2.383      5.740
REMARK INTER + INTRA:           9.836
REMARK INTER:                  10.247
REMARK INTRA:                  -0.412
REMARK UNBOUND:                 0.568
REMARK SMILES CC(=O)CCC=C(C)CCC=C(C)C
REMARK SMILES IDX 7 1 6 2 8 3 9 4 10 5 11 6 13 7 12 8 14 9 5 10 4 11 2 12 3 13
REMARK SMILES IDX 1 14
REMARK H PARENT
REMARK Flexibility Score: inf
ROOT
ATOM      1  C   UNL     1      34.122  12.843  40.365  1.00  0.00    -0.077 C 
ATOM      2  C   UNL     1      32.981  12.116  40.395  1.00  0.00    -0.028 C 
ATOM      3  C   UNL     1      34.113  14.154  39.622  1.00  0.00     0.039 C 
ENDROOT
BRANCH   1   4
ATOM      4  C   UNL     1      35.396  12.410  41.070  1.00  0.00     0.034 C 
BRANCH   4   5
ATOM      5  C   UNL     1      35.327  12.655  42.584  1.00  0.00     0.032 C 
BRANCH   5   6
ATOM      6  C   UNL     1      34.885  14.067  42.892  1.00  0.00    -0.028 C 
ATOM      7  C   UNL     1      37.122  14.766  43.781  1.00  0.00     0.039 C 
ATOM      8  C   UNL     1      35.668  15.015  43.453  1.00  0.00    -0.080 C 
ATOM      9  C   UNL     1      35.060  16.359  43.759  1.00  0.00     0.039 C 
ENDBRANCH   5   6
ENDBRANCH   4   5
ENDBRANCH   1   4
BRANCH   2  10
ATOM     10  C   UNL     1      32.836  10.764  41.045  1.00  0.00     0.035 C 
BRANCH  10  11
ATOM     11  C   UNL     1      32.662   9.671  39.985  1.00  0.00     0.079 C 
BRANCH  11  12
ATOM     12  C   UNL     1      34.000   9.135  39.549  1.00  0.00     0.130 C 
ATOM     13  O   UNL     1      34.090   8.534  38.489  1.00  0.00    -0.300 OA
ATOM     14  C   UNL     1      35.227   9.311  40.394  1.00  0.00     0.087 C 
ENDBRANCH  11  12
ENDBRANCH  10  11
ENDBRANCH   2  10
TORSDOF 6
ENDMDL
MODEL 3
REMARK VINA RESULT:     7.220      1.143      1.511
REMARK INTER + INTRA:          10.320
REMARK INTER:                   9.407
REMARK INTRA:                   0.913
REMARK UNBOUND:                 0.568
REMARK SMILES CC(=O)CCC=C(C)CCC=C(C)C
REMARK SMILES IDX 7 1 6 2 8 3 9 4 10 5 11 6 13 7 12 8 14 9 5 10 4 11 2 12 3 13
REMARK SMILES IDX 1 14
REMARK H PARENT
REMARK Flexibility Score: inf
ROOT
ATOM      1  C   UNL     1      34.480  12.684  41.257  1.00  0.00    -0.077 C 
ATOM      2  C   UNL     1      35.374  13.547  41.791  1.00  0.00    -0.028 C 
ATOM      3  C   UNL     1      34.015  12.922  39.844  1.00  0.00     0.039 C 
ENDROOT
BRANCH   1   4
ATOM      4  C   UNL     1      33.951  11.473  42.007  1.00  0.00     0.034 C 
BRANCH   4   5
ATOM      5  C   UNL     1      32.615  10.980  41.435  1.00  0.00     0.032 C 
BRANCH   5   6
ATOM      6  C   UNL     1      32.814  10.253  40.125  1.00  0.00    -0.028 C 
ATOM      7  C   UNL     1      34.869   9.046  40.897  1.00  0.00     0.039 C 
ATOM      8  C   UNL     1      33.832   9.406  39.859  1.00  0.00    -0.080 C 
ATOM      9  C   UNL     1      33.927   8.809  38.479  1.00  0.00     0.039 C 
ENDBRANCH   5   6
ENDBRANCH   4   5
ENDBRANCH   1   4
BRANCH   2  10
ATOM     10  C   UNL     1      35.897  13.485  43.203  1.00  0.00     0.035 C 
BRANCH  10  11
ATOM     11  C   UNL     1      36.470  14.841  43.629  1.00  0.00     0.079 C 
BRANCH  11  12
ATOM     12  C   UNL     1      35.377  15.871  43.734  1.00  0.00     0.130 C 
ATOM     13  O   UNL     1      34.222  15.507  43.898  1.00  0.00    -0.300 OA
ATOM     14  C   UNL     1      35.671  17.338  43.628  1.00  0.00     0.087 C 
ENDBRANCH  11  12
ENDBRANCH  10  11
ENDBRANCH   2  10
TORSDOF 6
ENDMDL
MODEL 4
REMARK VINA RESULT:     7.222      1.972      5.495
REMARK INTER + INTRA:          10.323
REMARK INTER:                  10.646
REMARK INTRA:                  -0.323
REMARK UNBOUND:                 0.568
REMARK SMILES CC(=O)CCC=C(C)CCC=C(C)C
REMARK SMILES IDX 7 1 6 2 8 3 9 4 10 5 11 6 13 7 12 8 14 9 5 10 4 11 2 12 3 13
REMARK SMILES IDX 1 14
REMARK H PARENT
REMARK Flexibility Score: inf
ROOT
ATOM      1  C   UNL     1      32.985  11.274  41.212  1.00  0.00    -0.077 C 
ATOM      2  C   UNL     1      32.641  10.168  40.511  1.00  0.00    -0.028 C 
ATOM      3  C   UNL     1      32.416  11.445  42.597  1.00  0.00     0.039 C 
ENDROOT
BRANCH   1   4
ATOM      4  C   UNL     1      33.940  12.327  40.677  1.00  0.00     0.034 C 
BRANCH   4   5
ATOM      5  C   UNL     1      35.066  12.641  41.670  1.00  0.00     0.032 C 
BRANCH   5   6
ATOM      6  C   UNL     1      34.814  13.945  42.393  1.00  0.00    -0.028 C 
ATOM      7  C   UNL     1      37.077  13.995  43.469  1.00  0.00     0.039 C 
ATOM      8  C   UNL     1      35.694  14.549  43.223  1.00  0.00    -0.080 C 
ATOM      9  C   UNL     1      35.267  15.815  43.920  1.00  0.00     0.039 C 
ENDBRANCH   5   6
ENDBRANCH   4   5
ENDBRANCH   1   4
BRANCH   2  10
ATOM     10  C   UNL     1      33.076   9.872  39.099  1.00  0.00     0.035 C 
BRANCH  10  11
ATOM     11  C   UNL     1      34.148   8.777  39.081  1.00  0.00     0.079 C 
BRANCH  11  12
ATOM     12  C   UNL     1      35.292   9.139  39.991  1.00  0.00     0.130 C 
ATOM     13  O   UNL     1      35.324   8.688  41.126  1.00  0.00    -0.300 OA
ATOM     14  C   UNL     1      36.392  10.054  39.540  1.00  0.00     0.087 C 
ENDBRANCH  11  12
ENDBRANCH  10  11
ENDBRANCH   2  10
TORSDOF 6
ENDMDL
MODEL 5
REMARK VINA RESULT:     7.306      2.427      7.034
REMARK INTER + INTRA:          10.437
REMARK INTER:                  10.902
REMARK INTRA:                  -0.466
REMARK UNBOUND:                 0.568
REMARK SMILES CC(=O)CCC=C(C)CCC=C(C)C
REMARK SMILES IDX 7 1 6 2 8 3 9 4 10 5 11 6 13 7 12 8 14 9 5 10 4 11 2 12 3 13
REMARK SMILES IDX 1 14
REMARK H PARENT
REMARK Flexibility Score: inf
ROOT
ATOM      1  C   UNL     1      35.760  13.976  42.973  1.00  0.00    -0.077 C 
ATOM      2  C   UNL     1      35.601  13.144  41.918  1.00  0.00    -0.028 C 
ATOM      3  C   UNL     1      37.098  14.001  43.666  1.00  0.00     0.039 C 
ENDROOT
BRANCH   1   4
ATOM      4  C   UNL     1      34.663  14.905  43.466  1.00  0.00     0.034 C 
BRANCH   4   5
ATOM      5  C   UNL     1      35.232  16.162  44.137  1.00  0.00     0.032 C 
BRANCH   5   6
ATOM      6  C   UNL     1      35.504  17.250  43.124  1.00  0.00    -0.028 C 
ATOM      7  C   UNL     1      35.222  19.111  44.778  1.00  0.00     0.039 C 
ATOM      8  C   UNL     1      35.476  18.575  43.389  1.00  0.00    -0.080 C 
ATOM      9  C   UNL     1      35.706  19.539  42.253  1.00  0.00     0.039 C 
ENDBRANCH   5   6
ENDBRANCH   4   5
ENDBRANCH   1   4
BRANCH   2  10
ATOM     10  C   UNL     1      34.317  12.958  41.151  1.00  0.00     0.035 C 
BRANCH  10  11
ATOM     11  C   UNL     1      34.384  11.699  40.281  1.00  0.00     0.079 C 
BRANCH  11  12
ATOM     12  C   UNL     1      33.304  10.725  40.671  1.00  0.00     0.130 C 
ATOM     13  O   UNL     1      32.655  10.921  41.687  1.00  0.00    -0.300 OA
ATOM     14  C   UNL     1      33.012   9.507  39.844  1.00  0.00     0.087 C 
ENDBRANCH  11  12
ENDBRANCH  10  11
ENDBRANCH   2  10
TORSDOF 6
ENDMDL
MODEL 6
REMARK VINA RESULT:     7.342      2.365      6.322
REMARK INTER + INTRA:          10.485
REMARK INTER:                  10.488
REMARK INTRA:                  -0.004
REMARK UNBOUND:                 0.568
REMARK SMILES CC(=O)CCC=C(C)CCC=C(C)C
REMARK SMILES IDX 7 1 6 2 8 3 9 4 10 5 11 6 13 7 12 8 14 9 5 10 4 11 2 12 3 13
REMARK SMILES IDX 1 14
REMARK H PARENT
REMARK Flexibility Score: inf
ROOT
ATOM      1  C   UNL     1      35.651  12.898  41.310  1.00  0.00    -0.077 C 
ATOM      2  C   UNL     1      34.789  12.424  40.381  1.00  0.00    -0.028 C 
ATOM      3  C   UNL     1      37.125  12.863  40.999  1.00  0.00     0.039 C 
ENDROOT
BRANCH   1   4
ATOM      4  C   UNL     1      35.196  13.490  42.633  1.00  0.00     0.034 C 
BRANCH   4   5
ATOM      5  C   UNL     1      36.377  13.986  43.478  1.00  0.00     0.032 C 
BRANCH   5   6
ATOM      6  C   UNL     1      36.477  15.494  43.450  1.00  0.00    -0.028 C 
ATOM      7  C   UNL     1      34.089  15.846  44.125  1.00  0.00     0.039 C 
ATOM      8  C   UNL     1      35.455  16.340  43.711  1.00  0.00    -0.080 C 
ATOM      9  C   UNL     1      35.699  17.821  43.578  1.00  0.00     0.039 C 
ENDBRANCH   5   6
ENDBRANCH   4   5
ENDBRANCH   1   4
BRANCH   2  10
ATOM     10  C   UNL     1      33.294  12.337  40.554  1.00  0.00     0.035 C 
BRANCH  10  11
ATOM     11  C   UNL     1      32.894  10.971  41.120  1.00  0.00     0.079 C 
BRANCH  11  12
ATOM     12  C   UNL     1      33.102   9.889  40.094  1.00  0.00     0.130 C 
ATOM     13  O   UNL     1      32.199   9.613  39.318  1.00  0.00    -0.300 OA
ATOM     14  C   UNL     1      34.393   9.128  40.008  1.00  0.00     0.087 C 
ENDBRANCH  11  12
ENDBRANCH  10  11
ENDBRANCH   2  10
TORSDOF 6
ENDMDL
