MODEL 1
REMARK VINA RESULT:    -5.236      0.000      0.000
REMARK INTER + INTRA:          -9.082
REMARK INTER:                  -7.685
REMARK INTRA:                  -1.397
REMARK UNBOUND:                -1.397
REMARK SMILES Cc1cc2c(C(C)C)c(O)c(O)c(C=O)c2c(O)c1-c1c(C)cc2c(C(C)C)c(O)c(O)c(C=O)c2c1O
REMARK SMILES IDX 1 1 2 2 3 3 4 4 16 5 13 6 11 7 9 8 5 9 17 10 19 11 20 12
REMARK SMILES IDX 37 13 21 14 36 15 23 16 22 17 24 18 33 19 25 20 31 21 29 22
REMARK SMILES IDX 38 23 34 25 35 26 26 27 27 28 28 29 32 30 30 32 18 34 6 36
REMARK SMILES IDX 7 37 8 38 14 39 15 40 10 41 12 43
REMARK H PARENT 38 24 32 31 30 33 18 35 10 42 12 44
REMARK Flexibility Score: inf
ROOT
ATOM      1  C   UNL     1     150.139 147.517 141.357  1.00  0.00     0.045 C 
ATOM      2  C   UNL     1     149.034 148.502 141.655  1.00  0.00    -0.039 A 
ATOM      3  C   UNL     1     148.720 148.794 142.982  1.00  0.00     0.013 A 
ATOM      4  C   UNL     1     147.711 149.721 143.325  1.00  0.00    -0.006 A 
ATOM      5  C   UNL     1     146.908 150.281 142.284  1.00  0.00     0.039 A 
ATOM      6  C   UNL     1     145.814 151.129 142.637  1.00  0.00     0.072 A 
ATOM      7  C   UNL     1     145.493 151.332 143.994  1.00  0.00     0.169 A 
ATOM      8  C   UNL     1     146.281 150.770 145.003  1.00  0.00     0.162 A 
ATOM      9  C   UNL     1     147.461 150.065 144.690  1.00  0.00     0.008 A 
ATOM     10  C   UNL     1     147.203 149.939 140.927  1.00  0.00     0.132 A 
ATOM     11  C   UNL     1     148.280 149.080 140.621  1.00  0.00     0.031 A 
ENDROOT
BRANCH  11  12
ATOM     12  C   UNL     1     148.602 148.761 139.205  1.00  0.00     0.031 A 
ATOM     13  C   UNL     1     149.456 149.604 138.462  1.00  0.00     0.132 A 
ATOM     14  C   UNL     1     148.043 147.621 138.606  1.00  0.00    -0.039 A 
ATOM     15  C   UNL     1     149.738 149.318 137.092  1.00  0.00     0.039 A 
ATOM     16  C   UNL     1     148.397 147.287 137.298  1.00  0.00     0.013 A 
ATOM     17  C   UNL     1     147.085 146.735 139.365  1.00  0.00     0.045 C 
ATOM     18  C   UNL     1     149.293 148.077 136.545  1.00  0.00    -0.006 A 
ATOM     19  C   UNL     1     150.460 150.221 136.254  1.00  0.00     0.072 A 
ATOM     20  C   UNL     1     149.731 147.665 135.251  1.00  0.00     0.008 A 
ATOM     21  C   UNL     1     150.720 149.875 134.912  1.00  0.00     0.169 A 
ATOM     22  C   UNL     1     150.368 148.613 134.421  1.00  0.00     0.162 A 
BRANCH  13  23
ATOM     23  O   UNL     1     150.049 150.704 139.092  1.00  0.00    -0.507 OA
ATOM     24  H   UNL     1     149.630 151.625 139.133  1.00  0.00     0.293 HD
ENDBRANCH  13  23
BRANCH  19  25
ATOM     25  C   UNL     1     150.864 151.563 136.721  1.00  0.00     0.264 C 
ATOM     26  O   UNL     1     152.071 151.816 136.976  1.00  0.00    -0.298 OA
ENDBRANCH  19  25
BRANCH  20  27
ATOM     27  C   UNL     1     149.511 146.230 134.742  1.00  0.00     0.017 C 
ATOM     28  C   UNL     1     148.598 146.217 133.512  1.00  0.00     0.012 C 
ATOM     29  C   UNL     1     150.819 145.458 134.478  1.00  0.00     0.012 C 
ENDBRANCH  20  27
BRANCH  21  30
ATOM     30  O   UNL     1     151.315 150.780 134.025  1.00  0.00    -0.504 OA
ATOM     31  H   UNL     1     150.801 151.358 133.374  1.00  0.00     0.293 HD
ENDBRANCH  21  30
BRANCH  22  32
ATOM     32  O   UNL     1     150.628 148.304 133.084  1.00  0.00    -0.504 OA
ATOM     33  H   UNL     1     149.930 148.374 132.354  1.00  0.00     0.293 HD
ENDBRANCH  22  32
ENDBRANCH  11  12
BRANCH  10  34
ATOM     34  O   UNL     1     146.412 150.433 139.883  1.00  0.00    -0.507 OA
ATOM     35  H   UNL     1     146.199 149.916 139.039  1.00  0.00     0.293 HD
ENDBRANCH  10  34
BRANCH   9  36
ATOM     36  C   UNL     1     148.435 149.673 145.817  1.00  0.00     0.017 C 
ATOM     37  C   UNL     1     147.844 148.559 146.686  1.00  0.00     0.012 C 
ATOM     38  C   UNL     1     148.904 150.863 146.676  1.00  0.00     0.012 C 
ENDBRANCH   9  36
BRANCH   6  39
ATOM     39  C   UNL     1     144.996 151.813 141.615  1.00  0.00     0.264 C 
ATOM     40  O   UNL     1     143.838 151.402 141.339  1.00  0.00    -0.298 OA
ENDBRANCH   6  39
BRANCH   8  41
ATOM     41  O   UNL     1     145.891 150.920 146.336  1.00  0.00    -0.504 OA
ATOM     42  H   UNL     1     145.052 151.414 146.614  1.00  0.00     0.293 HD
ENDBRANCH   8  41
BRANCH   7  43
ATOM     43  O   UNL     1     144.404 152.125 144.381  1.00  0.00    -0.504 OA
ATOM     44  H   UNL     1     143.754 151.879 145.114  1.00  0.00     0.293 HD
ENDBRANCH   7  43
TORSDOF 11
ENDMDL
MODEL 2
REMARK VINA RESULT:    -4.929      9.008     12.722
REMARK INTER + INTRA:          -8.632
REMARK INTER:                  -7.504
REMARK INTRA:                  -1.128
REMARK UNBOUND:                -1.397
REMARK SMILES Cc1cc2c(C(C)C)c(O)c(O)c(C=O)c2c(O)c1-c1c(C)cc2c(C(C)C)c(O)c(O)c(C=O)c2c1O
REMARK SMILES IDX 1 1 2 2 3 3 4 4 16 5 13 6 11 7 9 8 5 9 17 10 19 11 20 12
REMARK SMILES IDX 37 13 21 14 36 15 23 16 22 17 24 18 33 19 25 20 31 21 29 22
REMARK SMILES IDX 38 23 34 25 35 26 26 27 27 28 28 29 32 30 30 32 18 34 6 36
REMARK SMILES IDX 7 37 8 38 14 39 15 40 10 41 12 43
REMARK H PARENT 38 24 32 31 30 33 18 35 10 42 12 44
REMARK Flexibility Score: inf
ROOT
ATOM      1  C   UNL     1     137.856 152.125 147.008  1.00  0.00     0.045 C 
ATOM      2  C   UNL     1     136.940 150.949 146.765  1.00  0.00    -0.039 A 
ATOM      3  C   UNL     1     135.820 150.778 147.579  1.00  0.00     0.013 A 
ATOM      4  C   UNL     1     134.915 149.709 147.389  1.00  0.00    -0.006 A 
ATOM      5  C   UNL     1     135.224 148.711 146.415  1.00  0.00     0.039 A 
ATOM      6  C   UNL     1     134.370 147.571 146.301  1.00  0.00     0.072 A 
ATOM      7  C   UNL     1     133.295 147.407 147.199  1.00  0.00     0.169 A 
ATOM      8  C   UNL     1     133.010 148.387 148.153  1.00  0.00     0.162 A 
ATOM      9  C   UNL     1     133.732 149.598 148.184  1.00  0.00     0.008 A 
ATOM     10  C   UNL     1     136.399 148.867 145.616  1.00  0.00     0.132 A 
ATOM     11  C   UNL     1     137.229 149.997 145.774  1.00  0.00     0.031 A 
ENDROOT
BRANCH  11  12
ATOM     12  C   UNL     1     138.429 150.169 144.913  1.00  0.00     0.031 A 
ATOM     13  C   UNL     1     138.322 150.819 143.665  1.00  0.00     0.132 A 
ATOM     14  C   UNL     1     139.670 149.672 145.343  1.00  0.00    -0.039 A 
ATOM     15  C   UNL     1     139.465 150.953 142.821  1.00  0.00     0.039 A 
ATOM     16  C   UNL     1     140.807 149.891 144.564  1.00  0.00     0.013 A 
ATOM     17  C   UNL     1     139.796 148.926 146.649  1.00  0.00     0.045 C 
ATOM     18  C   UNL     1     140.745 150.587 143.337  1.00  0.00    -0.006 A 
ATOM     19  C   UNL     1     139.378 151.454 141.487  1.00  0.00     0.072 A 
ATOM     20  C   UNL     1     141.930 150.900 142.606  1.00  0.00     0.008 A 
ATOM     21  C   UNL     1     140.548 151.579 140.708  1.00  0.00     0.169 A 
ATOM     22  C   UNL     1     141.804 151.312 141.262  1.00  0.00     0.162 A 
BRANCH  13  23
ATOM     23  O   UNL     1     137.089 151.358 143.278  1.00  0.00    -0.507 OA
ATOM     24  H   UNL     1     136.348 150.821 142.847  1.00  0.00     0.293 HD
ENDBRANCH  13  23
BRANCH  19  25
ATOM     25  C   UNL     1     138.079 151.759 140.853  1.00  0.00     0.264 C 
ATOM     26  O   UNL     1     137.671 151.082 139.872  1.00  0.00    -0.298 OA
ENDBRANCH  19  25
BRANCH  20  27
ATOM     27  C   UNL     1     143.326 150.781 143.242  1.00  0.00     0.017 C 
ATOM     28  C   UNL     1     144.108 149.612 142.635  1.00  0.00     0.012 C 
ATOM     29  C   UNL     1     144.143 152.087 143.192  1.00  0.00     0.012 C 
ENDBRANCH  20  27
BRANCH  21  30
ATOM     30  O   UNL     1     140.492 151.948 139.358  1.00  0.00    -0.504 OA
ATOM     31  H   UNL     1     141.277 152.314 138.837  1.00  0.00     0.293 HD
ENDBRANCH  21  30
BRANCH  22  32
ATOM     32  O   UNL     1     142.943 151.433 140.462  1.00  0.00    -0.504 OA
ATOM     33  H   UNL     1     143.027 150.998 139.551  1.00  0.00     0.293 HD
ENDBRANCH  22  32
ENDBRANCH  11  12
BRANCH  10  34
ATOM     34  O   UNL     1     136.758 147.888 144.682  1.00  0.00    -0.507 OA
ATOM     35  H   UNL     1     136.180 147.614 143.897  1.00  0.00     0.293 HD
ENDBRANCH  10  34
BRANCH   9  36
ATOM     36  C   UNL     1     133.242 150.755 149.075  1.00  0.00     0.017 C 
ATOM     37  C   UNL     1     132.807 151.952 148.225  1.00  0.00     0.012 C 
ATOM     38  C   UNL     1     134.252 151.177 150.159  1.00  0.00     0.012 C 
ENDBRANCH   9  36
BRANCH   6  39
ATOM     39  C   UNL     1     134.574 146.543 145.260  1.00  0.00     0.264 C 
ATOM     40  O   UNL     1     133.679 146.309 144.406  1.00  0.00    -0.298 OA
ENDBRANCH   6  39
BRANCH   8  41
ATOM     41  O   UNL     1     131.991 148.160 149.082  1.00  0.00    -0.504 OA
ATOM     42  H   UNL     1     132.160 147.785 150.007  1.00  0.00     0.293 HD
ENDBRANCH   8  41
BRANCH   7  43
ATOM     43  O   UNL     1     132.458 146.284 147.145  1.00  0.00    -0.504 OA
ATOM     44  H   UNL     1     131.506 146.268 147.482  1.00  0.00     0.293 HD
ENDBRANCH   7  43
TORSDOF 11
ENDMDL
MODEL 3
REMARK VINA RESULT:    -4.888      0.583      9.155
REMARK INTER + INTRA:          -8.572
REMARK INTER:                  -7.146
REMARK INTRA:                  -1.426
REMARK UNBOUND:                -1.397
REMARK SMILES Cc1cc2c(C(C)C)c(O)c(O)c(C=O)c2c(O)c1-c1c(C)cc2c(C(C)C)c(O)c(O)c(C=O)c2c1O
REMARK SMILES IDX 1 1 2 2 3 3 4 4 16 5 13 6 11 7 9 8 5 9 17 10 19 11 20 12
REMARK SMILES IDX 37 13 21 14 36 15 23 16 22 17 24 18 33 19 25 20 31 21 29 22
REMARK SMILES IDX 38 23 34 25 35 26 26 27 27 28 28 29 32 30 30 32 18 34 6 36
REMARK SMILES IDX 7 37 8 38 14 39 15 40 10 41 12 43
REMARK H PARENT 38 24 32 31 30 33 18 35 10 42 12 44
REMARK Flexibility Score: inf
ROOT
ATOM      1  C   UNL     1     147.083 146.664 139.307  1.00  0.00     0.045 C 
ATOM      2  C   UNL     1     147.868 147.684 138.518  1.00  0.00    -0.039 A 
ATOM      3  C   UNL     1     148.125 147.451 137.168  1.00  0.00     0.013 A 
ATOM      4  C   UNL     1     148.837 148.376 136.372  1.00  0.00    -0.006 A 
ATOM      5  C   UNL     1     149.413 149.524 137.000  1.00  0.00     0.039 A 
ATOM      6  C   UNL     1     150.229 150.400 136.220  1.00  0.00     0.072 A 
ATOM      7  C   UNL     1     150.521 150.079 134.879  1.00  0.00     0.169 A 
ATOM      8  C   UNL     1     149.958 148.948 134.280  1.00  0.00     0.162 A 
ATOM      9  C   UNL     1     149.020 148.155 134.972  1.00  0.00     0.008 A 
ATOM     10  C   UNL     1     149.187 149.732 138.396  1.00  0.00     0.132 A 
ATOM     11  C   UNL     1     148.392 148.831 139.136  1.00  0.00     0.031 A 
ENDROOT
BRANCH  11  12
ATOM     12  C   UNL     1     148.132 149.077 140.579  1.00  0.00     0.031 A 
ATOM     13  C   UNL     1     147.002 149.821 140.982  1.00  0.00     0.132 A 
ATOM     14  C   UNL     1     149.022 148.573 141.541  1.00  0.00    -0.039 A 
ATOM     15  C   UNL     1     146.770 150.088 142.365  1.00  0.00     0.039 A 
ATOM     16  C   UNL     1     148.741 148.748 142.897  1.00  0.00     0.013 A 
ATOM     17  C   UNL     1     150.264 147.821 141.131  1.00  0.00     0.045 C 
ATOM     18  C   UNL     1     147.590 149.439 143.336  1.00  0.00    -0.006 A 
ATOM     19  C   UNL     1     145.738 150.968 142.812  1.00  0.00     0.072 A 
ATOM     20  C   UNL     1     147.259 149.515 144.722  1.00  0.00     0.008 A 
ATOM     21  C   UNL     1     145.548 151.179 144.194  1.00  0.00     0.169 A 
ATOM     22  C   UNL     1     146.292 150.458 145.133  1.00  0.00     0.162 A 
BRANCH  13  23
ATOM     23  O   UNL     1     146.095 150.267 140.013  1.00  0.00    -0.507 OA
ATOM     24  H   UNL     1     145.090 150.213 140.112  1.00  0.00     0.293 HD
ENDBRANCH  13  23
BRANCH  19  25
ATOM     25  C   UNL     1     144.916 151.749 141.866  1.00  0.00     0.264 C 
ATOM     26  O   UNL     1     143.716 151.434 141.647  1.00  0.00    -0.298 OA
ENDBRANCH  19  25
BRANCH  20  27
ATOM     27  C   UNL     1     147.940 148.612 145.766  1.00  0.00     0.017 C 
ATOM     28  C   UNL     1     148.848 149.430 146.689  1.00  0.00     0.012 C 
ATOM     29  C   UNL     1     146.953 147.746 146.573  1.00  0.00     0.012 C 
ENDBRANCH  20  27
BRANCH  21  30
ATOM     30  O   UNL     1     144.632 152.125 144.671  1.00  0.00    -0.504 OA
ATOM     31  H   UNL     1     143.842 152.467 144.140  1.00  0.00     0.293 HD
ENDBRANCH  21  30
BRANCH  22  32
ATOM     32  O   UNL     1     146.090 150.698 146.495  1.00  0.00    -0.504 OA
ATOM     33  H   UNL     1     145.241 151.107 146.864  1.00  0.00     0.293 HD
ENDBRANCH  22  32
ENDBRANCH  11  12
BRANCH  10  34
ATOM     34  O   UNL     1     149.770 150.821 139.055  1.00  0.00    -0.507 OA
ATOM     35  H   UNL     1     149.756 150.950 140.059  1.00  0.00     0.293 HD
ENDBRANCH  10  34
BRANCH   9  36
ATOM     36  C   UNL     1     148.234 147.068 134.213  1.00  0.00     0.017 C 
ATOM     37  C   UNL     1     149.146 145.895 133.842  1.00  0.00     0.012 C 
ATOM     38  C   UNL     1     147.474 147.597 132.981  1.00  0.00     0.012 C 
ENDBRANCH   9  36
BRANCH   6  39
ATOM     39  C   UNL     1     150.785 151.650 136.776  1.00  0.00     0.264 C 
ATOM     40  O   UNL     1     152.005 151.732 137.075  1.00  0.00    -0.298 OA
ENDBRANCH   6  39
BRANCH   8  41
ATOM     41  O   UNL     1     150.330 148.610 132.976  1.00  0.00    -0.504 OA
ATOM     42  H   UNL     1     149.665 148.516 132.219  1.00  0.00     0.293 HD
ENDBRANCH   8  41
BRANCH   7  43
ATOM     43  O   UNL     1     151.348 150.892 134.092  1.00  0.00    -0.504 OA
ATOM     44  H   UNL     1     152.134 150.553 133.555  1.00  0.00     0.293 HD
ENDBRANCH   7  43
TORSDOF 11
ENDMDL
MODEL 4
REMARK VINA RESULT:    -4.804     10.848     16.404
REMARK INTER + INTRA:          -8.448
REMARK INTER:                  -7.275
REMARK INTRA:                  -1.174
REMARK UNBOUND:                -1.397
REMARK SMILES Cc1cc2c(C(C)C)c(O)c(O)c(C=O)c2c(O)c1-c1c(C)cc2c(C(C)C)c(O)c(O)c(C=O)c2c1O
REMARK SMILES IDX 1 1 2 2 3 3 4 4 16 5 13 6 11 7 9 8 5 9 17 10 19 11 20 12
REMARK SMILES IDX 37 13 21 14 36 15 23 16 22 17 24 18 33 19 25 20 31 21 29 22
REMARK SMILES IDX 38 23 34 25 35 26 26 27 27 28 28 29 32 30 30 32 18 34 6 36
REMARK SMILES IDX 7 37 8 38 14 39 15 40 10 41 12 43
REMARK H PARENT 38 24 32 31 30 33 18 35 10 42 12 44
REMARK Flexibility Score: inf
ROOT
ATOM      1  C   UNL     1     133.359 147.678 142.197  1.00  0.00     0.045 C 
ATOM      2  C   UNL     1     134.559 148.556 141.935  1.00  0.00    -0.039 A 
ATOM      3  C   UNL     1     134.891 148.883 140.620  1.00  0.00     0.013 A 
ATOM      4  C   UNL     1     135.989 149.716 140.311  1.00  0.00    -0.006 A 
ATOM      5  C   UNL     1     136.853 150.135 141.369  1.00  0.00     0.039 A 
ATOM      6  C   UNL     1     138.028 150.882 141.046  1.00  0.00     0.072 A 
ATOM      7  C   UNL     1     138.358 151.120 139.696  1.00  0.00     0.169 A 
ATOM      8  C   UNL     1     137.509 150.696 138.670  1.00  0.00     0.162 A 
ATOM      9  C   UNL     1     136.263 150.101 138.963  1.00  0.00     0.008 A 
ATOM     10  C   UNL     1     136.535 149.757 142.711  1.00  0.00     0.132 A 
ATOM     11  C   UNL     1     135.376 149.000 142.987  1.00  0.00     0.031 A 
ENDROOT
BRANCH  11  12
ATOM     12  C   UNL     1     135.034 148.644 144.389  1.00  0.00     0.031 A 
ATOM     13  C   UNL     1     134.246 149.515 145.173  1.00  0.00     0.132 A 
ATOM     14  C   UNL     1     135.505 147.439 144.935  1.00  0.00    -0.039 A 
ATOM     15  C   UNL     1     133.946 149.191 146.530  1.00  0.00     0.039 A 
ATOM     16  C   UNL     1     135.129 147.075 146.228  1.00  0.00     0.013 A 
ATOM     17  C   UNL     1     136.392 146.518 144.133  1.00  0.00     0.045 C 
ATOM     18  C   UNL     1     134.296 147.897 147.019  1.00  0.00    -0.006 A 
ATOM     19  C   UNL     1     133.296 150.108 147.410  1.00  0.00     0.072 A 
ATOM     20  C   UNL     1     133.830 147.463 148.297  1.00  0.00     0.008 A 
ATOM     21  C   UNL     1     133.012 149.723 148.737  1.00  0.00     0.169 A 
ATOM     22  C   UNL     1     133.269 148.418 149.171  1.00  0.00     0.162 A 
BRANCH  13  23
ATOM     23  O   UNL     1     133.738 150.684 144.594  1.00  0.00    -0.507 OA
ATOM     24  H   UNL     1     133.321 150.723 143.673  1.00  0.00     0.293 HD
ENDBRANCH  13  23
BRANCH  19  25
ATOM     25  C   UNL     1     132.994 151.496 147.004  1.00  0.00     0.264 C 
ATOM     26  O   UNL     1     131.875 151.789 146.505  1.00  0.00    -0.298 OA
ENDBRANCH  19  25
BRANCH  20  27
ATOM     27  C   UNL     1     133.943 145.993 148.740  1.00  0.00     0.017 C 
ATOM     28  C   UNL     1     134.959 145.839 149.876  1.00  0.00     0.012 C 
ATOM     29  C   UNL     1     132.590 145.352 149.108  1.00  0.00     0.012 C 
ENDBRANCH  20  27
BRANCH  21  30
ATOM     30  O   UNL     1     132.489 150.631 149.666  1.00  0.00    -0.504 OA
ATOM     31  H   UNL     1     132.635 151.631 149.627  1.00  0.00     0.293 HD
ENDBRANCH  21  30
BRANCH  22  32
ATOM     32  O   UNL     1     132.988 148.070 150.494  1.00  0.00    -0.504 OA
ATOM     33  H   UNL     1     133.468 147.326 150.984  1.00  0.00     0.293 HD
ENDBRANCH  22  32
ENDBRANCH  11  12
BRANCH  10  34
ATOM     34  O   UNL     1     137.380 150.112 143.768  1.00  0.00    -0.507 OA
ATOM     35  H   UNL     1     137.200 150.876 144.407  1.00  0.00     0.293 HD
ENDBRANCH  10  34
BRANCH   9  36
ATOM     36  C   UNL     1     135.245 149.871 137.830  1.00  0.00     0.017 C 
ATOM     37  C   UNL     1     135.709 148.746 136.900  1.00  0.00     0.012 C 
ATOM     38  C   UNL     1     134.899 151.146 137.036  1.00  0.00     0.012 C 
ENDBRANCH   9  36
BRANCH   6  39
ATOM     39  C   UNL     1     138.920 151.425 142.090  1.00  0.00     0.264 C 
ATOM     40  O   UNL     1     140.171 151.351 141.966  1.00  0.00    -0.298 OA
ENDBRANCH   6  39
BRANCH   8  41
ATOM     41  O   UNL     1     137.902 150.872 137.341  1.00  0.00    -0.504 OA
ATOM     42  H   UNL     1     138.795 150.558 136.983  1.00  0.00     0.293 HD
ENDBRANCH   8  41
BRANCH   7  43
ATOM     43  O   UNL     1     139.521 151.814 139.336  1.00  0.00    -0.504 OA
ATOM     44  H   UNL     1     139.839 151.935 138.385  1.00  0.00     0.293 HD
ENDBRANCH   7  43
TORSDOF 11
ENDMDL
MODEL 5
REMARK VINA RESULT:    -4.798     11.909     14.068
REMARK INTER + INTRA:          -8.440
REMARK INTER:                  -7.113
REMARK INTRA:                  -1.326
REMARK UNBOUND:                -1.397
REMARK SMILES Cc1cc2c(C(C)C)c(O)c(O)c(C=O)c2c(O)c1-c1c(C)cc2c(C(C)C)c(O)c(O)c(C=O)c2c1O
REMARK SMILES IDX 1 1 2 2 3 3 4 4 16 5 13 6 11 7 9 8 5 9 17 10 19 11 20 12
REMARK SMILES IDX 37 13 21 14 36 15 23 16 22 17 24 18 33 19 25 20 31 21 29 22
REMARK SMILES IDX 38 23 34 25 35 26 26 27 27 28 28 29 32 30 30 32 18 34 6 36
REMARK SMILES IDX 7 37 8 38 14 39 15 40 10 41 12 43
REMARK H PARENT 38 24 32 31 30 33 18 35 10 42 12 44
REMARK Flexibility Score: inf
ROOT
ATOM      1  C   UNL     1     138.089 148.364 144.873  1.00  0.00     0.045 C 
ATOM      2  C   UNL     1     137.065 149.166 145.640  1.00  0.00    -0.039 A 
ATOM      3  C   UNL     1     137.064 149.115 147.033  1.00  0.00     0.013 A 
ATOM      4  C   UNL     1     136.145 149.858 147.808  1.00  0.00    -0.006 A 
ATOM      5  C   UNL     1     135.112 150.585 147.139  1.00  0.00     0.039 A 
ATOM      6  C   UNL     1     134.114 151.242 147.922  1.00  0.00     0.072 A 
ATOM      7  C   UNL     1     134.114 151.097 149.325  1.00  0.00     0.169 A 
ATOM      8  C   UNL     1     135.125 150.375 149.965  1.00  0.00     0.162 A 
ATOM      9  C   UNL     1     136.213 149.852 149.235  1.00  0.00     0.008 A 
ATOM     10  C   UNL     1     135.089 150.594 145.710  1.00  0.00     0.132 A 
ATOM     11  C   UNL     1     136.081 149.913 144.972  1.00  0.00     0.031 A 
ENDROOT
BRANCH  11  12
ATOM     12  C   UNL     1     136.071 149.960 143.486  1.00  0.00     0.031 A 
ATOM     13  C   UNL     1     135.318 149.021 142.750  1.00  0.00     0.132 A 
ATOM     14  C   UNL     1     136.822 150.939 142.817  1.00  0.00    -0.039 A 
ATOM     15  C   UNL     1     135.335 149.042 141.323  1.00  0.00     0.039 A 
ATOM     16  C   UNL     1     136.759 151.023 141.425  1.00  0.00     0.013 A 
ATOM     17  C   UNL     1     137.677 151.920 143.582  1.00  0.00     0.045 C 
ATOM     18  C   UNL     1     135.972 150.135 140.661  1.00  0.00    -0.006 A 
ATOM     19  C   UNL     1     134.725 148.020 140.534  1.00  0.00     0.072 A 
ATOM     20  C   UNL     1     135.831 150.300 139.250  1.00  0.00     0.008 A 
ATOM     21  C   UNL     1     134.762 148.106 139.127  1.00  0.00     0.169 A 
ATOM     22  C   UNL     1     135.299 149.232 138.496  1.00  0.00     0.162 A 
BRANCH  13  23
ATOM     23  O   UNL     1     134.530 148.088 143.435  1.00  0.00    -0.507 OA
ATOM     24  H   UNL     1     134.087 147.291 142.995  1.00  0.00     0.293 HD
ENDBRANCH  13  23
BRANCH  19  25
ATOM     25  C   UNL     1     134.135 146.812 141.146  1.00  0.00     0.264 C 
ATOM     26  O   UNL     1     132.894 146.605 141.088  1.00  0.00    -0.298 OA
ENDBRANCH  19  25
BRANCH  20  27
ATOM     27  C   UNL     1     136.256 151.599 138.544  1.00  0.00     0.017 C 
ATOM     28  C   UNL     1     137.637 151.445 137.899  1.00  0.00     0.012 C 
ATOM     29  C   UNL     1     135.220 152.121 137.530  1.00  0.00     0.012 C 
ENDBRANCH  20  27
BRANCH  21  30
ATOM     30  O   UNL     1     134.285 147.067 138.317  1.00  0.00    -0.504 OA
ATOM     31  H   UNL     1     133.530 147.166 137.653  1.00  0.00     0.293 HD
ENDBRANCH  21  30
BRANCH  22  32
ATOM     32  O   UNL     1     135.333 149.283 137.100  1.00  0.00    -0.504 OA
ATOM     33  H   UNL     1     136.062 149.757 136.581  1.00  0.00     0.293 HD
ENDBRANCH  22  32
ENDBRANCH  11  12
BRANCH  10  34
ATOM     34  O   UNL     1     134.068 151.259 145.020  1.00  0.00    -0.507 OA
ATOM     35  H   UNL     1     133.676 152.147 145.305  1.00  0.00     0.293 HD
ENDBRANCH  10  34
BRANCH   9  36
ATOM     36  C   UNL     1     137.430 149.281 149.988  1.00  0.00     0.017 C 
ATOM     37  C   UNL     1     137.054 148.000 150.738  1.00  0.00     0.012 C 
ATOM     38  C   UNL     1     138.116 150.296 150.922  1.00  0.00     0.012 C 
ENDBRANCH   9  36
BRANCH   6  39
ATOM     39  C   UNL     1     133.068 152.084 147.307  1.00  0.00     0.264 C 
ATOM     40  O   UNL     1     131.911 151.628 147.111  1.00  0.00    -0.298 OA
ENDBRANCH   6  39
BRANCH   8  41
ATOM     41  O   UNL     1     135.053 150.178 151.346  1.00  0.00    -0.504 OA
ATOM     42  H   UNL     1     134.278 149.708 151.798  1.00  0.00     0.293 HD
ENDBRANCH   8  41
BRANCH   7  43
ATOM     43  O   UNL     1     133.130 151.694 150.125  1.00  0.00    -0.504 OA
ATOM     44  H   UNL     1     132.854 151.353 151.035  1.00  0.00     0.293 HD
ENDBRANCH   7  43
TORSDOF 11
ENDMDL
MODEL 6
REMARK VINA RESULT:    -4.777     10.709     14.348
REMARK INTER + INTRA:          -8.408
REMARK INTER:                  -7.257
REMARK INTRA:                  -1.151
REMARK UNBOUND:                -1.397
REMARK SMILES Cc1cc2c(C(C)C)c(O)c(O)c(C=O)c2c(O)c1-c1c(C)cc2c(C(C)C)c(O)c(O)c(C=O)c2c1O
REMARK SMILES IDX 1 1 2 2 3 3 4 4 16 5 13 6 11 7 9 8 5 9 17 10 19 11 20 12
REMARK SMILES IDX 37 13 21 14 36 15 23 16 22 17 24 18 33 19 25 20 31 21 29 22
REMARK SMILES IDX 38 23 34 25 35 26 26 27 27 28 28 29 32 30 30 32 18 34 6 36
REMARK SMILES IDX 7 37 8 38 14 39 15 40 10 41 12 43
REMARK H PARENT 38 24 32 31 30 33 18 35 10 42 12 44
REMARK Flexibility Score: inf
ROOT
ATOM      1  C   UNL     1     134.764 146.639 144.926  1.00  0.00     0.045 C 
ATOM      2  C   UNL     1     134.803 147.481 146.179  1.00  0.00    -0.039 A 
ATOM      3  C   UNL     1     134.381 146.926 147.387  1.00  0.00     0.013 A 
ATOM      4  C   UNL     1     134.412 147.656 148.596  1.00  0.00    -0.006 A 
ATOM      5  C   UNL     1     134.772 149.039 148.556  1.00  0.00     0.039 A 
ATOM      6  C   UNL     1     134.693 149.807 149.758  1.00  0.00     0.072 A 
ATOM      7  C   UNL     1     134.187 149.218 150.935  1.00  0.00     0.169 A 
ATOM      8  C   UNL     1     133.830 147.867 150.958  1.00  0.00     0.162 A 
ATOM      9  C   UNL     1     134.049 147.042 149.835  1.00  0.00     0.008 A 
ATOM     10  C   UNL     1     135.157 149.615 147.306  1.00  0.00     0.132 A 
ATOM     11  C   UNL     1     135.201 148.827 146.136  1.00  0.00     0.031 A 
ENDROOT
BRANCH  11  12
ATOM     12  C   UNL     1     135.640 149.426 144.848  1.00  0.00     0.031 A 
ATOM     13  C   UNL     1     137.013 149.511 144.533  1.00  0.00     0.132 A 
ATOM     14  C   UNL     1     134.680 149.917 143.948  1.00  0.00    -0.039 A 
ATOM     15  C   UNL     1     137.437 150.119 143.313  1.00  0.00     0.039 A 
ATOM     16  C   UNL     1     135.089 150.420 142.712  1.00  0.00     0.013 A 
ATOM     17  C   UNL     1     133.210 149.886 144.287  1.00  0.00     0.045 C 
ATOM     18  C   UNL     1     136.451 150.467 142.342  1.00  0.00    -0.006 A 
ATOM     19  C   UNL     1     138.811 150.375 143.023  1.00  0.00     0.072 A 
ATOM     20  C   UNL     1     136.847 150.881 141.034  1.00  0.00     0.008 A 
ATOM     21  C   UNL     1     139.169 150.964 141.792  1.00  0.00     0.169 A 
ATOM     22  C   UNL     1     138.202 151.205 140.811  1.00  0.00     0.162 A 
BRANCH  13  23
ATOM     23  O   UNL     1     137.952 148.965 145.416  1.00  0.00    -0.507 OA
ATOM     24  H   UNL     1     138.620 148.250 145.159  1.00  0.00     0.293 HD
ENDBRANCH  13  23
BRANCH  19  25
ATOM     25  C   UNL     1     139.876 150.132 144.018  1.00  0.00     0.264 C 
ATOM     26  O   UNL     1     140.243 151.050 144.799  1.00  0.00    -0.298 OA
ENDBRANCH  19  25
BRANCH  20  27
ATOM     27  C   UNL     1     135.833 150.994 139.882  1.00  0.00     0.017 C 
ATOM     28  C   UNL     1     135.170 149.642 139.601  1.00  0.00     0.012 C 
ATOM     29  C   UNL     1     134.781 152.101 140.089  1.00  0.00     0.012 C 
ENDBRANCH  20  27
BRANCH  21  30
ATOM     30  O   UNL     1     140.489 151.344 141.519  1.00  0.00    -0.504 OA
ATOM     31  H   UNL     1     140.787 151.776 140.654  1.00  0.00     0.293 HD
ENDBRANCH  21  30
BRANCH  22  32
ATOM     32  O   UNL     1     138.585 151.801 139.606  1.00  0.00    -0.504 OA
ATOM     33  H   UNL     1     139.552 151.930 139.336  1.00  0.00     0.293 HD
ENDBRANCH  22  32
ENDBRANCH  11  12
BRANCH  10  34
ATOM     34  O   UNL     1     135.474 150.975 147.219  1.00  0.00    -0.507 OA
ATOM     35  H   UNL     1     134.991 151.704 147.729  1.00  0.00     0.293 HD
ENDBRANCH  10  34
BRANCH   9  36
ATOM     36  C   UNL     1     133.880 145.517 149.966  1.00  0.00     0.017 C 
ATOM     37  C   UNL     1     132.402 145.143 150.112  1.00  0.00     0.012 C 
ATOM     38  C   UNL     1     134.729 144.891 151.090  1.00  0.00     0.012 C 
ENDBRANCH   9  36
BRANCH   6  39
ATOM     39  C   UNL     1     135.132 151.216 149.814  1.00  0.00     0.264 C 
ATOM     40  O   UNL     1     136.303 151.509 150.171  1.00  0.00    -0.298 OA
ENDBRANCH   6  39
BRANCH   8  41
ATOM     41  O   UNL     1     133.255 147.333 152.114  1.00  0.00    -0.504 OA
ATOM     42  H   UNL     1     132.465 146.701 152.096  1.00  0.00     0.293 HD
ENDBRANCH   8  41
BRANCH   7  43
ATOM     43  O   UNL     1     134.059 149.948 152.124  1.00  0.00    -0.504 OA
ATOM     44  H   UNL     1     134.184 150.948 152.194  1.00  0.00     0.293 HD
ENDBRANCH   7  43
TORSDOF 11
ENDMDL
MODEL 7
REMARK VINA RESULT:    -4.721     10.019     15.553
REMARK INTER + INTRA:          -8.326
REMARK INTER:                  -7.229
REMARK INTRA:                  -1.097
REMARK UNBOUND:                -1.397
REMARK SMILES Cc1cc2c(C(C)C)c(O)c(O)c(C=O)c2c(O)c1-c1c(C)cc2c(C(C)C)c(O)c(O)c(C=O)c2c1O
REMARK SMILES IDX 1 1 2 2 3 3 4 4 16 5 13 6 11 7 9 8 5 9 17 10 19 11 20 12
REMARK SMILES IDX 37 13 21 14 36 15 23 16 22 17 24 18 33 19 25 20 31 21 29 22
REMARK SMILES IDX 38 23 34 25 35 26 26 27 27 28 28 29 32 30 30 32 18 34 6 36
REMARK SMILES IDX 7 37 8 38 14 39 15 40 10 41 12 43
REMARK H PARENT 38 24 32 31 30 33 18 35 10 42 12 44
REMARK Flexibility Score: inf
ROOT
ATOM      1  C   UNL     1     138.820 149.777 145.335  1.00  0.00     0.045 C 
ATOM      2  C   UNL     1     138.264 150.086 143.966  1.00  0.00    -0.039 A 
ATOM      3  C   UNL     1     139.138 150.447 142.941  1.00  0.00     0.013 A 
ATOM      4  C   UNL     1     138.682 150.729 141.634  1.00  0.00    -0.006 A 
ATOM      5  C   UNL     1     137.274 150.762 141.389  1.00  0.00     0.039 A 
ATOM      6  C   UNL     1     136.808 151.158 140.098  1.00  0.00     0.072 A 
ATOM      7  C   UNL     1     137.729 151.588 139.120  1.00  0.00     0.169 A 
ATOM      8  C   UNL     1     139.103 151.559 139.376  1.00  0.00     0.162 A 
ATOM      9  C   UNL     1     139.603 151.019 140.580  1.00  0.00     0.008 A 
ATOM     10  C   UNL     1     136.381 150.438 142.457  1.00  0.00     0.132 A 
ATOM     11  C   UNL     1     136.881 150.072 143.725  1.00  0.00     0.031 A 
ENDROOT
BRANCH  11  12
ATOM     12  C   UNL     1     135.944 149.700 144.818  1.00  0.00     0.031 A 
ATOM     13  C   UNL     1     135.497 148.368 144.950  1.00  0.00     0.132 A 
ATOM     14  C   UNL     1     135.498 150.684 145.715  1.00  0.00    -0.039 A 
ATOM     15  C   UNL     1     134.571 148.017 145.977  1.00  0.00     0.039 A 
ATOM     16  C   UNL     1     134.672 150.322 146.779  1.00  0.00     0.013 A 
ATOM     17  C   UNL     1     135.921 152.125 145.560  1.00  0.00     0.045 C 
ATOM     18  C   UNL     1     134.251 148.988 146.973  1.00  0.00    -0.006 A 
ATOM     19  C   UNL     1     133.965 146.726 146.054  1.00  0.00     0.072 A 
ATOM     20  C   UNL     1     133.497 148.612 148.126  1.00  0.00     0.008 A 
ATOM     21  C   UNL     1     133.069 146.435 147.103  1.00  0.00     0.169 A 
ATOM     22  C   UNL     1     132.845 147.361 148.126  1.00  0.00     0.162 A 
BRANCH  13  23
ATOM     23  O   UNL     1     135.997 147.390 144.082  1.00  0.00    -0.507 OA
ATOM     24  H   UNL     1     135.561 146.488 143.936  1.00  0.00     0.293 HD
ENDBRANCH  13  23
BRANCH  19  25
ATOM     25  C   UNL     1     134.171 145.706 145.005  1.00  0.00     0.264 C 
ATOM     26  O   UNL     1     133.364 145.604 144.043  1.00  0.00    -0.298 OA
ENDBRANCH  19  25
BRANCH  20  27
ATOM     27  C   UNL     1     133.371 149.542 149.346  1.00  0.00     0.017 C 
ATOM     28  C   UNL     1     134.733 149.763 150.010  1.00  0.00     0.012 C 
ATOM     29  C   UNL     1     132.675 150.882 149.034  1.00  0.00     0.012 C 
ENDBRANCH  20  27
BRANCH  21  30
ATOM     30  O   UNL     1     132.360 145.227 147.145  1.00  0.00    -0.504 OA
ATOM     31  H   UNL     1     132.765 144.324 146.939  1.00  0.00     0.293 HD
ENDBRANCH  21  30
BRANCH  22  32
ATOM     32  O   UNL     1     131.942 147.048 149.146  1.00  0.00    -0.504 OA
ATOM     33  H   UNL     1     132.027 146.223 149.726  1.00  0.00     0.293 HD
ENDBRANCH  22  32
ENDBRANCH  11  12
BRANCH  10  34
ATOM     34  O   UNL     1     134.995 150.502 142.267  1.00  0.00    -0.507 OA
ATOM     35  H   UNL     1     134.551 150.948 141.475  1.00  0.00     0.293 HD
ENDBRANCH  10  34
BRANCH   9  36
ATOM     36  C   UNL     1     141.115 150.773 140.733  1.00  0.00     0.017 C 
ATOM     37  C   UNL     1     141.395 149.314 141.107  1.00  0.00     0.012 C 
ATOM     38  C   UNL     1     141.808 151.743 141.709  1.00  0.00     0.012 C 
ENDBRANCH   9  36
BRANCH   6  39
ATOM     39  C   UNL     1     135.374 151.132 139.743  1.00  0.00     0.264 C 
ATOM     40  O   UNL     1     134.839 152.115 139.167  1.00  0.00    -0.298 OA
ENDBRANCH   6  39
BRANCH   8  41
ATOM     41  O   UNL     1     139.986 152.067 138.420  1.00  0.00    -0.504 OA
ATOM     42  H   UNL     1     140.859 152.518 138.660  1.00  0.00     0.293 HD
ENDBRANCH   8  41
BRANCH   7  43
ATOM     43  O   UNL     1     137.309 152.020 137.855  1.00  0.00    -0.504 OA
ATOM     44  H   UNL     1     137.529 152.924 137.462  1.00  0.00     0.293 HD
ENDBRANCH   7  43
TORSDOF 11
ENDMDL
MODEL 8
REMARK VINA RESULT:    -4.688     10.584     16.347
REMARK INTER + INTRA:          -8.278
REMARK INTER:                  -7.257
REMARK INTRA:                  -1.020
REMARK UNBOUND:                -1.397
REMARK SMILES Cc1cc2c(C(C)C)c(O)c(O)c(C=O)c2c(O)c1-c1c(C)cc2c(C(C)C)c(O)c(O)c(C=O)c2c1O
REMARK SMILES IDX 1 1 2 2 3 3 4 4 16 5 13 6 11 7 9 8 5 9 17 10 19 11 20 12
REMARK SMILES IDX 37 13 21 14 36 15 23 16 22 17 24 18 33 19 25 20 31 21 29 22
REMARK SMILES IDX 38 23 34 25 35 26 26 27 27 28 28 29 32 30 30 32 18 34 6 36
REMARK SMILES IDX 7 37 8 38 14 39 15 40 10 41 12 43
REMARK H PARENT 38 24 32 31 30 33 18 35 10 42 12 44
REMARK Flexibility Score: inf
ROOT
ATOM      1  C   UNL     1     133.301 149.138 143.582  1.00  0.00     0.045 C 
ATOM      2  C   UNL     1     134.737 149.559 143.377  1.00  0.00    -0.039 A 
ATOM      3  C   UNL     1     135.143 150.005 142.120  1.00  0.00     0.013 A 
ATOM      4  C   UNL     1     136.467 150.431 141.870  1.00  0.00    -0.006 A 
ATOM      5  C   UNL     1     137.443 150.286 142.904  1.00  0.00     0.039 A 
ATOM      6  C   UNL     1     138.805 150.609 142.616  1.00  0.00     0.072 A 
ATOM      7  C   UNL     1     139.177 150.982 141.309  1.00  0.00     0.169 A 
ATOM      8  C   UNL     1     138.213 151.111 140.305  1.00  0.00     0.162 A 
ATOM      9  C   UNL     1     136.841 150.959 140.596  1.00  0.00     0.008 A 
ATOM     10  C   UNL     1     137.030 149.782 144.176  1.00  0.00     0.132 A 
ATOM     11  C   UNL     1     135.678 149.454 144.413  1.00  0.00     0.031 A 
ENDROOT
BRANCH  11  12
ATOM     12  C   UNL     1     135.252 148.966 145.752  1.00  0.00     0.031 A 
ATOM     13  C   UNL     1     134.971 149.883 146.787  1.00  0.00     0.132 A 
ATOM     14  C   UNL     1     135.139 147.586 145.985  1.00  0.00    -0.039 A 
ATOM     15  C   UNL     1     134.597 149.416 148.083  1.00  0.00     0.039 A 
ATOM     16  C   UNL     1     134.676 147.132 147.220  1.00  0.00     0.013 A 
ATOM     17  C   UNL     1     135.485 146.586 144.908  1.00  0.00     0.045 C 
ATOM     18  C   UNL     1     134.333 148.024 148.259  1.00  0.00    -0.006 A 
ATOM     19  C   UNL     1     134.461 150.291 149.203  1.00  0.00     0.072 A 
ATOM     20  C   UNL     1     133.758 147.552 149.478  1.00  0.00     0.008 A 
ATOM     21  C   UNL     1     134.072 149.770 150.455  1.00  0.00     0.169 A 
ATOM     22  C   UNL     1     133.719 148.424 150.587  1.00  0.00     0.162 A 
BRANCH  13  23
ATOM     23  O   UNL     1     135.035 151.256 146.521  1.00  0.00    -0.507 OA
ATOM     24  H   UNL     1     135.245 151.646 145.611  1.00  0.00     0.293 HD
ENDBRANCH  13  23
BRANCH  19  25
ATOM     25  C   UNL     1     134.813 151.723 149.119  1.00  0.00     0.264 C 
ATOM     26  O   UNL     1     135.954 152.124 149.473  1.00  0.00    -0.298 OA
ENDBRANCH  19  25
BRANCH  20  27
ATOM     27  C   UNL     1     133.201 146.123 149.607  1.00  0.00     0.017 C 
ATOM     28  C   UNL     1     131.947 145.943 148.746  1.00  0.00     0.012 C 
ATOM     29  C   UNL     1     134.242 145.025 149.317  1.00  0.00     0.012 C 
ENDBRANCH  20  27
BRANCH  21  30
ATOM     30  O   UNL     1     134.047 150.570 151.604  1.00  0.00    -0.504 OA
ATOM     31  H   UNL     1     134.862 151.019 152.001  1.00  0.00     0.293 HD
ENDBRANCH  21  30
BRANCH  22  32
ATOM     32  O   UNL     1     133.349 147.935 151.843  1.00  0.00    -0.504 OA
ATOM     33  H   UNL     1     132.530 148.258 152.343  1.00  0.00     0.293 HD
ENDBRANCH  22  32
ENDBRANCH  11  12
BRANCH  10  34
ATOM     34  O   UNL     1     137.965 149.584 145.199  1.00  0.00    -0.507 OA
ATOM     35  H   UNL     1     138.954 149.782 145.110  1.00  0.00     0.293 HD
ENDBRANCH  10  34
BRANCH   9  36
ATOM     36  C   UNL     1     135.791 151.348 139.538  1.00  0.00     0.017 C 
ATOM     37  C   UNL     1     134.636 152.125 140.176  1.00  0.00     0.012 C 
ATOM     38  C   UNL     1     135.273 150.156 138.709  1.00  0.00     0.012 C 
ENDBRANCH   9  36
BRANCH   6  39
ATOM     39  C   UNL     1     139.853 150.568 143.656  1.00  0.00     0.264 C 
ATOM     40  O   UNL     1     140.714 149.649 143.663  1.00  0.00    -0.298 OA
ENDBRANCH   6  39
BRANCH   8  41
ATOM     41  O   UNL     1     138.621 151.402 139.001  1.00  0.00    -0.504 OA
ATOM     42  H   UNL     1     138.773 150.690 138.298  1.00  0.00     0.293 HD
ENDBRANCH   8  41
BRANCH   7  43
ATOM     43  O   UNL     1     140.508 151.269 140.977  1.00  0.00    -0.504 OA
ATOM     44  H   UNL     1     140.789 151.993 140.332  1.00  0.00     0.293 HD
ENDBRANCH   7  43
TORSDOF 11
ENDMDL
MODEL 9
REMARK VINA RESULT:    -2.435      2.686      9.092
REMARK INTER + INTRA:          -4.971
REMARK INTER:                  -3.823
REMARK INTRA:                  -1.148
REMARK UNBOUND:                -1.397
REMARK SMILES Cc1cc2c(C(C)C)c(O)c(O)c(C=O)c2c(O)c1-c1c(C)cc2c(C(C)C)c(O)c(O)c(C=O)c2c1O
REMARK SMILES IDX 1 1 2 2 3 3 4 4 16 5 13 6 11 7 9 8 5 9 17 10 19 11 20 12
REMARK SMILES IDX 37 13 21 14 36 15 23 16 22 17 24 18 33 19 25 20 31 21 29 22
REMARK SMILES IDX 38 23 34 25 35 26 26 27 27 28 28 29 32 30 30 32 18 34 6 36
REMARK SMILES IDX 7 37 8 38 14 39 15 40 10 41 12 43
REMARK H PARENT 38 24 32 31 30 33 18 35 10 42 12 44
REMARK Flexibility Score: inf
ROOT
ATOM      1  C   UNL     1     145.368 149.017 138.478  1.00  0.00     0.045 C 
ATOM      2  C   UNL     1     146.532 149.700 137.800  1.00  0.00    -0.039 A 
ATOM      3  C   UNL     1     146.535 149.823 136.411  1.00  0.00     0.013 A 
ATOM      4  C   UNL     1     147.585 150.468 135.720  1.00  0.00    -0.006 A 
ATOM      5  C   UNL     1     148.732 150.898 136.456  1.00  0.00     0.039 A 
ATOM      6  C   UNL     1     149.843 151.446 135.745  1.00  0.00     0.072 A 
ATOM      7  C   UNL     1     149.827 151.478 134.336  1.00  0.00     0.169 A 
ATOM      8  C   UNL     1     148.702 151.046 133.627  1.00  0.00     0.162 A 
ATOM      9  C   UNL     1     147.528 150.653 134.304  1.00  0.00     0.008 A 
ATOM     10  C   UNL     1     148.744 150.725 137.876  1.00  0.00     0.132 A 
ATOM     11  C   UNL     1     147.635 150.158 138.539  1.00  0.00     0.031 A 
ENDROOT
BRANCH  11  12
ATOM     12  C   UNL     1     147.642 150.017 140.019  1.00  0.00     0.031 A 
ATOM     13  C   UNL     1     148.293 148.922 140.627  1.00  0.00     0.132 A 
ATOM     14  C   UNL     1     146.989 150.975 140.811  1.00  0.00    -0.039 A 
ATOM     15  C   UNL     1     148.270 148.766 142.045  1.00  0.00     0.039 A 
ATOM     16  C   UNL     1     147.053 150.877 142.202  1.00  0.00     0.013 A 
ATOM     17  C   UNL     1     146.242 152.125 140.181  1.00  0.00     0.045 C 
ATOM     18  C   UNL     1     147.743 149.825 142.843  1.00  0.00    -0.006 A 
ATOM     19  C   UNL     1     148.770 147.597 142.695  1.00  0.00     0.072 A 
ATOM     20  C   UNL     1     147.893 149.798 144.262  1.00  0.00     0.008 A 
ATOM     21  C   UNL     1     148.735 147.509 144.102  1.00  0.00     0.169 A 
ATOM     22  C   UNL     1     148.309 148.596 144.873  1.00  0.00     0.162 A 
BRANCH  13  23
ATOM     23  O   UNL     1     148.986 148.008 139.824  1.00  0.00    -0.507 OA
ATOM     24  H   UNL     1     149.766 148.257 139.229  1.00  0.00     0.293 HD
ENDBRANCH  13  23
BRANCH  19  25
ATOM     25  C   UNL     1     149.239 146.422 141.932  1.00  0.00     0.264 C 
ATOM     26  O   UNL     1     150.468 146.245 141.719  1.00  0.00    -0.298 OA
ENDBRANCH  19  25
BRANCH  20  27
ATOM     27  C   UNL     1     147.596 151.034 145.129  1.00  0.00     0.017 C 
ATOM     28  C   UNL     1     146.243 150.897 145.834  1.00  0.00     0.012 C 
ATOM     29  C   UNL     1     148.718 151.372 146.130  1.00  0.00     0.012 C 
ENDBRANCH  20  27
BRANCH  21  30
ATOM     30  O   UNL     1     149.100 146.334 144.771  1.00  0.00    -0.504 OA
ATOM     31  H   UNL     1     149.369 146.296 145.745  1.00  0.00     0.293 HD
ENDBRANCH  21  30
BRANCH  22  32
ATOM     32  O   UNL     1     148.274 148.474 146.264  1.00  0.00    -0.504 OA
ATOM     33  H   UNL     1     148.043 149.243 146.881  1.00  0.00     0.293 HD
ENDBRANCH  22  32
ENDBRANCH  11  12
BRANCH  10  34
ATOM     34  O   UNL     1     149.867 151.092 138.626  1.00  0.00    -0.507 OA
ATOM     35  H   UNL     1     150.772 150.647 138.548  1.00  0.00     0.293 HD
ENDBRANCH  10  34
BRANCH   9  36
ATOM     36  C   UNL     1     146.231 150.421 133.506  1.00  0.00     0.017 C 
ATOM     37  C   UNL     1     145.075 151.234 134.096  1.00  0.00     0.012 C 
ATOM     38  C   UNL     1     145.851 148.935 133.355  1.00  0.00     0.012 C 
ENDBRANCH   9  36
BRANCH   6  39
ATOM     39  C   UNL     1     151.025 151.991 136.443  1.00  0.00     0.264 C 
ATOM     40  O   UNL     1     152.125 151.380 136.413  1.00  0.00    -0.298 OA
ENDBRANCH   6  39
BRANCH   8  41
ATOM     41  O   UNL     1     148.746 151.013 132.231  1.00  0.00    -0.504 OA
ATOM     42  H   UNL     1     149.325 151.635 131.682  1.00  0.00     0.293 HD
ENDBRANCH   8  41
BRANCH   7  43
ATOM     43  O   UNL     1     150.912 151.973 133.600  1.00  0.00    -0.504 OA
ATOM     44  H   UNL     1     151.531 152.703 133.922  1.00  0.00     0.293 HD
ENDBRANCH   7  43
TORSDOF 11
ENDMDL
