MODEL 1
REMARK VINA RESULT:    -4.261      0.000      0.000
REMARK INTER + INTRA:          -5.612
REMARK INTER:                  -5.382
REMARK INTRA:                  -0.230
REMARK UNBOUND:                -0.230
REMARK SMILES CC(C)=CCCC(C)=CCO
REMARK SMILES IDX 7 1 9 2 8 3 6 4 5 5 4 6 1 7 2 8 3 9 10 10 11 11
REMARK H PARENT 11 12
REMARK Flexibility Score: inf
ROOT
ATOM      1  C   UNL     1       4.934  -0.570  -8.445  1.00  0.00    -0.075 C 
ATOM      2  C   UNL     1       4.002  -1.491  -8.115  1.00  0.00    -0.000 C 
ATOM      3  C   UNL     1       4.563   0.724  -9.130  1.00  0.00     0.039 C 
ENDROOT
BRANCH   1   4
ATOM      4  C   UNL     1       6.395  -0.854  -8.160  1.00  0.00     0.034 C 
BRANCH   4   5
ATOM      5  C   UNL     1       7.225   0.436  -8.121  1.00  0.00     0.032 C 
BRANCH   5   6
ATOM      6  C   UNL     1       8.181   0.458  -6.953  1.00  0.00    -0.028 C 
ATOM      7  C   UNL     1       9.636   2.234  -7.955  1.00  0.00     0.039 C 
ATOM      8  C   UNL     1       9.250   1.279  -6.849  1.00  0.00    -0.080 C 
ATOM      9  C   UNL     1      10.083   1.218  -5.596  1.00  0.00     0.039 C 
ENDBRANCH   5   6
ENDBRANCH   4   5
ENDBRANCH   1   4
BRANCH   2  10
ATOM     10  C   UNL     1       2.530  -1.323  -8.372  1.00  0.00     0.183 C 
BRANCH  10  11
ATOM     11  O   UNL     1       1.835  -1.301  -7.157  1.00  0.00    -0.392 OA
ATOM     12  H   UNL     1       0.906  -1.026  -7.376  1.00  0.00     0.210 HD
ENDBRANCH  10  11
ENDBRANCH   2  10
TORSDOF 5
ENDMDL
MODEL 2
REMARK VINA RESULT:    -4.249      1.944      2.917
REMARK INTER + INTRA:          -5.597
REMARK INTER:                  -5.328
REMARK INTRA:                  -0.269
REMARK UNBOUND:                -0.230
REMARK SMILES CC(C)=CCCC(C)=CCO
REMARK SMILES IDX 7 1 9 2 8 3 6 4 5 5 4 6 1 7 2 8 3 9 10 10 11 11
REMARK H PARENT 11 12
REMARK Flexibility Score: inf
ROOT
ATOM      1  C   UNL     1       3.005   0.144  -8.714  1.00  0.00    -0.075 C 
ATOM      2  C   UNL     1       2.362   1.331  -8.783  1.00  0.00    -0.000 C 
ATOM      3  C   UNL     1       2.418  -1.035  -7.974  1.00  0.00     0.039 C 
ENDROOT
BRANCH   1   4
ATOM      4  C   UNL     1       4.367  -0.004  -9.361  1.00  0.00     0.034 C 
BRANCH   4   5
ATOM      5  C   UNL     1       5.364  -0.706  -8.429  1.00  0.00     0.032 C 
BRANCH   5   6
ATOM      6  C   UNL     1       6.429   0.238  -7.925  1.00  0.00    -0.028 C 
ATOM      7  C   UNL     1       7.980  -1.604  -7.238  1.00  0.00     0.039 C 
ATOM      8  C   UNL     1       7.620  -0.148  -7.416  1.00  0.00    -0.080 C 
ATOM      9  C   UNL     1       8.601   0.916  -7.000  1.00  0.00     0.039 C 
ENDBRANCH   5   6
ENDBRANCH   4   5
ENDBRANCH   1   4
BRANCH   2  10
ATOM     10  C   UNL     1       1.019   1.594  -8.159  1.00  0.00     0.183 C 
BRANCH  10  11
ATOM     11  O   UNL     1       1.128   2.622  -7.214  1.00  0.00    -0.392 OA
ATOM     12  H   UNL     1       1.273   3.456  -7.731  1.00  0.00     0.210 HD
ENDBRANCH  10  11
ENDBRANCH   2  10
TORSDOF 5
ENDMDL
MODEL 3
REMARK VINA RESULT:    -4.196     15.051     15.477
REMARK INTER + INTRA:          -5.531
REMARK INTER:                  -4.862
REMARK INTRA:                  -0.669
REMARK UNBOUND:                -0.230
REMARK SMILES CC(C)=CCCC(C)=CCO
REMARK SMILES IDX 7 1 9 2 8 3 6 4 5 5 4 6 1 7 2 8 3 9 10 10 11 11
REMARK H PARENT 11 12
REMARK Flexibility Score: inf
ROOT
ATOM      1  C   UNL     1      -0.622   6.408   4.524  1.00  0.00    -0.075 C 
ATOM      2  C   UNL     1      -0.139   5.860   3.387  1.00  0.00    -0.000 C 
ATOM      3  C   UNL     1      -2.066   6.833   4.649  1.00  0.00     0.039 C 
ENDROOT
BRANCH   1   4
ATOM      4  C   UNL     1       0.312   6.640   5.694  1.00  0.00     0.034 C 
BRANCH   4   5
ATOM      5  C   UNL     1       0.481   8.136   5.996  1.00  0.00     0.032 C 
BRANCH   5   6
ATOM      6  C   UNL     1       1.533   8.774   5.122  1.00  0.00    -0.028 C 
ATOM      7  C   UNL     1      -0.138   9.920   3.651  1.00  0.00     0.039 C 
ATOM      8  C   UNL     1       1.273   9.601   4.085  1.00  0.00    -0.080 C 
ATOM      9  C   UNL     1       2.434  10.200   3.336  1.00  0.00     0.039 C 
ENDBRANCH   5   6
ENDBRANCH   4   5
ENDBRANCH   1   4
BRANCH   2  10
ATOM     10  C   UNL     1      -0.971   5.607   2.160  1.00  0.00     0.183 C 
BRANCH  10  11
ATOM     11  O   UNL     1      -1.588   4.353   2.255  1.00  0.00    -0.392 OA
ATOM     12  H   UNL     1      -2.411   4.492   2.791  1.00  0.00     0.210 HD
ENDBRANCH  10  11
ENDBRANCH   2  10
TORSDOF 5
ENDMDL
MODEL 4
REMARK VINA RESULT:    -4.174      3.932      6.681
REMARK INTER + INTRA:          -5.502
REMARK INTER:                  -5.046
REMARK INTRA:                  -0.456
REMARK UNBOUND:                -0.230
REMARK SMILES CC(C)=CCCC(C)=CCO
REMARK SMILES IDX 7 1 9 2 8 3 6 4 5 5 4 6 1 7 2 8 3 9 10 10 11 11
REMARK H PARENT 11 12
REMARK Flexibility Score: inf
ROOT
ATOM      1  C   UNL     1      10.280   2.591  -6.968  1.00  0.00    -0.075 C 
ATOM      2  C   UNL     1      10.636   3.690  -6.266  1.00  0.00    -0.000 C 
ATOM      3  C   UNL     1      10.659   2.419  -8.420  1.00  0.00     0.039 C 
ENDROOT
BRANCH   1   4
ATOM      4  C   UNL     1       9.446   1.518  -6.299  1.00  0.00     0.034 C 
BRANCH   4   5
ATOM      5  C   UNL     1       9.086   0.389  -7.274  1.00  0.00     0.032 C 
BRANCH   5   6
ATOM      6  C   UNL     1       7.594   0.186  -7.379  1.00  0.00    -0.028 C 
ATOM      7  C   UNL     1       7.435   1.253  -9.639  1.00  0.00     0.039 C 
ATOM      8  C   UNL     1       6.843   0.541  -8.446  1.00  0.00    -0.080 C 
ATOM      9  C   UNL     1       5.370   0.228  -8.423  1.00  0.00     0.039 C 
ENDBRANCH   5   6
ENDBRANCH   4   5
ENDBRANCH   1   4
BRANCH   2  10
ATOM     10  C   UNL     1      11.442   4.824  -6.837  1.00  0.00     0.183 C 
BRANCH  10  11
ATOM     11  O   UNL     1      11.330   5.949  -6.011  1.00  0.00    -0.392 OA
ATOM     12  H   UNL     1      12.138   6.498  -6.183  1.00  0.00     0.210 HD
ENDBRANCH  10  11
ENDBRANCH   2  10
TORSDOF 5
ENDMDL
MODEL 5
REMARK VINA RESULT:    -4.100      3.244      6.394
REMARK INTER + INTRA:          -5.409
REMARK INTER:                  -5.147
REMARK INTRA:                  -0.262
REMARK UNBOUND:                -0.230
REMARK SMILES CC(C)=CCCC(C)=CCO
REMARK SMILES IDX 7 1 9 2 8 3 6 4 5 5 4 6 1 7 2 8 3 9 10 10 11 11
REMARK H PARENT 11 12
REMARK Flexibility Score: inf
ROOT
ATOM      1  C   UNL     1      10.211   2.243  -6.471  1.00  0.00    -0.075 C 
ATOM      2  C   UNL     1      10.361   1.731  -5.229  1.00  0.00    -0.000 C 
ATOM      3  C   UNL     1      10.675   3.638  -6.816  1.00  0.00     0.039 C 
ENDROOT
BRANCH   1   4
ATOM      4  C   UNL     1       9.526   1.415  -7.539  1.00  0.00     0.034 C 
BRANCH   4   5
ATOM      5  C   UNL     1       8.473   0.474  -6.938  1.00  0.00     0.032 C 
BRANCH   5   6
ATOM      6  C   UNL     1       7.146   0.582  -7.650  1.00  0.00    -0.028 C 
ATOM      7  C   UNL     1       6.852  -1.898  -7.840  1.00  0.00     0.039 C 
ATOM      8  C   UNL     1       6.392  -0.473  -8.034  1.00  0.00    -0.080 C 
ATOM      9  C   UNL     1       5.064  -0.203  -8.691  1.00  0.00     0.039 C 
ENDBRANCH   5   6
ENDBRANCH   4   5
ENDBRANCH   1   4
BRANCH   2  10
ATOM     10  C   UNL     1      11.005   2.472  -4.090  1.00  0.00     0.183 C 
BRANCH  10  11
ATOM     11  O   UNL     1      10.163   2.447  -2.971  1.00  0.00    -0.392 OA
ATOM     12  H   UNL     1      10.653   2.919  -2.248  1.00  0.00     0.210 HD
ENDBRANCH  10  11
ENDBRANCH   2  10
TORSDOF 5
ENDMDL
MODEL 6
REMARK VINA RESULT:    -4.083      0.829      1.281
REMARK INTER + INTRA:          -5.387
REMARK INTER:                  -5.082
REMARK INTRA:                  -0.306
REMARK UNBOUND:                -0.230
REMARK SMILES CC(C)=CCCC(C)=CCO
REMARK SMILES IDX 7 1 9 2 8 3 6 4 5 5 4 6 1 7 2 8 3 9 10 10 11 11
REMARK H PARENT 11 12
REMARK Flexibility Score: inf
ROOT
ATOM      1  C   UNL     1       4.495  -0.879  -8.363  1.00  0.00    -0.075 C 
ATOM      2  C   UNL     1       3.185  -0.610  -8.561  1.00  0.00    -0.000 C 
ATOM      3  C   UNL     1       4.981  -2.277  -8.061  1.00  0.00     0.039 C 
ENDROOT
BRANCH   1   4
ATOM      4  C   UNL     1       5.502   0.252  -8.405  1.00  0.00     0.034 C 
BRANCH   4   5
ATOM      5  C   UNL     1       6.941  -0.274  -8.501  1.00  0.00     0.032 C 
BRANCH   5   6
ATOM      6  C   UNL     1       7.769   0.126  -7.304  1.00  0.00    -0.028 C 
ATOM      7  C   UNL     1       9.173   1.745  -8.600  1.00  0.00     0.039 C 
ATOM      8  C   UNL     1       8.754   1.052  -7.325  1.00  0.00    -0.080 C 
ATOM      9  C   UNL     1       9.460   1.379  -6.035  1.00  0.00     0.039 C 
ENDBRANCH   5   6
ENDBRANCH   4   5
ENDBRANCH   1   4
BRANCH   2  10
ATOM     10  C   UNL     1       2.100  -1.650  -8.519  1.00  0.00     0.183 C 
BRANCH  10  11
ATOM     11  O   UNL     1       1.434  -1.591  -7.289  1.00  0.00    -0.392 OA
ATOM     12  H   UNL     1       2.128  -1.728  -6.593  1.00  0.00     0.210 HD
ENDBRANCH  10  11
ENDBRANCH   2  10
TORSDOF 5
ENDMDL
MODEL 7
REMARK VINA RESULT:    -4.047     10.045     11.276
REMARK INTER + INTRA:          -5.342
REMARK INTER:                  -5.061
REMARK INTRA:                  -0.281
REMARK UNBOUND:                -0.230
REMARK SMILES CC(C)=CCCC(C)=CCO
REMARK SMILES IDX 7 1 9 2 8 3 6 4 5 5 4 6 1 7 2 8 3 9 10 10 11 11
REMARK H PARENT 11 12
REMARK Flexibility Score: inf
ROOT
ATOM      1  C   UNL     1       7.801  -3.586   1.055  1.00  0.00    -0.075 C 
ATOM      2  C   UNL     1       7.119  -4.656   1.521  1.00  0.00    -0.000 C 
ATOM      3  C   UNL     1       8.342  -3.544  -0.355  1.00  0.00     0.039 C 
ENDROOT
BRANCH   1   4
ATOM      4  C   UNL     1       8.065  -2.413   1.975  1.00  0.00     0.034 C 
BRANCH   4   5
ATOM      5  C   UNL     1       6.771  -1.889   2.612  1.00  0.00     0.032 C 
BRANCH   5   6
ATOM      6  C   UNL     1       6.797  -2.000   4.118  1.00  0.00    -0.028 C 
ATOM      7  C   UNL     1       6.881   0.478   4.471  1.00  0.00     0.039 C 
ATOM      8  C   UNL     1       6.816  -0.948   4.966  1.00  0.00    -0.080 C 
ATOM      9  C   UNL     1       6.790  -1.220   6.447  1.00  0.00     0.039 C 
ENDBRANCH   5   6
ENDBRANCH   4   5
ENDBRANCH   1   4
BRANCH   2  10
ATOM     10  C   UNL     1       6.820  -5.882   0.703  1.00  0.00     0.183 C 
BRANCH  10  11
ATOM     11  O   UNL     1       5.646  -6.488   1.166  1.00  0.00    -0.392 OA
ATOM     12  H   UNL     1       4.930  -5.807   1.073  1.00  0.00     0.210 HD
ENDBRANCH  10  11
ENDBRANCH   2  10
TORSDOF 5
ENDMDL
MODEL 8
REMARK VINA RESULT:    -3.993      9.215     10.749
REMARK INTER + INTRA:          -5.273
REMARK INTER:                  -4.736
REMARK INTRA:                  -0.537
REMARK UNBOUND:                -0.230
REMARK SMILES CC(C)=CCCC(C)=CCO
REMARK SMILES IDX 7 1 9 2 8 3 6 4 5 5 4 6 1 7 2 8 3 9 10 10 11 11
REMARK H PARENT 11 12
REMARK Flexibility Score: inf
ROOT
ATOM      1  C   UNL     1       8.513  -3.052   0.485  1.00  0.00    -0.075 C 
ATOM      2  C   UNL     1       7.425  -3.054   1.287  1.00  0.00    -0.000 C 
ATOM      3  C   UNL     1       9.735  -2.225   0.807  1.00  0.00     0.039 C 
ENDROOT
BRANCH   1   4
ATOM      4  C   UNL     1       8.499  -3.868  -0.792  1.00  0.00     0.034 C 
BRANCH   4   5
ATOM      5  C   UNL     1       9.007  -5.297  -0.556  1.00  0.00     0.032 C 
BRANCH   5   6
ATOM      6  C   UNL     1       7.894  -6.314  -0.643  1.00  0.00    -0.028 C 
ATOM      7  C   UNL     1       7.760  -6.632   1.838  1.00  0.00     0.039 C 
ATOM      8  C   UNL     1       7.303  -6.899   0.423  1.00  0.00    -0.080 C 
ATOM      9  C   UNL     1       6.170  -7.860   0.178  1.00  0.00     0.039 C 
ENDBRANCH   5   6
ENDBRANCH   4   5
ENDBRANCH   1   4
BRANCH   2  10
ATOM     10  C   UNL     1       7.323  -2.265   2.562  1.00  0.00     0.183 C 
BRANCH  10  11
ATOM     11  O   UNL     1       6.188  -1.445   2.524  1.00  0.00    -0.392 OA
ATOM     12  H   UNL     1       5.410  -2.046   2.662  1.00  0.00     0.210 HD
ENDBRANCH  10  11
ENDBRANCH   2  10
TORSDOF 5
ENDMDL
MODEL 9
REMARK VINA RESULT:    -3.974     10.045     11.360
REMARK INTER + INTRA:          -5.249
REMARK INTER:                  -5.010
REMARK INTRA:                  -0.240
REMARK UNBOUND:                -0.230
REMARK SMILES CC(C)=CCCC(C)=CCO
REMARK SMILES IDX 7 1 9 2 8 3 6 4 5 5 4 6 1 7 2 8 3 9 10 10 11 11
REMARK H PARENT 11 12
REMARK Flexibility Score: inf
ROOT
ATOM      1  C   UNL     1       7.674  -2.307   2.196  1.00  0.00    -0.075 C 
ATOM      2  C   UNL     1       6.741  -1.607   2.878  1.00  0.00    -0.000 C 
ATOM      3  C   UNL     1       9.127  -2.304   2.609  1.00  0.00     0.039 C 
ENDROOT
BRANCH   1   4
ATOM      4  C   UNL     1       7.267  -3.085   0.962  1.00  0.00     0.034 C 
BRANCH   4   5
ATOM      5  C   UNL     1       7.998  -4.431   0.873  1.00  0.00     0.032 C 
BRANCH   5   6
ATOM      6  C   UNL     1       7.040  -5.598   0.891  1.00  0.00    -0.028 C 
ATOM      7  C   UNL     1       8.182  -6.787  -0.994  1.00  0.00     0.039 C 
ATOM      8  C   UNL     1       7.126  -6.676   0.081  1.00  0.00    -0.080 C 
ATOM      9  C   UNL     1       6.122  -7.785   0.253  1.00  0.00     0.039 C 
ENDBRANCH   5   6
ENDBRANCH   4   5
ENDBRANCH   1   4
BRANCH   2  10
ATOM     10  C   UNL     1       7.038  -0.784   4.101  1.00  0.00     0.183 C 
BRANCH  10  11
ATOM     11  O   UNL     1       6.011   0.144   4.310  1.00  0.00    -0.392 OA
ATOM     12  H   UNL     1       5.605  -0.087   5.186  1.00  0.00     0.210 HD
ENDBRANCH  10  11
ENDBRANCH   2  10
TORSDOF 5
ENDMDL
