MODEL 1
REMARK VINA RESULT:    -3.866      0.000      0.000
REMARK INTER + INTRA:          -8.892
REMARK INTER:                  -7.481
REMARK INTRA:                  -1.410
REMARK UNBOUND:                -1.410
REMARK SMILES CCCCCCCCCCCCCCCCCC(=O)[O-]
REMARK SMILES IDX 10 1 11 2 12 3 13 4 14 5 15 6 16 7 17 8 18 9 19 10 20 11
REMARK SMILES IDX 9 12 8 13 7 14 6 15 5 16 4 17 3 18 2 19 1 20
REMARK H PARENT
REMARK Flexibility Score: inf
ROOT
ATOM      1  C   UNL     1      -2.540   2.062   9.078  1.00  0.00     0.000 C 
ENDROOT
BRANCH   1   2
ATOM      2  C   UNL     1      -1.471   2.992   9.666  1.00  0.00     0.000 C 
BRANCH   2   3
ATOM      3  C   UNL     1      -1.502   4.366   8.988  1.00  0.00     0.000 C 
BRANCH   3   4
ATOM      4  C   UNL     1      -1.617   5.488  10.032  1.00  0.00     0.000 C 
BRANCH   4   5
ATOM      5  C   UNL     1      -1.855   6.869   9.399  1.00  0.00     0.000 C 
BRANCH   5   6
ATOM      6  C   UNL     1      -0.660   7.838   9.491  1.00  0.00     0.000 C 
BRANCH   6   7
ATOM      7  C   UNL     1       0.065   8.060   8.146  1.00  0.00     0.006 C 
BRANCH   7   8
ATOM      8  C   UNL     1       1.519   8.511   8.335  1.00  0.00     0.053 C 
BRANCH   8   9
ATOM      9  C   UNL     1       2.331   8.186   7.122  1.00  0.00     0.041 C 
ATOM     10  O   UNL     1       3.494   7.720   7.244  1.00  0.00    -0.550 OA
ATOM     11  O   UNL     1       1.821   8.441   5.856  1.00  0.00    -0.550 OA
ENDBRANCH   8   9
ENDBRANCH   7   8
ENDBRANCH   6   7
ENDBRANCH   5   6
ENDBRANCH   4   5
ENDBRANCH   3   4
ENDBRANCH   2   3
ENDBRANCH   1   2
BRANCH   1  12
ATOM     12  C   UNL     1      -3.764   1.979  10.000  1.00  0.00     0.000 C 
BRANCH  12  13
ATOM     13  C   UNL     1      -4.972   2.692   9.376  1.00  0.00    -0.000 C 
BRANCH  13  14
ATOM     14  C   UNL     1      -5.080   4.162   9.811  1.00  0.00    -0.000 C 
BRANCH  14  15
ATOM     15  C   UNL     1      -5.108   5.133   8.616  1.00  0.00    -0.000 C 
BRANCH  15  16
ATOM     16  C   UNL     1      -6.331   6.073   8.660  1.00  0.00    -0.000 C 
BRANCH  16  17
ATOM     17  C   UNL     1      -5.959   7.566   8.633  1.00  0.00    -0.000 C 
BRANCH  17  18
ATOM     18  C   UNL     1      -6.834   8.381   7.668  1.00  0.00    -0.000 C 
BRANCH  18  19
ATOM     19  C   UNL     1      -7.613   7.494   6.685  1.00  0.00    -0.003 C 
ATOM     20  C   UNL     1      -7.859   8.172   5.337  1.00  0.00     0.004 C 
ENDBRANCH  18  19
ENDBRANCH  17  18
ENDBRANCH  16  17
ENDBRANCH  15  16
ENDBRANCH  14  15
ENDBRANCH  13  14
ENDBRANCH  12  13
ENDBRANCH   1  12
TORSDOF 16
ENDMDL
MODEL 2
REMARK VINA RESULT:    -3.842      3.243      7.221
REMARK INTER + INTRA:          -8.845
REMARK INTER:                  -7.683
REMARK INTRA:                  -1.162
REMARK UNBOUND:                -1.410
REMARK SMILES CCCCCCCCCCCCCCCCCC(=O)[O-]
REMARK SMILES IDX 10 1 11 2 12 3 13 4 14 5 15 6 16 7 17 8 18 9 19 10 20 11
REMARK SMILES IDX 9 12 8 13 7 14 6 15 5 16 4 17 3 18 2 19 1 20
REMARK H PARENT
REMARK Flexibility Score: inf
ROOT
ATOM      1  C   UNL     1      -1.780   2.888   9.003  1.00  0.00     0.000 C 
ENDROOT
BRANCH   1   2
ATOM      2  C   UNL     1      -2.935   2.330   9.843  1.00  0.00     0.000 C 
BRANCH   2   3
ATOM      3  C   UNL     1      -4.291   2.753   9.268  1.00  0.00     0.000 C 
BRANCH   3   4
ATOM      4  C   UNL     1      -4.661   4.172   9.726  1.00  0.00     0.000 C 
BRANCH   4   5
ATOM      5  C   UNL     1      -4.934   5.126   8.551  1.00  0.00     0.000 C 
BRANCH   5   6
ATOM      6  C   UNL     1      -6.321   5.798   8.571  1.00  0.00     0.000 C 
BRANCH   6   7
ATOM      7  C   UNL     1      -6.368   7.149   7.826  1.00  0.00     0.006 C 
BRANCH   7   8
ATOM      8  C   UNL     1      -7.393   7.149   6.684  1.00  0.00     0.053 C 
BRANCH   8   9
ATOM      9  C   UNL     1      -7.505   8.513   6.081  1.00  0.00     0.041 C 
ATOM     10  O   UNL     1      -7.065   9.517   6.700  1.00  0.00    -0.550 OA
ATOM     11  O   UNL     1      -8.138   8.682   4.856  1.00  0.00    -0.550 OA
ENDBRANCH   8   9
ENDBRANCH   7   8
ENDBRANCH   6   7
ENDBRANCH   5   6
ENDBRANCH   4   5
ENDBRANCH   3   4
ENDBRANCH   2   3
ENDBRANCH   1   2
BRANCH   1  12
ATOM     12  C   UNL     1      -0.630   3.368   9.898  1.00  0.00     0.000 C 
BRANCH  12  13
ATOM     13  C   UNL     1      -0.706   4.885  10.124  1.00  0.00    -0.000 C 
BRANCH  13  14
ATOM     14  C   UNL     1      -1.298   5.635   8.921  1.00  0.00    -0.000 C 
BRANCH  14  15
ATOM     15  C   UNL     1      -0.967   7.138   8.939  1.00  0.00    -0.000 C 
BRANCH  15  16
ATOM     16  C   UNL     1       0.510   7.412   8.587  1.00  0.00    -0.000 C 
BRANCH  16  17
ATOM     17  C   UNL     1       0.696   8.172   7.262  1.00  0.00    -0.000 C 
BRANCH  17  18
ATOM     18  C   UNL     1       2.127   8.700   7.072  1.00  0.00    -0.000 C 
BRANCH  18  19
ATOM     19  C   UNL     1       3.173   7.846   7.806  1.00  0.00    -0.003 C 
ATOM     20  C   UNL     1       4.522   8.550   7.949  1.00  0.00     0.004 C 
ENDBRANCH  18  19
ENDBRANCH  17  18
ENDBRANCH  16  17
ENDBRANCH  15  16
ENDBRANCH  14  15
ENDBRANCH  13  14
ENDBRANCH  12  13
ENDBRANCH   1  12
TORSDOF 16
ENDMDL
MODEL 3
REMARK VINA RESULT:    -3.823      1.720      2.354
REMARK INTER + INTRA:          -8.809
REMARK INTER:                  -7.216
REMARK INTRA:                  -1.594
REMARK UNBOUND:                -1.410
REMARK SMILES CCCCCCCCCCCCCCCCCC(=O)[O-]
REMARK SMILES IDX 10 1 11 2 12 3 13 4 14 5 15 6 16 7 17 8 18 9 19 10 20 11
REMARK SMILES IDX 9 12 8 13 7 14 6 15 5 16 4 17 3 18 2 19 1 20
REMARK H PARENT
REMARK Flexibility Score: inf
ROOT
ATOM      1  C   UNL     1      -1.790   2.627   9.065  1.00  0.00     0.000 C 
ENDROOT
BRANCH   1   2
ATOM      2  C   UNL     1      -1.113   3.813   9.763  1.00  0.00     0.000 C 
BRANCH   2   3
ATOM      3  C   UNL     1      -1.332   5.113   8.982  1.00  0.00     0.000 C 
BRANCH   3   4
ATOM      4  C   UNL     1      -0.386   6.216   9.479  1.00  0.00     0.000 C 
BRANCH   4   5
ATOM      5  C   UNL     1      -0.730   7.601   8.904  1.00  0.00     0.000 C 
BRANCH   5   6
ATOM      6  C   UNL     1       0.248   8.118   7.831  1.00  0.00     0.000 C 
BRANCH   6   7
ATOM      7  C   UNL     1       1.242   9.177   8.353  1.00  0.00     0.006 C 
BRANCH   7   8
ATOM      8  C   UNL     1       2.490   9.291   7.469  1.00  0.00     0.053 C 
BRANCH   8   9
ATOM      9  C   UNL     1       3.488   8.237   7.831  1.00  0.00     0.041 C 
ATOM     10  O   UNL     1       3.878   7.410   6.966  1.00  0.00    -0.550 OA
ATOM     11  O   UNL     1       3.952   8.139   9.136  1.00  0.00    -0.550 OA
ENDBRANCH   8   9
ENDBRANCH   7   8
ENDBRANCH   6   7
ENDBRANCH   5   6
ENDBRANCH   4   5
ENDBRANCH   3   4
ENDBRANCH   2   3
ENDBRANCH   1   2
BRANCH   1  12
ATOM     12  C   UNL     1      -2.955   2.086   9.904  1.00  0.00     0.000 C 
BRANCH  12  13
ATOM     13  C   UNL     1      -4.192   1.834   9.031  1.00  0.00    -0.000 C 
BRANCH  13  14
ATOM     14  C   UNL     1      -5.421   2.626   9.504  1.00  0.00    -0.000 C 
BRANCH  14  15
ATOM     15  C   UNL     1      -5.082   4.081   9.876  1.00  0.00    -0.000 C 
BRANCH  15  16
ATOM     16  C   UNL     1      -4.912   4.975   8.630  1.00  0.00    -0.000 C 
BRANCH  16  17
ATOM     17  C   UNL     1      -5.315   6.441   8.866  1.00  0.00    -0.000 C 
BRANCH  17  18
ATOM     18  C   UNL     1      -4.323   7.196   9.766  1.00  0.00    -0.000 C 
BRANCH  18  19
ATOM     19  C   UNL     1      -4.722   8.664   9.982  1.00  0.00    -0.003 C 
ATOM     20  C   UNL     1      -3.865   9.639   9.175  1.00  0.00     0.004 C 
ENDBRANCH  18  19
ENDBRANCH  17  18
ENDBRANCH  16  17
ENDBRANCH  15  16
ENDBRANCH  14  15
ENDBRANCH  13  14
ENDBRANCH  12  13
ENDBRANCH   1  12
TORSDOF 16
ENDMDL
MODEL 4
REMARK VINA RESULT:    -3.717      3.269      6.374
REMARK INTER + INTRA:          -8.604
REMARK INTER:                  -6.683
REMARK INTRA:                  -1.921
REMARK UNBOUND:                -1.410
REMARK SMILES CCCCCCCCCCCCCCCCCC(=O)[O-]
REMARK SMILES IDX 10 1 11 2 12 3 13 4 14 5 15 6 16 7 17 8 18 9 19 10 20 11
REMARK SMILES IDX 9 12 8 13 7 14 6 15 5 16 4 17 3 18 2 19 1 20
REMARK H PARENT
REMARK Flexibility Score: inf
ROOT
ATOM      1  C   UNL     1      -2.985   1.895   9.061  1.00  0.00     0.000 C 
ENDROOT
BRANCH   1   2
ATOM      2  C   UNL     1      -4.485   1.971   9.369  1.00  0.00     0.000 C 
BRANCH   2   3
ATOM      3  C   UNL     1      -4.836   3.280  10.084  1.00  0.00     0.000 C 
BRANCH   3   4
ATOM      4  C   UNL     1      -5.510   4.267   9.119  1.00  0.00     0.000 C 
BRANCH   4   5
ATOM      5  C   UNL     1      -4.588   5.431   8.717  1.00  0.00     0.000 C 
BRANCH   5   6
ATOM      6  C   UNL     1      -4.477   6.559   9.761  1.00  0.00     0.000 C 
BRANCH   6   7
ATOM      7  C   UNL     1      -5.685   7.521   9.769  1.00  0.00     0.006 C 
BRANCH   7   8
ATOM      8  C   UNL     1      -5.504   8.692   8.796  1.00  0.00     0.053 C 
BRANCH   8   9
ATOM      9  C   UNL     1      -6.580   8.682   7.757  1.00  0.00     0.041 C 
ATOM     10  O   UNL     1      -7.247   7.634   7.547  1.00  0.00    -0.550 OA
ATOM     11  O   UNL     1      -6.816   9.814   6.989  1.00  0.00    -0.550 OA
ENDBRANCH   8   9
ENDBRANCH   7   8
ENDBRANCH   6   7
ENDBRANCH   5   6
ENDBRANCH   4   5
ENDBRANCH   3   4
ENDBRANCH   2   3
ENDBRANCH   1   2
BRANCH   1  12
ATOM     12  C   UNL     1      -2.178   2.764  10.034  1.00  0.00     0.000 C 
BRANCH  12  13
ATOM     13  C   UNL     1      -1.094   3.559   9.293  1.00  0.00    -0.000 C 
BRANCH  13  14
ATOM     14  C   UNL     1      -0.892   4.967   9.872  1.00  0.00    -0.000 C 
BRANCH  14  15
ATOM     15  C   UNL     1      -0.937   6.064   8.793  1.00  0.00    -0.000 C 
BRANCH  15  16
ATOM     16  C   UNL     1      -0.977   7.480   9.405  1.00  0.00    -0.000 C 
BRANCH  16  17
ATOM     17  C   UNL     1      -0.276   8.544   8.542  1.00  0.00    -0.000 C 
BRANCH  17  18
ATOM     18  C   UNL     1       0.426   7.946   7.312  1.00  0.00    -0.000 C 
BRANCH  18  19
ATOM     19  C   UNL     1       1.895   8.382   7.201  1.00  0.00    -0.003 C 
ATOM     20  C   UNL     1       2.742   7.929   8.390  1.00  0.00     0.004 C 
ENDBRANCH  18  19
ENDBRANCH  17  18
ENDBRANCH  16  17
ENDBRANCH  15  16
ENDBRANCH  14  15
ENDBRANCH  13  14
ENDBRANCH  12  13
ENDBRANCH   1  12
TORSDOF 16
ENDMDL
MODEL 5
REMARK VINA RESULT:    -3.713      1.887      2.907
REMARK INTER + INTRA:          -8.596
REMARK INTER:                  -6.880
REMARK INTRA:                  -1.716
REMARK UNBOUND:                -1.410
REMARK SMILES CCCCCCCCCCCCCCCCCC(=O)[O-]
REMARK SMILES IDX 10 1 11 2 12 3 13 4 14 5 15 6 16 7 17 8 18 9 19 10 20 11
REMARK SMILES IDX 9 12 8 13 7 14 6 15 5 16 4 17 3 18 2 19 1 20
REMARK H PARENT
REMARK Flexibility Score: inf
ROOT
ATOM      1  C   UNL     1      -4.048   1.634   9.002  1.00  0.00     0.000 C 
ENDROOT
BRANCH   1   2
ATOM      2  C   UNL     1      -2.962   2.268   9.880  1.00  0.00     0.000 C 
BRANCH   2   3
ATOM      3  C   UNL     1      -1.725   2.632   9.051  1.00  0.00     0.000 C 
BRANCH   3   4
ATOM      4  C   UNL     1      -0.738   3.468   9.881  1.00  0.00     0.000 C 
BRANCH   4   5
ATOM      5  C   UNL     1      -1.200   4.923  10.069  1.00  0.00     0.000 C 
BRANCH   5   6
ATOM      6  C   UNL     1      -1.042   5.819   8.825  1.00  0.00     0.000 C 
BRANCH   6   7
ATOM      7  C   UNL     1      -0.335   7.161   9.111  1.00  0.00     0.006 C 
BRANCH   7   8
ATOM      8  C   UNL     1       0.028   7.914   7.825  1.00  0.00     0.053 C 
BRANCH   8   9
ATOM      9  C   UNL     1       1.461   8.342   7.855  1.00  0.00     0.041 C 
ATOM     10  O   UNL     1       1.952   8.835   8.905  1.00  0.00    -0.550 OA
ATOM     11  O   UNL     1       2.241   8.242   6.711  1.00  0.00    -0.550 OA
ENDBRANCH   8   9
ENDBRANCH   7   8
ENDBRANCH   6   7
ENDBRANCH   5   6
ENDBRANCH   4   5
ENDBRANCH   3   4
ENDBRANCH   2   3
ENDBRANCH   1   2
BRANCH   1  12
ATOM     12  C   UNL     1      -4.879   0.621   9.800  1.00  0.00     0.000 C 
BRANCH  12  13
ATOM     13  C   UNL     1      -6.196   0.301   9.080  1.00  0.00    -0.000 C 
BRANCH  13  14
ATOM     14  C   UNL     1      -7.415   0.937   9.765  1.00  0.00    -0.000 C 
BRANCH  14  15
ATOM     15  C   UNL     1      -8.059   2.050   8.918  1.00  0.00    -0.000 C 
BRANCH  15  16
ATOM     16  C   UNL     1      -8.045   3.412   9.643  1.00  0.00    -0.000 C 
BRANCH  16  17
ATOM     17  C   UNL     1      -6.629   3.946   9.924  1.00  0.00    -0.000 C 
BRANCH  17  18
ATOM     18  C   UNL     1      -6.217   5.076   8.967  1.00  0.00    -0.000 C 
BRANCH  18  19
ATOM     19  C   UNL     1      -4.723   5.422   9.073  1.00  0.00    -0.003 C 
ATOM     20  C   UNL     1      -4.477   6.852   9.555  1.00  0.00     0.004 C 
ENDBRANCH  18  19
ENDBRANCH  17  18
ENDBRANCH  16  17
ENDBRANCH  15  16
ENDBRANCH  14  15
ENDBRANCH  13  14
ENDBRANCH  12  13
ENDBRANCH   1  12
TORSDOF 16
ENDMDL
MODEL 6
REMARK VINA RESULT:    -3.666      3.512      4.982
REMARK INTER + INTRA:          -8.505
REMARK INTER:                  -7.458
REMARK INTRA:                  -1.047
REMARK UNBOUND:                -1.410
REMARK SMILES CCCCCCCCCCCCCCCCCC(=O)[O-]
REMARK SMILES IDX 10 1 11 2 12 3 13 4 14 5 15 6 16 7 17 8 18 9 19 10 20 11
REMARK SMILES IDX 9 12 8 13 7 14 6 15 5 16 4 17 3 18 2 19 1 20
REMARK H PARENT
REMARK Flexibility Score: inf
ROOT
ATOM      1  C   UNL     1      -0.785   6.283   9.366  1.00  0.00     0.000 C 
ENDROOT
BRANCH   1   2
ATOM      2  C   UNL     1       0.561   5.975  10.033  1.00  0.00     0.000 C 
BRANCH   2   3
ATOM      3  C   UNL     1       1.698   6.763   9.373  1.00  0.00     0.000 C 
BRANCH   3   4
ATOM      4  C   UNL     1       1.144   7.937   8.550  1.00  0.00     0.000 C 
BRANCH   4   5
ATOM      5  C   UNL     1       2.048   8.313   7.364  1.00  0.00     0.000 C 
BRANCH   5   6
ATOM      6  C   UNL     1       2.625   9.741   7.417  1.00  0.00     0.000 C 
BRANCH   6   7
ATOM      7  C   UNL     1       3.603   9.973   8.589  1.00  0.00     0.006 C 
BRANCH   7   8
ATOM      8  C   UNL     1       5.069   9.957   8.136  1.00  0.00     0.053 C 
BRANCH   8   9
ATOM      9  C   UNL     1       5.789   8.791   8.736  1.00  0.00     0.041 C 
ATOM     10  O   UNL     1       5.162   7.949   9.432  1.00  0.00    -0.550 OA
ATOM     11  O   UNL     1       7.161   8.659   8.565  1.00  0.00    -0.550 OA
ENDBRANCH   8   9
ENDBRANCH   7   8
ENDBRANCH   6   7
ENDBRANCH   5   6
ENDBRANCH   4   5
ENDBRANCH   3   4
ENDBRANCH   2   3
ENDBRANCH   1   2
BRANCH   1  12
ATOM     12  C   UNL     1      -1.489   4.994   8.922  1.00  0.00     0.000 C 
BRANCH  12  13
ATOM     13  C   UNL     1      -0.994   3.790   9.735  1.00  0.00    -0.000 C 
BRANCH  13  14
ATOM     14  C   UNL     1      -1.999   2.628   9.744  1.00  0.00    -0.000 C 
BRANCH  14  15
ATOM     15  C   UNL     1      -3.417   3.068   9.337  1.00  0.00    -0.000 C 
BRANCH  15  16
ATOM     16  C   UNL     1      -4.500   2.111   9.878  1.00  0.00    -0.000 C 
BRANCH  16  17
ATOM     17  C   UNL     1      -4.590   0.784   9.104  1.00  0.00    -0.000 C 
BRANCH  17  18
ATOM     18  C   UNL     1      -6.034   0.280   8.950  1.00  0.00    -0.000 C 
BRANCH  18  19
ATOM     19  C   UNL     1      -7.075   1.351   9.313  1.00  0.00    -0.003 C 
ATOM     20  C   UNL     1      -8.511   0.898   9.052  1.00  0.00     0.004 C 
ENDBRANCH  18  19
ENDBRANCH  17  18
ENDBRANCH  16  17
ENDBRANCH  15  16
ENDBRANCH  14  15
ENDBRANCH  13  14
ENDBRANCH  12  13
ENDBRANCH   1  12
TORSDOF 16
ENDMDL
MODEL 7
REMARK VINA RESULT:    -3.585      6.669     10.262
REMARK INTER + INTRA:          -8.349
REMARK INTER:                  -7.794
REMARK INTRA:                  -0.555
REMARK UNBOUND:                -1.410
REMARK SMILES CCCCCCCCCCCCCCCCCC(=O)[O-]
REMARK SMILES IDX 10 1 11 2 12 3 13 4 14 5 15 6 16 7 17 8 18 9 19 10 20 11
REMARK SMILES IDX 9 12 8 13 7 14 6 15 5 16 4 17 3 18 2 19 1 20
REMARK H PARENT
REMARK Flexibility Score: inf
ROOT
ATOM      1  C   UNL     1      -4.182   1.162   9.035  1.00  0.00     0.000 C 
ENDROOT
BRANCH   1   2
ATOM      2  C   UNL     1      -5.505   0.669   9.632  1.00  0.00     0.000 C 
BRANCH   2   3
ATOM      3  C   UNL     1      -6.561   1.780   9.628  1.00  0.00     0.000 C 
BRANCH   3   4
ATOM      4  C   UNL     1      -7.852   1.305   8.945  1.00  0.00     0.000 C 
BRANCH   4   5
ATOM      5  C   UNL     1      -8.319  -0.072   9.445  1.00  0.00     0.000 C 
BRANCH   5   6
ATOM      6  C   UNL     1      -9.372  -0.762   8.554  1.00  0.00     0.000 C 
BRANCH   6   7
ATOM      7  C   UNL     1      -9.516  -2.276   8.821  1.00  0.00     0.006 C 
BRANCH   7   8
ATOM      8  C   UNL     1      -9.952  -3.048   7.570  1.00  0.00     0.053 C 
BRANCH   8   9
ATOM      9  C   UNL     1      -9.546  -4.484   7.672  1.00  0.00     0.041 C 
ATOM     10  O   UNL     1      -8.882  -4.885   8.664  1.00  0.00    -0.550 OA
ATOM     11  O   UNL     1      -9.861  -5.371   6.651  1.00  0.00    -0.550 OA
ENDBRANCH   8   9
ENDBRANCH   7   8
ENDBRANCH   6   7
ENDBRANCH   5   6
ENDBRANCH   4   5
ENDBRANCH   3   4
ENDBRANCH   2   3
ENDBRANCH   1   2
BRANCH   1  12
ATOM     12  C   UNL     1      -3.362   1.936  10.076  1.00  0.00     0.000 C 
BRANCH  12  13
ATOM     13  C   UNL     1      -3.040   3.352   9.580  1.00  0.00    -0.000 C 
BRANCH  13  14
ATOM     14  C   UNL     1      -1.558   3.531   9.220  1.00  0.00    -0.000 C 
BRANCH  14  15
ATOM     15  C   UNL     1      -0.939   4.788   9.859  1.00  0.00    -0.000 C 
BRANCH  15  16
ATOM     16  C   UNL     1      -1.127   6.040   8.977  1.00  0.00    -0.000 C 
BRANCH  16  17
ATOM     17  C   UNL     1       0.077   6.999   9.006  1.00  0.00    -0.000 C 
BRANCH  17  18
ATOM     18  C   UNL     1      -0.026   8.117   7.957  1.00  0.00    -0.000 C 
BRANCH  18  19
ATOM     19  C   UNL     1       1.268   8.284   7.144  1.00  0.00    -0.003 C 
ATOM     20  C   UNL     1       2.489   8.559   8.020  1.00  0.00     0.004 C 
ENDBRANCH  18  19
ENDBRANCH  17  18
ENDBRANCH  16  17
ENDBRANCH  15  16
ENDBRANCH  14  15
ENDBRANCH  13  14
ENDBRANCH  12  13
ENDBRANCH   1  12
TORSDOF 16
ENDMDL
MODEL 8
REMARK VINA RESULT:    -3.533      1.705      2.504
REMARK INTER + INTRA:          -8.249
REMARK INTER:                  -7.141
REMARK INTRA:                  -1.108
REMARK UNBOUND:                -1.410
REMARK SMILES CCCCCCCCCCCCCCCCCC(=O)[O-]
REMARK SMILES IDX 10 1 11 2 12 3 13 4 14 5 15 6 16 7 17 8 18 9 19 10 20 11
REMARK SMILES IDX 9 12 8 13 7 14 6 15 5 16 4 17 3 18 2 19 1 20
REMARK H PARENT
REMARK Flexibility Score: inf
ROOT
ATOM      1  C   UNL     1      -1.508   5.262   8.742  1.00  0.00     0.000 C 
ENDROOT
BRANCH   1   2
ATOM      2  C   UNL     1      -0.567   5.630   9.894  1.00  0.00     0.000 C 
BRANCH   2   3
ATOM      3  C   UNL     1       0.439   6.704   9.464  1.00  0.00     0.000 C 
BRANCH   3   4
ATOM      4  C   UNL     1      -0.076   7.476   8.240  1.00  0.00     0.000 C 
BRANCH   4   5
ATOM      5  C   UNL     1      -0.416   8.942   8.559  1.00  0.00     0.000 C 
BRANCH   5   6
ATOM      6  C   UNL     1       0.764   9.781   9.087  1.00  0.00     0.000 C 
BRANCH   6   7
ATOM      7  C   UNL     1       2.019   9.722   8.190  1.00  0.00     0.006 C 
BRANCH   7   8
ATOM      8  C   UNL     1       3.245   9.185   8.938  1.00  0.00     0.053 C 
BRANCH   8   9
ATOM      9  C   UNL     1       4.089   8.349   8.029  1.00  0.00     0.041 C 
ATOM     10  O   UNL     1       3.547   7.568   7.203  1.00  0.00    -0.550 OA
ATOM     11  O   UNL     1       5.473   8.396   8.126  1.00  0.00    -0.550 OA
ENDBRANCH   8   9
ENDBRANCH   7   8
ENDBRANCH   6   7
ENDBRANCH   5   6
ENDBRANCH   4   5
ENDBRANCH   3   4
ENDBRANCH   2   3
ENDBRANCH   1   2
BRANCH   1  12
ATOM     12  C   UNL     1      -2.840   4.714   9.272  1.00  0.00     0.000 C 
BRANCH  12  13
ATOM     13  C   UNL     1      -3.890   5.828   9.376  1.00  0.00    -0.000 C 
BRANCH  13  14
ATOM     14  C   UNL     1      -5.014   5.683   8.339  1.00  0.00    -0.000 C 
BRANCH  14  15
ATOM     15  C   UNL     1      -6.378   5.370   8.981  1.00  0.00    -0.000 C 
BRANCH  15  16
ATOM     16  C   UNL     1      -7.546   6.018   8.208  1.00  0.00    -0.000 C 
BRANCH  16  17
ATOM     17  C   UNL     1      -7.141   7.281   7.428  1.00  0.00    -0.000 C 
BRANCH  17  18
ATOM     18  C   UNL     1      -7.325   7.130   5.910  1.00  0.00    -0.000 C 
BRANCH  18  19
ATOM     19  C   UNL     1      -7.974   8.366   5.268  1.00  0.00    -0.003 C 
ATOM     20  C   UNL     1      -9.438   8.545   5.669  1.00  0.00     0.004 C 
ENDBRANCH  18  19
ENDBRANCH  17  18
ENDBRANCH  16  17
ENDBRANCH  15  16
ENDBRANCH  14  15
ENDBRANCH  13  14
ENDBRANCH  12  13
ENDBRANCH   1  12
TORSDOF 16
ENDMDL
MODEL 9
REMARK VINA RESULT:    -3.532      3.816      6.589
REMARK INTER + INTRA:          -8.246
REMARK INTER:                  -6.889
REMARK INTRA:                  -1.357
REMARK UNBOUND:                -1.410
REMARK SMILES CCCCCCCCCCCCCCCCCC(=O)[O-]
REMARK SMILES IDX 10 1 11 2 12 3 13 4 14 5 15 6 16 7 17 8 18 9 19 10 20 11
REMARK SMILES IDX 9 12 8 13 7 14 6 15 5 16 4 17 3 18 2 19 1 20
REMARK H PARENT
REMARK Flexibility Score: inf
ROOT
ATOM      1  C   UNL     1      -1.770   5.183   8.838  1.00  0.00     0.000 C 
ENDROOT
BRANCH   1   2
ATOM      2  C   UNL     1      -2.797   6.036   9.592  1.00  0.00     0.000 C 
BRANCH   2   3
ATOM      3  C   UNL     1      -4.154   5.327   9.670  1.00  0.00     0.000 C 
BRANCH   3   4
ATOM      4  C   UNL     1      -4.994   5.616   8.417  1.00  0.00     0.000 C 
BRANCH   4   5
ATOM      5  C   UNL     1      -6.497   5.738   8.723  1.00  0.00     0.000 C 
BRANCH   5   6
ATOM      6  C   UNL     1      -7.214   6.890   7.992  1.00  0.00     0.000 C 
BRANCH   6   7
ATOM      7  C   UNL     1      -6.795   7.047   6.515  1.00  0.00     0.006 C 
BRANCH   7   8
ATOM      8  C   UNL     1      -7.958   7.501   5.624  1.00  0.00     0.053 C 
BRANCH   8   9
ATOM      9  C   UNL     1      -7.826   8.952   5.288  1.00  0.00     0.041 C 
ATOM     10  O   UNL     1      -7.215   9.729   6.069  1.00  0.00    -0.550 OA
ATOM     11  O   UNL     1      -8.417   9.457   4.137  1.00  0.00    -0.550 OA
ENDBRANCH   8   9
ENDBRANCH   7   8
ENDBRANCH   6   7
ENDBRANCH   5   6
ENDBRANCH   4   5
ENDBRANCH   3   4
ENDBRANCH   2   3
ENDBRANCH   1   2
BRANCH   1  12
ATOM     12  C   UNL     1      -1.307   3.996   9.692  1.00  0.00     0.000 C 
BRANCH  12  13
ATOM     13  C   UNL     1      -1.657   2.662   9.017  1.00  0.00    -0.000 C 
BRANCH  13  14
ATOM     14  C   UNL     1      -2.760   1.894   9.761  1.00  0.00    -0.000 C 
BRANCH  14  15
ATOM     15  C   UNL     1      -4.062   1.789   8.945  1.00  0.00    -0.000 C 
BRANCH  15  16
ATOM     16  C   UNL     1      -5.032   0.742   9.532  1.00  0.00    -0.000 C 
BRANCH  16  17
ATOM     17  C   UNL     1      -6.482   1.244   9.650  1.00  0.00    -0.000 C 
BRANCH  17  18
ATOM     18  C   UNL     1      -7.486   0.351   8.905  1.00  0.00    -0.000 C 
BRANCH  18  19
ATOM     19  C   UNL     1      -8.780   1.094   8.539  1.00  0.00    -0.003 C 
ATOM     20  C   UNL     1      -8.604   2.612   8.505  1.00  0.00     0.004 C 
ENDBRANCH  18  19
ENDBRANCH  17  18
ENDBRANCH  16  17
ENDBRANCH  15  16
ENDBRANCH  14  15
ENDBRANCH  13  14
ENDBRANCH  12  13
ENDBRANCH   1  12
TORSDOF 16
ENDMDL
