MODEL 1
REMARK VINA RESULT:    -4.331      0.000      0.000
REMARK INTER + INTRA:          -5.544
REMARK INTER:                  -5.091
REMARK INTRA:                  -0.453
REMARK UNBOUND:                -0.453
REMARK SMILES C=CC(C)=CCC=C(C)C
REMARK SMILES IDX 5 1 3 2 4 3 6 4 7 5 9 6 8 7 10 8 2 9 1 10
REMARK H PARENT
REMARK Flexibility Score: inf
ROOT
ATOM      1  C   UNL     1      -1.036   1.084  12.542  1.00  0.00    -0.020 C 
ATOM      2  C   UNL     1      -1.387   0.890  13.829  1.00  0.00    -0.055 C 
ATOM      3  C   UNL     1      -1.151   1.939  14.893  1.00  0.00     0.044 C 
ENDROOT
BRANCH   1   4
ATOM      4  C   UNL     1      -0.411   2.340  11.995  1.00  0.00     0.055 C 
BRANCH   4   5
ATOM      5  C   UNL     1      -1.338   3.061  11.046  1.00  0.00    -0.024 C 
ATOM      6  C   UNL     1      -2.177   4.640  12.802  1.00  0.00     0.039 C 
ATOM      7  C   UNL     1      -2.139   4.094  11.394  1.00  0.00    -0.080 C 
ATOM      8  C   UNL     1      -3.025   4.703  10.338  1.00  0.00     0.039 C 
ENDBRANCH   4   5
ENDBRANCH   1   4
BRANCH   2   9
ATOM      9  C   UNL     1      -1.946  -0.436  14.202  1.00  0.00    -0.005 C 
ATOM     10  C   UNL     1      -1.386  -1.597  13.860  1.00  0.00     0.009 C 
ENDBRANCH   2   9
TORSDOF 3
ENDMDL
MODEL 2
REMARK VINA RESULT:    -4.218      0.510      4.704
REMARK INTER + INTRA:          -5.411
REMARK INTER:                  -4.955
REMARK INTRA:                  -0.456
REMARK UNBOUND:                -0.453
REMARK SMILES C=CC(C)=CCC=C(C)C
REMARK SMILES IDX 5 1 3 2 4 3 6 4 7 5 9 6 8 7 10 8 2 9 1 10
REMARK H PARENT
REMARK Flexibility Score: inf
ROOT
ATOM      1  C   UNL     1      -1.391   2.856  11.080  1.00  0.00    -0.020 C 
ATOM      2  C   UNL     1      -2.181   3.904  11.389  1.00  0.00    -0.055 C 
ATOM      3  C   UNL     1      -2.229   4.489  12.784  1.00  0.00     0.044 C 
ENDROOT
BRANCH   1   4
ATOM      4  C   UNL     1      -0.455   2.165  12.036  1.00  0.00     0.055 C 
BRANCH   4   5
ATOM      5  C   UNL     1      -0.984   0.816  12.463  1.00  0.00    -0.024 C 
ATOM      6  C   UNL     1      -1.420   1.549  14.819  1.00  0.00     0.039 C 
ATOM      7  C   UNL     1      -1.418   0.524  13.709  1.00  0.00    -0.080 C 
ATOM      8  C   UNL     1      -1.902  -0.876  13.991  1.00  0.00     0.039 C 
ENDBRANCH   4   5
ENDBRANCH   1   4
BRANCH   2   9
ATOM      9  C   UNL     1      -3.082   4.429  10.330  1.00  0.00    -0.005 C 
ATOM     10  C   UNL     1      -4.269   4.984  10.577  1.00  0.00     0.009 C 
ENDBRANCH   2   9
TORSDOF 3
ENDMDL
MODEL 3
REMARK VINA RESULT:    -4.198      1.186      2.034
REMARK INTER + INTRA:          -5.388
REMARK INTER:                  -4.898
REMARK INTRA:                  -0.490
REMARK UNBOUND:                -0.453
REMARK SMILES C=CC(C)=CCC=C(C)C
REMARK SMILES IDX 5 1 3 2 4 3 6 4 7 5 9 6 8 7 10 8 2 9 1 10
REMARK H PARENT
REMARK Flexibility Score: inf
ROOT
ATOM      1  C   UNL     1      -1.071   1.668  13.557  1.00  0.00    -0.020 C 
ATOM      2  C   UNL     1      -1.145   0.743  12.579  1.00  0.00    -0.055 C 
ATOM      3  C   UNL     1      -1.123   1.121  11.113  1.00  0.00     0.044 C 
ENDROOT
BRANCH   1   4
ATOM      4  C   UNL     1      -0.929   3.151  13.337  1.00  0.00     0.055 C 
BRANCH   4   5
ATOM      5  C   UNL     1      -2.263   3.857  13.392  1.00  0.00    -0.024 C 
ATOM      6  C   UNL     1      -2.142   4.622  11.009  1.00  0.00     0.039 C 
ATOM      7  C   UNL     1      -2.819   4.524  12.356  1.00  0.00    -0.080 C 
ATOM      8  C   UNL     1      -4.152   5.196  12.567  1.00  0.00     0.039 C 
ENDBRANCH   4   5
ENDBRANCH   1   4
BRANCH   2   9
ATOM      9  C   UNL     1      -1.336  -0.675  12.979  1.00  0.00    -0.005 C 
ATOM     10  C   UNL     1      -1.598  -1.062  14.228  1.00  0.00     0.009 C 
ENDBRANCH   2   9
TORSDOF 3
ENDMDL
MODEL 4
REMARK VINA RESULT:    -4.138      1.277      4.940
REMARK INTER + INTRA:          -5.317
REMARK INTER:                  -4.868
REMARK INTRA:                  -0.449
REMARK UNBOUND:                -0.453
REMARK SMILES C=CC(C)=CCC=C(C)C
REMARK SMILES IDX 5 1 3 2 4 3 6 4 7 5 9 6 8 7 10 8 2 9 1 10
REMARK H PARENT
REMARK Flexibility Score: inf
ROOT
ATOM      1  C   UNL     1      -2.086   3.765  13.522  1.00  0.00    -0.020 C 
ATOM      2  C   UNL     1      -2.646   4.297  12.417  1.00  0.00    -0.055 C 
ATOM      3  C   UNL     1      -2.090   4.041  11.033  1.00  0.00     0.044 C 
ENDROOT
BRANCH   1   4
ATOM      4  C   UNL     1      -0.892   2.848  13.532  1.00  0.00     0.055 C 
BRANCH   4   5
ATOM      5  C   UNL     1      -1.232   1.488  14.094  1.00  0.00    -0.024 C 
ATOM      6  C   UNL     1      -1.221   0.375  11.849  1.00  0.00     0.039 C 
ATOM      7  C   UNL     1      -1.386   0.369  13.350  1.00  0.00    -0.080 C 
ATOM      8  C   UNL     1      -1.744  -0.916  14.052  1.00  0.00     0.039 C 
ENDBRANCH   4   5
ENDBRANCH   1   4
BRANCH   2   9
ATOM      9  C   UNL     1      -3.793   5.225  12.600  1.00  0.00    -0.005 C 
ATOM     10  C   UNL     1      -4.943   5.118  11.934  1.00  0.00     0.009 C 
ENDBRANCH   2   9
TORSDOF 3
ENDMDL
MODEL 5
REMARK VINA RESULT:    -4.007      1.821      2.971
REMARK INTER + INTRA:          -5.163
REMARK INTER:                  -4.703
REMARK INTRA:                  -0.459
REMARK UNBOUND:                -0.453
REMARK SMILES C=CC(C)=CCC=C(C)C
REMARK SMILES IDX 5 1 3 2 4 3 6 4 7 5 9 6 8 7 10 8 2 9 1 10
REMARK H PARENT
REMARK Flexibility Score: inf
ROOT
ATOM      1  C   UNL     1      -2.236   1.852  14.594  1.00  0.00    -0.020 C 
ATOM      2  C   UNL     1      -1.683   0.857  13.873  1.00  0.00    -0.055 C 
ATOM      3  C   UNL     1      -1.084   1.095  12.504  1.00  0.00     0.044 C 
ENDROOT
BRANCH   1   4
ATOM      4  C   UNL     1      -2.305   3.295  14.169  1.00  0.00     0.055 C 
BRANCH   4   5
ATOM      5  C   UNL     1      -1.202   4.117  14.793  1.00  0.00    -0.024 C 
ATOM      6  C   UNL     1      -0.207   4.760  12.585  1.00  0.00     0.039 C 
ATOM      7  C   UNL     1      -0.252   4.779  14.095  1.00  0.00    -0.080 C 
ATOM      8  C   UNL     1       0.797   5.545  14.859  1.00  0.00     0.039 C 
ENDBRANCH   4   5
ENDBRANCH   1   4
BRANCH   2   9
ATOM      9  C   UNL     1      -1.750  -0.521  14.428  1.00  0.00    -0.005 C 
ATOM     10  C   UNL     1      -1.372  -1.608  13.755  1.00  0.00     0.009 C 
ENDBRANCH   2   9
TORSDOF 3
ENDMDL
MODEL 6
REMARK VINA RESULT:    -3.998      1.617      2.757
REMARK INTER + INTRA:          -5.152
REMARK INTER:                  -4.692
REMARK INTRA:                  -0.459
REMARK UNBOUND:                -0.453
REMARK SMILES C=CC(C)=CCC=C(C)C
REMARK SMILES IDX 5 1 3 2 4 3 6 4 7 5 9 6 8 7 10 8 2 9 1 10
REMARK H PARENT
REMARK Flexibility Score: inf
ROOT
ATOM      1  C   UNL     1      -1.646   3.274  10.746  1.00  0.00    -0.020 C 
ATOM      2  C   UNL     1      -1.422   2.480  11.812  1.00  0.00    -0.055 C 
ATOM      3  C   UNL     1      -1.635   2.962  13.231  1.00  0.00     0.044 C 
ENDROOT
BRANCH   1   4
ATOM      4  C   UNL     1      -2.153   4.690  10.813  1.00  0.00     0.055 C 
BRANCH   4   5
ATOM      5  C   UNL     1      -3.564   4.807  10.286  1.00  0.00    -0.024 C 
ATOM      6  C   UNL     1      -4.543   5.283  12.542  1.00  0.00     0.039 C 
ATOM      7  C   UNL     1      -4.647   5.071  11.050  1.00  0.00    -0.080 C 
ATOM      8  C   UNL     1      -5.997   5.140  10.384  1.00  0.00     0.039 C 
ENDBRANCH   4   5
ENDBRANCH   1   4
BRANCH   2   9
ATOM      9  C   UNL     1      -0.871   1.122  11.562  1.00  0.00    -0.005 C 
ATOM     10  C   UNL     1      -1.302   0.023  12.182  1.00  0.00     0.009 C 
ENDBRANCH   2   9
TORSDOF 3
ENDMDL
MODEL 7
REMARK VINA RESULT:    -3.982      1.399      4.757
REMARK INTER + INTRA:          -5.133
REMARK INTER:                  -4.667
REMARK INTRA:                  -0.467
REMARK UNBOUND:                -0.453
REMARK SMILES C=CC(C)=CCC=C(C)C
REMARK SMILES IDX 5 1 3 2 4 3 6 4 7 5 9 6 8 7 10 8 2 9 1 10
REMARK H PARENT
REMARK Flexibility Score: inf
ROOT
ATOM      1  C   UNL     1      -2.375   4.296  10.612  1.00  0.00    -0.020 C 
ATOM      2  C   UNL     1      -3.017   4.967  11.589  1.00  0.00    -0.055 C 
ATOM      3  C   UNL     1      -2.501   5.002  13.012  1.00  0.00     0.044 C 
ENDROOT
BRANCH   1   4
ATOM      4  C   UNL     1      -1.084   3.541  10.784  1.00  0.00     0.055 C 
BRANCH   4   5
ATOM      5  C   UNL     1      -1.321   2.064  10.997  1.00  0.00    -0.024 C 
ATOM      6  C   UNL     1      -0.295   2.061  13.283  1.00  0.00     0.039 C 
ATOM      7  C   UNL     1      -0.970   1.386  12.112  1.00  0.00    -0.080 C 
ATOM      8  C   UNL     1      -1.256  -0.093  12.172  1.00  0.00     0.039 C 
ENDBRANCH   4   5
ENDBRANCH   1   4
BRANCH   2   9
ATOM      9  C   UNL     1      -4.312   5.614  11.251  1.00  0.00    -0.005 C 
ATOM     10  C   UNL     1      -5.500   5.103  11.574  1.00  0.00     0.009 C 
ENDBRANCH   2   9
TORSDOF 3
ENDMDL
MODEL 8
REMARK VINA RESULT:    -3.973      1.717      4.850
REMARK INTER + INTRA:          -5.122
REMARK INTER:                  -4.710
REMARK INTRA:                  -0.412
REMARK UNBOUND:                -0.453
REMARK SMILES C=CC(C)=CCC=C(C)C
REMARK SMILES IDX 5 1 3 2 4 3 6 4 7 5 9 6 8 7 10 8 2 9 1 10
REMARK H PARENT
REMARK Flexibility Score: inf
ROOT
ATOM      1  C   UNL     1      -1.808   2.873  14.946  1.00  0.00    -0.020 C 
ATOM      2  C   UNL     1      -1.412   3.958  14.251  1.00  0.00    -0.055 C 
ATOM      3  C   UNL     1      -1.997   4.301  12.898  1.00  0.00     0.044 C 
ENDROOT
BRANCH   1   4
ATOM      4  C   UNL     1      -2.873   1.904  14.507  1.00  0.00     0.055 C 
BRANCH   4   5
ATOM      5  C   UNL     1      -2.400   0.472  14.595  1.00  0.00    -0.024 C 
ATOM      6  C   UNL     1      -1.369   0.499  12.312  1.00  0.00     0.039 C 
ATOM      7  C   UNL     1      -1.726  -0.173  13.617  1.00  0.00    -0.080 C 
ATOM      8  C   UNL     1      -1.334  -1.611  13.842  1.00  0.00     0.039 C 
ENDBRANCH   4   5
ENDBRANCH   1   4
BRANCH   2   9
ATOM      9  C   UNL     1      -0.307   4.777  14.814  1.00  0.00    -0.005 C 
ATOM     10  C   UNL     1       0.935   4.777  14.330  1.00  0.00     0.009 C 
ENDBRANCH   2   9
TORSDOF 3
ENDMDL
