MODEL 1
REMARK VINA RESULT:    -6.232      0.000      0.000
REMARK INTER + INTRA:          -7.644
REMARK INTER:                  -7.325
REMARK INTRA:                  -0.320
REMARK UNBOUND:                -0.320
REMARK SMILES O=c1c(O)c(-c2ccc(O)c(O)c2)oc2cc(O)ccc12
REMARK SMILES IDX 5 1 3 2 2 3 1 4 21 5 15 6 14 7 16 8 17 9 19 10 20 11 6 12
REMARK SMILES IDX 7 13 8 14 9 15 13 16 11 17 10 18 12 20 4 22 18 24
REMARK H PARENT 10 19 12 21 4 23 18 25
REMARK Flexibility Score: inf
ROOT
ATOM      1  C   UNL     1      25.749   3.491 102.888  1.00  0.00     0.180 A 
ATOM      2  C   UNL     1      26.645   3.991 103.856  1.00  0.00     0.208 A 
ATOM      3  C   UNL     1      27.892   3.365 104.010  1.00  0.00     0.235 A 
ATOM      4  O   UNL     1      28.707   3.786 104.877  1.00  0.00    -0.285 OA
ATOM      5  C   UNL     1      28.223   2.275 103.189  1.00  0.00     0.069 A 
ATOM      6  C   UNL     1      27.281   1.850 102.228  1.00  0.00     0.142 A 
ATOM      7  O   UNL     1      26.108   2.466 102.120  1.00  0.00    -0.452 OA
ATOM      8  C   UNL     1      27.578   0.775 101.384  1.00  0.00     0.094 A 
ATOM      9  C   UNL     1      28.807   0.114 101.489  1.00  0.00     0.119 A 
ATOM     10  C   UNL     1      29.744   0.532 102.443  1.00  0.00     0.047 A 
ATOM     11  C   UNL     1      29.458   1.607 103.290  1.00  0.00     0.020 A 
ENDROOT
BRANCH   1  12
ATOM     12  C   UNL     1      24.409   4.085 102.676  1.00  0.00     0.025 A 
ATOM     13  C   UNL     1      23.274   3.582 103.336  1.00  0.00     0.016 A 
ATOM     14  C   UNL     1      22.015   4.143 103.103  1.00  0.00     0.051 A 
ATOM     15  C   UNL     1      21.870   5.203 102.198  1.00  0.00     0.157 A 
ATOM     16  C   UNL     1      24.255   5.133 101.756  1.00  0.00     0.062 A 
ATOM     17  C   UNL     1      22.996   5.698 101.520  1.00  0.00     0.158 A 
BRANCH  15  18
ATOM     18  O   UNL     1      20.613   5.761 101.970  1.00  0.00    -0.504 OA
ATOM     19  H   UNL     1      20.166   6.359 102.654  1.00  0.00     0.293 HD
ENDBRANCH  15  18
BRANCH  17  20
ATOM     20  O   UNL     1      22.884   6.747 100.608  1.00  0.00    -0.504 OA
ATOM     21  H   UNL     1      22.434   7.623 100.848  1.00  0.00     0.293 HD
ENDBRANCH  17  20
ENDBRANCH   1  12
BRANCH   2  22
ATOM     22  O   UNL     1      26.307   5.107 104.625  1.00  0.00    -0.502 OA
ATOM     23  H   UNL     1      26.863   5.408 105.416  1.00  0.00     0.293 HD
ENDBRANCH   2  22
BRANCH   9  24
ATOM     24  O   UNL     1      29.085  -0.955 100.641  1.00  0.00    -0.508 OA
ATOM     25  H   UNL     1      29.502  -0.813  99.729  1.00  0.00     0.293 HD
ENDBRANCH   9  24
TORSDOF 5
ENDMDL
MODEL 2
REMARK VINA RESULT:    -6.198      2.095      3.447
REMARK INTER + INTRA:          -7.604
REMARK INTER:                  -7.401
REMARK INTRA:                  -0.203
REMARK UNBOUND:                -0.320
REMARK SMILES O=c1c(O)c(-c2ccc(O)c(O)c2)oc2cc(O)ccc12
REMARK SMILES IDX 5 1 3 2 2 3 1 4 21 5 15 6 14 7 16 8 17 9 19 10 20 11 6 12
REMARK SMILES IDX 7 13 8 14 9 15 13 16 11 17 10 18 12 20 4 22 18 24
REMARK H PARENT 10 19 12 21 4 23 18 25
REMARK Flexibility Score: inf
ROOT
ATOM      1  C   UNL     1      23.861   2.631 102.934  1.00  0.00     0.180 A 
ATOM      2  C   UNL     1      23.574   1.252 102.873  1.00  0.00     0.208 A 
ATOM      3  C   UNL     1      24.641   0.341 102.830  1.00  0.00     0.235 A 
ATOM      4  O   UNL     1      24.411  -0.899 102.763  1.00  0.00    -0.285 OA
ATOM      5  C   UNL     1      25.960   0.819 102.870  1.00  0.00     0.069 A 
ATOM      6  C   UNL     1      26.163   2.213 102.956  1.00  0.00     0.142 A 
ATOM      7  O   UNL     1      25.126   3.043 102.986  1.00  0.00    -0.452 OA
ATOM      8  C   UNL     1      27.463   2.730 103.008  1.00  0.00     0.094 A 
ATOM      9  C   UNL     1      28.565   1.869 102.973  1.00  0.00     0.119 A 
ATOM     10  C   UNL     1      28.367   0.485 102.886  1.00  0.00     0.047 A 
ATOM     11  C   UNL     1      27.073  -0.041 102.835  1.00  0.00     0.020 A 
ENDROOT
BRANCH   1  12
ATOM     12  C   UNL     1      22.793   3.656 102.964  1.00  0.00     0.025 A 
ATOM     13  C   UNL     1      22.592   4.535 101.885  1.00  0.00     0.016 A 
ATOM     14  C   UNL     1      21.593   5.510 101.945  1.00  0.00     0.051 A 
ATOM     15  C   UNL     1      20.790   5.631 103.087  1.00  0.00     0.157 A 
ATOM     16  C   UNL     1      22.000   3.795 104.114  1.00  0.00     0.062 A 
ATOM     17  C   UNL     1      20.998   4.770 104.178  1.00  0.00     0.158 A 
BRANCH  15  18
ATOM     18  O   UNL     1      19.793   6.604 103.143  1.00  0.00    -0.504 OA
ATOM     19  H   UNL     1      19.896   7.496 102.675  1.00  0.00     0.293 HD
ENDBRANCH  15  18
BRANCH  17  20
ATOM     20  O   UNL     1      20.221   4.868 105.332  1.00  0.00    -0.504 OA
ATOM     21  H   UNL     1      19.239   4.618 105.343  1.00  0.00     0.293 HD
ENDBRANCH  17  20
ENDBRANCH   1  12
BRANCH   2  22
ATOM     22  O   UNL     1      22.252   0.802 102.884  1.00  0.00    -0.502 OA
ATOM     23  H   UNL     1      21.684   0.808 103.722  1.00  0.00     0.293 HD
ENDBRANCH   2  22
BRANCH   9  24
ATOM     24  O   UNL     1      29.852   2.400 103.025  1.00  0.00    -0.508 OA
ATOM     25  H   UNL     1      30.621   1.973 102.523  1.00  0.00     0.293 HD
ENDBRANCH   9  24
TORSDOF 5
ENDMDL
MODEL 3
REMARK VINA RESULT:    -6.193      3.946      5.242
REMARK INTER + INTRA:          -7.598
REMARK INTER:                  -7.276
REMARK INTRA:                  -0.322
REMARK UNBOUND:                -0.320
REMARK SMILES O=c1c(O)c(-c2ccc(O)c(O)c2)oc2cc(O)ccc12
REMARK SMILES IDX 5 1 3 2 2 3 1 4 21 5 15 6 14 7 16 8 17 9 19 10 20 11 6 12
REMARK SMILES IDX 7 13 8 14 9 15 13 16 11 17 10 18 12 20 4 22 18 24
REMARK H PARENT 10 19 12 21 4 23 18 25
REMARK Flexibility Score: inf
ROOT
ATOM      1  C   UNL     1      22.970   0.566 103.035  1.00  0.00     0.180 A 
ATOM      2  C   UNL     1      22.450  -0.214 101.982  1.00  0.00     0.208 A 
ATOM      3  C   UNL     1      23.050  -1.451 101.697  1.00  0.00     0.235 A 
ATOM      4  O   UNL     1      22.611  -2.164 100.752  1.00  0.00    -0.285 OA
ATOM      5  C   UNL     1      24.134  -1.888 102.476  1.00  0.00     0.069 A 
ATOM      6  C   UNL     1      24.579  -1.060 103.527  1.00  0.00     0.142 A 
ATOM      7  O   UNL     1      23.989   0.108 103.759  1.00  0.00    -0.452 OA
ATOM      8  C   UNL     1      25.650  -1.464 104.332  1.00  0.00     0.094 A 
ATOM      9  C   UNL     1      26.284  -2.689 104.099  1.00  0.00     0.119 A 
ATOM     10  C   UNL     1      25.845  -3.514 103.055  1.00  0.00     0.047 A 
ATOM     11  C   UNL     1      24.776  -3.119 102.246  1.00  0.00     0.020 A 
ENDROOT
BRANCH   1  12
ATOM     12  C   UNL     1      22.405   1.889 103.386  1.00  0.00     0.025 A 
ATOM     13  C   UNL     1      22.914   3.074 102.824  1.00  0.00     0.016 A 
ATOM     14  C   UNL     1      22.380   4.314 103.188  1.00  0.00     0.051 A 
ATOM     15  C   UNL     1      21.343   4.389 104.127  1.00  0.00     0.157 A 
ATOM     16  C   UNL     1      21.380   1.972 104.341  1.00  0.00     0.062 A 
ATOM     17  C   UNL     1      20.843   3.211 104.708  1.00  0.00     0.158 A 
BRANCH  15  18
ATOM     18  O   UNL     1      20.812   5.627 104.486  1.00  0.00    -0.504 OA
ATOM     19  H   UNL     1      21.361   6.476 104.429  1.00  0.00     0.293 HD
ENDBRANCH  15  18
BRANCH  17  20
ATOM     20  O   UNL     1      19.816   3.253 105.650  1.00  0.00    -0.504 OA
ATOM     21  H   UNL     1      19.969   3.571 106.600  1.00  0.00     0.293 HD
ENDBRANCH  17  20
ENDBRANCH   1  12
BRANCH   2  22
ATOM     22  O   UNL     1      21.340   0.224 101.255  1.00  0.00    -0.502 OA
ATOM     23  H   UNL     1      20.916   1.131 101.409  1.00  0.00     0.293 HD
ENDBRANCH   2  22
BRANCH   9  24
ATOM     24  O   UNL     1      27.348  -3.076 104.910  1.00  0.00    -0.508 OA
ATOM     25  H   UNL     1      27.209  -3.670 105.719  1.00  0.00     0.293 HD
ENDBRANCH   9  24
TORSDOF 5
ENDMDL
MODEL 4
REMARK VINA RESULT:    -6.156      2.607      3.320
REMARK INTER + INTRA:          -7.556
REMARK INTER:                  -7.377
REMARK INTRA:                  -0.179
REMARK UNBOUND:                -0.320
REMARK SMILES O=c1c(O)c(-c2ccc(O)c(O)c2)oc2cc(O)ccc12
REMARK SMILES IDX 5 1 3 2 2 3 1 4 21 5 15 6 14 7 16 8 17 9 19 10 20 11 6 12
REMARK SMILES IDX 7 13 8 14 9 15 13 16 11 17 10 18 12 20 4 22 18 24
REMARK H PARENT 10 19 12 21 4 23 18 25
REMARK Flexibility Score: inf
ROOT
ATOM      1  C   UNL     1      23.888   2.596 102.955  1.00  0.00     0.180 A 
ATOM      2  C   UNL     1      25.256   2.936 102.941  1.00  0.00     0.208 A 
ATOM      3  C   UNL     1      26.209   1.905 102.937  1.00  0.00     0.235 A 
ATOM      4  O   UNL     1      27.440   2.183 102.936  1.00  0.00    -0.285 OA
ATOM      5  C   UNL     1      25.780   0.568 102.927  1.00  0.00     0.069 A 
ATOM      6  C   UNL     1      24.392   0.311 102.917  1.00  0.00     0.142 A 
ATOM      7  O   UNL     1      23.523   1.316 102.930  1.00  0.00    -0.452 OA
ATOM      8  C   UNL     1      23.925  -1.007 102.897  1.00  0.00     0.094 A 
ATOM      9  C   UNL     1      24.828  -2.076 102.887  1.00  0.00     0.119 A 
ATOM     10  C   UNL     1      26.206  -1.824 102.899  1.00  0.00     0.047 A 
ATOM     11  C   UNL     1      26.683  -0.511 102.918  1.00  0.00     0.020 A 
ENDROOT
BRANCH   1  12
ATOM     12  C   UNL     1      22.822   3.624 102.978  1.00  0.00     0.025 A 
ATOM     13  C   UNL     1      22.616   4.488 101.888  1.00  0.00     0.016 A 
ATOM     14  C   UNL     1      21.620   5.466 101.941  1.00  0.00     0.051 A 
ATOM     15  C   UNL     1      20.825   5.606 103.087  1.00  0.00     0.157 A 
ATOM     16  C   UNL     1      22.037   3.781 104.131  1.00  0.00     0.062 A 
ATOM     17  C   UNL     1      21.038   4.759 104.188  1.00  0.00     0.158 A 
BRANCH  15  18
ATOM     18  O   UNL     1      19.831   6.582 103.136  1.00  0.00    -0.504 OA
ATOM     19  H   UNL     1      19.789   7.330 102.454  1.00  0.00     0.293 HD
ENDBRANCH  15  18
BRANCH  17  20
ATOM     20  O   UNL     1      20.270   4.876 105.346  1.00  0.00    -0.504 OA
ATOM     21  H   UNL     1      20.518   5.513 106.094  1.00  0.00     0.293 HD
ENDBRANCH  17  20
ENDBRANCH   1  12
BRANCH   2  22
ATOM     22  O   UNL     1      25.653   4.275 102.902  1.00  0.00    -0.502 OA
ATOM     23  H   UNL     1      26.011   4.757 103.717  1.00  0.00     0.293 HD
ENDBRANCH   2  22
BRANCH   9  24
ATOM     24  O   UNL     1      24.345  -3.382 102.868  1.00  0.00    -0.508 OA
ATOM     25  H   UNL     1      23.497  -3.640 103.359  1.00  0.00     0.293 HD
ENDBRANCH   9  24
TORSDOF 5
ENDMDL
MODEL 5
REMARK VINA RESULT:    -5.652      9.221     10.410
REMARK INTER + INTRA:          -6.963
REMARK INTER:                  -6.953
REMARK INTRA:                  -0.010
REMARK UNBOUND:                -0.320
REMARK SMILES O=c1c(O)c(-c2ccc(O)c(O)c2)oc2cc(O)ccc12
REMARK SMILES IDX 5 1 3 2 2 3 1 4 21 5 15 6 14 7 16 8 17 9 19 10 20 11 6 12
REMARK SMILES IDX 7 13 8 14 9 15 13 16 11 17 10 18 12 20 4 22 18 24
REMARK H PARENT 10 19 12 21 4 23 18 25
REMARK Flexibility Score: inf
ROOT
ATOM      1  C   UNL     1      22.593  -5.672 102.629  1.00  0.00     0.180 A 
ATOM      2  C   UNL     1      23.992  -5.835 102.692  1.00  0.00     0.208 A 
ATOM      3  C   UNL     1      24.597  -6.000 103.949  1.00  0.00     0.235 A 
ATOM      4  O   UNL     1      25.849  -6.136 104.034  1.00  0.00    -0.285 OA
ATOM      5  C   UNL     1      23.797  -6.018 105.103  1.00  0.00     0.069 A 
ATOM      6  C   UNL     1      22.402  -5.872 104.952  1.00  0.00     0.142 A 
ATOM      7  O   UNL     1      21.870  -5.710 103.745  1.00  0.00    -0.452 OA
ATOM      8  C   UNL     1      21.570  -5.895 106.077  1.00  0.00     0.094 A 
ATOM      9  C   UNL     1      22.116  -6.061 107.354  1.00  0.00     0.119 A 
ATOM     10  C   UNL     1      23.501  -6.204 107.508  1.00  0.00     0.047 A 
ATOM     11  C   UNL     1      24.341  -6.184 106.390  1.00  0.00     0.020 A 
ENDROOT
BRANCH   1  12
ATOM     12  C   UNL     1      21.882  -5.475 101.345  1.00  0.00     0.025 A 
ATOM     13  C   UNL     1      22.068  -6.355 100.263  1.00  0.00     0.016 A 
ATOM     14  C   UNL     1      21.405  -6.136  99.053  1.00  0.00     0.051 A 
ATOM     15  C   UNL     1      20.559  -5.029  98.900  1.00  0.00     0.157 A 
ATOM     16  C   UNL     1      21.050  -4.357 101.179  1.00  0.00     0.062 A 
ATOM     17  C   UNL     1      20.383  -4.134  99.969  1.00  0.00     0.158 A 
BRANCH  15  18
ATOM     18  O   UNL     1      19.897  -4.816  97.691  1.00  0.00    -0.504 OA
ATOM     19  H   UNL     1      19.645  -5.584  97.081  1.00  0.00     0.293 HD
ENDBRANCH  15  18
BRANCH  17  20
ATOM     20  O   UNL     1      19.554  -3.020  99.846  1.00  0.00    -0.504 OA
ATOM     21  H   UNL     1      19.831  -2.198  99.323  1.00  0.00     0.293 HD
ENDBRANCH  17  20
ENDBRANCH   1  12
BRANCH   2  22
ATOM     22  O   UNL     1      24.757  -5.861 101.524  1.00  0.00    -0.502 OA
ATOM     23  H   UNL     1      24.903  -5.037 100.954  1.00  0.00     0.293 HD
ENDBRANCH   2  22
BRANCH   9  24
ATOM     24  O   UNL     1      21.273  -6.081 108.463  1.00  0.00    -0.508 OA
ATOM     25  H   UNL     1      21.437  -6.708 109.242  1.00  0.00     0.293 HD
ENDBRANCH   9  24
TORSDOF 5
ENDMDL
MODEL 6
REMARK VINA RESULT:    -5.539      6.056      7.211
REMARK INTER + INTRA:          -6.830
REMARK INTER:                  -6.526
REMARK INTRA:                  -0.304
REMARK UNBOUND:                -0.320
REMARK SMILES O=c1c(O)c(-c2ccc(O)c(O)c2)oc2cc(O)ccc12
REMARK SMILES IDX 5 1 3 2 2 3 1 4 21 5 15 6 14 7 16 8 17 9 19 10 20 11 6 12
REMARK SMILES IDX 7 13 8 14 9 15 13 16 11 17 10 18 12 20 4 22 18 24
REMARK H PARENT 10 19 12 21 4 23 18 25
REMARK Flexibility Score: inf
ROOT
ATOM      1  C   UNL     1      31.108   1.987 104.190  1.00  0.00     0.180 A 
ATOM      2  C   UNL     1      31.565   3.225 104.687  1.00  0.00     0.208 A 
ATOM      3  C   UNL     1      32.074   4.170 103.781  1.00  0.00     0.235 A 
ATOM      4  O   UNL     1      32.500   5.281 104.202  1.00  0.00    -0.285 OA
ATOM      5  C   UNL     1      32.096   3.871 102.410  1.00  0.00     0.069 A 
ATOM      6  C   UNL     1      31.597   2.619 101.991  1.00  0.00     0.142 A 
ATOM      7  O   UNL     1      31.132   1.749 102.881  1.00  0.00    -0.452 OA
ATOM      8  C   UNL     1      31.592   2.287 100.632  1.00  0.00     0.094 A 
ATOM      9  C   UNL     1      32.082   3.191  99.683  1.00  0.00     0.119 A 
ATOM     10  C   UNL     1      32.579   4.434 100.096  1.00  0.00     0.047 A 
ATOM     11  C   UNL     1      32.587   4.776 101.451  1.00  0.00     0.020 A 
ENDROOT
BRANCH   1  12
ATOM     12  C   UNL     1      30.574   0.932 105.081  1.00  0.00     0.025 A 
ATOM     13  C   UNL     1      31.378  -0.141 105.507  1.00  0.00     0.016 A 
ATOM     14  C   UNL     1      30.847  -1.139 106.329  1.00  0.00     0.051 A 
ATOM     15  C   UNL     1      29.503  -1.088 106.725  1.00  0.00     0.157 A 
ATOM     16  C   UNL     1      29.225   0.967 105.464  1.00  0.00     0.062 A 
ATOM     17  C   UNL     1      28.688  -0.030 106.287  1.00  0.00     0.158 A 
BRANCH  15  18
ATOM     18  O   UNL     1      28.977  -2.084 107.546  1.00  0.00    -0.504 OA
ATOM     19  H   UNL     1      28.578  -1.868 108.452  1.00  0.00     0.293 HD
ENDBRANCH  15  18
BRANCH  17  20
ATOM     20  O   UNL     1      27.347   0.046 106.658  1.00  0.00    -0.504 OA
ATOM     21  H   UNL     1      26.605   0.154 105.977  1.00  0.00     0.293 HD
ENDBRANCH  17  20
ENDBRANCH   1  12
BRANCH   2  22
ATOM     22  O   UNL     1      31.487   3.515 106.051  1.00  0.00    -0.502 OA
ATOM     23  H   UNL     1      32.258   3.924 106.563  1.00  0.00     0.293 HD
ENDBRANCH   2  22
BRANCH   9  24
ATOM     24  O   UNL     1      32.070   2.844  98.334  1.00  0.00    -0.508 OA
ATOM     25  H   UNL     1      32.536   3.412  97.637  1.00  0.00     0.293 HD
ENDBRANCH   9  24
TORSDOF 5
ENDMDL
MODEL 7
REMARK VINA RESULT:    -5.514      7.269      9.906
REMARK INTER + INTRA:          -6.801
REMARK INTER:                  -6.479
REMARK INTRA:                  -0.322
REMARK UNBOUND:                -0.320
REMARK SMILES O=c1c(O)c(-c2ccc(O)c(O)c2)oc2cc(O)ccc12
REMARK SMILES IDX 5 1 3 2 2 3 1 4 21 5 15 6 14 7 16 8 17 9 19 10 20 11 6 12
REMARK SMILES IDX 7 13 8 14 9 15 13 16 11 17 10 18 12 20 4 22 18 24
REMARK H PARENT 10 19 12 21 4 23 18 25
REMARK Flexibility Score: inf
ROOT
ATOM      1  C   UNL     1      24.197  -4.776 101.274  1.00  0.00     0.180 A 
ATOM      2  C   UNL     1      22.934  -5.278 100.898  1.00  0.00     0.208 A 
ATOM      3  C   UNL     1      22.112  -5.847 101.885  1.00  0.00     0.235 A 
ATOM      4  O   UNL     1      20.982  -6.314 101.572  1.00  0.00    -0.285 OA
ATOM      5  C   UNL     1      22.555  -5.883 103.216  1.00  0.00     0.069 A 
ATOM      6  C   UNL     1      23.822  -5.337 103.515  1.00  0.00     0.142 A 
ATOM      7  O   UNL     1      24.573  -4.816 102.550  1.00  0.00    -0.452 OA
ATOM      8  C   UNL     1      24.296  -5.346 104.831  1.00  0.00     0.094 A 
ATOM      9  C   UNL     1      23.518  -5.894 105.857  1.00  0.00     0.119 A 
ATOM     10  C   UNL     1      22.261  -6.438 105.564  1.00  0.00     0.047 A 
ATOM     11  C   UNL     1      21.778  -6.434 104.252  1.00  0.00     0.020 A 
ENDROOT
BRANCH   1  12
ATOM     12  C   UNL     1      25.130  -4.178 100.291  1.00  0.00     0.025 A 
ATOM     13  C   UNL     1      26.031  -4.973  99.560  1.00  0.00     0.016 A 
ATOM     14  C   UNL     1      26.917  -4.385  98.655  1.00  0.00     0.051 A 
ATOM     15  C   UNL     1      26.928  -2.994  98.477  1.00  0.00     0.157 A 
ATOM     16  C   UNL     1      25.158  -2.785 100.124  1.00  0.00     0.062 A 
ATOM     17  C   UNL     1      26.045  -2.191  99.219  1.00  0.00     0.158 A 
BRANCH  15  18
ATOM     18  O   UNL     1      27.813  -2.411  97.572  1.00  0.00    -0.504 OA
ATOM     19  H   UNL     1      28.629  -1.897  97.884  1.00  0.00     0.293 HD
ENDBRANCH  15  18
BRANCH  17  20
ATOM     20  O   UNL     1      26.035  -0.805  99.070  1.00  0.00    -0.504 OA
ATOM     21  H   UNL     1      26.817  -0.301  98.669  1.00  0.00     0.293 HD
ENDBRANCH  17  20
ENDBRANCH   1  12
BRANCH   2  22
ATOM     22  O   UNL     1      22.499  -5.185  99.574  1.00  0.00    -0.502 OA
ATOM     23  H   UNL     1      22.444  -4.301  99.084  1.00  0.00     0.293 HD
ENDBRANCH   2  22
BRANCH   9  24
ATOM     24  O   UNL     1      24.005  -5.894 107.162  1.00  0.00    -0.508 OA
ATOM     25  H   UNL     1      23.758  -5.164 107.819  1.00  0.00     0.293 HD
ENDBRANCH   9  24
TORSDOF 5
ENDMDL
MODEL 8
REMARK VINA RESULT:    -5.431      6.087      7.466
REMARK INTER + INTRA:          -6.703
REMARK INTER:                  -6.523
REMARK INTRA:                  -0.180
REMARK UNBOUND:                -0.320
REMARK SMILES O=c1c(O)c(-c2ccc(O)c(O)c2)oc2cc(O)ccc12
REMARK SMILES IDX 5 1 3 2 2 3 1 4 21 5 15 6 14 7 16 8 17 9 19 10 20 11 6 12
REMARK SMILES IDX 7 13 8 14 9 15 13 16 11 17 10 18 12 20 4 22 18 24
REMARK H PARENT 10 19 12 21 4 23 18 25
REMARK Flexibility Score: inf
ROOT
ATOM      1  C   UNL     1      32.436   3.703 102.665  1.00  0.00     0.180 A 
ATOM      2  C   UNL     1      32.518   4.290 101.385  1.00  0.00     0.208 A 
ATOM      3  C   UNL     1      32.842   3.475 100.288  1.00  0.00     0.235 A 
ATOM      4  O   UNL     1      32.933   3.978  99.134  1.00  0.00    -0.285 OA
ATOM      5  C   UNL     1      33.056   2.102 100.487  1.00  0.00     0.069 A 
ATOM      6  C   UNL     1      32.931   1.588 101.796  1.00  0.00     0.142 A 
ATOM      7  O   UNL     1      32.630   2.395 102.808  1.00  0.00    -0.452 OA
ATOM      8  C   UNL     1      33.126   0.223 102.034  1.00  0.00     0.094 A 
ATOM      9  C   UNL     1      33.447  -0.638 100.979  1.00  0.00     0.119 A 
ATOM     10  C   UNL     1      33.573  -0.131  99.679  1.00  0.00     0.047 A 
ATOM     11  C   UNL     1      33.379   1.231  99.430  1.00  0.00     0.020 A 
ENDROOT
BRANCH   1  12
ATOM     12  C   UNL     1      32.116   4.497 103.874  1.00  0.00     0.025 A 
ATOM     13  C   UNL     1      33.057   4.670 104.905  1.00  0.00     0.016 A 
ATOM     14  C   UNL     1      32.726   5.403 106.047  1.00  0.00     0.051 A 
ATOM     15  C   UNL     1      31.448   5.962 106.184  1.00  0.00     0.157 A 
ATOM     16  C   UNL     1      30.831   5.041 104.025  1.00  0.00     0.062 A 
ATOM     17  C   UNL     1      30.495   5.777 105.167  1.00  0.00     0.158 A 
BRANCH  15  18
ATOM     18  O   UNL     1      31.121   6.694 107.324  1.00  0.00    -0.504 OA
ATOM     19  H   UNL     1      30.469   7.468 107.289  1.00  0.00     0.293 HD
ENDBRANCH  15  18
BRANCH  17  20
ATOM     20  O   UNL     1      29.213   6.313 105.275  1.00  0.00    -0.504 OA
ATOM     21  H   UNL     1      29.054   7.306 105.401  1.00  0.00     0.293 HD
ENDBRANCH  17  20
ENDBRANCH   1  12
BRANCH   2  22
ATOM     22  O   UNL     1      32.253   5.650 101.210  1.00  0.00    -0.502 OA
ATOM     23  H   UNL     1      32.196   6.295 101.988  1.00  0.00     0.293 HD
ENDBRANCH   2  22
BRANCH   9  24
ATOM     24  O   UNL     1      33.638  -1.994 101.234  1.00  0.00    -0.508 OA
ATOM     25  H   UNL     1      34.247  -2.560 100.655  1.00  0.00     0.293 HD
ENDBRANCH   9  24
TORSDOF 5
ENDMDL
MODEL 9
REMARK VINA RESULT:    -5.429      8.971      9.924
REMARK INTER + INTRA:          -6.701
REMARK INTER:                  -6.507
REMARK INTRA:                  -0.193
REMARK UNBOUND:                -0.320
REMARK SMILES O=c1c(O)c(-c2ccc(O)c(O)c2)oc2cc(O)ccc12
REMARK SMILES IDX 5 1 3 2 2 3 1 4 21 5 15 6 14 7 16 8 17 9 19 10 20 11 6 12
REMARK SMILES IDX 7 13 8 14 9 15 13 16 11 17 10 18 12 20 4 22 18 24
REMARK H PARENT 10 19 12 21 4 23 18 25
REMARK Flexibility Score: inf
ROOT
ATOM      1  C   UNL     1      22.888  -5.939 102.960  1.00  0.00     0.180 A 
ATOM      2  C   UNL     1      22.356  -6.158 104.248  1.00  0.00     0.208 A 
ATOM      3  C   UNL     1      23.227  -6.531 105.284  1.00  0.00     0.235 A 
ATOM      4  O   UNL     1      22.774  -6.744 106.443  1.00  0.00    -0.285 OA
ATOM      5  C   UNL     1      24.600  -6.657 105.021  1.00  0.00     0.069 A 
ATOM      6  C   UNL     1      25.057  -6.396 103.711  1.00  0.00     0.142 A 
ATOM      7  O   UNL     1      24.199  -6.054 102.756  1.00  0.00    -0.452 OA
ATOM      8  C   UNL     1      26.419  -6.501 103.411  1.00  0.00     0.094 A 
ATOM      9  C   UNL     1      27.335  -6.864 104.405  1.00  0.00     0.119 A 
ATOM     10  C   UNL     1      26.885  -7.125 105.705  1.00  0.00     0.047 A 
ATOM     11  C   UNL     1      25.526  -7.022 106.016  1.00  0.00     0.020 A 
ENDROOT
BRANCH   1  12
ATOM     12  C   UNL     1      22.035  -5.561 101.811  1.00  0.00     0.025 A 
ATOM     13  C   UNL     1      21.842  -6.432 100.724  1.00  0.00     0.016 A 
ATOM     14  C   UNL     1      21.051  -6.045  99.639  1.00  0.00     0.051 A 
ATOM     15  C   UNL     1      20.453  -4.778  99.617  1.00  0.00     0.157 A 
ATOM     16  C   UNL     1      21.450  -4.285 101.773  1.00  0.00     0.062 A 
ATOM     17  C   UNL     1      20.657  -3.893 100.689  1.00  0.00     0.158 A 
BRANCH  15  18
ATOM     18  O   UNL     1      19.664  -4.395  98.534  1.00  0.00    -0.504 OA
ATOM     19  H   UNL     1      19.979  -4.515  97.579  1.00  0.00     0.293 HD
ENDBRANCH  15  18
BRANCH  17  20
ATOM     20  O   UNL     1      20.082  -2.623 100.694  1.00  0.00    -0.504 OA
ATOM     21  H   UNL     1      19.187  -2.439 101.131  1.00  0.00     0.293 HD
ENDBRANCH  17  20
ENDBRANCH   1  12
BRANCH   2  22
ATOM     22  O   UNL     1      20.993  -5.978 104.491  1.00  0.00    -0.502 OA
ATOM     23  H   UNL     1      20.421  -6.694 104.922  1.00  0.00     0.293 HD
ENDBRANCH   2  22
BRANCH   9  24
ATOM     24  O   UNL     1      28.687  -6.964 104.088  1.00  0.00    -0.508 OA
ATOM     25  H   UNL     1      29.016  -6.873 103.134  1.00  0.00     0.293 HD
ENDBRANCH   9  24
TORSDOF 5
ENDMDL
