MODEL 1
REMARK VINA RESULT:    -2.953      0.000      0.000
REMARK INTER + INTRA:          -3.525
REMARK INTER:                  -3.470
REMARK INTRA:                  -0.055
REMARK UNBOUND:                -0.055
REMARK SMILES CCCCC(=O)[O-]
REMARK SMILES IDX 4 1 5 2 6 3 7 4 3 5 2 6 1 7
REMARK H PARENT
REMARK Flexibility Score: inf
ROOT
ATOM      1  C   UNL     1       8.433 -29.980  17.631  1.00  0.00     0.053 C 
ENDROOT
BRANCH   1   2
ATOM      2  C   UNL     1       9.323 -28.953  18.262  1.00  0.00     0.041 C 
ATOM      3  O   UNL     1       9.338 -28.809  19.513  1.00  0.00    -0.550 OA
ATOM      4  O   UNL     1      10.159 -28.178  17.470  1.00  0.00    -0.550 OA
ENDBRANCH   1   2
BRANCH   1   5
ATOM      5  C   UNL     1       6.961 -29.765  18.004  1.00  0.00     0.006 C 
BRANCH   5   6
ATOM      6  C   UNL     1       6.042 -29.783  16.774  1.00  0.00    -0.003 C 
ATOM      7  C   UNL     1       6.850 -29.919  15.487  1.00  0.00     0.004 C 
ENDBRANCH   5   6
ENDBRANCH   1   5
TORSDOF 3
ENDMDL
MODEL 2
REMARK VINA RESULT:    -2.802      2.348      2.849
REMARK INTER + INTRA:          -3.348
REMARK INTER:                  -3.329
REMARK INTRA:                  -0.019
REMARK UNBOUND:                -0.055
REMARK SMILES CCCCC(=O)[O-]
REMARK SMILES IDX 4 1 5 2 6 3 7 4 3 5 2 6 1 7
REMARK H PARENT
REMARK Flexibility Score: inf
ROOT
ATOM      1  C   UNL     1       8.146 -29.873  16.647  1.00  0.00     0.053 C 
ENDROOT
BRANCH   1   2
ATOM      2  C   UNL     1       8.198 -29.631  18.124  1.00  0.00     0.041 C 
ATOM      3  O   UNL     1       7.435 -30.268  18.899  1.00  0.00    -0.550 OA
ATOM      4  O   UNL     1       9.111 -28.726  18.649  1.00  0.00    -0.550 OA
ENDBRANCH   1   2
BRANCH   1   5
ATOM      5  C   UNL     1       9.314 -29.195  15.918  1.00  0.00     0.006 C 
BRANCH   5   6
ATOM      6  C   UNL     1       9.373 -29.581  14.432  1.00  0.00    -0.003 C 
ATOM      7  C   UNL     1      10.732 -29.239  13.830  1.00  0.00     0.004 C 
ENDBRANCH   5   6
ENDBRANCH   1   5
TORSDOF 3
ENDMDL
MODEL 3
REMARK VINA RESULT:    -2.765      2.410      2.994
REMARK INTER + INTRA:          -3.304
REMARK INTER:                  -3.288
REMARK INTRA:                  -0.016
REMARK UNBOUND:                -0.055
REMARK SMILES CCCCC(=O)[O-]
REMARK SMILES IDX 4 1 5 2 6 3 7 4 3 5 2 6 1 7
REMARK H PARENT
REMARK Flexibility Score: inf
ROOT
ATOM      1  C   UNL     1       8.485 -30.195  16.813  1.00  0.00     0.053 C 
ENDROOT
BRANCH   1   2
ATOM      2  C   UNL     1       8.039 -29.594  18.111  1.00  0.00     0.041 C 
ATOM      3  O   UNL     1       8.887 -29.149  18.929  1.00  0.00    -0.550 OA
ATOM      4  O   UNL     1       6.685 -29.495  18.401  1.00  0.00    -0.550 OA
ENDBRANCH   1   2
BRANCH   1   5
ATOM      5  C   UNL     1       9.252 -29.183  15.951  1.00  0.00     0.006 C 
BRANCH   5   6
ATOM      6  C   UNL     1       9.420 -29.665  14.502  1.00  0.00    -0.003 C 
ATOM      7  C   UNL     1      10.764 -29.225  13.930  1.00  0.00     0.004 C 
ENDBRANCH   5   6
ENDBRANCH   1   5
TORSDOF 3
ENDMDL
MODEL 4
REMARK VINA RESULT:    -2.745      1.161      1.914
REMARK INTER + INTRA:          -3.281
REMARK INTER:                  -3.169
REMARK INTRA:                  -0.112
REMARK UNBOUND:                -0.055
REMARK SMILES CCCCC(=O)[O-]
REMARK SMILES IDX 4 1 5 2 6 3 7 4 3 5 2 6 1 7
REMARK H PARENT
REMARK Flexibility Score: inf
ROOT
ATOM      1  C   UNL     1       9.162 -29.263  15.970  1.00  0.00     0.053 C 
ENDROOT
BRANCH   1   2
ATOM      2  C   UNL     1       9.668 -28.632  17.231  1.00  0.00     0.041 C 
ATOM      3  O   UNL     1      10.419 -27.621  17.178  1.00  0.00    -0.550 OA
ATOM      4  O   UNL     1       9.285 -29.139  18.465  1.00  0.00    -0.550 OA
ENDBRANCH   1   2
BRANCH   1   5
ATOM      5  C   UNL     1       8.099 -30.331  16.256  1.00  0.00     0.006 C 
BRANCH   5   6
ATOM      6  C   UNL     1       6.678 -29.832  15.950  1.00  0.00    -0.003 C 
ATOM      7  C   UNL     1       5.910 -29.544  17.236  1.00  0.00     0.004 C 
ENDBRANCH   5   6
ENDBRANCH   1   5
TORSDOF 3
ENDMDL
MODEL 5
REMARK VINA RESULT:    -2.721      2.825      3.595
REMARK INTER + INTRA:          -3.253
REMARK INTER:                  -3.218
REMARK INTRA:                  -0.036
REMARK UNBOUND:                -0.055
REMARK SMILES CCCCC(=O)[O-]
REMARK SMILES IDX 4 1 5 2 6 3 7 4 3 5 2 6 1 7
REMARK H PARENT
REMARK Flexibility Score: inf
ROOT
ATOM      1  C   UNL     1       9.315 -29.133  16.090  1.00  0.00     0.053 C 
ENDROOT
BRANCH   1   2
ATOM      2  C   UNL     1       9.451 -29.423  14.626  1.00  0.00     0.041 C 
ATOM      3  O   UNL     1       8.433 -29.692  13.935  1.00  0.00    -0.550 OA
ATOM      4  O   UNL     1      10.698 -29.364  14.019  1.00  0.00    -0.550 OA
ENDBRANCH   1   2
BRANCH   1   5
ATOM      5  C   UNL     1       8.167 -29.930  16.724  1.00  0.00     0.006 C 
BRANCH   5   6
ATOM      6  C   UNL     1       8.051 -29.678  18.234  1.00  0.00    -0.003 C 
ATOM      7  C   UNL     1       9.263 -28.913  18.758  1.00  0.00     0.004 C 
ENDBRANCH   5   6
ENDBRANCH   1   5
TORSDOF 3
ENDMDL
MODEL 6
REMARK VINA RESULT:    -2.692      1.505      2.072
REMARK INTER + INTRA:          -3.219
REMARK INTER:                  -3.145
REMARK INTRA:                  -0.074
REMARK UNBOUND:                -0.055
REMARK SMILES CCCCC(=O)[O-]
REMARK SMILES IDX 4 1 5 2 6 3 7 4 3 5 2 6 1 7
REMARK H PARENT
REMARK Flexibility Score: inf
ROOT
ATOM      1  C   UNL     1       7.404 -30.007  18.300  1.00  0.00     0.053 C 
ENDROOT
BRANCH   1   2
ATOM      2  C   UNL     1       8.727 -29.305  18.280  1.00  0.00     0.041 C 
ATOM      3  O   UNL     1       9.281 -29.027  17.183  1.00  0.00    -0.550 OA
ATOM      4  O   UNL     1       9.332 -28.928  19.471  1.00  0.00    -0.550 OA
ENDBRANCH   1   2
BRANCH   1   5
ATOM      5  C   UNL     1       6.904 -30.322  16.884  1.00  0.00     0.006 C 
BRANCH   5   6
ATOM      6  C   UNL     1       6.597 -31.815  16.696  1.00  0.00    -0.003 C 
ATOM      7  C   UNL     1       7.755 -32.680  17.186  1.00  0.00     0.004 C 
ENDBRANCH   5   6
ENDBRANCH   1   5
TORSDOF 3
ENDMDL
MODEL 7
REMARK VINA RESULT:    -2.660      2.521      3.319
REMARK INTER + INTRA:          -3.181
REMARK INTER:                  -3.143
REMARK INTRA:                  -0.038
REMARK UNBOUND:                -0.055
REMARK SMILES CCCCC(=O)[O-]
REMARK SMILES IDX 4 1 5 2 6 3 7 4 3 5 2 6 1 7
REMARK H PARENT
REMARK Flexibility Score: inf
ROOT
ATOM      1  C   UNL     1       8.597 -29.598  15.988  1.00  0.00     0.053 C 
ENDROOT
BRANCH   1   2
ATOM      2  C   UNL     1       9.193 -29.496  14.618  1.00  0.00     0.041 C 
ATOM      3  O   UNL     1       8.464 -29.620  13.598  1.00  0.00    -0.550 OA
ATOM      4  O   UNL     1      10.548 -29.232  14.467  1.00  0.00    -0.550 OA
ENDBRANCH   1   2
BRANCH   1   5
ATOM      5  C   UNL     1       7.089 -29.875  15.934  1.00  0.00     0.006 C 
BRANCH   5   6
ATOM      6  C   UNL     1       6.489 -30.097  17.331  1.00  0.00    -0.003 C 
ATOM      7  C   UNL     1       7.569 -30.038  18.407  1.00  0.00     0.004 C 
ENDBRANCH   5   6
ENDBRANCH   1   5
TORSDOF 3
ENDMDL
MODEL 8
REMARK VINA RESULT:    -2.654      1.671      2.364
REMARK INTER + INTRA:          -3.174
REMARK INTER:                  -3.155
REMARK INTRA:                  -0.019
REMARK UNBOUND:                -0.055
REMARK SMILES CCCCC(=O)[O-]
REMARK SMILES IDX 4 1 5 2 6 3 7 4 3 5 2 6 1 7
REMARK H PARENT
REMARK Flexibility Score: inf
ROOT
ATOM      1  C   UNL     1       8.906 -29.450  16.529  1.00  0.00     0.053 C 
ENDROOT
BRANCH   1   2
ATOM      2  C   UNL     1       8.490 -29.485  17.968  1.00  0.00     0.041 C 
ATOM      3  O   UNL     1       9.284 -29.099  18.867  1.00  0.00    -0.550 OA
ATOM      4  O   UNL     1       7.215 -29.913  18.313  1.00  0.00    -0.550 OA
ENDBRANCH   1   2
BRANCH   1   5
ATOM      5  C   UNL     1       7.757 -29.854  15.595  1.00  0.00     0.006 C 
BRANCH   5   6
ATOM      6  C   UNL     1       8.198 -29.911  14.124  1.00  0.00    -0.003 C 
ATOM      7  C   UNL     1       6.992 -29.936  13.191  1.00  0.00     0.004 C 
ENDBRANCH   5   6
ENDBRANCH   1   5
TORSDOF 3
ENDMDL
MODEL 9
REMARK VINA RESULT:    -2.649      2.765      3.791
REMARK INTER + INTRA:          -3.168
REMARK INTER:                  -3.082
REMARK INTRA:                  -0.086
REMARK UNBOUND:                -0.055
REMARK SMILES CCCCC(=O)[O-]
REMARK SMILES IDX 4 1 5 2 6 3 7 4 3 5 2 6 1 7
REMARK H PARENT
REMARK Flexibility Score: inf
ROOT
ATOM      1  C   UNL     1       6.162 -29.497  17.063  1.00  0.00     0.053 C 
ENDROOT
BRANCH   1   2
ATOM      2  C   UNL     1       6.385 -30.420  15.905  1.00  0.00     0.041 C 
ATOM      3  O   UNL     1       6.083 -31.640  15.999  1.00  0.00    -0.550 OA
ATOM      4  O   UNL     1       6.897 -29.928  14.712  1.00  0.00    -0.550 OA
ENDBRANCH   1   2
BRANCH   1   5
ATOM      5  C   UNL     1       7.066 -29.845  18.253  1.00  0.00     0.006 C 
BRANCH   5   6
ATOM      6  C   UNL     1       8.557 -29.758  17.893  1.00  0.00    -0.003 C 
ATOM      7  C   UNL     1       9.305 -28.856  18.870  1.00  0.00     0.004 C 
ENDBRANCH   5   6
ENDBRANCH   1   5
TORSDOF 3
ENDMDL
