MODEL 1
REMARK VINA RESULT:    -5.082      0.000      0.000
REMARK INTER + INTRA:          -5.802
REMARK INTER:                  -6.122
REMARK INTRA:                   0.320
REMARK UNBOUND:                 0.320
REMARK SMILES CC[C@@H](C)[C@H]([NH3+])C(=O)[O-]
REMARK SMILES IDX 3 1 4 2 5 3 6 4 7 8 8 9 9 10 2 11 1 12
REMARK H PARENT 6 5 6 6 6 7
REMARK Flexibility Score: inf
ROOT
ATOM      1  C   UNL     1      -8.861  -2.777  63.677  1.00  0.00     0.050 C 
ATOM      2  C   UNL     1      -7.522  -3.528  63.573  1.00  0.00     0.014 C 
ENDROOT
BRANCH   1   3
ATOM      3  C   UNL     1      -8.683  -1.298  63.192  1.00  0.00     0.230 C 
BRANCH   3   4
ATOM      4  N   UNL     1      -7.980  -0.467  64.182  1.00  0.00    -0.350 N 
ATOM      5  H   UNL     1      -8.296   0.526  64.090  1.00  0.00     0.345 HD
ATOM      6  H   UNL     1      -8.164  -0.781  65.158  1.00  0.00     0.345 HD
ATOM      7  H   UNL     1      -6.949  -0.493  64.004  1.00  0.00     0.345 HD
ENDBRANCH   3   4
BRANCH   3   8
ATOM      8  C   UNL     1      -9.979  -0.657  62.755  1.00  0.00     0.099 C 
ATOM      9  O   UNL     1     -10.000   0.183  61.817  1.00  0.00    -0.544 OA
ATOM     10  O   UNL     1     -11.158  -0.968  63.419  1.00  0.00    -0.544 OA
ENDBRANCH   3   8
ENDBRANCH   1   3
BRANCH   1  11
ATOM     11  C   UNL     1      -9.956  -3.603  62.947  1.00  0.00     0.006 C 
ATOM     12  C   UNL     1      -9.706  -5.110  62.936  1.00  0.00     0.004 C 
ENDBRANCH   1  11
TORSDOF 4
ENDMDL
MODEL 2
REMARK VINA RESULT:    -4.837      8.836      9.480
REMARK INTER + INTRA:          -5.507
REMARK INTER:                  -5.421
REMARK INTRA:                  -0.086
REMARK UNBOUND:                 0.320
REMARK SMILES CC[C@@H](C)[C@H]([NH3+])C(=O)[O-]
REMARK SMILES IDX 3 1 4 2 5 3 6 4 7 8 8 9 9 10 2 11 1 12
REMARK H PARENT 6 5 6 6 6 7
REMARK Flexibility Score: inf
ROOT
ATOM      1  C   UNL     1     -13.017  -2.059  55.457  1.00  0.00     0.050 C 
ATOM      2  C   UNL     1     -14.404  -1.432  55.684  1.00  0.00     0.014 C 
ENDROOT
BRANCH   1   3
ATOM      3  C   UNL     1     -12.277  -1.311  54.295  1.00  0.00     0.230 C 
BRANCH   3   4
ATOM      4  N   UNL     1     -13.158  -0.368  53.589  1.00  0.00    -0.350 N 
ATOM      5  H   UNL     1     -13.348  -0.723  52.624  1.00  0.00     0.345 HD
ATOM      6  H   UNL     1     -14.070  -0.242  54.078  1.00  0.00     0.345 HD
ATOM      7  H   UNL     1     -12.689   0.563  53.500  1.00  0.00     0.345 HD
ENDBRANCH   3   4
BRANCH   3   8
ATOM      8  C   UNL     1     -11.589  -2.247  53.331  1.00  0.00     0.099 C 
ATOM      9  O   UNL     1     -11.601  -2.022  52.092  1.00  0.00    -0.544 OA
ATOM     10  O   UNL     1     -10.964  -3.391  53.810  1.00  0.00    -0.544 OA
ENDBRANCH   3   8
ENDBRANCH   1   3
BRANCH   1  11
ATOM     11  C   UNL     1     -12.264  -2.113  56.815  1.00  0.00     0.006 C 
ATOM     12  C   UNL     1     -12.207  -3.502  57.447  1.00  0.00     0.004 C 
ENDBRANCH   1  11
TORSDOF 4
ENDMDL
MODEL 3
REMARK VINA RESULT:    -4.593      0.754      1.541
REMARK INTER + INTRA:          -5.213
REMARK INTER:                  -5.884
REMARK INTRA:                   0.671
REMARK UNBOUND:                 0.320
REMARK SMILES CC[C@@H](C)[C@H]([NH3+])C(=O)[O-]
REMARK SMILES IDX 3 1 4 2 5 3 6 4 7 8 8 9 9 10 2 11 1 12
REMARK H PARENT 6 5 6 6 6 7
REMARK Flexibility Score: inf
ROOT
ATOM      1  C   UNL     1      -8.362  -2.618  63.184  1.00  0.00     0.050 C 
ATOM      2  C   UNL     1      -9.751  -3.273  63.084  1.00  0.00     0.014 C 
ENDROOT
BRANCH   1   3
ATOM      3  C   UNL     1      -8.506  -1.057  63.162  1.00  0.00     0.230 C 
BRANCH   3   4
ATOM      4  N   UNL     1      -8.078  -0.440  64.427  1.00  0.00    -0.350 N 
ATOM      5  H   UNL     1      -8.634   0.430  64.597  1.00  0.00     0.345 HD
ATOM      6  H   UNL     1      -8.212  -1.078  65.240  1.00  0.00     0.345 HD
ATOM      7  H   UNL     1      -7.069  -0.168  64.370  1.00  0.00     0.345 HD
ENDBRANCH   3   4
BRANCH   3   8
ATOM      8  C   UNL     1      -9.887  -0.595  62.764  1.00  0.00     0.099 C 
ATOM      9  O   UNL     1     -10.056   0.145  61.759  1.00  0.00    -0.544 OA
ATOM     10  O   UNL     1     -10.984  -0.957  63.535  1.00  0.00    -0.544 OA
ENDBRANCH   3   8
ENDBRANCH   1   3
BRANCH   1  11
ATOM     11  C   UNL     1      -7.615  -3.212  64.409  1.00  0.00     0.006 C 
ATOM     12  C   UNL     1      -7.363  -4.717  64.324  1.00  0.00     0.004 C 
ENDBRANCH   1  11
TORSDOF 4
ENDMDL
MODEL 4
REMARK VINA RESULT:    -4.573      8.016      8.628
REMARK INTER + INTRA:          -5.190
REMARK INTER:                  -5.113
REMARK INTRA:                  -0.077
REMARK UNBOUND:                 0.320
REMARK SMILES CC[C@@H](C)[C@H]([NH3+])C(=O)[O-]
REMARK SMILES IDX 3 1 4 2 5 3 6 4 7 8 8 9 9 10 2 11 1 12
REMARK H PARENT 6 5 6 6 6 7
REMARK Flexibility Score: inf
ROOT
ATOM      1  C   UNL     1     -11.837  -1.686  55.219  1.00  0.00     0.050 C 
ATOM      2  C   UNL     1     -12.638  -0.771  54.275  1.00  0.00     0.014 C 
ENDROOT
BRANCH   1   3
ATOM      3  C   UNL     1     -12.807  -2.671  55.957  1.00  0.00     0.230 C 
BRANCH   3   4
ATOM      4  N   UNL     1     -14.118  -2.062  56.230  1.00  0.00    -0.350 N 
ATOM      5  H   UNL     1     -14.430  -1.515  55.394  1.00  0.00     0.345 HD
ATOM      6  H   UNL     1     -14.845  -2.778  56.444  1.00  0.00     0.345 HD
ATOM      7  H   UNL     1     -14.045  -1.400  57.036  1.00  0.00     0.345 HD
ENDBRANCH   3   4
BRANCH   3   8
ATOM      8  C   UNL     1     -12.207  -3.268  57.208  1.00  0.00     0.099 C 
ATOM      9  O   UNL     1     -12.465  -2.785  58.342  1.00  0.00    -0.544 OA
ATOM     10  O   UNL     1     -11.329  -4.340  57.107  1.00  0.00    -0.544 OA
ENDBRANCH   3   8
ENDBRANCH   1   3
BRANCH   1  11
ATOM     11  C   UNL     1     -10.682  -2.346  54.417  1.00  0.00     0.006 C 
ATOM     12  C   UNL     1     -11.145  -3.299  53.316  1.00  0.00     0.004 C 
ENDBRANCH   1  11
TORSDOF 4
ENDMDL
MODEL 5
REMARK VINA RESULT:    -4.278      1.428      1.988
REMARK INTER + INTRA:          -4.833
REMARK INTER:                  -4.732
REMARK INTRA:                  -0.102
REMARK UNBOUND:                 0.320
REMARK SMILES CC[C@@H](C)[C@H]([NH3+])C(=O)[O-]
REMARK SMILES IDX 3 1 4 2 5 3 6 4 7 8 8 9 9 10 2 11 1 12
REMARK H PARENT 6 5 6 6 6 7
REMARK Flexibility Score: inf
ROOT
ATOM      1  C   UNL     1      -8.348  -4.012  63.887  1.00  0.00     0.050 C 
ATOM      2  C   UNL     1      -7.250  -3.790  64.943  1.00  0.00     0.014 C 
ENDROOT
BRANCH   1   3
ATOM      3  C   UNL     1      -8.783  -2.638  63.273  1.00  0.00     0.230 C 
BRANCH   3   4
ATOM      4  N   UNL     1      -8.209  -1.495  64.000  1.00  0.00    -0.350 N 
ATOM      5  H   UNL     1      -8.441  -0.608  63.496  1.00  0.00     0.345 HD
ATOM      6  H   UNL     1      -8.575  -1.425  64.973  1.00  0.00     0.345 HD
ATOM      7  H   UNL     1      -7.166  -1.580  64.033  1.00  0.00     0.345 HD
ENDBRANCH   3   4
BRANCH   3   8
ATOM      8  C   UNL     1     -10.281  -2.501  63.129  1.00  0.00     0.099 C 
ATOM      9  O   UNL     1     -10.998  -3.502  62.869  1.00  0.00    -0.544 OA
ATOM     10  O   UNL     1     -10.873  -1.250  63.247  1.00  0.00    -0.544 OA
ENDBRANCH   3   8
ENDBRANCH   1   3
BRANCH   1  11
ATOM     11  C   UNL     1      -7.858  -5.082  62.873  1.00  0.00     0.006 C 
ATOM     12  C   UNL     1      -8.671  -6.375  62.880  1.00  0.00     0.004 C 
ENDBRANCH   1  11
TORSDOF 4
ENDMDL
MODEL 6
REMARK VINA RESULT:    -4.184      5.812      6.623
REMARK INTER + INTRA:          -4.720
REMARK INTER:                  -4.673
REMARK INTRA:                  -0.047
REMARK UNBOUND:                 0.320
REMARK SMILES CC[C@@H](C)[C@H]([NH3+])C(=O)[O-]
REMARK SMILES IDX 3 1 4 2 5 3 6 4 7 8 8 9 9 10 2 11 1 12
REMARK H PARENT 6 5 6 6 6 7
REMARK Flexibility Score: inf
ROOT
ATOM      1  C   UNL     1     -12.784  -4.257  57.902  1.00  0.00     0.050 C 
ATOM      2  C   UNL     1     -11.367  -4.854  57.825  1.00  0.00     0.014 C 
ENDROOT
BRANCH   1   3
ATOM      3  C   UNL     1     -13.166  -3.979  59.396  1.00  0.00     0.230 C 
BRANCH   3   4
ATOM      4  N   UNL     1     -12.743  -2.642  59.840  1.00  0.00    -0.350 N 
ATOM      5  H   UNL     1     -13.125  -1.920  59.186  1.00  0.00     0.345 HD
ATOM      6  H   UNL     1     -13.078  -2.424  60.802  1.00  0.00     0.345 HD
ATOM      7  H   UNL     1     -11.699  -2.571  59.818  1.00  0.00     0.345 HD
ENDBRANCH   3   4
BRANCH   3   8
ATOM      8  C   UNL     1     -12.680  -5.052  60.341  1.00  0.00     0.099 C 
ATOM      9  O   UNL     1     -13.242  -6.178  60.384  1.00  0.00    -0.544 OA
ATOM     10  O   UNL     1     -11.624  -4.784  61.202  1.00  0.00    -0.544 OA
ENDBRANCH   3   8
ENDBRANCH   1   3
BRANCH   1  11
ATOM     11  C   UNL     1     -12.867  -3.038  56.942  1.00  0.00     0.006 C 
ATOM     12  C   UNL     1     -11.645  -2.862  56.042  1.00  0.00     0.004 C 
ENDBRANCH   1  11
TORSDOF 4
ENDMDL
MODEL 7
REMARK VINA RESULT:    -4.151      6.573      7.411
REMARK INTER + INTRA:          -4.681
REMARK INTER:                  -4.639
REMARK INTRA:                  -0.042
REMARK UNBOUND:                 0.320
REMARK SMILES CC[C@@H](C)[C@H]([NH3+])C(=O)[O-]
REMARK SMILES IDX 3 1 4 2 5 3 6 4 7 8 8 9 9 10 2 11 1 12
REMARK H PARENT 6 5 6 6 6 7
REMARK Flexibility Score: inf
ROOT
ATOM      1  C   UNL     1     -12.585  -4.346  57.634  1.00  0.00     0.050 C 
ATOM      2  C   UNL     1     -11.189  -4.876  58.006  1.00  0.00     0.014 C 
ENDROOT
BRANCH   1   3
ATOM      3  C   UNL     1     -13.612  -4.713  58.759  1.00  0.00     0.230 C 
BRANCH   3   4
ATOM      4  N   UNL     1     -13.567  -3.768  59.885  1.00  0.00    -0.350 N 
ATOM      5  H   UNL     1     -12.839  -4.076  60.571  1.00  0.00     0.345 HD
ATOM      6  H   UNL     1     -13.338  -2.800  59.575  1.00  0.00     0.345 HD
ATOM      7  H   UNL     1     -14.488  -3.757  60.381  1.00  0.00     0.345 HD
ENDBRANCH   3   4
BRANCH   3   8
ATOM      8  C   UNL     1     -13.486  -6.141  59.234  1.00  0.00     0.099 C 
ATOM      9  O   UNL     1     -13.190  -6.400  60.430  1.00  0.00    -0.544 OA
ATOM     10  O   UNL     1     -13.662  -7.185  58.335  1.00  0.00    -0.544 OA
ENDBRANCH   3   8
ENDBRANCH   1   3
BRANCH   1  11
ATOM     11  C   UNL     1     -12.472  -2.837  57.285  1.00  0.00     0.006 C 
ATOM     12  C   UNL     1     -11.729  -2.545  55.983  1.00  0.00     0.004 C 
ENDBRANCH   1  11
TORSDOF 4
ENDMDL
MODEL 8
REMARK VINA RESULT:    -4.084      6.701      7.570
REMARK INTER + INTRA:          -4.600
REMARK INTER:                  -4.487
REMARK INTRA:                  -0.113
REMARK UNBOUND:                 0.320
REMARK SMILES CC[C@@H](C)[C@H]([NH3+])C(=O)[O-]
REMARK SMILES IDX 3 1 4 2 5 3 6 4 7 8 8 9 9 10 2 11 1 12
REMARK H PARENT 6 5 6 6 6 7
REMARK Flexibility Score: inf
ROOT
ATOM      1  C   UNL     1     -12.537  -4.286  58.811  1.00  0.00     0.050 C 
ATOM      2  C   UNL     1     -12.669  -3.311  59.994  1.00  0.00     0.014 C 
ENDROOT
BRANCH   1   3
ATOM      3  C   UNL     1     -13.325  -5.606  59.117  1.00  0.00     0.230 C 
BRANCH   3   4
ATOM      4  N   UNL     1     -13.318  -5.940  60.549  1.00  0.00    -0.350 N 
ATOM      5  H   UNL     1     -13.886  -5.236  61.075  1.00  0.00     0.345 HD
ATOM      6  H   UNL     1     -13.715  -6.886  60.733  1.00  0.00     0.345 HD
ATOM      7  H   UNL     1     -12.340  -5.903  60.921  1.00  0.00     0.345 HD
ENDBRANCH   3   4
BRANCH   3   8
ATOM      8  C   UNL     1     -12.871  -6.776  58.276  1.00  0.00     0.099 C 
ATOM      9  O   UNL     1     -13.686  -7.662  57.910  1.00  0.00    -0.544 OA
ATOM     10  O   UNL     1     -11.531  -6.898  57.933  1.00  0.00    -0.544 OA
ENDBRANCH   3   8
ENDBRANCH   1   3
BRANCH   1  11
ATOM     11  C   UNL     1     -12.937  -3.546  57.504  1.00  0.00     0.006 C 
ATOM     12  C   UNL     1     -11.770  -3.261  56.561  1.00  0.00     0.004 C 
ENDBRANCH   1  11
TORSDOF 4
ENDMDL
MODEL 9
REMARK VINA RESULT:    -4.067      6.046      6.848
REMARK INTER + INTRA:          -4.579
REMARK INTER:                  -4.491
REMARK INTRA:                  -0.088
REMARK UNBOUND:                 0.320
REMARK SMILES CC[C@@H](C)[C@H]([NH3+])C(=O)[O-]
REMARK SMILES IDX 3 1 4 2 5 3 6 4 7 8 8 9 9 10 2 11 1 12
REMARK H PARENT 6 5 6 6 6 7
REMARK Flexibility Score: inf
ROOT
ATOM      1  C   UNL     1     -11.895  -5.625  58.042  1.00  0.00     0.050 C 
ATOM      2  C   UNL     1     -13.062  -6.573  58.373  1.00  0.00     0.014 C 
ENDROOT
BRANCH   1   3
ATOM      3  C   UNL     1     -12.360  -4.135  58.184  1.00  0.00     0.230 C 
BRANCH   3   4
ATOM      4  N   UNL     1     -13.701  -4.024  58.778  1.00  0.00    -0.350 N 
ATOM      5  H   UNL     1     -14.407  -3.871  58.021  1.00  0.00     0.345 HD
ATOM      6  H   UNL     1     -13.968  -4.882  59.306  1.00  0.00     0.345 HD
ATOM      7  H   UNL     1     -13.740  -3.201  59.423  1.00  0.00     0.345 HD
ENDBRANCH   3   4
BRANCH   3   8
ATOM      8  C   UNL     1     -12.265  -3.359  56.891  1.00  0.00     0.099 C 
ATOM      9  O   UNL     1     -13.284  -2.820  56.386  1.00  0.00    -0.544 OA
ATOM     10  O   UNL     1     -11.047  -3.268  56.231  1.00  0.00    -0.544 OA
ENDBRANCH   3   8
ENDBRANCH   1   3
BRANCH   1  11
ATOM     11  C   UNL     1     -10.661  -6.033  58.894  1.00  0.00     0.006 C 
ATOM     12  C   UNL     1     -10.914  -6.048  60.401  1.00  0.00     0.004 C 
ENDBRANCH   1  11
TORSDOF 4
ENDMDL
