MODEL 1
REMARK VINA RESULT:    -4.383      0.000      0.000
REMARK INTER + INTRA:         -12.927
REMARK INTER:                  -9.507
REMARK INTRA:                  -3.420
REMARK UNBOUND:                -3.420
REMARK SMILES CCCCCCCCCCCCCCCCCCCCCC(=O)[O-]
REMARK SMILES IDX 12 1 11 2 10 3 9 4 8 5 7 6 6 7 5 8 4 9 3 10 2 11 1 12 13 13
REMARK SMILES IDX 14 14 15 15 16 16 17 17 18 18 19 19 20 20 21 21 22 22 23 23
REMARK SMILES IDX 24 24
REMARK H PARENT
REMARK Flexibility Score: inf
ROOT
ATOM      1  C   UNL     1      10.048   4.419  28.735  1.00  0.00     0.000 C 
ENDROOT
BRANCH   1   2
ATOM      2  C   UNL     1      10.230   4.635  27.223  1.00  0.00     0.000 C 
BRANCH   2   3
ATOM      3  C   UNL     1      11.694   4.905  26.830  1.00  0.00     0.000 C 
BRANCH   3   4
ATOM      4  C   UNL     1      12.573   5.518  27.939  1.00  0.00    -0.000 C 
BRANCH   4   5
ATOM      5  C   UNL     1      13.886   6.161  27.456  1.00  0.00    -0.000 C 
BRANCH   5   6
ATOM      6  C   UNL     1      13.877   6.481  25.954  1.00  0.00    -0.000 C 
BRANCH   6   7
ATOM      7  C   UNL     1      14.725   7.721  25.650  1.00  0.00    -0.000 C 
BRANCH   7   8
ATOM      8  C   UNL     1      14.923   7.896  24.137  1.00  0.00    -0.000 C 
BRANCH   8   9
ATOM      9  C   UNL     1      15.567   9.253  23.783  1.00  0.00    -0.000 C 
BRANCH   9  10
ATOM     10  C   UNL     1      16.415   9.853  24.920  1.00  0.00    -0.000 C 
BRANCH  10  11
ATOM     11  C   UNL     1      17.933   9.662  24.759  1.00  0.00    -0.003 C 
ATOM     12  C   UNL     1      18.451   8.403  25.453  1.00  0.00     0.004 C 
ENDBRANCH  10  11
ENDBRANCH   9  10
ENDBRANCH   8   9
ENDBRANCH   7   8
ENDBRANCH   6   7
ENDBRANCH   5   6
ENDBRANCH   4   5
ENDBRANCH   3   4
ENDBRANCH   2   3
ENDBRANCH   1   2
BRANCH   1  13
ATOM     13  C   UNL     1       9.371   5.614  29.427  1.00  0.00     0.000 C 
BRANCH  13  14
ATOM     14  C   UNL     1       8.953   6.718  28.442  1.00  0.00     0.000 C 
BRANCH  14  15
ATOM     15  C   UNL     1       9.386   8.117  28.914  1.00  0.00     0.000 C 
BRANCH  15  16
ATOM     16  C   UNL     1      10.647   8.616  28.187  1.00  0.00     0.000 C 
BRANCH  16  17
ATOM     17  C   UNL     1      10.617   8.335  26.672  1.00  0.00     0.000 C 
BRANCH  17  18
ATOM     18  C   UNL     1      11.252   9.428  25.793  1.00  0.00     0.000 C 
BRANCH  18  19
ATOM     19  C   UNL     1      11.525   8.959  24.357  1.00  0.00     0.000 C 
BRANCH  19  20
ATOM     20  C   UNL     1      10.839   7.613  24.081  1.00  0.00     0.006 C 
BRANCH  20  21
ATOM     21  C   UNL     1      11.581   6.791  23.017  1.00  0.00     0.053 C 
BRANCH  21  22
ATOM     22  C   UNL     1      11.003   6.999  21.650  1.00  0.00     0.041 C 
ATOM     23  O   UNL     1       9.768   6.855  21.455  1.00  0.00    -0.550 OA
ATOM     24  O   UNL     1      11.828   7.377  20.597  1.00  0.00    -0.550 OA
ENDBRANCH  21  22
ENDBRANCH  20  21
ENDBRANCH  19  20
ENDBRANCH  18  19
ENDBRANCH  17  18
ENDBRANCH  16  17
ENDBRANCH  15  16
ENDBRANCH  14  15
ENDBRANCH  13  14
ENDBRANCH   1  13
TORSDOF 20
ENDMDL
MODEL 2
REMARK VINA RESULT:    -4.369      9.307     13.589
REMARK INTER + INTRA:         -12.898
REMARK INTER:                  -9.863
REMARK INTRA:                  -3.035
REMARK UNBOUND:                -3.420
REMARK SMILES CCCCCCCCCCCCCCCCCCCCCC(=O)[O-]
REMARK SMILES IDX 12 1 11 2 10 3 9 4 8 5 7 6 6 7 5 8 4 9 3 10 2 11 1 12 13 13
REMARK SMILES IDX 14 14 15 15 16 16 17 17 18 18 19 19 20 20 21 21 22 22 23 23
REMARK SMILES IDX 24 24
REMARK H PARENT
REMARK Flexibility Score: inf
ROOT
ATOM      1  C   UNL     1       8.251   6.450  13.130  1.00  0.00     0.000 C 
ENDROOT
BRANCH   1   2
ATOM      2  C   UNL     1       8.178   7.692  12.227  1.00  0.00     0.000 C 
BRANCH   2   3
ATOM      3  C   UNL     1       7.846   8.978  13.006  1.00  0.00     0.000 C 
BRANCH   3   4
ATOM      4  C   UNL     1       7.452   8.773  14.483  1.00  0.00    -0.000 C 
BRANCH   4   5
ATOM      5  C   UNL     1       6.383   9.743  15.018  1.00  0.00    -0.000 C 
BRANCH   5   6
ATOM      6  C   UNL     1       5.875   9.359  16.416  1.00  0.00    -0.000 C 
BRANCH   6   7
ATOM      7  C   UNL     1       6.764   8.280  17.046  1.00  0.00    -0.000 C 
BRANCH   7   8
ATOM      8  C   UNL     1       5.988   7.471  18.097  1.00  0.00    -0.000 C 
BRANCH   8   9
ATOM      9  C   UNL     1       6.313   7.917  19.538  1.00  0.00    -0.000 C 
BRANCH   9  10
ATOM     10  C   UNL     1       6.027   6.839  20.600  1.00  0.00    -0.000 C 
BRANCH  10  11
ATOM     11  C   UNL     1       5.225   7.331  21.816  1.00  0.00    -0.003 C 
ATOM     12  C   UNL     1       4.037   8.211  21.428  1.00  0.00     0.004 C 
ENDBRANCH  10  11
ENDBRANCH   9  10
ENDBRANCH   8   9
ENDBRANCH   7   8
ENDBRANCH   6   7
ENDBRANCH   5   6
ENDBRANCH   4   5
ENDBRANCH   3   4
ENDBRANCH   2   3
ENDBRANCH   1   2
BRANCH   1  13
ATOM     13  C   UNL     1       7.097   5.465  12.881  1.00  0.00     0.000 C 
BRANCH  13  14
ATOM     14  C   UNL     1       5.972   6.067  12.022  1.00  0.00     0.000 C 
BRANCH  14  15
ATOM     15  C   UNL     1       4.759   6.495  12.865  1.00  0.00     0.000 C 
BRANCH  15  16
ATOM     16  C   UNL     1       5.001   6.317  14.373  1.00  0.00     0.000 C 
BRANCH  16  17
ATOM     17  C   UNL     1       3.775   6.693  15.226  1.00  0.00     0.000 C 
BRANCH  17  18
ATOM     18  C   UNL     1       3.026   7.960  14.772  1.00  0.00     0.000 C 
BRANCH  18  19
ATOM     19  C   UNL     1       2.219   8.617  15.901  1.00  0.00     0.000 C 
BRANCH  19  20
ATOM     20  C   UNL     1       2.569   7.993  17.260  1.00  0.00     0.006 C 
BRANCH  20  21
ATOM     21  C   UNL     1       1.979   8.788  18.433  1.00  0.00     0.053 C 
BRANCH  21  22
ATOM     22  C   UNL     1       0.485   8.868  18.355  1.00  0.00     0.041 C 
ATOM     23  O   UNL     1      -0.224   7.914  18.769  1.00  0.00    -0.550 OA
ATOM     24  O   UNL     1      -0.125  10.009  17.847  1.00  0.00    -0.550 OA
ENDBRANCH  21  22
ENDBRANCH  20  21
ENDBRANCH  19  20
ENDBRANCH  18  19
ENDBRANCH  17  18
ENDBRANCH  16  17
ENDBRANCH  15  16
ENDBRANCH  14  15
ENDBRANCH  13  14
ENDBRANCH   1  13
TORSDOF 20
ENDMDL
MODEL 3
REMARK VINA RESULT:    -4.228      2.585      5.159
REMARK INTER + INTRA:         -12.592
REMARK INTER:                  -9.573
REMARK INTRA:                  -3.019
REMARK UNBOUND:                -3.420
REMARK SMILES CCCCCCCCCCCCCCCCCCCCCC(=O)[O-]
REMARK SMILES IDX 12 1 11 2 10 3 9 4 8 5 7 6 6 7 5 8 4 9 3 10 2 11 1 12 13 13
REMARK SMILES IDX 14 14 15 15 16 16 17 17 18 18 19 19 20 20 21 21 22 22 23 23
REMARK SMILES IDX 24 24
REMARK H PARENT
REMARK Flexibility Score: inf
ROOT
ATOM      1  C   UNL     1       9.822   4.828  29.570  1.00  0.00     0.000 C 
ENDROOT
BRANCH   1   2
ATOM      2  C   UNL     1       9.206   4.941  28.165  1.00  0.00     0.000 C 
BRANCH   2   3
ATOM      3  C   UNL     1       8.754   6.373  27.824  1.00  0.00     0.000 C 
BRANCH   3   4
ATOM      4  C   UNL     1       9.376   7.486  28.693  1.00  0.00    -0.000 C 
BRANCH   4   5
ATOM      5  C   UNL     1      10.436   8.353  27.988  1.00  0.00    -0.000 C 
BRANCH   5   6
ATOM      6  C   UNL     1      10.761   7.863  26.570  1.00  0.00    -0.000 C 
BRANCH   6   7
ATOM      7  C   UNL     1      11.274   9.012  25.694  1.00  0.00    -0.000 C 
BRANCH   7   8
ATOM      8  C   UNL     1      11.116   8.681  24.202  1.00  0.00    -0.000 C 
BRANCH   8   9
ATOM      9  C   UNL     1      11.287   7.175  23.914  1.00  0.00    -0.000 C 
BRANCH   9  10
ATOM     10  C   UNL     1      11.608   6.858  22.441  1.00  0.00    -0.000 C 
BRANCH  10  11
ATOM     11  C   UNL     1      12.057   8.070  21.606  1.00  0.00    -0.003 C 
ATOM     12  C   UNL     1      13.576   8.230  21.559  1.00  0.00     0.004 C 
ENDBRANCH  10  11
ENDBRANCH   9  10
ENDBRANCH   8   9
ENDBRANCH   7   8
ENDBRANCH   6   7
ENDBRANCH   5   6
ENDBRANCH   4   5
ENDBRANCH   3   4
ENDBRANCH   2   3
ENDBRANCH   1   2
BRANCH   1  13
ATOM     13  C   UNL     1      11.360   4.844  29.547  1.00  0.00     0.000 C 
BRANCH  13  14
ATOM     14  C   UNL     1      11.937   4.860  28.122  1.00  0.00     0.000 C 
BRANCH  14  15
ATOM     15  C   UNL     1      13.299   5.572  28.051  1.00  0.00     0.000 C 
BRANCH  15  16
ATOM     16  C   UNL     1      13.705   5.916  26.608  1.00  0.00     0.000 C 
BRANCH  16  17
ATOM     17  C   UNL     1      14.476   7.246  26.503  1.00  0.00     0.000 C 
BRANCH  17  18
ATOM     18  C   UNL     1      14.819   7.691  25.070  1.00  0.00     0.000 C 
BRANCH  18  19
ATOM     19  C   UNL     1      14.819   9.217  24.900  1.00  0.00     0.000 C 
BRANCH  19  20
ATOM     20  C   UNL     1      15.958   9.665  23.971  1.00  0.00     0.006 C 
BRANCH  20  21
ATOM     21  C   UNL     1      17.223  10.054  24.749  1.00  0.00     0.053 C 
BRANCH  21  22
ATOM     22  C   UNL     1      18.156   8.894  24.910  1.00  0.00     0.041 C 
ATOM     23  O   UNL     1      18.085   7.909  24.130  1.00  0.00    -0.550 OA
ATOM     24  O   UNL     1      19.123   8.913  25.909  1.00  0.00    -0.550 OA
ENDBRANCH  21  22
ENDBRANCH  20  21
ENDBRANCH  19  20
ENDBRANCH  18  19
ENDBRANCH  17  18
ENDBRANCH  16  17
ENDBRANCH  15  16
ENDBRANCH  14  15
ENDBRANCH  13  14
ENDBRANCH   1  13
TORSDOF 20
ENDMDL
MODEL 4
REMARK VINA RESULT:    -4.193      2.785      5.751
REMARK INTER + INTRA:         -12.516
REMARK INTER:                  -9.871
REMARK INTRA:                  -2.645
REMARK UNBOUND:                -3.420
REMARK SMILES CCCCCCCCCCCCCCCCCCCCCC(=O)[O-]
REMARK SMILES IDX 12 1 11 2 10 3 9 4 8 5 7 6 6 7 5 8 4 9 3 10 2 11 1 12 13 13
REMARK SMILES IDX 14 14 15 15 16 16 17 17 18 18 19 19 20 20 21 21 22 22 23 23
REMARK SMILES IDX 24 24
REMARK H PARENT
REMARK Flexibility Score: inf
ROOT
ATOM      1  C   UNL     1      11.551   5.064  28.904  1.00  0.00     0.000 C 
ENDROOT
BRANCH   1   2
ATOM      2  C   UNL     1      10.607   4.133  29.685  1.00  0.00     0.000 C 
BRANCH   2   3
ATOM      3  C   UNL     1       9.439   4.886  30.348  1.00  0.00     0.000 C 
BRANCH   3   4
ATOM      4  C   UNL     1       9.751   6.330  30.791  1.00  0.00    -0.000 C 
BRANCH   4   5
ATOM      5  C   UNL     1       8.940   7.426  30.074  1.00  0.00    -0.000 C 
BRANCH   5   6
ATOM      6  C   UNL     1       9.567   8.821  30.218  1.00  0.00    -0.000 C 
BRANCH   6   7
ATOM      7  C   UNL     1      10.090   9.331  28.870  1.00  0.00    -0.000 C 
BRANCH   7   8
ATOM      8  C   UNL     1      10.239   8.179  27.865  1.00  0.00    -0.000 C 
BRANCH   8   9
ATOM      9  C   UNL     1      11.071   8.582  26.629  1.00  0.00    -0.000 C 
BRANCH   9  10
ATOM     10  C   UNL     1      10.368   8.296  25.288  1.00  0.00    -0.000 C 
BRANCH  10  11
ATOM     11  C   UNL     1      11.280   8.386  24.053  1.00  0.00    -0.003 C 
ATOM     12  C   UNL     1      11.308   7.092  23.240  1.00  0.00     0.004 C 
ENDBRANCH  10  11
ENDBRANCH   9  10
ENDBRANCH   8   9
ENDBRANCH   7   8
ENDBRANCH   6   7
ENDBRANCH   5   6
ENDBRANCH   4   5
ENDBRANCH   3   4
ENDBRANCH   2   3
ENDBRANCH   1   2
BRANCH   1  13
ATOM     13  C   UNL     1      11.417   4.903  27.381  1.00  0.00     0.000 C 
BRANCH  13  14
ATOM     14  C   UNL     1      12.619   5.474  26.610  1.00  0.00     0.000 C 
BRANCH  14  15
ATOM     15  C   UNL     1      13.802   5.805  27.536  1.00  0.00     0.000 C 
BRANCH  15  16
ATOM     16  C   UNL     1      14.582   7.045  27.068  1.00  0.00     0.000 C 
BRANCH  16  17
ATOM     17  C   UNL     1      14.502   7.266  25.545  1.00  0.00     0.000 C 
BRANCH  17  18
ATOM     18  C   UNL     1      14.366   8.734  25.104  1.00  0.00     0.000 C 
BRANCH  18  19
ATOM     19  C   UNL     1      15.096   9.034  23.786  1.00  0.00     0.000 C 
BRANCH  19  20
ATOM     20  C   UNL     1      16.248  10.024  24.012  1.00  0.00     0.006 C 
BRANCH  20  21
ATOM     21  C   UNL     1      16.984   9.769  25.335  1.00  0.00     0.053 C 
BRANCH  21  22
ATOM     22  C   UNL     1      18.209   8.930  25.137  1.00  0.00     0.041 C 
ATOM     23  O   UNL     1      19.125   9.317  24.364  1.00  0.00    -0.550 OA
ATOM     24  O   UNL     1      18.351   7.731  25.826  1.00  0.00    -0.550 OA
ENDBRANCH  21  22
ENDBRANCH  20  21
ENDBRANCH  19  20
ENDBRANCH  18  19
ENDBRANCH  17  18
ENDBRANCH  16  17
ENDBRANCH  15  16
ENDBRANCH  14  15
ENDBRANCH  13  14
ENDBRANCH   1  13
TORSDOF 20
ENDMDL
MODEL 5
REMARK VINA RESULT:    -4.087      3.129      5.583
REMARK INTER + INTRA:         -12.285
REMARK INTER:                  -9.630
REMARK INTRA:                  -2.654
REMARK UNBOUND:                -3.420
REMARK SMILES CCCCCCCCCCCCCCCCCCCCCC(=O)[O-]
REMARK SMILES IDX 12 1 11 2 10 3 9 4 8 5 7 6 6 7 5 8 4 9 3 10 2 11 1 12 13 13
REMARK SMILES IDX 14 14 15 15 16 16 17 17 18 18 19 19 20 20 21 21 22 22 23 23
REMARK SMILES IDX 24 24
REMARK H PARENT
REMARK Flexibility Score: inf
ROOT
ATOM      1  C   UNL     1      10.076   6.985  21.810  1.00  0.00     0.000 C 
ENDROOT
BRANCH   1   2
ATOM      2  C   UNL     1      11.594   6.782  21.665  1.00  0.00     0.000 C 
BRANCH   2   3
ATOM      3  C   UNL     1      12.308   8.015  21.080  1.00  0.00     0.000 C 
BRANCH   3   4
ATOM      4  C   UNL     1      13.757   8.229  21.562  1.00  0.00    -0.000 C 
BRANCH   4   5
ATOM      5  C   UNL     1      14.026   9.578  22.254  1.00  0.00    -0.000 C 
BRANCH   5   6
ATOM      6  C   UNL     1      15.226   9.529  23.211  1.00  0.00    -0.000 C 
BRANCH   6   7
ATOM      7  C   UNL     1      14.764   9.502  24.672  1.00  0.00    -0.000 C 
BRANCH   7   8
ATOM      8  C   UNL     1      14.792   8.073  25.234  1.00  0.00    -0.000 C 
BRANCH   8   9
ATOM      9  C   UNL     1      15.825   7.909  26.369  1.00  0.00    -0.000 C 
BRANCH   9  10
ATOM     10  C   UNL     1      17.069   8.803  26.209  1.00  0.00    -0.000 C 
BRANCH  10  11
ATOM     11  C   UNL     1      18.205   8.181  25.380  1.00  0.00    -0.003 C 
ATOM     12  C   UNL     1      19.065   9.227  24.671  1.00  0.00     0.004 C 
ENDBRANCH  10  11
ENDBRANCH   9  10
ENDBRANCH   8   9
ENDBRANCH   7   8
ENDBRANCH   6   7
ENDBRANCH   5   6
ENDBRANCH   4   5
ENDBRANCH   3   4
ENDBRANCH   2   3
ENDBRANCH   1   2
BRANCH   1  13
ATOM     13  C   UNL     1       9.672   8.469  21.800  1.00  0.00     0.000 C 
BRANCH  13  14
ATOM     14  C   UNL     1       9.378   9.019  23.206  1.00  0.00     0.000 C 
BRANCH  14  15
ATOM     15  C   UNL     1      10.555   9.828  23.775  1.00  0.00     0.000 C 
BRANCH  15  16
ATOM     16  C   UNL     1      11.312   9.066  24.876  1.00  0.00     0.000 C 
BRANCH  16  17
ATOM     17  C   UNL     1      10.506   7.884  25.450  1.00  0.00     0.000 C 
BRANCH  17  18
ATOM     18  C   UNL     1      10.844   7.507  26.904  1.00  0.00     0.000 C 
BRANCH  18  19
ATOM     19  C   UNL     1      12.001   6.503  27.009  1.00  0.00     0.000 C 
BRANCH  19  20
ATOM     20  C   UNL     1      11.721   5.458  28.099  1.00  0.00     0.006 C 
BRANCH  20  21
ATOM     21  C   UNL     1      10.226   5.351  28.432  1.00  0.00     0.053 C 
BRANCH  21  22
ATOM     22  C   UNL     1      10.000   4.988  29.867  1.00  0.00     0.041 C 
ATOM     23  O   UNL     1       9.374   5.772  30.629  1.00  0.00    -0.550 OA
ATOM     24  O   UNL     1      10.460   3.772  30.358  1.00  0.00    -0.550 OA
ENDBRANCH  21  22
ENDBRANCH  20  21
ENDBRANCH  19  20
ENDBRANCH  18  19
ENDBRANCH  17  18
ENDBRANCH  16  17
ENDBRANCH  15  16
ENDBRANCH  14  15
ENDBRANCH  13  14
ENDBRANCH   1  13
TORSDOF 20
ENDMDL
MODEL 6
REMARK VINA RESULT:    -4.059      9.068     13.024
REMARK INTER + INTRA:         -12.224
REMARK INTER:                  -9.994
REMARK INTRA:                  -2.231
REMARK UNBOUND:                -3.420
REMARK SMILES CCCCCCCCCCCCCCCCCCCCCC(=O)[O-]
REMARK SMILES IDX 12 1 11 2 10 3 9 4 8 5 7 6 6 7 5 8 4 9 3 10 2 11 1 12 13 13
REMARK SMILES IDX 14 14 15 15 16 16 17 17 18 18 19 19 20 20 21 21 22 22 23 23
REMARK SMILES IDX 24 24
REMARK H PARENT
REMARK Flexibility Score: inf
ROOT
ATOM      1  C   UNL     1       5.832   6.778  21.246  1.00  0.00     0.000 C 
ENDROOT
BRANCH   1   2
ATOM      2  C   UNL     1       5.408   8.005  22.071  1.00  0.00     0.000 C 
BRANCH   2   3
ATOM      3  C   UNL     1       4.190   8.734  21.474  1.00  0.00     0.000 C 
BRANCH   3   4
ATOM      4  C   UNL     1       4.520   9.935  20.563  1.00  0.00    -0.000 C 
BRANCH   4   5
ATOM      5  C   UNL     1       3.682  10.031  19.275  1.00  0.00    -0.000 C 
BRANCH   5   6
ATOM      6  C   UNL     1       2.373   9.231  19.353  1.00  0.00    -0.000 C 
BRANCH   6   7
ATOM      7  C   UNL     1       1.165  10.124  19.047  1.00  0.00    -0.000 C 
BRANCH   7   8
ATOM      8  C   UNL     1       0.269   9.490  17.973  1.00  0.00    -0.000 C 
BRANCH   8   9
ATOM      9  C   UNL     1       0.518  10.088  16.573  1.00  0.00    -0.000 C 
BRANCH   9  10
ATOM     10  C   UNL     1       1.087   9.078  15.558  1.00  0.00    -0.000 C 
BRANCH  10  11
ATOM     11  C   UNL     1       2.518   8.602  15.860  1.00  0.00    -0.003 C 
ATOM     12  C   UNL     1       3.154   7.852  14.690  1.00  0.00     0.004 C 
ENDBRANCH  10  11
ENDBRANCH   9  10
ENDBRANCH   8   9
ENDBRANCH   7   8
ENDBRANCH   6   7
ENDBRANCH   5   6
ENDBRANCH   4   5
ENDBRANCH   3   4
ENDBRANCH   2   3
ENDBRANCH   1   2
BRANCH   1  13
ATOM     13  C   UNL     1       6.798   7.135  20.104  1.00  0.00     0.000 C 
BRANCH  13  14
ATOM     14  C   UNL     1       6.106   7.201  18.733  1.00  0.00     0.000 C 
BRANCH  14  15
ATOM     15  C   UNL     1       6.746   8.247  17.805  1.00  0.00     0.000 C 
BRANCH  15  16
ATOM     16  C   UNL     1       6.719   7.815  16.328  1.00  0.00     0.000 C 
BRANCH  16  17
ATOM     17  C   UNL     1       6.438   8.985  15.366  1.00  0.00     0.000 C 
BRANCH  17  18
ATOM     18  C   UNL     1       6.998   8.810  13.943  1.00  0.00     0.000 C 
BRANCH  18  19
ATOM     19  C   UNL     1       8.322   8.032  13.911  1.00  0.00     0.000 C 
BRANCH  19  20
ATOM     20  C   UNL     1       8.336   7.022  12.754  1.00  0.00     0.006 C 
BRANCH  20  21
ATOM     21  C   UNL     1       7.328   7.384  11.654  1.00  0.00     0.053 C 
BRANCH  21  22
ATOM     22  C   UNL     1       6.273   6.332  11.498  1.00  0.00     0.041 C 
ATOM     23  O   UNL     1       6.531   5.260  10.891  1.00  0.00    -0.550 OA
ATOM     24  O   UNL     1       5.010   6.527  12.046  1.00  0.00    -0.550 OA
ENDBRANCH  21  22
ENDBRANCH  20  21
ENDBRANCH  19  20
ENDBRANCH  18  19
ENDBRANCH  17  18
ENDBRANCH  16  17
ENDBRANCH  15  16
ENDBRANCH  14  15
ENDBRANCH  13  14
ENDBRANCH   1  13
TORSDOF 20
ENDMDL
MODEL 7
REMARK VINA RESULT:    -4.051      8.514     12.557
REMARK INTER + INTRA:         -12.207
REMARK INTER:                  -9.879
REMARK INTRA:                  -2.327
REMARK UNBOUND:                -3.420
REMARK SMILES CCCCCCCCCCCCCCCCCCCCCC(=O)[O-]
REMARK SMILES IDX 12 1 11 2 10 3 9 4 8 5 7 6 6 7 5 8 4 9 3 10 2 11 1 12 13 13
REMARK SMILES IDX 14 14 15 15 16 16 17 17 18 18 19 19 20 20 21 21 22 22 23 23
REMARK SMILES IDX 24 24
REMARK H PARENT
REMARK Flexibility Score: inf
ROOT
ATOM      1  C   UNL     1       3.597   8.247  15.018  1.00  0.00     0.000 C 
ENDROOT
BRANCH   1   2
ATOM      2  C   UNL     1       3.481   7.175  13.921  1.00  0.00     0.000 C 
BRANCH   2   3
ATOM      3  C   UNL     1       4.802   6.421  13.681  1.00  0.00     0.000 C 
BRANCH   3   4
ATOM      4  C   UNL     1       5.294   6.399  12.219  1.00  0.00    -0.000 C 
BRANCH   4   5
ATOM      5  C   UNL     1       6.507   5.489  11.949  1.00  0.00    -0.000 C 
BRANCH   5   6
ATOM      6  C   UNL     1       7.837   6.125  12.377  1.00  0.00    -0.000 C 
BRANCH   6   7
ATOM      7  C   UNL     1       7.989   7.533  11.788  1.00  0.00    -0.000 C 
BRANCH   7   8
ATOM      8  C   UNL     1       8.319   8.557  12.884  1.00  0.00    -0.000 C 
BRANCH   8   9
ATOM      9  C   UNL     1       8.225   7.952  14.300  1.00  0.00    -0.000 C 
BRANCH   9  10
ATOM     10  C   UNL     1       7.129   8.588  15.175  1.00  0.00    -0.000 C 
BRANCH  10  11
ATOM     11  C   UNL     1       6.889   7.881  16.520  1.00  0.00    -0.003 C 
ATOM     12  C   UNL     1       6.087   8.732  17.504  1.00  0.00     0.004 C 
ENDBRANCH  10  11
ENDBRANCH   9  10
ENDBRANCH   8   9
ENDBRANCH   7   8
ENDBRANCH   6   7
ENDBRANCH   5   6
ENDBRANCH   4   5
ENDBRANCH   3   4
ENDBRANCH   2   3
ENDBRANCH   1   2
BRANCH   1  13
ATOM     13  C   UNL     1       2.245   8.571  15.676  1.00  0.00     0.000 C 
BRANCH  13  14
ATOM     14  C   UNL     1       2.376   9.530  16.871  1.00  0.00     0.000 C 
BRANCH  14  15
ATOM     15  C   UNL     1       1.238   9.352  17.891  1.00  0.00     0.000 C 
BRANCH  15  16
ATOM     16  C   UNL     1       1.680   9.687  19.326  1.00  0.00     0.000 C 
BRANCH  16  17
ATOM     17  C   UNL     1       3.161   9.353  19.591  1.00  0.00     0.000 C 
BRANCH  17  18
ATOM     18  C   UNL     1       3.436   8.601  20.905  1.00  0.00     0.000 C 
BRANCH  18  19
ATOM     19  C   UNL     1       4.783   8.974  21.541  1.00  0.00     0.000 C 
BRANCH  19  20
ATOM     20  C   UNL     1       5.545   7.718  21.987  1.00  0.00     0.006 C 
BRANCH  20  21
ATOM     21  C   UNL     1       6.233   7.008  20.812  1.00  0.00     0.053 C 
BRANCH  21  22
ATOM     22  C   UNL     1       7.685   7.364  20.720  1.00  0.00     0.041 C 
ATOM     23  O   UNL     1       8.034   8.517  20.355  1.00  0.00    -0.550 OA
ATOM     24  O   UNL     1       8.654   6.427  21.062  1.00  0.00    -0.550 OA
ENDBRANCH  21  22
ENDBRANCH  20  21
ENDBRANCH  19  20
ENDBRANCH  18  19
ENDBRANCH  17  18
ENDBRANCH  16  17
ENDBRANCH  15  16
ENDBRANCH  14  15
ENDBRANCH  13  14
ENDBRANCH   1  13
TORSDOF 20
ENDMDL
MODEL 8
REMARK VINA RESULT:    -3.978      2.409      4.969
REMARK INTER + INTRA:         -12.050
REMARK INTER:                  -9.459
REMARK INTRA:                  -2.591
REMARK UNBOUND:                -3.420
REMARK SMILES CCCCCCCCCCCCCCCCCCCCCC(=O)[O-]
REMARK SMILES IDX 12 1 11 2 10 3 9 4 8 5 7 6 6 7 5 8 4 9 3 10 2 11 1 12 13 13
REMARK SMILES IDX 14 14 15 15 16 16 17 17 18 18 19 19 20 20 21 21 22 22 23 23
REMARK SMILES IDX 24 24
REMARK H PARENT
REMARK Flexibility Score: inf
ROOT
ATOM      1  C   UNL     1      11.116   9.601  24.586  1.00  0.00     0.000 C 
ENDROOT
BRANCH   1   2
ATOM      2  C   UNL     1      10.330   9.797  23.279  1.00  0.00     0.000 C 
BRANCH   2   3
ATOM      3  C   UNL     1      10.461   8.602  22.318  1.00  0.00     0.000 C 
BRANCH   3   4
ATOM      4  C   UNL     1      11.306   8.860  21.053  1.00  0.00    -0.000 C 
BRANCH   4   5
ATOM      5  C   UNL     1      12.192  10.118  21.101  1.00  0.00    -0.000 C 
BRANCH   5   6
ATOM      6  C   UNL     1      13.677   9.795  21.322  1.00  0.00    -0.000 C 
BRANCH   6   7
ATOM      7  C   UNL     1      13.866   8.328  21.729  1.00  0.00    -0.000 C 
BRANCH   7   8
ATOM      8  C   UNL     1      14.338   8.217  23.186  1.00  0.00    -0.000 C 
BRANCH   8   9
ATOM      9  C   UNL     1      14.982   9.523  23.696  1.00  0.00    -0.000 C 
BRANCH   9  10
ATOM     10  C   UNL     1      15.836   9.340  24.965  1.00  0.00    -0.000 C 
BRANCH  10  11
ATOM     11  C   UNL     1      17.355   9.363  24.726  1.00  0.00    -0.003 C 
ATOM     12  C   UNL     1      17.966   7.964  24.652  1.00  0.00     0.004 C 
ENDBRANCH  10  11
ENDBRANCH   9  10
ENDBRANCH   8   9
ENDBRANCH   7   8
ENDBRANCH   6   7
ENDBRANCH   5   6
ENDBRANCH   4   5
ENDBRANCH   3   4
ENDBRANCH   2   3
ENDBRANCH   1   2
BRANCH   1  13
ATOM     13  C   UNL     1      11.156   8.132  25.040  1.00  0.00     0.000 C 
BRANCH  13  14
ATOM     14  C   UNL     1      10.287   7.865  26.281  1.00  0.00     0.000 C 
BRANCH  14  15
ATOM     15  C   UNL     1      10.808   8.600  27.528  1.00  0.00     0.000 C 
BRANCH  15  16
ATOM     16  C   UNL     1       9.917   8.367  28.760  1.00  0.00     0.000 C 
BRANCH  16  17
ATOM     17  C   UNL     1       9.006   7.132  28.617  1.00  0.00     0.000 C 
BRANCH  17  18
ATOM     18  C   UNL     1       9.170   6.068  29.717  1.00  0.00     0.000 C 
BRANCH  18  19
ATOM     19  C   UNL     1       9.852   4.787  29.216  1.00  0.00     0.000 C 
BRANCH  19  20
ATOM     20  C   UNL     1      11.307   5.065  28.807  1.00  0.00     0.006 C 
BRANCH  20  21
ATOM     21  C   UNL     1      11.525   4.910  27.296  1.00  0.00     0.053 C 
BRANCH  21  22
ATOM     22  C   UNL     1      12.905   5.324  26.887  1.00  0.00     0.041 C 
ATOM     23  O   UNL     1      13.475   6.288  27.463  1.00  0.00    -0.550 OA
ATOM     24  O   UNL     1      13.573   4.628  25.886  1.00  0.00    -0.550 OA
ENDBRANCH  21  22
ENDBRANCH  20  21
ENDBRANCH  19  20
ENDBRANCH  18  19
ENDBRANCH  17  18
ENDBRANCH  16  17
ENDBRANCH  15  16
ENDBRANCH  14  15
ENDBRANCH  13  14
ENDBRANCH   1  13
TORSDOF 20
ENDMDL
MODEL 9
REMARK VINA RESULT:    -3.927      3.829      8.018
REMARK INTER + INTRA:         -11.938
REMARK INTER:                  -8.810
REMARK INTRA:                  -3.129
REMARK UNBOUND:                -3.420
REMARK SMILES CCCCCCCCCCCCCCCCCCCCCC(=O)[O-]
REMARK SMILES IDX 12 1 11 2 10 3 9 4 8 5 7 6 6 7 5 8 4 9 3 10 2 11 1 12 13 13
REMARK SMILES IDX 14 14 15 15 16 16 17 17 18 18 19 19 20 20 21 21 22 22 23 23
REMARK SMILES IDX 24 24
REMARK H PARENT
REMARK Flexibility Score: inf
ROOT
ATOM      1  C   UNL     1      11.615   6.862  21.911  1.00  0.00     0.000 C 
ENDROOT
BRANCH   1   2
ATOM      2  C   UNL     1      10.108   7.171  21.919  1.00  0.00     0.000 C 
BRANCH   2   3
ATOM      3  C   UNL     1       9.724   8.295  20.939  1.00  0.00     0.000 C 
BRANCH   3   4
ATOM      4  C   UNL     1       9.219   9.598  21.593  1.00  0.00    -0.000 C 
BRANCH   4   5
ATOM      5  C   UNL     1       8.389   9.409  22.876  1.00  0.00    -0.000 C 
BRANCH   5   6
ATOM      6  C   UNL     1       6.899   9.722  22.675  1.00  0.00    -0.000 C 
BRANCH   6   7
ATOM      7  C   UNL     1       6.019   8.630  23.292  1.00  0.00    -0.000 C 
BRANCH   7   8
ATOM      8  C   UNL     1       5.179   7.925  22.216  1.00  0.00    -0.000 C 
BRANCH   8   9
ATOM      9  C   UNL     1       6.011   6.927  21.383  1.00  0.00    -0.000 C 
BRANCH   9  10
ATOM     10  C   UNL     1       5.777   7.041  19.864  1.00  0.00    -0.000 C 
BRANCH  10  11
ATOM     11  C   UNL     1       6.786   7.935  19.125  1.00  0.00    -0.003 C 
ATOM     12  C   UNL     1       6.298   9.374  18.961  1.00  0.00     0.004 C 
ENDBRANCH  10  11
ENDBRANCH   9  10
ENDBRANCH   8   9
ENDBRANCH   7   8
ENDBRANCH   6   7
ENDBRANCH   5   6
ENDBRANCH   4   5
ENDBRANCH   3   4
ENDBRANCH   2   3
ENDBRANCH   1   2
BRANCH   1  13
ATOM     13  C   UNL     1      12.445   7.970  21.242  1.00  0.00     0.000 C 
BRANCH  13  14
ATOM     14  C   UNL     1      13.684   8.367  22.061  1.00  0.00     0.000 C 
BRANCH  14  15
ATOM     15  C   UNL     1      13.590   7.904  23.525  1.00  0.00     0.000 C 
BRANCH  15  16
ATOM     16  C   UNL     1      13.290   9.065  24.489  1.00  0.00     0.000 C 
BRANCH  16  17
ATOM     17  C   UNL     1      11.795   9.435  24.535  1.00  0.00     0.000 C 
BRANCH  17  18
ATOM     18  C   UNL     1      10.913   8.488  25.369  1.00  0.00     0.000 C 
BRANCH  18  19
ATOM     19  C   UNL     1      11.598   8.005  26.655  1.00  0.00     0.000 C 
BRANCH  19  20
ATOM     20  C   UNL     1      10.702   7.017  27.416  1.00  0.00     0.006 C 
BRANCH  20  21
ATOM     21  C   UNL     1      10.579   5.669  26.693  1.00  0.00     0.053 C 
BRANCH  21  22
ATOM     22  C   UNL     1      10.345   4.542  27.652  1.00  0.00     0.041 C 
ATOM     23  O   UNL     1       9.845   3.459  27.249  1.00  0.00    -0.550 OA
ATOM     24  O   UNL     1      10.702   4.681  28.989  1.00  0.00    -0.550 OA
ENDBRANCH  21  22
ENDBRANCH  20  21
ENDBRANCH  19  20
ENDBRANCH  18  19
ENDBRANCH  17  18
ENDBRANCH  16  17
ENDBRANCH  15  16
ENDBRANCH  14  15
ENDBRANCH  13  14
ENDBRANCH   1  13
TORSDOF 20
ENDMDL
