MODEL 1
REMARK VINA RESULT:     2.900      0.000      0.000
REMARK INTER + INTRA:           5.069
REMARK INTER:                   6.291
REMARK INTRA:                  -1.222
REMARK UNBOUND:                -1.222
REMARK SMILES CCCCCCCCCCCCCCCCCCCCCC(=O)[O-]
REMARK SMILES IDX 12 1 11 2 10 3 9 4 8 5 7 6 6 7 5 8 4 9 3 10 2 11 1 12 13 13
REMARK SMILES IDX 14 14 15 15 16 16 17 17 18 18 19 19 20 20 21 21 22 22 23 23
REMARK SMILES IDX 24 24
REMARK H PARENT
REMARK Flexibility Score: inf
ROOT
ATOM      1  C   UNL     1      -8.104  48.874  -2.264  1.00  0.00     0.000 C 
ENDROOT
BRANCH   1   2
ATOM      2  C   UNL     1      -8.056  50.340  -2.726  1.00  0.00     0.000 C 
BRANCH   2   3
ATOM      3  C   UNL     1      -8.410  50.508  -4.214  1.00  0.00     0.000 C 
BRANCH   3   4
ATOM      4  C   UNL     1      -8.520  51.981  -4.661  1.00  0.00    -0.000 C 
BRANCH   4   5
ATOM      5  C   UNL     1      -8.708  52.116  -6.182  1.00  0.00    -0.000 C 
BRANCH   5   6
ATOM      6  C   UNL     1      -7.378  52.060  -6.956  1.00  0.00    -0.000 C 
BRANCH   6   7
ATOM      7  C   UNL     1      -7.518  51.794  -8.466  1.00  0.00    -0.000 C 
BRANCH   7   8
ATOM      8  C   UNL     1      -6.554  50.706  -8.970  1.00  0.00    -0.000 C 
BRANCH   8   9
ATOM      9  C   UNL     1      -5.544  51.251  -9.996  1.00  0.00    -0.000 C 
BRANCH   9  10
ATOM     10  C   UNL     1      -4.438  52.124  -9.363  1.00  0.00    -0.000 C 
BRANCH  10  11
ATOM     11  C   UNL     1      -3.359  51.311  -8.626  1.00  0.00    -0.003 C 
ATOM     12  C   UNL     1      -3.495  51.382  -7.106  1.00  0.00     0.004 C 
ENDBRANCH  10  11
ENDBRANCH   9  10
ENDBRANCH   8   9
ENDBRANCH   7   8
ENDBRANCH   6   7
ENDBRANCH   5   6
ENDBRANCH   4   5
ENDBRANCH   3   4
ENDBRANCH   2   3
ENDBRANCH   1   2
BRANCH   1  13
ATOM     13  C   UNL     1      -7.262  48.624  -1.003  1.00  0.00     0.000 C 
BRANCH  13  14
ATOM     14  C   UNL     1      -7.025  47.127  -0.739  1.00  0.00     0.000 C 
BRANCH  14  15
ATOM     15  C   UNL     1      -7.110  46.284  -2.021  1.00  0.00     0.000 C 
BRANCH  15  16
ATOM     16  C   UNL     1      -6.884  44.785  -1.759  1.00  0.00     0.000 C 
BRANCH  16  17
ATOM     17  C   UNL     1      -5.738  44.206  -2.619  1.00  0.00     0.000 C 
BRANCH  17  18
ATOM     18  C   UNL     1      -5.400  42.740  -2.289  1.00  0.00     0.000 C 
BRANCH  18  19
ATOM     19  C   UNL     1      -5.192  42.444  -0.792  1.00  0.00     0.000 C 
BRANCH  19  20
ATOM     20  C   UNL     1      -3.782  42.760  -0.258  1.00  0.00     0.006 C 
BRANCH  20  21
ATOM     21  C   UNL     1      -2.704  42.711  -1.350  1.00  0.00     0.053 C 
BRANCH  21  22
ATOM     22  C   UNL     1      -2.073  44.056  -1.547  1.00  0.00     0.041 C 
ATOM     23  O   UNL     1      -2.616  45.085  -1.066  1.00  0.00    -0.550 OA
ATOM     24  O   UNL     1      -0.920  44.184  -2.313  1.00  0.00    -0.550 OA
ENDBRANCH  21  22
ENDBRANCH  20  21
ENDBRANCH  19  20
ENDBRANCH  18  19
ENDBRANCH  17  18
ENDBRANCH  16  17
ENDBRANCH  15  16
ENDBRANCH  14  15
ENDBRANCH  13  14
ENDBRANCH   1  13
TORSDOF 20
ENDMDL
MODEL 2
REMARK VINA RESULT:     3.724      2.711      9.075
REMARK INTER + INTRA:           6.855
REMARK INTER:                   7.953
REMARK INTRA:                  -1.098
REMARK UNBOUND:                -1.222
REMARK SMILES CCCCCCCCCCCCCCCCCCCCCC(=O)[O-]
REMARK SMILES IDX 12 1 11 2 10 3 9 4 8 5 7 6 6 7 5 8 4 9 3 10 2 11 1 12 13 13
REMARK SMILES IDX 14 14 15 15 16 16 17 17 18 18 19 19 20 20 21 21 22 22 23 23
REMARK SMILES IDX 24 24
REMARK H PARENT
REMARK Flexibility Score: inf
ROOT
ATOM      1  C   UNL     1      -8.008  48.681  -2.260  1.00  0.00     0.000 C 
ENDROOT
BRANCH   1   2
ATOM      2  C   UNL     1      -7.287  48.287  -0.959  1.00  0.00     0.000 C 
BRANCH   2   3
ATOM      3  C   UNL     1      -7.071  46.769  -0.832  1.00  0.00     0.000 C 
BRANCH   3   4
ATOM      4  C   UNL     1      -6.507  46.116  -2.112  1.00  0.00    -0.000 C 
BRANCH   4   5
ATOM      5  C   UNL     1      -6.911  44.636  -2.237  1.00  0.00    -0.000 C 
BRANCH   5   6
ATOM      6  C   UNL     1      -5.748  43.735  -2.691  1.00  0.00    -0.000 C 
BRANCH   6   7
ATOM      7  C   UNL     1      -5.228  42.761  -1.619  1.00  0.00    -0.000 C 
BRANCH   7   8
ATOM      8  C   UNL     1      -3.789  43.080  -1.173  1.00  0.00    -0.000 C 
BRANCH   8   9
ATOM      9  C   UNL     1      -3.492  44.591  -1.200  1.00  0.00    -0.000 C 
BRANCH   9  10
ATOM     10  C   UNL     1      -1.982  44.918  -1.217  1.00  0.00    -0.000 C 
BRANCH  10  11
ATOM     11  C   UNL     1      -1.282  44.520  -2.529  1.00  0.00    -0.003 C 
ATOM     12  C   UNL     1       0.240  44.473  -2.400  1.00  0.00     0.004 C 
ENDBRANCH  10  11
ENDBRANCH   9  10
ENDBRANCH   8   9
ENDBRANCH   7   8
ENDBRANCH   6   7
ENDBRANCH   5   6
ENDBRANCH   4   5
ENDBRANCH   3   4
ENDBRANCH   2   3
ENDBRANCH   1   2
BRANCH   1  13
ATOM     13  C   UNL     1      -7.641  50.095  -2.734  1.00  0.00     0.000 C 
BRANCH  13  14
ATOM     14  C   UNL     1      -8.069  50.359  -4.189  1.00  0.00     0.000 C 
BRANCH  14  15
ATOM     15  C   UNL     1      -9.075  51.515  -4.304  1.00  0.00     0.000 C 
BRANCH  15  16
ATOM     16  C   UNL     1      -9.123  52.118  -5.718  1.00  0.00     0.000 C 
BRANCH  16  17
ATOM     17  C   UNL     1      -7.756  52.041  -6.435  1.00  0.00     0.000 C 
BRANCH  17  18
ATOM     18  C   UNL     1      -7.860  52.111  -7.970  1.00  0.00     0.000 C 
BRANCH  18  19
ATOM     19  C   UNL     1      -6.768  51.335  -8.730  1.00  0.00     0.000 C 
BRANCH  19  20
ATOM     20  C   UNL     1      -5.467  52.120  -8.979  1.00  0.00     0.006 C 
BRANCH  20  21
ATOM     21  C   UNL     1      -4.239  51.211  -9.131  1.00  0.00     0.053 C 
BRANCH  21  22
ATOM     22  C   UNL     1      -3.365  51.276  -7.916  1.00  0.00     0.041 C 
ATOM     23  O   UNL     1      -2.244  51.847  -7.974  1.00  0.00    -0.550 OA
ATOM     24  O   UNL     1      -3.758  50.656  -6.735  1.00  0.00    -0.550 OA
ENDBRANCH  21  22
ENDBRANCH  20  21
ENDBRANCH  19  20
ENDBRANCH  18  19
ENDBRANCH  17  18
ENDBRANCH  16  17
ENDBRANCH  15  16
ENDBRANCH  14  15
ENDBRANCH  13  14
ENDBRANCH   1  13
TORSDOF 20
ENDMDL
MODEL 3
REMARK VINA RESULT:     4.432      3.365      5.814
REMARK INTER + INTRA:           8.392
REMARK INTER:                   8.926
REMARK INTRA:                  -0.534
REMARK UNBOUND:                -1.222
REMARK SMILES CCCCCCCCCCCCCCCCCCCCCC(=O)[O-]
REMARK SMILES IDX 12 1 11 2 10 3 9 4 8 5 7 6 6 7 5 8 4 9 3 10 2 11 1 12 13 13
REMARK SMILES IDX 14 14 15 15 16 16 17 17 18 18 19 19 20 20 21 21 22 22 23 23
REMARK SMILES IDX 24 24
REMARK H PARENT
REMARK Flexibility Score: inf
ROOT
ATOM      1  C   UNL     1      -4.543  51.071   0.873  1.00  0.00     0.000 C 
ENDROOT
BRANCH   1   2
ATOM      2  C   UNL     1      -3.659  51.905  -0.070  1.00  0.00     0.000 C 
BRANCH   2   3
ATOM      3  C   UNL     1      -2.180  51.483  -0.030  1.00  0.00     0.000 C 
BRANCH   3   4
ATOM      4  C   UNL     1      -1.328  52.110  -1.154  1.00  0.00    -0.000 C 
BRANCH   4   5
ATOM      5  C   UNL     1      -0.851  51.062  -2.175  1.00  0.00    -0.000 C 
BRANCH   5   6
ATOM      6  C   UNL     1      -0.323  51.694  -3.476  1.00  0.00    -0.000 C 
BRANCH   6   7
ATOM      7  C   UNL     1      -1.408  52.063  -4.504  1.00  0.00    -0.000 C 
BRANCH   7   8
ATOM      8  C   UNL     1      -0.927  51.909  -5.958  1.00  0.00    -0.000 C 
BRANCH   8   9
ATOM      9  C   UNL     1      -1.857  51.006  -6.788  1.00  0.00    -0.000 C 
BRANCH   9  10
ATOM     10  C   UNL     1      -3.101  51.743  -7.333  1.00  0.00    -0.000 C 
BRANCH  10  11
ATOM     11  C   UNL     1      -4.051  50.837  -8.136  1.00  0.00    -0.003 C 
ATOM     12  C   UNL     1      -4.699  51.554  -9.319  1.00  0.00     0.004 C 
ENDBRANCH  10  11
ENDBRANCH   9  10
ENDBRANCH   8   9
ENDBRANCH   7   8
ENDBRANCH   6   7
ENDBRANCH   5   6
ENDBRANCH   4   5
ENDBRANCH   3   4
ENDBRANCH   2   3
ENDBRANCH   1   2
BRANCH   1  13
ATOM     13  C   UNL     1      -6.022  51.081   0.460  1.00  0.00     0.000 C 
BRANCH  13  14
ATOM     14  C   UNL     1      -6.303  52.050  -0.703  1.00  0.00     0.000 C 
BRANCH  14  15
ATOM     15  C   UNL     1      -7.797  52.125  -1.057  1.00  0.00     0.000 C 
BRANCH  15  16
ATOM     16  C   UNL     1      -8.183  51.167  -2.197  1.00  0.00     0.000 C 
BRANCH  16  17
ATOM     17  C   UNL     1      -8.793  49.848  -1.673  1.00  0.00     0.000 C 
BRANCH  17  18
ATOM     18  C   UNL     1      -7.838  49.044  -0.769  1.00  0.00     0.000 C 
BRANCH  18  19
ATOM     19  C   UNL     1      -6.837  48.147  -1.520  1.00  0.00     0.000 C 
BRANCH  19  20
ATOM     20  C   UNL     1      -7.075  46.634  -1.359  1.00  0.00     0.006 C 
BRANCH  20  21
ATOM     21  C   UNL     1      -6.113  45.784  -2.202  1.00  0.00     0.053 C 
BRANCH  21  22
ATOM     22  C   UNL     1      -6.576  44.361  -2.281  1.00  0.00     0.041 C 
ATOM     23  O   UNL     1      -7.793  44.082  -2.112  1.00  0.00    -0.550 OA
ATOM     24  O   UNL     1      -5.660  43.335  -2.481  1.00  0.00    -0.550 OA
ENDBRANCH  21  22
ENDBRANCH  20  21
ENDBRANCH  19  20
ENDBRANCH  18  19
ENDBRANCH  17  18
ENDBRANCH  16  17
ENDBRANCH  15  16
ENDBRANCH  14  15
ENDBRANCH  13  14
ENDBRANCH   1  13
TORSDOF 20
ENDMDL
MODEL 4
REMARK VINA RESULT:     4.478      1.186      2.124
REMARK INTER + INTRA:           8.492
REMARK INTER:                   8.985
REMARK INTRA:                  -0.493
REMARK UNBOUND:                -1.222
REMARK SMILES CCCCCCCCCCCCCCCCCCCCCC(=O)[O-]
REMARK SMILES IDX 12 1 11 2 10 3 9 4 8 5 7 6 6 7 5 8 4 9 3 10 2 11 1 12 13 13
REMARK SMILES IDX 14 14 15 15 16 16 17 17 18 18 19 19 20 20 21 21 22 22 23 23
REMARK SMILES IDX 24 24
REMARK H PARENT
REMARK Flexibility Score: inf
ROOT
ATOM      1  C   UNL     1      -7.251  47.873  -0.935  1.00  0.00     0.000 C 
ENDROOT
BRANCH   1   2
ATOM      2  C   UNL     1      -7.623  48.413  -2.327  1.00  0.00     0.000 C 
BRANCH   2   3
ATOM      3  C   UNL     1      -8.431  49.720  -2.263  1.00  0.00     0.000 C 
BRANCH   3   4
ATOM      4  C   UNL     1      -8.869  50.244  -3.648  1.00  0.00    -0.000 C 
BRANCH   4   5
ATOM      5  C   UNL     1      -8.307  51.645  -3.945  1.00  0.00    -0.000 C 
BRANCH   5   6
ATOM      6  C   UNL     1      -8.434  52.038  -5.428  1.00  0.00    -0.000 C 
BRANCH   6   7
ATOM      7  C   UNL     1      -7.100  52.125  -6.191  1.00  0.00    -0.000 C 
BRANCH   7   8
ATOM      8  C   UNL     1      -7.253  51.830  -7.694  1.00  0.00    -0.000 C 
BRANCH   8   9
ATOM      9  C   UNL     1      -5.900  51.822  -8.428  1.00  0.00    -0.000 C 
BRANCH   9  10
ATOM     10  C   UNL     1      -4.685  51.842  -7.474  1.00  0.00    -0.000 C 
BRANCH  10  11
ATOM     11  C   UNL     1      -3.417  51.214  -8.079  1.00  0.00    -0.003 C 
ATOM     12  C   UNL     1      -2.879  51.996  -9.276  1.00  0.00     0.004 C 
ENDBRANCH  10  11
ENDBRANCH   9  10
ENDBRANCH   8   9
ENDBRANCH   7   8
ENDBRANCH   6   7
ENDBRANCH   5   6
ENDBRANCH   4   5
ENDBRANCH   3   4
ENDBRANCH   2   3
ENDBRANCH   1   2
BRANCH   1  13
ATOM     13  C   UNL     1      -6.479  46.547  -1.003  1.00  0.00     0.000 C 
BRANCH  13  14
ATOM     14  C   UNL     1      -7.363  45.371  -1.454  1.00  0.00     0.000 C 
BRANCH  14  15
ATOM     15  C   UNL     1      -6.826  44.685  -2.721  1.00  0.00     0.000 C 
BRANCH  15  16
ATOM     16  C   UNL     1      -5.814  43.570  -2.405  1.00  0.00     0.000 C 
BRANCH  16  17
ATOM     17  C   UNL     1      -4.975  43.880  -1.146  1.00  0.00     0.000 C 
BRANCH  17  18
ATOM     18  C   UNL     1      -4.128  42.687  -0.660  1.00  0.00     0.000 C 
BRANCH  18  19
ATOM     19  C   UNL     1      -2.888  42.381  -1.521  1.00  0.00     0.000 C 
BRANCH  19  20
ATOM     20  C   UNL     1      -1.644  43.227  -1.191  1.00  0.00     0.006 C 
BRANCH  20  21
ATOM     21  C   UNL     1      -1.640  44.587  -1.904  1.00  0.00     0.053 C 
BRANCH  21  22
ATOM     22  C   UNL     1      -0.353  44.808  -2.639  1.00  0.00     0.041 C 
ATOM     23  O   UNL     1      -0.003  44.015  -3.553  1.00  0.00    -0.550 OA
ATOM     24  O   UNL     1       0.491  45.851  -2.276  1.00  0.00    -0.550 OA
ENDBRANCH  21  22
ENDBRANCH  20  21
ENDBRANCH  19  20
ENDBRANCH  18  19
ENDBRANCH  17  18
ENDBRANCH  16  17
ENDBRANCH  15  16
ENDBRANCH  14  15
ENDBRANCH  13  14
ENDBRANCH   1  13
TORSDOF 20
ENDMDL
MODEL 5
REMARK VINA RESULT:     4.675      3.291      9.156
REMARK INTER + INTRA:           8.919
REMARK INTER:                   9.721
REMARK INTRA:                  -0.802
REMARK UNBOUND:                -1.222
REMARK SMILES CCCCCCCCCCCCCCCCCCCCCC(=O)[O-]
REMARK SMILES IDX 12 1 11 2 10 3 9 4 8 5 7 6 6 7 5 8 4 9 3 10 2 11 1 12 13 13
REMARK SMILES IDX 14 14 15 15 16 16 17 17 18 18 19 19 20 20 21 21 22 22 23 23
REMARK SMILES IDX 24 24
REMARK H PARENT
REMARK Flexibility Score: inf
ROOT
ATOM      1  C   UNL     1      -7.808  48.765  -1.702  1.00  0.00     0.000 C 
ENDROOT
BRANCH   1   2
ATOM      2  C   UNL     1      -7.861  47.320  -1.176  1.00  0.00     0.000 C 
BRANCH   2   3
ATOM      3  C   UNL     1      -6.983  46.356  -1.991  1.00  0.00     0.000 C 
BRANCH   3   4
ATOM      4  C   UNL     1      -6.652  45.043  -1.248  1.00  0.00    -0.000 C 
BRANCH   4   5
ATOM      5  C   UNL     1      -6.182  43.935  -2.206  1.00  0.00    -0.000 C 
BRANCH   5   6
ATOM      6  C   UNL     1      -5.702  42.671  -1.468  1.00  0.00    -0.000 C 
BRANCH   6   7
ATOM      7  C   UNL     1      -4.175  42.552  -1.315  1.00  0.00    -0.000 C 
BRANCH   7   8
ATOM      8  C   UNL     1      -3.476  43.920  -1.237  1.00  0.00    -0.000 C 
BRANCH   8   9
ATOM      9  C   UNL     1      -1.944  43.790  -1.168  1.00  0.00    -0.000 C 
BRANCH   9  10
ATOM     10  C   UNL     1      -1.252  43.941  -2.541  1.00  0.00    -0.000 C 
BRANCH  10  11
ATOM     11  C   UNL     1       0.242  44.294  -2.442  1.00  0.00    -0.003 C 
ATOM     12  C   UNL     1       0.911  44.440  -3.808  1.00  0.00     0.004 C 
ENDBRANCH  10  11
ENDBRANCH   9  10
ENDBRANCH   8   9
ENDBRANCH   7   8
ENDBRANCH   6   7
ENDBRANCH   5   6
ENDBRANCH   4   5
ENDBRANCH   3   4
ENDBRANCH   2   3
ENDBRANCH   1   2
BRANCH   1  13
ATOM     13  C   UNL     1      -9.125  49.524  -1.478  1.00  0.00     0.000 C 
BRANCH  13  14
ATOM     14  C   UNL     1      -8.905  51.028  -1.235  1.00  0.00     0.000 C 
BRANCH  14  15
ATOM     15  C   UNL     1      -7.442  51.449  -1.449  1.00  0.00     0.000 C 
BRANCH  15  16
ATOM     16  C   UNL     1      -7.216  52.125  -2.813  1.00  0.00     0.000 C 
BRANCH  16  17
ATOM     17  C   UNL     1      -8.391  51.887  -3.787  1.00  0.00     0.000 C 
BRANCH  17  18
ATOM     18  C   UNL     1      -8.050  50.924  -4.941  1.00  0.00     0.000 C 
BRANCH  18  19
ATOM     19  C   UNL     1      -8.006  51.575  -6.336  1.00  0.00     0.000 C 
BRANCH  19  20
ATOM     20  C   UNL     1      -6.598  51.957  -6.830  1.00  0.00     0.006 C 
BRANCH  20  21
ATOM     21  C   UNL     1      -6.458  51.876  -8.357  1.00  0.00     0.053 C 
BRANCH  21  22
ATOM     22  C   UNL     1      -5.063  51.496  -8.752  1.00  0.00     0.041 C 
ATOM     23  O   UNL     1      -4.232  51.141  -7.874  1.00  0.00    -0.550 OA
ATOM     24  O   UNL     1      -4.659  51.593 -10.078  1.00  0.00    -0.550 OA
ENDBRANCH  21  22
ENDBRANCH  20  21
ENDBRANCH  19  20
ENDBRANCH  18  19
ENDBRANCH  17  18
ENDBRANCH  16  17
ENDBRANCH  15  16
ENDBRANCH  14  15
ENDBRANCH  13  14
ENDBRANCH   1  13
TORSDOF 20
ENDMDL
