MODEL 1
REMARK VINA RESULT:    -3.604      0.000      0.000
REMARK INTER + INTRA:          -4.551
REMARK INTER:                  -4.341
REMARK INTRA:                  -0.210
REMARK UNBOUND:                -0.210
REMARK SMILES OCC(O)CO
REMARK SMILES IDX 3 1 5 2 6 3 2 5 1 6 4 8
REMARK H PARENT 6 4 1 7 4 9
REMARK Flexibility Score: inf
ROOT
ATOM      1  C   UNL     1      13.752  -4.137  22.576  1.00  0.00     0.165 C 
ENDROOT
BRANCH   1   2
ATOM      2  C   UNL     1      12.523  -4.781  23.232  1.00  0.00     0.190 C 
BRANCH   2   3
ATOM      3  O   UNL     1      12.248  -4.145  24.450  1.00  0.00    -0.394 OA
ATOM      4  H   UNL     1      13.107  -3.752  24.757  1.00  0.00     0.210 HD
ENDBRANCH   2   3
ENDBRANCH   1   2
BRANCH   1   5
ATOM      5  C   UNL     1      15.032  -4.444  23.367  1.00  0.00     0.190 C 
BRANCH   5   6
ATOM      6  O   UNL     1      15.242  -3.498  24.381  1.00  0.00    -0.394 OA
ATOM      7  H   UNL     1      15.384  -4.007  25.223  1.00  0.00     0.210 HD
ENDBRANCH   5   6
ENDBRANCH   1   5
BRANCH   1   8
ATOM      8  O   UNL     1      13.582  -2.745  22.490  1.00  0.00    -0.388 OA
ATOM      9  H   UNL     1      13.113  -2.563  21.634  1.00  0.00     0.211 HD
ENDBRANCH   1   8
TORSDOF 5
ENDMDL
MODEL 2
REMARK VINA RESULT:    -3.574     16.449     17.322
REMARK INTER + INTRA:          -4.516
REMARK INTER:                  -4.314
REMARK INTRA:                  -0.201
REMARK UNBOUND:                -0.210
REMARK SMILES OCC(O)CO
REMARK SMILES IDX 3 1 5 2 6 3 2 5 1 6 4 8
REMARK H PARENT 6 4 1 7 4 9
REMARK Flexibility Score: inf
ROOT
ATOM      1  C   UNL     1      16.314  11.489  16.077  1.00  0.00     0.165 C 
ENDROOT
BRANCH   1   2
ATOM      2  C   UNL     1      15.375  10.278  16.150  1.00  0.00     0.190 C 
BRANCH   2   3
ATOM      3  O   UNL     1      14.109  10.685  16.590  1.00  0.00    -0.394 OA
ATOM      4  H   UNL     1      13.556  10.802  15.773  1.00  0.00     0.210 HD
ENDBRANCH   2   3
ENDBRANCH   1   2
BRANCH   1   5
ATOM      5  C   UNL     1      16.163  12.232  14.742  1.00  0.00     0.190 C 
BRANCH   5   6
ATOM      6  O   UNL     1      15.316  11.537  13.866  1.00  0.00    -0.394 OA
ATOM      7  H   UNL     1      15.238  12.091  13.045  1.00  0.00     0.210 HD
ENDBRANCH   5   6
ENDBRANCH   1   5
BRANCH   1   8
ATOM      8  O   UNL     1      17.648  11.077  16.233  1.00  0.00    -0.388 OA
ATOM      9  H   UNL     1      17.923  10.655  15.377  1.00  0.00     0.211 HD
ENDBRANCH   1   8
TORSDOF 5
ENDMDL
MODEL 3
REMARK VINA RESULT:    -3.559      1.442      2.603
REMARK INTER + INTRA:          -4.497
REMARK INTER:                  -4.472
REMARK INTRA:                  -0.025
REMARK UNBOUND:                -0.210
REMARK SMILES OCC(O)CO
REMARK SMILES IDX 3 1 5 2 6 3 2 5 1 6 4 8
REMARK H PARENT 6 4 1 7 4 9
REMARK Flexibility Score: inf
ROOT
ATOM      1  C   UNL     1      13.963  -3.723  23.289  1.00  0.00     0.165 C 
ENDROOT
BRANCH   1   2
ATOM      2  C   UNL     1      14.419  -5.084  22.746  1.00  0.00     0.190 C 
BRANCH   2   3
ATOM      3  O   UNL     1      14.767  -4.963  21.394  1.00  0.00    -0.394 OA
ATOM      4  H   UNL     1      15.751  -5.089  21.350  1.00  0.00     0.210 HD
ENDBRANCH   2   3
ENDBRANCH   1   2
BRANCH   1   5
ATOM      5  C   UNL     1      12.722  -3.866  24.181  1.00  0.00     0.190 C 
BRANCH   5   6
ATOM      6  O   UNL     1      11.977  -5.004  23.837  1.00  0.00    -0.394 OA
ATOM      7  H   UNL     1      11.507  -5.298  24.662  1.00  0.00     0.210 HD
ENDBRANCH   5   6
ENDBRANCH   1   5
BRANCH   1   8
ATOM      8  O   UNL     1      13.675  -2.849  22.227  1.00  0.00    -0.388 OA
ATOM      9  H   UNL     1      13.124  -2.112  22.599  1.00  0.00     0.211 HD
ENDBRANCH   1   8
TORSDOF 5
ENDMDL
MODEL 4
REMARK VINA RESULT:    -3.531      1.632      2.391
REMARK INTER + INTRA:          -4.464
REMARK INTER:                  -4.247
REMARK INTRA:                  -0.217
REMARK UNBOUND:                -0.210
REMARK SMILES OCC(O)CO
REMARK SMILES IDX 3 1 5 2 6 3 2 5 1 6 4 8
REMARK H PARENT 6 4 1 7 4 9
REMARK Flexibility Score: inf
ROOT
ATOM      1  C   UNL     1      13.196  -3.945  22.174  1.00  0.00     0.165 C 
ENDROOT
BRANCH   1   2
ATOM      2  C   UNL     1      12.129  -3.687  21.102  1.00  0.00     0.190 C 
BRANCH   2   3
ATOM      3  O   UNL     1      10.884  -4.146  21.551  1.00  0.00    -0.394 OA
ATOM      4  H   UNL     1      10.915  -4.103  22.543  1.00  0.00     0.210 HD
ENDBRANCH   2   3
ENDBRANCH   1   2
BRANCH   1   5
ATOM      5  C   UNL     1      12.689  -4.927  23.240  1.00  0.00     0.190 C 
BRANCH   5   6
ATOM      6  O   UNL     1      11.901  -4.273  24.201  1.00  0.00    -0.394 OA
ATOM      7  H   UNL     1      11.649  -3.394  23.813  1.00  0.00     0.210 HD
ENDBRANCH   5   6
ENDBRANCH   1   5
BRANCH   1   8
ATOM      8  O   UNL     1      13.563  -2.737  22.791  1.00  0.00    -0.388 OA
ATOM      9  H   UNL     1      13.839  -2.115  22.069  1.00  0.00     0.211 HD
ENDBRANCH   1   8
TORSDOF 5
ENDMDL
MODEL 5
REMARK VINA RESULT:    -3.510     19.896     20.759
REMARK INTER + INTRA:          -4.438
REMARK INTER:                  -4.434
REMARK INTRA:                  -0.005
REMARK UNBOUND:                -0.210
REMARK SMILES OCC(O)CO
REMARK SMILES IDX 3 1 5 2 6 3 2 5 1 6 4 8
REMARK H PARENT 6 4 1 7 4 9
REMARK Flexibility Score: inf
ROOT
ATOM      1  C   UNL     1      18.634  12.733  13.274  1.00  0.00     0.165 C 
ENDROOT
BRANCH   1   2
ATOM      2  C   UNL     1      17.871  13.571  12.240  1.00  0.00     0.190 C 
BRANCH   2   3
ATOM      3  O   UNL     1      18.567  13.574  11.024  1.00  0.00    -0.394 OA
ATOM      4  H   UNL     1      18.523  12.644  10.678  1.00  0.00     0.210 HD
ENDBRANCH   2   3
ENDBRANCH   1   2
BRANCH   1   5
ATOM      5  C   UNL     1      20.010  13.344  13.581  1.00  0.00     0.190 C 
BRANCH   5   6
ATOM      6  O   UNL     1      20.089  13.776  14.913  1.00  0.00    -0.394 OA
ATOM      7  H   UNL     1      20.897  13.351  15.304  1.00  0.00     0.210 HD
ENDBRANCH   5   6
ENDBRANCH   1   5
BRANCH   1   8
ATOM      8  O   UNL     1      18.803  11.420  12.804  1.00  0.00    -0.388 OA
ATOM      9  H   UNL     1      18.007  11.205  12.251  1.00  0.00     0.211 HD
ENDBRANCH   1   8
TORSDOF 5
ENDMDL
MODEL 6
REMARK VINA RESULT:    -3.481     19.797     20.550
REMARK INTER + INTRA:          -4.403
REMARK INTER:                  -4.185
REMARK INTRA:                  -0.219
REMARK UNBOUND:                -0.210
REMARK SMILES OCC(O)CO
REMARK SMILES IDX 3 1 5 2 6 3 2 5 1 6 4 8
REMARK H PARENT 6 4 1 7 4 9
REMARK Flexibility Score: inf
ROOT
ATOM      1  C   UNL     1      18.148  13.617  12.369  1.00  0.00     0.165 C 
ENDROOT
BRANCH   1   2
ATOM      2  C   UNL     1      19.050  12.681  13.184  1.00  0.00     0.190 C 
BRANCH   2   3
ATOM      3  O   UNL     1      19.001  11.389  12.647  1.00  0.00    -0.394 OA
ATOM      4  H   UNL     1      19.261  11.476  11.693  1.00  0.00     0.210 HD
ENDBRANCH   2   3
ENDBRANCH   1   2
BRANCH   1   5
ATOM      5  C   UNL     1      16.663  13.337  12.642  1.00  0.00     0.190 C 
BRANCH   5   6
ATOM      6  O   UNL     1      16.504  12.353  13.630  1.00  0.00    -0.394 OA
ATOM      7  H   UNL     1      17.005  12.666  14.428  1.00  0.00     0.210 HD
ENDBRANCH   5   6
ENDBRANCH   1   5
BRANCH   1   8
ATOM      8  O   UNL     1      18.405  13.464  10.997  1.00  0.00    -0.388 OA
ATOM      9  H   UNL     1      17.604  13.797  10.513  1.00  0.00     0.211 HD
ENDBRANCH   1   8
TORSDOF 5
ENDMDL
MODEL 7
REMARK VINA RESULT:    -3.449     20.046     20.999
REMARK INTER + INTRA:          -4.365
REMARK INTER:                  -4.362
REMARK INTRA:                  -0.003
REMARK UNBOUND:                -0.210
REMARK SMILES OCC(O)CO
REMARK SMILES IDX 3 1 5 2 6 3 2 5 1 6 4 8
REMARK H PARENT 6 4 1 7 4 9
REMARK Flexibility Score: inf
ROOT
ATOM      1  C   UNL     1      19.455  12.743  12.995  1.00  0.00     0.165 C 
ENDROOT
BRANCH   1   2
ATOM      2  C   UNL     1      19.941  13.442  14.271  1.00  0.00     0.190 C 
BRANCH   2   3
ATOM      3  O   UNL     1      21.282  13.819  14.124  1.00  0.00    -0.394 OA
ATOM      4  H   UNL     1      21.813  12.981  14.177  1.00  0.00     0.210 HD
ENDBRANCH   2   3
ENDBRANCH   1   2
BRANCH   1   5
ATOM      5  C   UNL     1      18.460  13.620  12.223  1.00  0.00     0.190 C 
BRANCH   5   6
ATOM      6  O   UNL     1      18.566  13.414  10.839  1.00  0.00    -0.394 OA
ATOM      7  H   UNL     1      17.643  13.279  10.498  1.00  0.00     0.210 HD
ENDBRANCH   5   6
ENDBRANCH   1   5
BRANCH   1   8
ATOM      8  O   UNL     1      18.845  11.519  13.316  1.00  0.00    -0.388 OA
ATOM      9  H   UNL     1      17.916  11.724  13.601  1.00  0.00     0.211 HD
ENDBRANCH   1   8
TORSDOF 5
ENDMDL
MODEL 8
REMARK VINA RESULT:    -3.391     19.276     20.155
REMARK INTER + INTRA:          -4.295
REMARK INTER:                  -4.293
REMARK INTRA:                  -0.003
REMARK UNBOUND:                -0.210
REMARK SMILES OCC(O)CO
REMARK SMILES IDX 3 1 5 2 6 3 2 5 1 6 4 8
REMARK H PARENT 6 4 1 7 4 9
REMARK Flexibility Score: inf
ROOT
ATOM      1  C   UNL     1      18.586  12.750  13.275  1.00  0.00     0.165 C 
ENDROOT
BRANCH   1   2
ATOM      2  C   UNL     1      17.418  12.584  14.257  1.00  0.00     0.190 C 
BRANCH   2   3
ATOM      3  O   UNL     1      17.813  11.781  15.334  1.00  0.00    -0.394 OA
ATOM      4  H   UNL     1      17.616  10.845  15.068  1.00  0.00     0.210 HD
ENDBRANCH   2   3
ENDBRANCH   1   2
BRANCH   1   5
ATOM      5  C   UNL     1      18.244  13.756  12.167  1.00  0.00     0.190 C 
BRANCH   5   6
ATOM      6  O   UNL     1      18.605  13.264  10.904  1.00  0.00    -0.394 OA
ATOM      7  H   UNL     1      17.862  13.492  10.286  1.00  0.00     0.210 HD
ENDBRANCH   5   6
ENDBRANCH   1   5
BRANCH   1   8
ATOM      8  O   UNL     1      18.910  11.512  12.695  1.00  0.00    -0.388 OA
ATOM      9  H   UNL     1      19.898  11.423  12.734  1.00  0.00     0.211 HD
ENDBRANCH   1   8
TORSDOF 5
ENDMDL
MODEL 9
REMARK VINA RESULT:    -3.380     18.589     18.966
REMARK INTER + INTRA:          -4.282
REMARK INTER:                  -4.250
REMARK INTRA:                  -0.032
REMARK UNBOUND:                -0.210
REMARK SMILES OCC(O)CO
REMARK SMILES IDX 3 1 5 2 6 3 2 5 1 6 4 8
REMARK H PARENT 6 4 1 7 4 9
REMARK Flexibility Score: inf
ROOT
ATOM      1  C   UNL     1      17.426  12.659  14.598  1.00  0.00     0.165 C 
ENDROOT
BRANCH   1   2
ATOM      2  C   UNL     1      16.121  12.579  13.794  1.00  0.00     0.190 C 
BRANCH   2   3
ATOM      3  O   UNL     1      15.399  11.441  14.172  1.00  0.00    -0.394 OA
ATOM      4  H   UNL     1      14.531  11.492  13.694  1.00  0.00     0.210 HD
ENDBRANCH   2   3
ENDBRANCH   1   2
BRANCH   1   5
ATOM      5  C   UNL     1      18.651  12.677  13.673  1.00  0.00     0.190 C 
BRANCH   5   6
ATOM      6  O   UNL     1      18.762  11.478  12.953  1.00  0.00    -0.394 OA
ATOM      7  H   UNL     1      19.423  10.915  13.435  1.00  0.00     0.210 HD
ENDBRANCH   5   6
ENDBRANCH   1   5
BRANCH   1   8
ATOM      8  O   UNL     1      17.521  11.566  15.475  1.00  0.00    -0.388 OA
ATOM      9  H   UNL     1      18.013  11.881  16.279  1.00  0.00     0.211 HD
ENDBRANCH   1   8
TORSDOF 5
ENDMDL
