MODEL 1
REMARK VINA RESULT:    -3.848      0.000      0.000
REMARK INTER + INTRA:          -7.242
REMARK INTER:                  -6.211
REMARK INTRA:                  -1.031
REMARK UNBOUND:                -1.031
REMARK SMILES CCCCCCCCCCCCO
REMARK SMILES IDX 7 1 6 2 5 3 4 4 3 5 2 6 1 7 8 8 9 9 10 10 11 11 12 12 13 13
REMARK H PARENT 13 14
REMARK Flexibility Score: inf
ROOT
ATOM      1  C   UNL     1     161.076 162.294 183.772  1.00  0.00     0.000 C 
ENDROOT
BRANCH   1   2
ATOM      2  C   UNL     1     162.122 162.989 182.888  1.00  0.00    -0.000 C 
BRANCH   2   3
ATOM      3  C   UNL     1     163.563 162.576 183.232  1.00  0.00    -0.000 C 
BRANCH   3   4
ATOM      4  C   UNL     1     164.154 161.590 182.211  1.00  0.00    -0.000 C 
BRANCH   4   5
ATOM      5  C   UNL     1     164.368 160.181 182.794  1.00  0.00    -0.000 C 
BRANCH   5   6
ATOM      6  C   UNL     1     165.701 159.981 183.538  1.00  0.00    -0.003 C 
ATOM      7  C   UNL     1     166.865 160.737 182.898  1.00  0.00     0.004 C 
ENDBRANCH   5   6
ENDBRANCH   4   5
ENDBRANCH   3   4
ENDBRANCH   2   3
ENDBRANCH   1   2
BRANCH   1   8
ATOM      8  C   UNL     1     160.556 161.014 183.101  1.00  0.00     0.000 C 
BRANCH   8   9
ATOM      9  C   UNL     1     159.990 161.263 181.692  1.00  0.00     0.000 C 
BRANCH   9  10
ATOM     10  C   UNL     1     160.780 160.601 180.545  1.00  0.00     0.002 C 
BRANCH  10  11
ATOM     11  C   UNL     1     161.159 161.540 179.385  1.00  0.00     0.028 C 
BRANCH  11  12
ATOM     12  C   UNL     1     160.647 162.975 179.553  1.00  0.00     0.156 C 
BRANCH  12  13
ATOM     13  O   UNL     1     159.898 163.373 178.435  1.00  0.00    -0.396 OA
ATOM     14  H   UNL     1     160.440 163.155 177.633  1.00  0.00     0.210 HD
ENDBRANCH  12  13
ENDBRANCH  11  12
ENDBRANCH  10  11
ENDBRANCH   9  10
ENDBRANCH   8   9
ENDBRANCH   1   8
TORSDOF 11
ENDMDL
MODEL 2
REMARK VINA RESULT:    -3.838      1.036      1.470
REMARK INTER + INTRA:          -7.226
REMARK INTER:                  -6.017
REMARK INTRA:                  -1.209
REMARK UNBOUND:                -1.031
REMARK SMILES CCCCCCCCCCCCO
REMARK SMILES IDX 7 1 6 2 5 3 4 4 3 5 2 6 1 7 8 8 9 9 10 10 11 11 12 12 13 13
REMARK H PARENT 13 14
REMARK Flexibility Score: inf
ROOT
ATOM      1  C   UNL     1     160.257 162.199 182.883  1.00  0.00     0.000 C 
ENDROOT
BRANCH   1   2
ATOM      2  C   UNL     1     161.470 162.782 183.624  1.00  0.00    -0.000 C 
BRANCH   2   3
ATOM      3  C   UNL     1     162.504 163.407 182.673  1.00  0.00    -0.000 C 
BRANCH   3   4
ATOM      4  C   UNL     1     163.951 163.089 183.083  1.00  0.00    -0.000 C 
BRANCH   4   5
ATOM      5  C   UNL     1     164.701 162.250 182.031  1.00  0.00    -0.000 C 
BRANCH   5   6
ATOM      6  C   UNL     1     164.223 160.792 181.901  1.00  0.00    -0.003 C 
ATOM      7  C   UNL     1     164.378 159.993 183.195  1.00  0.00     0.004 C 
ENDBRANCH   5   6
ENDBRANCH   4   5
ENDBRANCH   3   4
ENDBRANCH   2   3
ENDBRANCH   1   2
BRANCH   1   8
ATOM      8  C   UNL     1     160.391 160.677 182.726  1.00  0.00     0.000 C 
BRANCH   8   9
ATOM      9  C   UNL     1     160.016 160.185 181.317  1.00  0.00     0.000 C 
BRANCH   9  10
ATOM     10  C   UNL     1     161.071 160.464 180.227  1.00  0.00     0.002 C 
BRANCH  10  11
ATOM     11  C   UNL     1     160.597 161.369 179.075  1.00  0.00     0.028 C 
BRANCH  11  12
ATOM     12  C   UNL     1     161.130 162.805 179.151  1.00  0.00     0.156 C 
BRANCH  12  13
ATOM     13  O   UNL     1     160.093 163.733 178.975  1.00  0.00    -0.396 OA
ATOM     14  H   UNL     1     159.243 163.255 179.162  1.00  0.00     0.210 HD
ENDBRANCH  12  13
ENDBRANCH  11  12
ENDBRANCH  10  11
ENDBRANCH   9  10
ENDBRANCH   8   9
ENDBRANCH   1   8
TORSDOF 11
ENDMDL
MODEL 3
REMARK VINA RESULT:    -3.788      1.760      3.604
REMARK INTER + INTRA:          -7.144
REMARK INTER:                  -5.678
REMARK INTRA:                  -1.466
REMARK UNBOUND:                -1.031
REMARK SMILES CCCCCCCCCCCCO
REMARK SMILES IDX 7 1 6 2 5 3 4 4 3 5 2 6 1 7 8 8 9 9 10 10 11 11 12 12 13 13
REMARK H PARENT 13 14
REMARK Flexibility Score: inf
ROOT
ATOM      1  C   UNL     1     160.934 160.889 182.974  1.00  0.00     0.000 C 
ENDROOT
BRANCH   1   2
ATOM      2  C   UNL     1     159.878 160.800 181.863  1.00  0.00    -0.000 C 
BRANCH   2   3
ATOM      3  C   UNL     1     160.470 160.367 180.512  1.00  0.00    -0.000 C 
BRANCH   3   4
ATOM      4  C   UNL     1     160.707 161.554 179.563  1.00  0.00    -0.000 C 
BRANCH   4   5
ATOM      5  C   UNL     1     162.189 161.961 179.472  1.00  0.00    -0.000 C 
BRANCH   5   6
ATOM      6  C   UNL     1     163.192 160.840 179.803  1.00  0.00    -0.003 C 
ATOM      7  C   UNL     1     164.121 161.190 180.965  1.00  0.00     0.004 C 
ENDBRANCH   5   6
ENDBRANCH   4   5
ENDBRANCH   3   4
ENDBRANCH   2   3
ENDBRANCH   1   2
BRANCH   1   8
ATOM      8  C   UNL     1     160.880 162.255 183.674  1.00  0.00     0.000 C 
BRANCH   8   9
ATOM      9  C   UNL     1     161.716 163.330 182.956  1.00  0.00     0.000 C 
BRANCH   9  10
ATOM     10  C   UNL     1     160.903 164.327 182.105  1.00  0.00     0.002 C 
BRANCH  10  11
ATOM     11  C   UNL     1     161.722 165.474 181.483  1.00  0.00     0.028 C 
BRANCH  11  12
ATOM     12  C   UNL     1     161.024 166.172 180.310  1.00  0.00     0.156 C 
BRANCH  12  13
ATOM     13  O   UNL     1     160.649 165.244 179.327  1.00  0.00    -0.396 OA
ATOM     14  H   UNL     1     160.401 165.765 178.519  1.00  0.00     0.210 HD
ENDBRANCH  12  13
ENDBRANCH  11  12
ENDBRANCH  10  11
ENDBRANCH   9  10
ENDBRANCH   8   9
ENDBRANCH   1   8
TORSDOF 11
ENDMDL
MODEL 4
REMARK VINA RESULT:    -3.758      1.419      2.621
REMARK INTER + INTRA:          -7.096
REMARK INTER:                  -6.414
REMARK INTRA:                  -0.682
REMARK UNBOUND:                -1.031
REMARK SMILES CCCCCCCCCCCCO
REMARK SMILES IDX 7 1 6 2 5 3 4 4 3 5 2 6 1 7 8 8 9 9 10 10 11 11 12 12 13 13
REMARK H PARENT 13 14
REMARK Flexibility Score: inf
ROOT
ATOM      1  C   UNL     1     163.393 161.465 182.817  1.00  0.00     0.000 C 
ENDROOT
BRANCH   1   2
ATOM      2  C   UNL     1     164.367 160.293 183.003  1.00  0.00    -0.000 C 
BRANCH   2   3
ATOM      3  C   UNL     1     165.490 160.278 181.953  1.00  0.00    -0.000 C 
BRANCH   3   4
ATOM      4  C   UNL     1     166.888 160.400 182.581  1.00  0.00    -0.000 C 
BRANCH   4   5
ATOM      5  C   UNL     1     166.841 160.713 184.088  1.00  0.00    -0.000 C 
BRANCH   5   6
ATOM      6  C   UNL     1     167.404 162.090 184.484  1.00  0.00    -0.003 C 
ATOM      7  C   UNL     1     166.358 163.203 184.431  1.00  0.00     0.004 C 
ENDBRANCH   5   6
ENDBRANCH   4   5
ENDBRANCH   3   4
ENDBRANCH   2   3
ENDBRANCH   1   2
BRANCH   1   8
ATOM      8  C   UNL     1     161.936 160.982 182.869  1.00  0.00     0.000 C 
BRANCH   8   9
ATOM      9  C   UNL     1     161.001 161.972 183.585  1.00  0.00     0.000 C 
BRANCH   9  10
ATOM     10  C   UNL     1     160.456 163.111 182.700  1.00  0.00     0.002 C 
BRANCH  10  11
ATOM     11  C   UNL     1     160.211 162.734 181.227  1.00  0.00     0.028 C 
BRANCH  11  12
ATOM     12  C   UNL     1     160.731 163.770 180.223  1.00  0.00     0.156 C 
BRANCH  12  13
ATOM     13  O   UNL     1     160.085 163.635 178.986  1.00  0.00    -0.396 OA
ATOM     14  H   UNL     1     160.068 162.665 178.774  1.00  0.00     0.210 HD
ENDBRANCH  12  13
ENDBRANCH  11  12
ENDBRANCH  10  11
ENDBRANCH   9  10
ENDBRANCH   8   9
ENDBRANCH   1   8
TORSDOF 11
ENDMDL
MODEL 5
REMARK VINA RESULT:    -3.741      1.564      2.089
REMARK INTER + INTRA:          -7.068
REMARK INTER:                  -6.256
REMARK INTRA:                  -0.812
REMARK UNBOUND:                -1.031
REMARK SMILES CCCCCCCCCCCCO
REMARK SMILES IDX 7 1 6 2 5 3 4 4 3 5 2 6 1 7 8 8 9 9 10 10 11 11 12 12 13 13
REMARK H PARENT 13 14
REMARK Flexibility Score: inf
ROOT
ATOM      1  C   UNL     1     162.277 162.723 182.945  1.00  0.00     0.000 C 
ENDROOT
BRANCH   1   2
ATOM      2  C   UNL     1     163.669 162.138 183.223  1.00  0.00    -0.000 C 
BRANCH   2   3
ATOM      3  C   UNL     1     163.911 160.805 182.495  1.00  0.00    -0.000 C 
BRANCH   3   4
ATOM      4  C   UNL     1     164.866 159.877 183.263  1.00  0.00    -0.000 C 
BRANCH   4   5
ATOM      5  C   UNL     1     166.348 160.249 183.069  1.00  0.00    -0.000 C 
BRANCH   5   6
ATOM      6  C   UNL     1     167.151 160.422 184.371  1.00  0.00    -0.003 C 
ATOM      7  C   UNL     1     167.375 161.886 184.748  1.00  0.00     0.004 C 
ENDBRANCH   5   6
ENDBRANCH   4   5
ENDBRANCH   3   4
ENDBRANCH   2   3
ENDBRANCH   1   2
BRANCH   1   8
ATOM      8  C   UNL     1     161.185 161.885 183.626  1.00  0.00     0.000 C 
BRANCH   8   9
ATOM      9  C   UNL     1     160.320 161.099 182.624  1.00  0.00     0.000 C 
BRANCH   9  10
ATOM     10  C   UNL     1     160.250 161.705 181.207  1.00  0.00     0.002 C 
BRANCH  10  11
ATOM     11  C   UNL     1     160.747 160.784 180.077  1.00  0.00     0.028 C 
BRANCH  11  12
ATOM     12  C   UNL     1     162.069 161.233 179.443  1.00  0.00     0.156 C 
BRANCH  12  13
ATOM     13  O   UNL     1     162.912 160.135 179.215  1.00  0.00    -0.396 OA
ATOM     14  H   UNL     1     162.711 159.466 179.921  1.00  0.00     0.210 HD
ENDBRANCH  12  13
ENDBRANCH  11  12
ENDBRANCH  10  11
ENDBRANCH   9  10
ENDBRANCH   8   9
ENDBRANCH   1   8
TORSDOF 11
ENDMDL
MODEL 6
REMARK VINA RESULT:    -3.725      2.769      5.383
REMARK INTER + INTRA:          -7.043
REMARK INTER:                  -5.467
REMARK INTRA:                  -1.576
REMARK UNBOUND:                -1.031
REMARK SMILES CCCCCCCCCCCCO
REMARK SMILES IDX 7 1 6 2 5 3 4 4 3 5 2 6 1 7 8 8 9 9 10 10 11 11 12 12 13 13
REMARK H PARENT 13 14
REMARK Flexibility Score: inf
ROOT
ATOM      1  C   UNL     1     161.900 161.433 179.916  1.00  0.00     0.000 C 
ENDROOT
BRANCH   1   2
ATOM      2  C   UNL     1     160.967 160.357 180.492  1.00  0.00    -0.000 C 
BRANCH   2   3
ATOM      3  C   UNL     1     159.958 160.923 181.504  1.00  0.00    -0.000 C 
BRANCH   3   4
ATOM      4  C   UNL     1     160.518 160.969 182.935  1.00  0.00    -0.000 C 
BRANCH   4   5
ATOM      5  C   UNL     1     160.672 162.404 183.472  1.00  0.00    -0.000 C 
BRANCH   5   6
ATOM      6  C   UNL     1     160.186 163.510 182.518  1.00  0.00    -0.003 C 
ATOM      7  C   UNL     1     161.262 164.551 182.209  1.00  0.00     0.004 C 
ENDBRANCH   5   6
ENDBRANCH   4   5
ENDBRANCH   3   4
ENDBRANCH   2   3
ENDBRANCH   1   2
BRANCH   1   8
ATOM      8  C   UNL     1     163.360 161.158 180.305  1.00  0.00     0.000 C 
BRANCH   8   9
ATOM      9  C   UNL     1     163.973 162.278 181.164  1.00  0.00     0.000 C 
BRANCH   9  10
ATOM     10  C   UNL     1     164.150 161.931 182.657  1.00  0.00     0.002 C 
BRANCH  10  11
ATOM     11  C   UNL     1     164.260 160.428 182.970  1.00  0.00     0.028 C 
BRANCH  11  12
ATOM     12  C   UNL     1     165.689 159.877 182.884  1.00  0.00     0.156 C 
BRANCH  12  13
ATOM     13  O   UNL     1     166.422 160.207 184.034  1.00  0.00    -0.396 OA
ATOM     14  H   UNL     1     166.175 159.546 184.733  1.00  0.00     0.210 HD
ENDBRANCH  12  13
ENDBRANCH  11  12
ENDBRANCH  10  11
ENDBRANCH   9  10
ENDBRANCH   8   9
ENDBRANCH   1   8
TORSDOF 11
ENDMDL
MODEL 7
REMARK VINA RESULT:    -3.711      2.692      5.160
REMARK INTER + INTRA:          -7.020
REMARK INTER:                  -5.671
REMARK INTRA:                  -1.350
REMARK UNBOUND:                -1.031
REMARK SMILES CCCCCCCCCCCCO
REMARK SMILES IDX 7 1 6 2 5 3 4 4 3 5 2 6 1 7 8 8 9 9 10 10 11 11 12 12 13 13
REMARK H PARENT 13 14
REMARK Flexibility Score: inf
ROOT
ATOM      1  C   UNL     1     161.592 163.178 182.883  1.00  0.00     0.000 C 
ENDROOT
BRANCH   1   2
ATOM      2  C   UNL     1     160.665 162.207 183.629  1.00  0.00    -0.000 C 
BRANCH   2   3
ATOM      3  C   UNL     1     160.219 161.021 182.758  1.00  0.00    -0.000 C 
BRANCH   3   4
ATOM      4  C   UNL     1     160.195 161.366 181.259  1.00  0.00    -0.000 C 
BRANCH   4   5
ATOM      5  C   UNL     1     161.072 160.425 180.414  1.00  0.00    -0.000 C 
BRANCH   5   6
ATOM      6  C   UNL     1     161.905 161.119 179.321  1.00  0.00    -0.003 C 
ATOM      7  C   UNL     1     161.710 162.635 179.291  1.00  0.00     0.004 C 
ENDBRANCH   5   6
ENDBRANCH   4   5
ENDBRANCH   3   4
ENDBRANCH   2   3
ENDBRANCH   1   2
BRANCH   1   8
ATOM      8  C   UNL     1     163.049 163.001 183.334  1.00  0.00     0.000 C 
BRANCH   8   9
ATOM      9  C   UNL     1     163.846 162.048 182.425  1.00  0.00     0.000 C 
BRANCH   9  10
ATOM     10  C   UNL     1     163.913 160.586 182.913  1.00  0.00     0.002 C 
BRANCH  10  11
ATOM     11  C   UNL     1     165.256 159.875 182.664  1.00  0.00     0.028 C 
BRANCH  11  12
ATOM     12  C   UNL     1     166.343 160.219 183.691  1.00  0.00     0.156 C 
BRANCH  12  13
ATOM     13  O   UNL     1     167.558 160.510 183.053  1.00  0.00    -0.396 OA
ATOM     14  H   UNL     1     167.379 160.507 182.077  1.00  0.00     0.210 HD
ENDBRANCH  12  13
ENDBRANCH  11  12
ENDBRANCH  10  11
ENDBRANCH   9  10
ENDBRANCH   8   9
ENDBRANCH   1   8
TORSDOF 11
ENDMDL
MODEL 8
REMARK VINA RESULT:    -3.699      2.753      5.517
REMARK INTER + INTRA:          -7.001
REMARK INTER:                  -6.034
REMARK INTRA:                  -0.967
REMARK UNBOUND:                -1.031
REMARK SMILES CCCCCCCCCCCCO
REMARK SMILES IDX 7 1 6 2 5 3 4 4 3 5 2 6 1 7 8 8 9 9 10 10 11 11 12 12 13 13
REMARK H PARENT 13 14
REMARK Flexibility Score: inf
ROOT
ATOM      1  C   UNL     1     163.765 162.096 182.858  1.00  0.00     0.000 C 
ENDROOT
BRANCH   1   2
ATOM      2  C   UNL     1     162.349 162.674 182.990  1.00  0.00    -0.000 C 
BRANCH   2   3
ATOM      3  C   UNL     1     161.366 161.696 183.654  1.00  0.00    -0.000 C 
BRANCH   3   4
ATOM      4  C   UNL     1     160.164 161.364 182.754  1.00  0.00    -0.000 C 
BRANCH   4   5
ATOM      5  C   UNL     1     160.325 161.900 181.320  1.00  0.00    -0.000 C 
BRANCH   5   6
ATOM      6  C   UNL     1     160.455 160.818 180.233  1.00  0.00    -0.003 C 
ATOM      7  C   UNL     1     161.904 160.544 179.830  1.00  0.00     0.004 C 
ENDBRANCH   5   6
ENDBRANCH   4   5
ENDBRANCH   3   4
ENDBRANCH   2   3
ENDBRANCH   1   2
BRANCH   1   8
ATOM      8  C   UNL     1     163.732 160.560 182.849  1.00  0.00     0.000 C 
BRANCH   8   9
ATOM      9  C   UNL     1     165.060 159.929 183.306  1.00  0.00     0.000 C 
BRANCH   9  10
ATOM     10  C   UNL     1     166.188 160.935 183.613  1.00  0.00     0.002 C 
BRANCH  10  11
ATOM     11  C   UNL     1     167.458 160.773 182.757  1.00  0.00     0.028 C 
BRANCH  11  12
ATOM     12  C   UNL     1     167.181 160.460 181.282  1.00  0.00     0.156 C 
BRANCH  12  13
ATOM     13  O   UNL     1     168.302 159.875 180.675  1.00  0.00    -0.396 OA
ATOM     14  H   UNL     1     168.470 159.018 181.147  1.00  0.00     0.210 HD
ENDBRANCH  12  13
ENDBRANCH  11  12
ENDBRANCH  10  11
ENDBRANCH   9  10
ENDBRANCH   8   9
ENDBRANCH   1   8
TORSDOF 11
ENDMDL
MODEL 9
REMARK VINA RESULT:    -3.691      2.746      5.658
REMARK INTER + INTRA:          -6.988
REMARK INTER:                  -5.942
REMARK INTRA:                  -1.046
REMARK UNBOUND:                -1.031
REMARK SMILES CCCCCCCCCCCCO
REMARK SMILES IDX 7 1 6 2 5 3 4 4 3 5 2 6 1 7 8 8 9 9 10 10 11 11 12 12 13 13
REMARK H PARENT 13 14
REMARK Flexibility Score: inf
ROOT
ATOM      1  C   UNL     1     163.823 162.077 182.609  1.00  0.00     0.000 C 
ENDROOT
BRANCH   1   2
ATOM      2  C   UNL     1     162.619 162.835 183.189  1.00  0.00    -0.000 C 
BRANCH   2   3
ATOM      3  C   UNL     1     161.506 161.896 183.682  1.00  0.00    -0.000 C 
BRANCH   3   4
ATOM      4  C   UNL     1     160.265 161.925 182.775  1.00  0.00    -0.000 C 
BRANCH   4   5
ATOM      5  C   UNL     1     160.093 160.633 181.955  1.00  0.00    -0.000 C 
BRANCH   5   6
ATOM      6  C   UNL     1     160.247 160.803 180.433  1.00  0.00    -0.003 C 
ATOM      7  C   UNL     1     161.650 160.464 179.930  1.00  0.00     0.004 C 
ENDBRANCH   5   6
ENDBRANCH   4   5
ENDBRANCH   3   4
ENDBRANCH   2   3
ENDBRANCH   1   2
BRANCH   1   8
ATOM      8  C   UNL     1     163.770 160.590 182.991  1.00  0.00     0.000 C 
BRANCH   8   9
ATOM      9  C   UNL     1     165.156 160.006 183.320  1.00  0.00     0.000 C 
BRANCH   9  10
ATOM     10  C   UNL     1     166.339 160.971 183.101  1.00  0.00     0.002 C 
BRANCH  10  11
ATOM     11  C   UNL     1     167.103 161.368 184.377  1.00  0.00     0.028 C 
BRANCH  11  12
ATOM     12  C   UNL     1     167.328 162.878 184.525  1.00  0.00     0.156 C 
BRANCH  12  13
ATOM     13  O   UNL     1     166.170 163.511 185.000  1.00  0.00    -0.396 OA
ATOM     14  H   UNL     1     165.650 162.827 185.497  1.00  0.00     0.210 HD
ENDBRANCH  12  13
ENDBRANCH  11  12
ENDBRANCH  10  11
ENDBRANCH   9  10
ENDBRANCH   8   9
ENDBRANCH   1   8
TORSDOF 11
ENDMDL
