MODEL 1
REMARK VINA RESULT:    -2.900      0.000      0.000
REMARK INTER + INTRA:          -3.513
REMARK INTER:                  -3.409
REMARK INTRA:                  -0.104
REMARK UNBOUND:                -0.104
REMARK SMILES CCCCC(=O)[O-]
REMARK SMILES IDX 4 1 5 2 6 3 7 4 3 5 2 6 1 7
REMARK H PARENT
REMARK Flexibility Score: inf
ROOT
ATOM      1  C   UNL     1      31.085  51.455  25.932  1.00  0.00     0.053 C 
ENDROOT
BRANCH   1   2
ATOM      2  C   UNL     1      30.463  50.815  24.729  1.00  0.00     0.041 C 
ATOM      3  O   UNL     1      31.186  50.236  23.875  1.00  0.00    -0.550 OA
ATOM      4  O   UNL     1      29.084  50.828  24.567  1.00  0.00    -0.550 OA
ENDBRANCH   1   2
BRANCH   1   5
ATOM      5  C   UNL     1      31.967  52.649  25.550  1.00  0.00     0.006 C 
BRANCH   5   6
ATOM      6  C   UNL     1      31.224  53.665  24.670  1.00  0.00    -0.003 C 
ATOM      7  C   UNL     1      30.549  54.738  25.518  1.00  0.00     0.004 C 
ENDBRANCH   5   6
ENDBRANCH   1   5
TORSDOF 3
ENDMDL
MODEL 2
REMARK VINA RESULT:    -2.896      2.677      2.917
REMARK INTER + INTRA:          -3.508
REMARK INTER:                  -3.375
REMARK INTRA:                  -0.133
REMARK UNBOUND:                -0.104
REMARK SMILES CCCCC(=O)[O-]
REMARK SMILES IDX 4 1 5 2 6 3 7 4 3 5 2 6 1 7
REMARK H PARENT
REMARK Flexibility Score: inf
ROOT
ATOM      1  C   UNL     1      31.551  49.949  24.213  1.00  0.00     0.053 C 
ENDROOT
BRANCH   1   2
ATOM      2  C   UNL     1      32.100  50.004  25.606  1.00  0.00     0.041 C 
ATOM      3  O   UNL     1      32.693  51.038  26.013  1.00  0.00    -0.550 OA
ATOM      4  O   UNL     1      31.927  48.928  26.466  1.00  0.00    -0.550 OA
ENDBRANCH   1   2
BRANCH   1   5
ATOM      5  C   UNL     1      30.551  51.081  23.950  1.00  0.00     0.006 C 
BRANCH   5   6
ATOM      6  C   UNL     1      29.275  50.937  24.792  1.00  0.00    -0.003 C 
ATOM      7  C   UNL     1      29.079  52.143  25.705  1.00  0.00     0.004 C 
ENDBRANCH   5   6
ENDBRANCH   1   5
TORSDOF 3
ENDMDL
MODEL 3
REMARK VINA RESULT:    -2.837      1.586      2.169
REMARK INTER + INTRA:          -3.439
REMARK INTER:                  -3.388
REMARK INTRA:                  -0.051
REMARK UNBOUND:                -0.104
REMARK SMILES CCCCC(=O)[O-]
REMARK SMILES IDX 4 1 5 2 6 3 7 4 3 5 2 6 1 7
REMARK H PARENT
REMARK Flexibility Score: inf
ROOT
ATOM      1  C   UNL     1      30.926  50.710  24.011  1.00  0.00     0.053 C 
ENDROOT
BRANCH   1   2
ATOM      2  C   UNL     1      31.618  49.810  24.989  1.00  0.00     0.041 C 
ATOM      3  O   UNL     1      31.263  49.796  26.198  1.00  0.00    -0.550 OA
ATOM      4  O   UNL     1      32.630  48.962  24.560  1.00  0.00    -0.550 OA
ENDBRANCH   1   2
BRANCH   1   5
ATOM      5  C   UNL     1      30.294  51.924  24.703  1.00  0.00     0.006 C 
BRANCH   5   6
ATOM      6  C   UNL     1      31.259  53.114  24.786  1.00  0.00    -0.003 C 
ATOM      7  C   UNL     1      30.525  54.392  25.183  1.00  0.00     0.004 C 
ENDBRANCH   5   6
ENDBRANCH   1   5
TORSDOF 3
ENDMDL
MODEL 4
REMARK VINA RESULT:    -2.809      3.052      3.575
REMARK INTER + INTRA:          -3.406
REMARK INTER:                  -3.387
REMARK INTRA:                  -0.019
REMARK UNBOUND:                -0.104
REMARK SMILES CCCCC(=O)[O-]
REMARK SMILES IDX 4 1 5 2 6 3 7 4 3 5 2 6 1 7
REMARK H PARENT
REMARK Flexibility Score: inf
ROOT
ATOM      1  C   UNL     1      32.273  50.025  25.332  1.00  0.00     0.053 C 
ENDROOT
BRANCH   1   2
ATOM      2  C   UNL     1      32.870  48.659  25.480  1.00  0.00     0.041 C 
ATOM      3  O   UNL     1      32.478  47.893  26.400  1.00  0.00    -0.550 OA
ATOM      4  O   UNL     1      33.833  48.219  24.583  1.00  0.00    -0.550 OA
ENDBRANCH   1   2
BRANCH   1   5
ATOM      5  C   UNL     1      31.402  50.133  24.075  1.00  0.00     0.006 C 
BRANCH   5   6
ATOM      6  C   UNL     1      30.454  51.340  24.125  1.00  0.00    -0.003 C 
ATOM      7  C   UNL     1      29.141  50.980  24.814  1.00  0.00     0.004 C 
ENDBRANCH   5   6
ENDBRANCH   1   5
TORSDOF 3
ENDMDL
MODEL 5
REMARK VINA RESULT:    -2.768      3.554      4.244
REMARK INTER + INTRA:          -3.358
REMARK INTER:                  -3.332
REMARK INTRA:                  -0.026
REMARK UNBOUND:                -0.104
REMARK SMILES CCCCC(=O)[O-]
REMARK SMILES IDX 4 1 5 2 6 3 7 4 3 5 2 6 1 7
REMARK H PARENT
REMARK Flexibility Score: inf
ROOT
ATOM      1  C   UNL     1      32.778  48.795  25.203  1.00  0.00     0.053 C 
ENDROOT
BRANCH   1   2
ATOM      2  C   UNL     1      34.210  48.945  25.616  1.00  0.00     0.041 C 
ATOM      3  O   UNL     1      34.563  49.914  26.339  1.00  0.00    -0.550 OA
ATOM      4  O   UNL     1      35.150  47.998  25.230  1.00  0.00    -0.550 OA
ENDBRANCH   1   2
BRANCH   1   5
ATOM      5  C   UNL     1      32.023  50.128  25.268  1.00  0.00     0.006 C 
BRANCH   5   6
ATOM      6  C   UNL     1      31.178  50.380  24.011  1.00  0.00    -0.003 C 
ATOM      7  C   UNL     1      29.783  50.876  24.376  1.00  0.00     0.004 C 
ENDBRANCH   5   6
ENDBRANCH   1   5
TORSDOF 3
ENDMDL
MODEL 6
REMARK VINA RESULT:    -2.750      2.414      3.500
REMARK INTER + INTRA:          -3.337
REMARK INTER:                  -3.204
REMARK INTRA:                  -0.133
REMARK UNBOUND:                -0.104
REMARK SMILES CCCCC(=O)[O-]
REMARK SMILES IDX 4 1 5 2 6 3 7 4 3 5 2 6 1 7
REMARK H PARENT
REMARK Flexibility Score: inf
ROOT
ATOM      1  C   UNL     1      29.480  52.689  25.442  1.00  0.00     0.053 C 
ENDROOT
BRANCH   1   2
ATOM      2  C   UNL     1      30.833  53.311  25.611  1.00  0.00     0.041 C 
ATOM      3  O   UNL     1      31.561  52.989  26.587  1.00  0.00    -0.550 OA
ATOM      4  O   UNL     1      31.302  54.222  24.675  1.00  0.00    -0.550 OA
ENDBRANCH   1   2
BRANCH   1   5
ATOM      5  C   UNL     1      29.576  51.180  25.187  1.00  0.00     0.006 C 
BRANCH   5   6
ATOM      6  C   UNL     1      30.421  50.851  23.948  1.00  0.00    -0.003 C 
ATOM      7  C   UNL     1      31.584  49.930  24.303  1.00  0.00     0.004 C 
ENDBRANCH   5   6
ENDBRANCH   1   5
TORSDOF 3
ENDMDL
MODEL 7
REMARK VINA RESULT:    -2.709      2.635      3.464
REMARK INTER + INTRA:          -3.288
REMARK INTER:                  -3.205
REMARK INTRA:                  -0.084
REMARK UNBOUND:                -0.104
REMARK SMILES CCCCC(=O)[O-]
REMARK SMILES IDX 4 1 5 2 6 3 7 4 3 5 2 6 1 7
REMARK H PARENT
REMARK Flexibility Score: inf
ROOT
ATOM      1  C   UNL     1      31.383  51.245  26.257  1.00  0.00     0.053 C 
ENDROOT
BRANCH   1   2
ATOM      2  C   UNL     1      32.166  52.521  26.326  1.00  0.00     0.041 C 
ATOM      3  O   UNL     1      31.571  53.623  26.460  1.00  0.00    -0.550 OA
ATOM      4  O   UNL     1      33.554  52.490  26.276  1.00  0.00    -0.550 OA
ENDBRANCH   1   2
BRANCH   1   5
ATOM      5  C   UNL     1      31.552  50.546  24.903  1.00  0.00     0.006 C 
BRANCH   5   6
ATOM      6  C   UNL     1      30.325  50.726  23.998  1.00  0.00    -0.003 C 
ATOM      7  C   UNL     1      29.072  51.014  24.819  1.00  0.00     0.004 C 
ENDBRANCH   5   6
ENDBRANCH   1   5
TORSDOF 3
ENDMDL
MODEL 8
REMARK VINA RESULT:    -2.700      1.566      2.514
REMARK INTER + INTRA:          -3.278
REMARK INTER:                  -3.200
REMARK INTRA:                  -0.078
REMARK UNBOUND:                -0.104
REMARK SMILES CCCCC(=O)[O-]
REMARK SMILES IDX 4 1 5 2 6 3 7 4 3 5 2 6 1 7
REMARK H PARENT
REMARK Flexibility Score: inf
ROOT
ATOM      1  C   UNL     1      30.734  52.580  24.641  1.00  0.00     0.053 C 
ENDROOT
BRANCH   1   2
ATOM      2  C   UNL     1      29.604  51.866  25.317  1.00  0.00     0.041 C 
ATOM      3  O   UNL     1      29.211  50.750  24.885  1.00  0.00    -0.550 OA
ATOM      4  O   UNL     1      29.007  52.415  26.444  1.00  0.00    -0.550 OA
ENDBRANCH   1   2
BRANCH   1   5
ATOM      5  C   UNL     1      31.846  52.952  25.629  1.00  0.00     0.006 C 
BRANCH   5   6
ATOM      6  C   UNL     1      32.629  51.724  26.113  1.00  0.00    -0.003 C 
ATOM      7  C   UNL     1      33.924  52.135  26.807  1.00  0.00     0.004 C 
ENDBRANCH   5   6
ENDBRANCH   1   5
TORSDOF 3
ENDMDL
MODEL 9
REMARK VINA RESULT:    -2.699      2.711      4.088
REMARK INTER + INTRA:          -3.277
REMARK INTER:                  -3.262
REMARK INTRA:                  -0.015
REMARK UNBOUND:                -0.104
REMARK SMILES CCCCC(=O)[O-]
REMARK SMILES IDX 4 1 5 2 6 3 7 4 3 5 2 6 1 7
REMARK H PARENT
REMARK Flexibility Score: inf
ROOT
ATOM      1  C   UNL     1      31.564  49.931  24.123  1.00  0.00     0.053 C 
ENDROOT
BRANCH   1   2
ATOM      2  C   UNL     1      30.602  50.985  24.578  1.00  0.00     0.041 C 
ATOM      3  O   UNL     1      29.416  50.677  24.869  1.00  0.00    -0.550 OA
ATOM      4  O   UNL     1      31.023  52.301  24.713  1.00  0.00    -0.550 OA
ENDBRANCH   1   2
BRANCH   1   5
ATOM      5  C   UNL     1      32.462  49.447  25.268  1.00  0.00     0.006 C 
BRANCH   5   6
ATOM      6  C   UNL     1      33.432  48.344  24.820  1.00  0.00    -0.003 C 
ATOM      7  C   UNL     1      34.783  48.484  25.514  1.00  0.00     0.004 C 
ENDBRANCH   5   6
ENDBRANCH   1   5
TORSDOF 3
ENDMDL
