MODEL 1
REMARK VINA RESULT:    -2.129      0.000      0.000
REMARK INTER + INTRA:          -6.238
REMARK INTER:                  -3.934
REMARK INTRA:                  -2.305
REMARK UNBOUND:                -2.305
REMARK SMILES CCCCCCCCCCCCCCCCO
REMARK SMILES IDX 9 1 8 2 7 3 6 4 5 5 4 6 3 7 2 8 1 9 10 10 11 11 12 12 13 13
REMARK SMILES IDX 14 14 15 15 16 16 17 17
REMARK H PARENT 17 18
REMARK Flexibility Score: inf
ROOT
ATOM      1  C   UNL     1     175.330 204.508 200.639  1.00  0.00     0.000 C 
ENDROOT
BRANCH   1   2
ATOM      2  C   UNL     1     176.778 204.492 201.154  1.00  0.00    -0.000 C 
BRANCH   2   3
ATOM      3  C   UNL     1     177.080 205.664 202.105  1.00  0.00    -0.000 C 
BRANCH   3   4
ATOM      4  C   UNL     1     176.023 206.777 202.020  1.00  0.00    -0.000 C 
BRANCH   4   5
ATOM      5  C   UNL     1     176.592 208.088 201.452  1.00  0.00    -0.000 C 
BRANCH   5   6
ATOM      6  C   UNL     1     177.088 207.944 200.003  1.00  0.00    -0.000 C 
BRANCH   6   7
ATOM      7  C   UNL     1     178.617 207.766 199.888  1.00  0.00    -0.000 C 
BRANCH   7   8
ATOM      8  C   UNL     1     179.037 207.220 198.515  1.00  0.00    -0.003 C 
ATOM      9  C   UNL     1     177.854 207.178 197.554  1.00  0.00     0.004 C 
ENDBRANCH   7   8
ENDBRANCH   6   7
ENDBRANCH   5   6
ENDBRANCH   4   5
ENDBRANCH   3   4
ENDBRANCH   2   3
ENDBRANCH   1   2
BRANCH   1  10
ATOM     10  C   UNL     1     175.247 204.449 199.106  1.00  0.00     0.000 C 
BRANCH  10  11
ATOM     11  C   UNL     1     174.660 205.748 198.537  1.00  0.00     0.000 C 
BRANCH  11  12
ATOM     12  C   UNL     1     173.359 206.179 199.240  1.00  0.00     0.000 C 
BRANCH  12  13
ATOM     13  C   UNL     1     173.314 207.652 199.689  1.00  0.00     0.000 C 
BRANCH  13  14
ATOM     14  C   UNL     1     172.529 207.855 200.995  1.00  0.00     0.002 C 
BRANCH  14  15
ATOM     15  C   UNL     1     172.389 206.556 201.807  1.00  0.00     0.028 C 
BRANCH  15  16
ATOM     16  C   UNL     1     170.985 206.365 202.385  1.00  0.00     0.156 C 
BRANCH  16  17
ATOM     17  O   UNL     1     170.538 207.576 202.926  1.00  0.00    -0.396 OA
ATOM     18  H   UNL     1     169.762 207.351 203.503  1.00  0.00     0.210 HD
ENDBRANCH  16  17
ENDBRANCH  15  16
ENDBRANCH  14  15
ENDBRANCH  13  14
ENDBRANCH  12  13
ENDBRANCH  11  12
ENDBRANCH  10  11
ENDBRANCH   1  10
TORSDOF 15
ENDMDL
MODEL 2
REMARK VINA RESULT:    -2.040      2.170      4.259
REMARK INTER + INTRA:          -6.074
REMARK INTER:                  -3.630
REMARK INTRA:                  -2.443
REMARK UNBOUND:                -2.305
REMARK SMILES CCCCCCCCCCCCCCCCO
REMARK SMILES IDX 9 1 8 2 7 3 6 4 5 5 4 6 3 7 2 8 1 9 10 10 11 11 12 12 13 13
REMARK SMILES IDX 14 14 15 15 16 16 17 17
REMARK H PARENT 17 18
REMARK Flexibility Score: inf
ROOT
ATOM      1  C   UNL     1     179.764 204.804 200.517  1.00  0.00     0.000 C 
ENDROOT
BRANCH   1   2
ATOM      2  C   UNL     1     180.164 206.246 200.863  1.00  0.00    -0.000 C 
BRANCH   2   3
ATOM      3  C   UNL     1     180.580 207.058 199.623  1.00  0.00    -0.000 C 
BRANCH   3   4
ATOM      4  C   UNL     1     180.225 206.346 198.308  1.00  0.00    -0.000 C 
BRANCH   4   5
ATOM      5  C   UNL     1     179.164 207.106 197.495  1.00  0.00    -0.000 C 
BRANCH   5   6
ATOM      6  C   UNL     1     177.792 207.142 198.190  1.00  0.00    -0.000 C 
BRANCH   6   7
ATOM      7  C   UNL     1     176.759 206.178 197.569  1.00  0.00    -0.000 C 
BRANCH   7   8
ATOM      8  C   UNL     1     176.677 204.846 198.328  1.00  0.00    -0.003 C 
ATOM      9  C   UNL     1     177.513 203.770 197.643  1.00  0.00     0.004 C 
ENDBRANCH   7   8
ENDBRANCH   6   7
ENDBRANCH   5   6
ENDBRANCH   4   5
ENDBRANCH   3   4
ENDBRANCH   2   3
ENDBRANCH   1   2
BRANCH   1  10
ATOM     10  C   UNL     1     178.689 204.245 201.461  1.00  0.00     0.000 C 
BRANCH  10  11
ATOM     11  C   UNL     1     178.560 205.113 202.721  1.00  0.00     0.000 C 
BRANCH  11  12
ATOM     12  C   UNL     1     177.135 205.651 202.938  1.00  0.00     0.000 C 
BRANCH  12  13
ATOM     13  C   UNL     1     176.423 206.149 201.666  1.00  0.00     0.000 C 
BRANCH  13  14
ATOM     14  C   UNL     1     176.245 207.676 201.640  1.00  0.00     0.002 C 
BRANCH  14  15
ATOM     15  C   UNL     1     175.139 208.124 200.669  1.00  0.00     0.028 C 
BRANCH  15  16
ATOM     16  C   UNL     1     174.212 206.978 200.254  1.00  0.00     0.156 C 
BRANCH  16  17
ATOM     17  O   UNL     1     173.593 207.300 199.039  1.00  0.00    -0.396 OA
ATOM     18  H   UNL     1     174.071 206.781 198.341  1.00  0.00     0.210 HD
ENDBRANCH  16  17
ENDBRANCH  15  16
ENDBRANCH  14  15
ENDBRANCH  13  14
ENDBRANCH  12  13
ENDBRANCH  11  12
ENDBRANCH  10  11
ENDBRANCH   1  10
TORSDOF 15
ENDMDL
MODEL 3
REMARK VINA RESULT:    -2.012      1.393      2.416
REMARK INTER + INTRA:          -6.022
REMARK INTER:                  -3.952
REMARK INTRA:                  -2.070
REMARK UNBOUND:                -2.305
REMARK SMILES CCCCCCCCCCCCCCCCO
REMARK SMILES IDX 9 1 8 2 7 3 6 4 5 5 4 6 3 7 2 8 1 9 10 10 11 11 12 12 13 13
REMARK SMILES IDX 14 14 15 15 16 16 17 17
REMARK H PARENT 17 18
REMARK Flexibility Score: inf
ROOT
ATOM      1  C   UNL     1     175.836 206.334 201.833  1.00  0.00     0.000 C 
ENDROOT
BRANCH   1   2
ATOM      2  C   UNL     1     177.274 205.967 202.233  1.00  0.00    -0.000 C 
BRANCH   2   3
ATOM      3  C   UNL     1     178.034 205.246 201.105  1.00  0.00    -0.000 C 
BRANCH   3   4
ATOM      4  C   UNL     1     179.291 206.011 200.661  1.00  0.00    -0.000 C 
BRANCH   4   5
ATOM      5  C   UNL     1     178.955 207.337 199.959  1.00  0.00    -0.000 C 
BRANCH   5   6
ATOM      6  C   UNL     1     179.002 207.229 198.425  1.00  0.00    -0.000 C 
BRANCH   6   7
ATOM      7  C   UNL     1     178.207 206.030 197.865  1.00  0.00    -0.000 C 
BRANCH   7   8
ATOM      8  C   UNL     1     177.521 206.359 196.531  1.00  0.00    -0.003 C 
ATOM      9  C   UNL     1     177.000 207.793 196.519  1.00  0.00     0.004 C 
ENDBRANCH   7   8
ENDBRANCH   6   7
ENDBRANCH   5   6
ENDBRANCH   4   5
ENDBRANCH   3   4
ENDBRANCH   2   3
ENDBRANCH   1   2
BRANCH   1  10
ATOM     10  C   UNL     1     175.671 207.831 201.528  1.00  0.00     0.000 C 
BRANCH  10  11
ATOM     11  C   UNL     1     175.412 208.062 200.032  1.00  0.00     0.000 C 
BRANCH  11  12
ATOM     12  C   UNL     1     174.852 206.817 199.320  1.00  0.00     0.000 C 
BRANCH  12  13
ATOM     13  C   UNL     1     173.500 207.022 198.610  1.00  0.00     0.000 C 
BRANCH  13  14
ATOM     14  C   UNL     1     172.604 208.053 199.316  1.00  0.00     0.002 C 
BRANCH  14  15
ATOM     15  C   UNL     1     171.606 207.399 200.287  1.00  0.00     0.028 C 
BRANCH  15  16
ATOM     16  C   UNL     1     171.882 207.752 201.751  1.00  0.00     0.156 C 
BRANCH  16  17
ATOM     17  O   UNL     1     172.343 206.613 202.423  1.00  0.00    -0.396 OA
ATOM     18  H   UNL     1     172.548 205.943 201.721  1.00  0.00     0.210 HD
ENDBRANCH  16  17
ENDBRANCH  15  16
ENDBRANCH  14  15
ENDBRANCH  13  14
ENDBRANCH  12  13
ENDBRANCH  11  12
ENDBRANCH  10  11
ENDBRANCH   1  10
TORSDOF 15
ENDMDL
MODEL 4
REMARK VINA RESULT:    -2.007      2.783      5.610
REMARK INTER + INTRA:          -6.012
REMARK INTER:                  -3.659
REMARK INTRA:                  -2.353
REMARK UNBOUND:                -2.305
REMARK SMILES CCCCCCCCCCCCCCCCO
REMARK SMILES IDX 9 1 8 2 7 3 6 4 5 5 4 6 3 7 2 8 1 9 10 10 11 11 12 12 13 13
REMARK SMILES IDX 14 14 15 15 16 16 17 17
REMARK H PARENT 17 18
REMARK Flexibility Score: inf
ROOT
ATOM      1  C   UNL     1     175.933 204.483 200.961  1.00  0.00     0.000 C 
ENDROOT
BRANCH   1   2
ATOM      2  C   UNL     1     176.421 204.029 199.577  1.00  0.00    -0.000 C 
BRANCH   2   3
ATOM      3  C   UNL     1     175.469 204.456 198.446  1.00  0.00    -0.000 C 
BRANCH   3   4
ATOM      4  C   UNL     1     173.994 204.193 198.788  1.00  0.00    -0.000 C 
BRANCH   4   5
ATOM      5  C   UNL     1     173.073 205.343 198.347  1.00  0.00    -0.000 C 
BRANCH   5   6
ATOM      6  C   UNL     1     173.822 206.676 198.179  1.00  0.00    -0.000 C 
BRANCH   6   7
ATOM      7  C   UNL     1     173.381 207.764 199.182  1.00  0.00    -0.000 C 
BRANCH   7   8
ATOM      8  C   UNL     1     172.406 207.221 200.237  1.00  0.00    -0.003 C 
ATOM      9  C   UNL     1     172.540 207.981 201.552  1.00  0.00     0.004 C 
ENDBRANCH   7   8
ENDBRANCH   6   7
ENDBRANCH   5   6
ENDBRANCH   4   5
ENDBRANCH   3   4
ENDBRANCH   2   3
ENDBRANCH   1   2
BRANCH   1  10
ATOM     10  C   UNL     1     177.076 204.985 201.857  1.00  0.00     0.000 C 
BRANCH  10  11
ATOM     11  C   UNL     1     176.726 206.342 202.486  1.00  0.00     0.000 C 
BRANCH  11  12
ATOM     12  C   UNL     1     176.113 207.332 201.479  1.00  0.00     0.000 C 
BRANCH  12  13
ATOM     13  C   UNL     1     177.131 208.125 200.638  1.00  0.00     0.000 C 
BRANCH  13  14
ATOM     14  C   UNL     1     177.236 207.617 199.190  1.00  0.00     0.002 C 
BRANCH  14  15
ATOM     15  C   UNL     1     178.687 207.323 198.773  1.00  0.00     0.028 C 
BRANCH  15  16
ATOM     16  C   UNL     1     179.583 206.953 199.957  1.00  0.00     0.156 C 
BRANCH  16  17
ATOM     17  O   UNL     1     180.700 207.798 199.975  1.00  0.00    -0.396 OA
ATOM     18  H   UNL     1     180.687 208.289 199.113  1.00  0.00     0.210 HD
ENDBRANCH  16  17
ENDBRANCH  15  16
ENDBRANCH  14  15
ENDBRANCH  13  14
ENDBRANCH  12  13
ENDBRANCH  11  12
ENDBRANCH  10  11
ENDBRANCH   1  10
TORSDOF 15
ENDMDL
MODEL 5
REMARK VINA RESULT:    -1.965      2.001      3.087
REMARK INTER + INTRA:          -5.935
REMARK INTER:                  -3.304
REMARK INTRA:                  -2.631
REMARK UNBOUND:                -2.305
REMARK SMILES CCCCCCCCCCCCCCCCO
REMARK SMILES IDX 9 1 8 2 7 3 6 4 5 5 4 6 3 7 2 8 1 9 10 10 11 11 12 12 13 13
REMARK SMILES IDX 14 14 15 15 16 16 17 17
REMARK H PARENT 17 18
REMARK Flexibility Score: inf
ROOT
ATOM      1  C   UNL     1     177.760 205.845 201.847  1.00  0.00     0.000 C 
ENDROOT
BRANCH   1   2
ATOM      2  C   UNL     1     176.503 206.554 202.375  1.00  0.00    -0.000 C 
BRANCH   2   3
ATOM      3  C   UNL     1     176.188 207.849 201.605  1.00  0.00    -0.000 C 
BRANCH   3   4
ATOM      4  C   UNL     1     177.199 208.125 200.481  1.00  0.00    -0.000 C 
BRANCH   4   5
ATOM      5  C   UNL     1     176.604 207.889 199.082  1.00  0.00    -0.000 C 
BRANCH   5   6
ATOM      6  C   UNL     1     177.641 207.370 198.072  1.00  0.00    -0.000 C 
BRANCH   6   7
ATOM      7  C   UNL     1     179.064 207.244 198.656  1.00  0.00    -0.000 C 
BRANCH   7   8
ATOM      8  C   UNL     1     179.895 206.170 197.938  1.00  0.00    -0.003 C 
ATOM      9  C   UNL     1     179.805 204.830 198.662  1.00  0.00     0.004 C 
ENDBRANCH   7   8
ENDBRANCH   6   7
ENDBRANCH   5   6
ENDBRANCH   4   5
ENDBRANCH   3   4
ENDBRANCH   2   3
ENDBRANCH   1   2
BRANCH   1  10
ATOM     10  C   UNL     1     177.496 204.381 201.464  1.00  0.00     0.000 C 
BRANCH  10  11
ATOM     11  C   UNL     1     176.063 204.199 200.946  1.00  0.00     0.000 C 
BRANCH  11  12
ATOM     12  C   UNL     1     175.963 204.271 199.411  1.00  0.00     0.000 C 
BRANCH  12  13
ATOM     13  C   UNL     1     174.664 204.897 198.869  1.00  0.00     0.000 C 
BRANCH  13  14
ATOM     14  C   UNL     1     173.790 205.512 199.973  1.00  0.00     0.002 C 
BRANCH  14  15
ATOM     15  C   UNL     1     173.063 206.786 199.509  1.00  0.00     0.028 C 
BRANCH  15  16
ATOM     16  C   UNL     1     172.128 206.539 198.323  1.00  0.00     0.156 C 
BRANCH  16  17
ATOM     17  O   UNL     1     172.673 207.125 197.173  1.00  0.00    -0.396 OA
ATOM     18  H   UNL     1     172.227 208.005 197.075  1.00  0.00     0.210 HD
ENDBRANCH  16  17
ENDBRANCH  15  16
ENDBRANCH  14  15
ENDBRANCH  13  14
ENDBRANCH  12  13
ENDBRANCH  11  12
ENDBRANCH  10  11
ENDBRANCH   1  10
TORSDOF 15
ENDMDL
MODEL 6
REMARK VINA RESULT:    -1.948      3.741      5.967
REMARK INTER + INTRA:          -5.904
REMARK INTER:                  -3.758
REMARK INTRA:                  -2.145
REMARK UNBOUND:                -2.305
REMARK SMILES CCCCCCCCCCCCCCCCO
REMARK SMILES IDX 9 1 8 2 7 3 6 4 5 5 4 6 3 7 2 8 1 9 10 10 11 11 12 12 13 13
REMARK SMILES IDX 14 14 15 15 16 16 17 17
REMARK H PARENT 17 18
REMARK Flexibility Score: inf
ROOT
ATOM      1  C   UNL     1     178.046 204.732 203.113  1.00  0.00     0.000 C 
ENDROOT
BRANCH   1   2
ATOM      2  C   UNL     1     177.095 204.339 201.972  1.00  0.00    -0.000 C 
BRANCH   2   3
ATOM      3  C   UNL     1     176.153 205.486 201.566  1.00  0.00    -0.000 C 
BRANCH   3   4
ATOM      4  C   UNL     1     176.451 206.788 202.327  1.00  0.00    -0.000 C 
BRANCH   4   5
ATOM      5  C   UNL     1     176.307 208.035 201.439  1.00  0.00    -0.000 C 
BRANCH   5   6
ATOM      6  C   UNL     1     175.420 207.791 200.206  1.00  0.00    -0.000 C 
BRANCH   6   7
ATOM      7  C   UNL     1     176.121 208.108 198.867  1.00  0.00    -0.000 C 
BRANCH   7   8
ATOM      8  C   UNL     1     175.657 207.181 197.734  1.00  0.00    -0.003 C 
ATOM      9  C   UNL     1     176.187 205.764 197.930  1.00  0.00     0.004 C 
ENDBRANCH   7   8
ENDBRANCH   6   7
ENDBRANCH   5   6
ENDBRANCH   4   5
ENDBRANCH   3   4
ENDBRANCH   2   3
ENDBRANCH   1   2
BRANCH   1  10
ATOM     10  C   UNL     1     179.522 204.481 202.766  1.00  0.00     0.000 C 
BRANCH  10  11
ATOM     11  C   UNL     1     179.728 204.433 201.245  1.00  0.00     0.000 C 
BRANCH  11  12
ATOM     12  C   UNL     1     180.353 205.722 200.682  1.00  0.00     0.000 C 
BRANCH  12  13
ATOM     13  C   UNL     1     179.354 206.719 200.065  1.00  0.00     0.000 C 
BRANCH  13  14
ATOM     14  C   UNL     1     179.814 207.261 198.702  1.00  0.00     0.002 C 
BRANCH  14  15
ATOM     15  C   UNL     1     179.801 206.184 197.604  1.00  0.00     0.028 C 
BRANCH  15  16
ATOM     16  C   UNL     1     180.014 206.761 196.202  1.00  0.00     0.156 C 
BRANCH  16  17
ATOM     17  O   UNL     1     181.073 207.676 196.234  1.00  0.00    -0.396 OA
ATOM     18  H   UNL     1     181.248 207.928 195.291  1.00  0.00     0.210 HD
ENDBRANCH  16  17
ENDBRANCH  15  16
ENDBRANCH  14  15
ENDBRANCH  13  14
ENDBRANCH  12  13
ENDBRANCH  11  12
ENDBRANCH  10  11
ENDBRANCH   1  10
TORSDOF 15
ENDMDL
MODEL 7
REMARK VINA RESULT:    -1.929      2.639      5.226
REMARK INTER + INTRA:          -5.870
REMARK INTER:                  -3.484
REMARK INTRA:                  -2.385
REMARK UNBOUND:                -2.305
REMARK SMILES CCCCCCCCCCCCCCCCO
REMARK SMILES IDX 9 1 8 2 7 3 6 4 5 5 4 6 3 7 2 8 1 9 10 10 11 11 12 12 13 13
REMARK SMILES IDX 14 14 15 15 16 16 17 17
REMARK H PARENT 17 18
REMARK Flexibility Score: inf
ROOT
ATOM      1  C   UNL     1     174.772 204.926 201.653  1.00  0.00     0.000 C 
ENDROOT
BRANCH   1   2
ATOM      2  C   UNL     1     173.316 205.117 202.103  1.00  0.00    -0.000 C 
BRANCH   2   3
ATOM      3  C   UNL     1     172.853 206.581 202.001  1.00  0.00    -0.000 C 
BRANCH   3   4
ATOM      4  C   UNL     1     172.358 206.945 200.592  1.00  0.00    -0.000 C 
BRANCH   4   5
ATOM      5  C   UNL     1     173.133 208.125 199.982  1.00  0.00    -0.000 C 
BRANCH   5   6
ATOM      6  C   UNL     1     173.767 207.784 198.623  1.00  0.00    -0.000 C 
BRANCH   6   7
ATOM      7  C   UNL     1     173.773 206.273 198.305  1.00  0.00    -0.000 C 
BRANCH   7   8
ATOM      8  C   UNL     1     175.174 205.762 197.937  1.00  0.00    -0.003 C 
ATOM      9  C   UNL     1     175.250 204.242 198.040  1.00  0.00     0.004 C 
ENDBRANCH   7   8
ENDBRANCH   6   7
ENDBRANCH   5   6
ENDBRANCH   4   5
ENDBRANCH   3   4
ENDBRANCH   2   3
ENDBRANCH   1   2
BRANCH   1  10
ATOM     10  C   UNL     1     175.784 205.381 202.716  1.00  0.00     0.000 C 
BRANCH  10  11
ATOM     11  C   UNL     1     176.883 206.252 202.092  1.00  0.00     0.000 C 
BRANCH  11  12
ATOM     12  C   UNL     1     176.369 207.624 201.621  1.00  0.00     0.000 C 
BRANCH  12  13
ATOM     13  C   UNL     1     176.949 208.117 200.282  1.00  0.00     0.000 C 
BRANCH  13  14
ATOM     14  C   UNL     1     178.432 207.751 200.101  1.00  0.00     0.002 C 
BRANCH  14  15
ATOM     15  C   UNL     1     178.736 207.200 198.698  1.00  0.00     0.028 C 
BRANCH  15  16
ATOM     16  C   UNL     1     178.960 205.685 198.689  1.00  0.00     0.156 C 
BRANCH  16  17
ATOM     17  O   UNL     1     178.587 205.169 197.442  1.00  0.00    -0.396 OA
ATOM     18  H   UNL     1     178.225 205.934 196.924  1.00  0.00     0.210 HD
ENDBRANCH  16  17
ENDBRANCH  15  16
ENDBRANCH  14  15
ENDBRANCH  13  14
ENDBRANCH  12  13
ENDBRANCH  11  12
ENDBRANCH  10  11
ENDBRANCH   1  10
TORSDOF 15
ENDMDL
