MODEL 1
REMARK VINA RESULT:    -5.134      0.000      0.000
REMARK INTER + INTRA:          -6.208
REMARK INTER:                  -6.034
REMARK INTRA:                  -0.174
REMARK UNBOUND:                -0.174
REMARK SMILES CCCC[C@@H]1OC(=O)C2=C1CCC=C2
REMARK SMILES IDX 3 1 2 2 1 3 4 4 5 5 10 6 6 7 9 8 11 9 7 10 14 11 12 12 8 13
REMARK SMILES IDX 13 14
REMARK H PARENT
REMARK Flexibility Score: inf
ROOT
ATOM      1  C   UNL     1       0.423 -23.103  -9.813  1.00  0.00     0.004 C 
ENDROOT
BRANCH   1   2
ATOM      2  C   UNL     1       1.696 -22.245  -9.856  1.00  0.00    -0.003 C 
ATOM      3  C   UNL     1       1.955 -21.640 -11.235  1.00  0.00     0.004 C 
ENDBRANCH   1   2
BRANCH   1   4
ATOM      4  C   UNL     1       0.731 -24.614  -9.826  1.00  0.00     0.050 C 
BRANCH   4   5
ATOM      5  C   UNL     1      -0.509 -25.486  -9.566  1.00  0.00     0.204 C 
ATOM      6  C   UNL     1      -0.165 -26.871  -9.073  1.00  0.00    -0.015 C 
ATOM      7  O   UNL     1      -1.307 -24.950  -8.507  1.00  0.00    -0.454 OA
ATOM      8  C   UNL     1      -0.739 -27.104  -7.904  1.00  0.00     0.062 C 
ATOM      9  C   UNL     1       0.501 -27.973  -9.851  1.00  0.00     0.040 C 
ATOM     10  C   UNL     1      -1.456 -25.914  -7.524  1.00  0.00     0.338 C 
ATOM     11  C   UNL     1      -0.672 -28.406  -7.231  1.00  0.00     0.011 C 
ATOM     12  C   UNL     1       1.054 -29.061  -8.899  1.00  0.00     0.032 C 
ATOM     13  O   UNL     1      -2.125 -25.756  -6.470  1.00  0.00    -0.246 OA
ATOM     14  C   UNL     1       0.121 -29.358  -7.742  1.00  0.00    -0.026 C 
ENDBRANCH   4   5
ENDBRANCH   1   4
TORSDOF 3
ENDMDL
MODEL 2
REMARK VINA RESULT:    -5.023      3.447      4.888
REMARK INTER + INTRA:          -6.078
REMARK INTER:                  -5.430
REMARK INTRA:                  -0.647
REMARK UNBOUND:                -0.174
REMARK SMILES CCCC[C@@H]1OC(=O)C2=C1CCC=C2
REMARK SMILES IDX 3 1 2 2 1 3 4 4 5 5 10 6 6 7 9 8 11 9 7 10 14 11 12 12 8 13
REMARK SMILES IDX 13 14
REMARK H PARENT
REMARK Flexibility Score: inf
ROOT
ATOM      1  C   UNL     1       0.827 -21.096  -8.326  1.00  0.00     0.004 C 
ENDROOT
BRANCH   1   2
ATOM      2  C   UNL     1      -0.262 -20.020  -8.448  1.00  0.00    -0.003 C 
ATOM      3  C   UNL     1      -1.675 -20.600  -8.404  1.00  0.00     0.004 C 
ENDBRANCH   1   2
BRANCH   1   4
ATOM      4  C   UNL     1       1.907 -20.968  -9.418  1.00  0.00     0.050 C 
BRANCH   4   5
ATOM      5  C   UNL     1       1.550 -21.720 -10.711  1.00  0.00     0.204 C 
ATOM      6  C   UNL     1       0.760 -22.983 -10.463  1.00  0.00    -0.015 C 
ATOM      7  O   UNL     1       0.677 -20.945 -11.538  1.00  0.00    -0.454 OA
ATOM      8  C   UNL     1      -0.394 -22.944 -11.109  1.00  0.00     0.062 C 
ATOM      9  C   UNL     1       1.251 -24.248  -9.812  1.00  0.00     0.040 C 
ATOM     10  C   UNL     1      -0.473 -21.675 -11.787  1.00  0.00     0.338 C 
ATOM     11  C   UNL     1      -1.324 -24.079 -11.143  1.00  0.00     0.011 C 
ATOM     12  C   UNL     1       0.062 -25.132  -9.365  1.00  0.00     0.032 C 
ATOM     13  O   UNL     1      -1.428 -21.275 -12.502  1.00  0.00    -0.246 OA
ATOM     14  C   UNL     1      -1.072 -25.145 -10.372  1.00  0.00    -0.026 C 
ENDBRANCH   4   5
ENDBRANCH   1   4
TORSDOF 3
ENDMDL
MODEL 3
REMARK VINA RESULT:    -4.939      1.854      2.503
REMARK INTER + INTRA:          -5.980
REMARK INTER:                  -5.525
REMARK INTRA:                  -0.455
REMARK UNBOUND:                -0.174
REMARK SMILES CCCC[C@@H]1OC(=O)C2=C1CCC=C2
REMARK SMILES IDX 3 1 2 2 1 3 4 4 5 5 10 6 6 7 9 8 11 9 7 10 14 11 12 12 8 13
REMARK SMILES IDX 13 14
REMARK H PARENT
REMARK Flexibility Score: inf
ROOT
ATOM      1  C   UNL     1       1.061 -23.572  -9.773  1.00  0.00     0.004 C 
ENDROOT
BRANCH   1   2
ATOM      2  C   UNL     1       2.021 -22.374  -9.736  1.00  0.00    -0.003 C 
ATOM      3  C   UNL     1       1.516 -21.238  -8.848  1.00  0.00     0.004 C 
ENDBRANCH   1   2
BRANCH   1   4
ATOM      4  C   UNL     1      -0.191 -23.296 -10.629  1.00  0.00     0.050 C 
BRANCH   4   5
ATOM      5  C   UNL     1      -1.507 -23.540  -9.872  1.00  0.00     0.204 C 
ATOM      6  C   UNL     1      -1.492 -24.810  -9.055  1.00  0.00    -0.015 C 
ATOM      7  O   UNL     1      -1.739 -22.524  -8.893  1.00  0.00    -0.454 OA
ATOM      8  C   UNL     1      -1.734 -24.546  -7.781  1.00  0.00     0.062 C 
ATOM      9  C   UNL     1      -1.477 -26.224  -9.572  1.00  0.00     0.040 C 
ATOM     10  C   UNL     1      -1.887 -23.120  -7.652  1.00  0.00     0.338 C 
ATOM     11  C   UNL     1      -1.889 -25.596  -6.768  1.00  0.00     0.011 C 
ATOM     12  C   UNL     1      -1.043 -27.210  -8.462  1.00  0.00     0.032 C 
ATOM     13  O   UNL     1      -2.124 -22.493  -6.586  1.00  0.00    -0.246 OA
ATOM     14  C   UNL     1      -1.632 -26.866  -7.107  1.00  0.00    -0.026 C 
ENDBRANCH   4   5
ENDBRANCH   1   4
TORSDOF 3
ENDMDL
MODEL 4
REMARK VINA RESULT:    -4.821      2.833      4.440
REMARK INTER + INTRA:          -5.841
REMARK INTER:                  -5.212
REMARK INTRA:                  -0.629
REMARK UNBOUND:                -0.174
REMARK SMILES CCCC[C@@H]1OC(=O)C2=C1CCC=C2
REMARK SMILES IDX 3 1 2 2 1 3 4 4 5 5 10 6 6 7 9 8 11 9 7 10 14 11 12 12 8 13
REMARK SMILES IDX 13 14
REMARK H PARENT
REMARK Flexibility Score: inf
ROOT
ATOM      1  C   UNL     1      -1.189 -22.270 -12.659  1.00  0.00     0.004 C 
ENDROOT
BRANCH   1   2
ATOM      2  C   UNL     1      -2.120 -22.917 -13.696  1.00  0.00    -0.003 C 
ATOM      3  C   UNL     1      -2.086 -24.444 -13.648  1.00  0.00     0.004 C 
ENDBRANCH   1   2
BRANCH   1   4
ATOM      4  C   UNL     1      -1.937 -21.849 -11.379  1.00  0.00     0.050 C 
BRANCH   4   5
ATOM      5  C   UNL     1      -1.183 -22.218 -10.090  1.00  0.00     0.204 C 
ATOM      6  C   UNL     1      -0.758 -23.667 -10.048  1.00  0.00    -0.015 C 
ATOM      7  O   UNL     1       0.057 -21.511  -9.993  1.00  0.00    -0.454 OA
ATOM      8  C   UNL     1       0.553 -23.762  -9.896  1.00  0.00     0.062 C 
ATOM      9  C   UNL     1      -1.651 -24.872  -9.922  1.00  0.00     0.040 C 
ATOM     10  C   UNL     1       1.088 -22.425  -9.865  1.00  0.00     0.338 C 
ATOM     11  C   UNL     1       1.240 -25.046  -9.713  1.00  0.00     0.011 C 
ATOM     12  C   UNL     1      -0.897 -26.159 -10.336  1.00  0.00     0.032 C 
ATOM     13  O   UNL     1       2.301 -22.115  -9.737  1.00  0.00    -0.246 OA
ATOM     14  C   UNL     1       0.539 -26.180  -9.849  1.00  0.00    -0.026 C 
ENDBRANCH   4   5
ENDBRANCH   1   4
TORSDOF 3
ENDMDL
MODEL 5
REMARK VINA RESULT:    -4.800      2.577      3.657
REMARK INTER + INTRA:          -5.816
REMARK INTER:                  -5.112
REMARK INTRA:                  -0.705
REMARK UNBOUND:                -0.174
REMARK SMILES CCCC[C@@H]1OC(=O)C2=C1CCC=C2
REMARK SMILES IDX 3 1 2 2 1 3 4 4 5 5 10 6 6 7 9 8 11 9 7 10 14 11 12 12 8 13
REMARK SMILES IDX 13 14
REMARK H PARENT
REMARK Flexibility Score: inf
ROOT
ATOM      1  C   UNL     1       0.538 -21.048 -11.552  1.00  0.00     0.004 C 
ENDROOT
BRANCH   1   2
ATOM      2  C   UNL     1       1.801 -21.881 -11.285  1.00  0.00    -0.003 C 
ATOM      3  C   UNL     1       2.000 -22.196  -9.803  1.00  0.00     0.004 C 
ENDBRANCH   1   2
BRANCH   1   4
ATOM      4  C   UNL     1      -0.582 -21.873 -12.217  1.00  0.00     0.050 C 
BRANCH   4   5
ATOM      5  C   UNL     1      -1.698 -22.275 -11.238  1.00  0.00     0.204 C 
ATOM      6  C   UNL     1      -1.412 -23.568 -10.513  1.00  0.00    -0.015 C 
ATOM      7  O   UNL     1      -1.825 -21.325 -10.176  1.00  0.00    -0.454 OA
ATOM      8  C   UNL     1      -1.424 -23.379  -9.204  1.00  0.00     0.062 C 
ATOM      9  C   UNL     1      -1.372 -24.952 -11.105  1.00  0.00     0.040 C 
ATOM     10  C   UNL     1      -1.675 -21.981  -8.966  1.00  0.00     0.338 C 
ATOM     11  C   UNL     1      -1.285 -24.479  -8.242  1.00  0.00     0.011 C 
ATOM     12  C   UNL     1      -0.644 -25.933 -10.155  1.00  0.00     0.032 C 
ATOM     13  O   UNL     1      -1.755 -21.423  -7.841  1.00  0.00    -0.246 OA
ATOM     14  C   UNL     1      -0.986 -25.703  -8.696  1.00  0.00    -0.026 C 
ENDBRANCH   4   5
ENDBRANCH   1   4
TORSDOF 3
ENDMDL
MODEL 6
REMARK VINA RESULT:    -4.774      1.754      5.824
REMARK INTER + INTRA:          -5.785
REMARK INTER:                  -5.567
REMARK INTRA:                  -0.218
REMARK UNBOUND:                -0.174
REMARK SMILES CCCC[C@@H]1OC(=O)C2=C1CCC=C2
REMARK SMILES IDX 3 1 2 2 1 3 4 4 5 5 10 6 6 7 9 8 11 9 7 10 14 11 12 12 8 13
REMARK SMILES IDX 13 14
REMARK H PARENT
REMARK Flexibility Score: inf
ROOT
ATOM      1  C   UNL     1       0.463 -27.046  -9.802  1.00  0.00     0.004 C 
ENDROOT
BRANCH   1   2
ATOM      2  C   UNL     1       0.151 -27.860  -8.538  1.00  0.00    -0.003 C 
ATOM      3  C   UNL     1       1.175 -28.964  -8.278  1.00  0.00     0.004 C 
ENDBRANCH   1   2
BRANCH   1   4
ATOM      4  C   UNL     1       0.957 -25.622  -9.478  1.00  0.00     0.050 C 
BRANCH   4   5
ATOM      5  C   UNL     1      -0.144 -24.556  -9.611  1.00  0.00     0.204 C 
ATOM      6  C   UNL     1       0.352 -23.267 -10.222  1.00  0.00    -0.015 C 
ATOM      7  O   UNL     1      -1.166 -24.976 -10.519  1.00  0.00    -0.454 OA
ATOM      8  C   UNL     1      -0.339 -22.972 -11.311  1.00  0.00     0.062 C 
ATOM      9  C   UNL     1       1.300 -22.274  -9.604  1.00  0.00     0.040 C 
ATOM     10  C   UNL     1      -1.293 -24.030 -11.523  1.00  0.00     0.338 C 
ATOM     11  C   UNL     1      -0.153 -21.722 -12.056  1.00  0.00     0.011 C 
ATOM     12  C   UNL     1       1.883 -21.328 -10.680  1.00  0.00     0.032 C 
ATOM     13  O   UNL     1      -2.125 -24.101 -12.465  1.00  0.00    -0.246 OA
ATOM     14  C   UNL     1       0.854 -20.907 -11.712  1.00  0.00    -0.026 C 
ENDBRANCH   4   5
ENDBRANCH   1   4
TORSDOF 3
ENDMDL
MODEL 7
REMARK VINA RESULT:    -4.720      2.086      5.113
REMARK INTER + INTRA:          -5.721
REMARK INTER:                  -5.350
REMARK INTRA:                  -0.371
REMARK UNBOUND:                -0.174
REMARK SMILES CCCC[C@@H]1OC(=O)C2=C1CCC=C2
REMARK SMILES IDX 3 1 2 2 1 3 4 4 5 5 10 6 6 7 9 8 11 9 7 10 14 11 12 12 8 13
REMARK SMILES IDX 13 14
REMARK H PARENT
REMARK Flexibility Score: inf
ROOT
ATOM      1  C   UNL     1       0.871 -30.833  -9.727  1.00  0.00     0.004 C 
ENDROOT
BRANCH   1   2
ATOM      2  C   UNL     1      -0.407 -31.528 -10.221  1.00  0.00    -0.003 C 
ATOM      3  C   UNL     1      -1.525 -30.541 -10.554  1.00  0.00     0.004 C 
ENDBRANCH   1   2
BRANCH   1   4
ATOM      4  C   UNL     1       0.845 -29.311  -9.969  1.00  0.00     0.050 C 
BRANCH   4   5
ATOM      5  C   UNL     1       0.829 -28.492  -8.668  1.00  0.00     0.204 C 
ATOM      6  C   UNL     1       0.247 -27.109  -8.846  1.00  0.00    -0.015 C 
ATOM      7  O   UNL     1      -0.031 -29.085  -7.691  1.00  0.00    -0.454 OA
ATOM      8  C   UNL     1      -0.782 -26.930  -8.034  1.00  0.00     0.062 C 
ATOM      9  C   UNL     1       0.849 -25.962  -9.612  1.00  0.00     0.040 C 
ATOM     10  C   UNL     1      -0.981 -28.156  -7.304  1.00  0.00     0.338 C 
ATOM     11  C   UNL     1      -1.480 -25.646  -7.908  1.00  0.00     0.011 C 
ATOM     12  C   UNL     1      -0.218 -24.883  -9.912  1.00  0.00     0.032 C 
ATOM     13  O   UNL     1      -1.871 -28.367  -6.439  1.00  0.00    -0.246 OA
ATOM     14  C   UNL     1      -1.164 -24.652  -8.749  1.00  0.00    -0.026 C 
ENDBRANCH   4   5
ENDBRANCH   1   4
TORSDOF 3
ENDMDL
MODEL 8
REMARK VINA RESULT:    -4.581      1.827      5.465
REMARK INTER + INTRA:          -5.559
REMARK INTER:                  -5.207
REMARK INTRA:                  -0.352
REMARK UNBOUND:                -0.174
REMARK SMILES CCCC[C@@H]1OC(=O)C2=C1CCC=C2
REMARK SMILES IDX 3 1 2 2 1 3 4 4 5 5 10 6 6 7 9 8 11 9 7 10 14 11 12 12 8 13
REMARK SMILES IDX 13 14
REMARK H PARENT
REMARK Flexibility Score: inf
ROOT
ATOM      1  C   UNL     1      -0.835 -26.155 -10.269  1.00  0.00     0.004 C 
ENDROOT
BRANCH   1   2
ATOM      2  C   UNL     1       0.384 -26.456  -9.385  1.00  0.00    -0.003 C 
ATOM      3  C   UNL     1       0.822 -27.919  -9.460  1.00  0.00     0.004 C 
ENDBRANCH   1   2
BRANCH   1   4
ATOM      4  C   UNL     1      -1.245 -24.670 -10.221  1.00  0.00     0.050 C 
BRANCH   4   5
ATOM      5  C   UNL     1      -0.659 -23.920  -9.013  1.00  0.00     0.204 C 
ATOM      6  C   UNL     1       0.234 -22.768  -9.409  1.00  0.00    -0.015 C 
ATOM      7  O   UNL     1      -1.687 -23.288  -8.246  1.00  0.00    -0.454 OA
ATOM      8  C   UNL     1      -0.210 -21.636  -8.888  1.00  0.00     0.062 C 
ATOM      9  C   UNL     1       1.585 -22.850 -10.068  1.00  0.00     0.040 C 
ATOM     10  C   UNL     1      -1.416 -21.933  -8.159  1.00  0.00     0.338 C 
ATOM     11  C   UNL     1       0.516 -20.366  -9.012  1.00  0.00     0.011 C 
ATOM     12  C   UNL     1       1.979 -21.486 -10.683  1.00  0.00     0.032 C 
ATOM     13  O   UNL     1      -2.125 -21.105  -7.530  1.00  0.00    -0.246 OA
ATOM     14  C   UNL     1       1.595 -20.312  -9.805  1.00  0.00    -0.026 C 
ENDBRANCH   4   5
ENDBRANCH   1   4
TORSDOF 3
ENDMDL
