MODEL 1
REMARK VINA RESULT:    -7.690      0.000      0.000
REMARK INTER + INTRA:          -9.203
REMARK INTER:                  -8.814
REMARK INTRA:                  -0.388
REMARK UNBOUND:                -0.388
REMARK SMILES O=C1C[C@H](c2ccc(O)cc2)Oc2cc(O)cc(O)c21
REMARK SMILES IDX 3 1 4 2 12 3 13 4 14 5 15 6 17 7 18 8 20 9 2 10 1 11 5 12
REMARK SMILES IDX 6 13 11 14 7 15 10 16 8 17 9 18 19 20 16 22
REMARK H PARENT 9 19 19 21 16 23
REMARK Flexibility Score: inf
ROOT
ATOM      1  C   UNL     1      46.516  12.766  -6.351  1.00  0.00     0.131 C 
ATOM      2  C   UNL     1      45.504  11.757  -6.920  1.00  0.00     0.211 C 
ATOM      3  O   UNL     1      46.158  10.710  -7.650  1.00  0.00    -0.484 OA
ATOM      4  C   UNL     1      47.451  10.242  -7.362  1.00  0.00     0.138 A 
ATOM      5  C   UNL     1      47.926   9.113  -8.034  1.00  0.00     0.093 A 
ATOM      6  C   UNL     1      49.198   8.607  -7.751  1.00  0.00     0.123 A 
ATOM      7  C   UNL     1      50.007   9.248  -6.812  1.00  0.00     0.093 A 
ATOM      8  C   UNL     1      49.565  10.401  -6.152  1.00  0.00     0.133 A 
ATOM      9  C   UNL     1      48.257  10.890  -6.403  1.00  0.00     0.102 A 
ATOM     10  C   UNL     1      47.659  12.048  -5.702  1.00  0.00     0.174 C 
ATOM     11  O   UNL     1      48.046  12.402  -4.557  1.00  0.00    -0.294 OA
ENDROOT
BRANCH   2  12
ATOM     12  C   UNL     1      44.610  11.194  -5.831  1.00  0.00    -0.007 A 
ATOM     13  C   UNL     1      44.429  11.862  -4.604  1.00  0.00     0.011 A 
ATOM     14  C   UNL     1      43.891  10.011  -6.072  1.00  0.00     0.011 A 
ATOM     15  C   UNL     1      43.569  11.339  -3.634  1.00  0.00     0.046 A 
ATOM     16  C   UNL     1      43.031   9.491  -5.098  1.00  0.00     0.046 A 
ATOM     17  C   UNL     1      42.870  10.154  -3.876  1.00  0.00     0.115 A 
BRANCH  17  18
ATOM     18  O   UNL     1      42.017   9.647  -2.899  1.00  0.00    -0.508 OA
ATOM     19  H   UNL     1      41.069   9.990  -2.794  1.00  0.00     0.293 HD
ENDBRANCH  17  18
ENDBRANCH   2  12
BRANCH   8  20
ATOM     20  O   UNL     1      50.463  11.039  -5.294  1.00  0.00    -0.507 OA
ATOM     21  H   UNL     1      50.949  10.574  -4.542  1.00  0.00     0.293 HD
ENDBRANCH   8  20
BRANCH   6  22
ATOM     22  O   UNL     1      49.669   7.469  -8.402  1.00  0.00    -0.508 OA
ATOM     23  H   UNL     1      49.576   7.355  -9.405  1.00  0.00     0.293 HD
ENDBRANCH   6  22
TORSDOF 4
ENDMDL
MODEL 2
REMARK VINA RESULT:    -7.546     12.118     14.200
REMARK INTER + INTRA:          -9.037
REMARK INTER:                  -8.612
REMARK INTRA:                  -0.425
REMARK UNBOUND:                -0.388
REMARK SMILES O=C1C[C@H](c2ccc(O)cc2)Oc2cc(O)cc(O)c21
REMARK SMILES IDX 3 1 4 2 12 3 13 4 14 5 15 6 17 7 18 8 20 9 2 10 1 11 5 12
REMARK SMILES IDX 6 13 11 14 7 15 10 16 8 17 9 18 19 20 16 22
REMARK H PARENT 9 19 19 21 16 23
REMARK Flexibility Score: inf
ROOT
ATOM      1  C   UNL     1      40.373   4.108   3.779  1.00  0.00     0.131 C 
ATOM      2  C   UNL     1      38.886   3.841   3.493  1.00  0.00     0.211 C 
ATOM      3  O   UNL     1      38.665   3.519   2.113  1.00  0.00    -0.484 OA
ATOM      4  C   UNL     1      39.609   2.878   1.295  1.00  0.00     0.138 A 
ATOM      5  C   UNL     1      39.228   2.473   0.014  1.00  0.00     0.093 A 
ATOM      6  C   UNL     1      40.137   1.807  -0.815  1.00  0.00     0.123 A 
ATOM      7  C   UNL     1      41.439   1.572  -0.369  1.00  0.00     0.093 A 
ATOM      8  C   UNL     1      41.852   2.000   0.897  1.00  0.00     0.133 A 
ATOM      9  C   UNL     1      40.919   2.634   1.758  1.00  0.00     0.102 A 
ATOM     10  C   UNL     1      41.224   3.050   3.146  1.00  0.00     0.174 C 
ATOM     11  O   UNL     1      42.135   2.499   3.817  1.00  0.00    -0.294 OA
ENDROOT
BRANCH   2  12
ATOM     12  C   UNL     1      38.331   2.763   4.406  1.00  0.00    -0.007 A 
ATOM     13  C   UNL     1      37.758   1.583   3.893  1.00  0.00     0.011 A 
ATOM     14  C   UNL     1      38.448   2.911   5.799  1.00  0.00     0.011 A 
ATOM     15  C   UNL     1      37.289   0.590   4.758  1.00  0.00     0.046 A 
ATOM     16  C   UNL     1      37.978   1.914   6.660  1.00  0.00     0.046 A 
ATOM     17  C   UNL     1      37.396   0.752   6.142  1.00  0.00     0.115 A 
BRANCH  17  18
ATOM     18  O   UNL     1      36.925  -0.247   6.989  1.00  0.00    -0.508 OA
ATOM     19  H   UNL     1      36.217  -0.907   6.688  1.00  0.00     0.293 HD
ENDBRANCH  17  18
ENDBRANCH   2  12
BRANCH   8  20
ATOM     20  O   UNL     1      43.192   1.809   1.240  1.00  0.00    -0.507 OA
ATOM     21  H   UNL     1      43.746   2.486   1.743  1.00  0.00     0.293 HD
ENDBRANCH   8  20
BRANCH   6  22
ATOM     22  O   UNL     1      39.757   1.382  -2.086  1.00  0.00    -0.508 OA
ATOM     23  H   UNL     1      38.785   1.224  -2.324  1.00  0.00     0.293 HD
ENDBRANCH   6  22
TORSDOF 4
ENDMDL
MODEL 3
REMARK VINA RESULT:    -7.469     13.533     17.147
REMARK INTER + INTRA:          -8.949
REMARK INTER:                  -8.482
REMARK INTRA:                  -0.466
REMARK UNBOUND:                -0.388
REMARK SMILES O=C1C[C@H](c2ccc(O)cc2)Oc2cc(O)cc(O)c21
REMARK SMILES IDX 3 1 4 2 12 3 13 4 14 5 15 6 17 7 18 8 20 9 2 10 1 11 5 12
REMARK SMILES IDX 6 13 11 14 7 15 10 16 8 17 9 18 19 20 16 22
REMARK H PARENT 9 19 19 21 16 23
REMARK Flexibility Score: inf
ROOT
ATOM      1  C   UNL     1      34.627   5.384   5.961  1.00  0.00     0.131 C 
ATOM      2  C   UNL     1      33.823   4.255   5.294  1.00  0.00     0.211 C 
ATOM      3  O   UNL     1      34.191   4.090   3.917  1.00  0.00    -0.484 OA
ATOM      4  C   UNL     1      35.470   4.367   3.407  1.00  0.00     0.138 A 
ATOM      5  C   UNL     1      35.760   4.020   2.086  1.00  0.00     0.093 A 
ATOM      6  C   UNL     1      37.032   4.257   1.557  1.00  0.00     0.123 A 
ATOM      7  C   UNL     1      38.008   4.869   2.345  1.00  0.00     0.093 A 
ATOM      8  C   UNL     1      37.729   5.256   3.660  1.00  0.00     0.133 A 
ATOM      9  C   UNL     1      36.453   4.975   4.215  1.00  0.00     0.102 A 
ATOM     10  C   UNL     1      36.080   5.263   5.618  1.00  0.00     0.174 C 
ATOM     11  O   UNL     1      36.943   5.350   6.529  1.00  0.00    -0.294 OA
ENDROOT
BRANCH   2  12
ATOM     12  C   UNL     1      33.958   2.952   6.060  1.00  0.00    -0.007 A 
ATOM     13  C   UNL     1      34.000   2.922   7.467  1.00  0.00     0.011 A 
ATOM     14  C   UNL     1      33.976   1.736   5.355  1.00  0.00     0.011 A 
ATOM     15  C   UNL     1      34.086   1.704   8.147  1.00  0.00     0.046 A 
ATOM     16  C   UNL     1      34.062   0.519   6.039  1.00  0.00     0.046 A 
ATOM     17  C   UNL     1      34.118   0.501   7.437  1.00  0.00     0.115 A 
BRANCH  17  18
ATOM     18  O   UNL     1      34.203  -0.704   8.130  1.00  0.00    -0.508 OA
ATOM     19  H   UNL     1      33.381  -1.148   8.523  1.00  0.00     0.293 HD
ENDBRANCH  17  18
ENDBRANCH   2  12
BRANCH   8  20
ATOM     20  O   UNL     1      38.725   5.943   4.358  1.00  0.00    -0.507 OA
ATOM     21  H   UNL     1      39.274   6.691   3.963  1.00  0.00     0.293 HD
ENDBRANCH   8  20
BRANCH   6  22
ATOM     22  O   UNL     1      37.334   3.894   0.246  1.00  0.00    -0.508 OA
ATOM     23  H   UNL     1      38.181   4.212  -0.211  1.00  0.00     0.293 HD
ENDBRANCH   6  22
TORSDOF 4
ENDMDL
MODEL 4
REMARK VINA RESULT:    -7.438     13.277     17.658
REMARK INTER + INTRA:          -8.914
REMARK INTER:                  -8.664
REMARK INTRA:                  -0.250
REMARK UNBOUND:                -0.388
REMARK SMILES O=C1C[C@H](c2ccc(O)cc2)Oc2cc(O)cc(O)c21
REMARK SMILES IDX 3 1 4 2 12 3 13 4 14 5 15 6 17 7 18 8 20 9 2 10 1 11 5 12
REMARK SMILES IDX 6 13 11 14 7 15 10 16 8 17 9 18 19 20 16 22
REMARK H PARENT 9 19 19 21 16 23
REMARK Flexibility Score: inf
ROOT
ATOM      1  C   UNL     1      37.455   1.522   6.796  1.00  0.00     0.131 C 
ATOM      2  C   UNL     1      37.319   1.078   5.330  1.00  0.00     0.211 C 
ATOM      3  O   UNL     1      36.000   1.327   4.824  1.00  0.00    -0.484 OA
ATOM      4  C   UNL     1      35.175   2.375   5.265  1.00  0.00     0.138 A 
ATOM      5  C   UNL     1      33.976   2.619   4.592  1.00  0.00     0.093 A 
ATOM      6  C   UNL     1      33.146   3.672   4.989  1.00  0.00     0.123 A 
ATOM      7  C   UNL     1      33.505   4.465   6.080  1.00  0.00     0.093 A 
ATOM      8  C   UNL     1      34.685   4.217   6.790  1.00  0.00     0.133 A 
ATOM      9  C   UNL     1      35.552   3.179   6.361  1.00  0.00     0.102 A 
ATOM     10  C   UNL     1      36.862   2.885   6.985  1.00  0.00     0.174 C 
ATOM     11  O   UNL     1      37.508   3.763   7.613  1.00  0.00    -0.294 OA
ENDROOT
BRANCH   2  12
ATOM     12  C   UNL     1      38.376   1.725   4.454  1.00  0.00    -0.007 A 
ATOM     13  C   UNL     1      39.435   2.474   5.004  1.00  0.00     0.011 A 
ATOM     14  C   UNL     1      38.339   1.522   3.064  1.00  0.00     0.011 A 
ATOM     15  C   UNL     1      40.416   3.027   4.175  1.00  0.00     0.046 A 
ATOM     16  C   UNL     1      39.322   2.077   2.239  1.00  0.00     0.046 A 
ATOM     17  C   UNL     1      40.363   2.832   2.793  1.00  0.00     0.115 A 
BRANCH  17  18
ATOM     18  O   UNL     1      41.348   3.389   1.981  1.00  0.00    -0.508 OA
ATOM     19  H   UNL     1      41.535   4.385   1.984  1.00  0.00     0.293 HD
ENDBRANCH  17  18
ENDBRANCH   2  12
BRANCH   8  20
ATOM     20  O   UNL     1      34.934   4.994   7.923  1.00  0.00    -0.507 OA
ATOM     21  H   UNL     1      34.523   4.817   8.828  1.00  0.00     0.293 HD
ENDBRANCH   8  20
BRANCH   6  22
ATOM     22  O   UNL     1      31.958   3.933   4.309  1.00  0.00    -0.508 OA
ATOM     23  H   UNL     1      31.377   4.730   4.544  1.00  0.00     0.293 HD
ENDBRANCH   6  22
TORSDOF 4
ENDMDL
MODEL 5
REMARK VINA RESULT:    -7.426     12.720     16.237
REMARK INTER + INTRA:          -8.899
REMARK INTER:                  -8.439
REMARK INTRA:                  -0.461
REMARK UNBOUND:                -0.388
REMARK SMILES O=C1C[C@H](c2ccc(O)cc2)Oc2cc(O)cc(O)c21
REMARK SMILES IDX 3 1 4 2 12 3 13 4 14 5 15 6 17 7 18 8 20 9 2 10 1 11 5 12
REMARK SMILES IDX 6 13 11 14 7 15 10 16 8 17 9 18 19 20 16 22
REMARK H PARENT 9 19 19 21 16 23
REMARK Flexibility Score: inf
ROOT
ATOM      1  C   UNL     1      35.341   1.795   3.975  1.00  0.00     0.131 C 
ATOM      2  C   UNL     1      36.314   1.623   5.153  1.00  0.00     0.211 C 
ATOM      3  O   UNL     1      37.680   1.640   4.715  1.00  0.00    -0.484 OA
ATOM      4  C   UNL     1      38.136   2.354   3.595  1.00  0.00     0.138 A 
ATOM      5  C   UNL     1      39.510   2.427   3.354  1.00  0.00     0.093 A 
ATOM      6  C   UNL     1      39.998   3.153   2.263  1.00  0.00     0.123 A 
ATOM      7  C   UNL     1      39.105   3.784   1.395  1.00  0.00     0.093 A 
ATOM      8  C   UNL     1      37.724   3.694   1.597  1.00  0.00     0.133 A 
ATOM      9  C   UNL     1      37.228   2.998   2.730  1.00  0.00     0.102 A 
ATOM     10  C   UNL     1      35.793   2.913   3.085  1.00  0.00     0.174 C 
ATOM     11  O   UNL     1      34.965   3.783   2.709  1.00  0.00    -0.294 OA
ENDROOT
BRANCH   2  12
ATOM     12  C   UNL     1      36.069   2.661   6.232  1.00  0.00    -0.007 A 
ATOM     13  C   UNL     1      37.132   3.307   6.892  1.00  0.00     0.011 A 
ATOM     14  C   UNL     1      34.750   3.040   6.538  1.00  0.00     0.011 A 
ATOM     15  C   UNL     1      36.876   4.287   7.855  1.00  0.00     0.046 A 
ATOM     16  C   UNL     1      34.498   4.021   7.501  1.00  0.00     0.046 A 
ATOM     17  C   UNL     1      35.561   4.647   8.163  1.00  0.00     0.115 A 
BRANCH  17  18
ATOM     18  O   UNL     1      35.323   5.626   9.124  1.00  0.00    -0.508 OA
ATOM     19  H   UNL     1      36.013   6.337   9.338  1.00  0.00     0.293 HD
ENDBRANCH  17  18
ENDBRANCH   2  12
BRANCH   8  20
ATOM     20  O   UNL     1      36.891   4.275   0.639  1.00  0.00    -0.507 OA
ATOM     21  H   UNL     1      36.162   4.939   0.854  1.00  0.00     0.293 HD
ENDBRANCH   8  20
BRANCH   6  22
ATOM     22  O   UNL     1      41.368   3.247   2.030  1.00  0.00    -0.508 OA
ATOM     23  H   UNL     1      41.740   3.357   1.093  1.00  0.00     0.293 HD
ENDBRANCH   6  22
TORSDOF 4
ENDMDL
MODEL 6
REMARK VINA RESULT:    -7.355      2.782      4.832
REMARK INTER + INTRA:          -8.818
REMARK INTER:                  -8.592
REMARK INTRA:                  -0.226
REMARK UNBOUND:                -0.388
REMARK SMILES O=C1C[C@H](c2ccc(O)cc2)Oc2cc(O)cc(O)c21
REMARK SMILES IDX 3 1 4 2 12 3 13 4 14 5 15 6 17 7 18 8 20 9 2 10 1 11 5 12
REMARK SMILES IDX 6 13 11 14 7 15 10 16 8 17 9 18 19 20 16 22
REMARK H PARENT 9 19 19 21 16 23
REMARK Flexibility Score: inf
ROOT
ATOM      1  C   UNL     1      48.105   8.409  -7.551  1.00  0.00     0.131 C 
ATOM      2  C   UNL     1      48.101   8.930  -6.104  1.00  0.00     0.211 C 
ATOM      3  O   UNL     1      47.870  10.345  -6.055  1.00  0.00    -0.484 OA
ATOM      4  C   UNL     1      47.110  11.050  -7.002  1.00  0.00     0.138 A 
ATOM      5  C   UNL     1      46.820  12.396  -6.768  1.00  0.00     0.093 A 
ATOM      6  C   UNL     1      46.042  13.118  -7.678  1.00  0.00     0.123 A 
ATOM      7  C   UNL     1      45.577  12.498  -8.839  1.00  0.00     0.093 A 
ATOM      8  C   UNL     1      45.884  11.160  -9.110  1.00  0.00     0.133 A 
ATOM      9  C   UNL     1      46.634  10.411  -8.166  1.00  0.00     0.102 A 
ATOM     10  C   UNL     1      46.943   8.971  -8.311  1.00  0.00     0.174 C 
ATOM     11  O   UNL     1      46.225   8.206  -9.005  1.00  0.00    -0.294 OA
ENDROOT
BRANCH   2  12
ATOM     12  C   UNL     1      47.099   8.179  -5.247  1.00  0.00    -0.007 A 
ATOM     13  C   UNL     1      46.402   7.057  -5.737  1.00  0.00     0.011 A 
ATOM     14  C   UNL     1      46.906   8.567  -3.910  1.00  0.00     0.011 A 
ATOM     15  C   UNL     1      45.512   6.361  -4.912  1.00  0.00     0.046 A 
ATOM     16  C   UNL     1      46.016   7.867  -3.089  1.00  0.00     0.046 A 
ATOM     17  C   UNL     1      45.316   6.763  -3.589  1.00  0.00     0.115 A 
BRANCH  17  18
ATOM     18  O   UNL     1      44.428   6.059  -2.780  1.00  0.00    -0.508 OA
ATOM     19  H   UNL     1      43.471   5.890  -3.068  1.00  0.00     0.293 HD
ENDBRANCH  17  18
ENDBRANCH   2  12
BRANCH   8  20
ATOM     20  O   UNL     1      45.460  10.634 -10.332  1.00  0.00    -0.507 OA
ATOM     21  H   UNL     1      45.067   9.711 -10.440  1.00  0.00     0.293 HD
ENDBRANCH   8  20
BRANCH   6  22
ATOM     22  O   UNL     1      45.731  14.455  -7.441  1.00  0.00    -0.508 OA
ATOM     23  H   UNL     1      44.781  14.754  -7.255  1.00  0.00     0.293 HD
ENDBRANCH   6  22
TORSDOF 4
ENDMDL
MODEL 7
REMARK VINA RESULT:    -7.342      3.323      6.770
REMARK INTER + INTRA:          -8.804
REMARK INTER:                  -8.342
REMARK INTRA:                  -0.462
REMARK UNBOUND:                -0.388
REMARK SMILES O=C1C[C@H](c2ccc(O)cc2)Oc2cc(O)cc(O)c21
REMARK SMILES IDX 3 1 4 2 12 3 13 4 14 5 15 6 17 7 18 8 20 9 2 10 1 11 5 12
REMARK SMILES IDX 6 13 11 14 7 15 10 16 8 17 9 18 19 20 16 22
REMARK H PARENT 9 19 19 21 16 23
REMARK Flexibility Score: inf
ROOT
ATOM      1  C   UNL     1      43.862  10.543  -3.077  1.00  0.00     0.131 C 
ATOM      2  C   UNL     1      44.530   9.762  -4.221  1.00  0.00     0.211 C 
ATOM      3  O   UNL     1      43.705   8.679  -4.671  1.00  0.00    -0.484 OA
ATOM      4  C   UNL     1      42.302   8.689  -4.625  1.00  0.00     0.138 A 
ATOM      5  C   UNL     1      41.598   7.648  -5.235  1.00  0.00     0.093 A 
ATOM      6  C   UNL     1      40.200   7.643  -5.230  1.00  0.00     0.123 A 
ATOM      7  C   UNL     1      39.505   8.669  -4.588  1.00  0.00     0.093 A 
ATOM      8  C   UNL     1      40.190   9.703  -3.940  1.00  0.00     0.133 A 
ATOM      9  C   UNL     1      41.608   9.736  -3.984  1.00  0.00     0.102 A 
ATOM     10  C   UNL     1      42.428  10.825  -3.407  1.00  0.00     0.174 C 
ATOM     11  O   UNL     1      41.969  11.985  -3.244  1.00  0.00    -0.294 OA
ENDROOT
BRANCH   2  12
ATOM     12  C   UNL     1      44.911  10.678  -5.369  1.00  0.00    -0.007 A 
ATOM     13  C   UNL     1      45.485  11.945  -5.145  1.00  0.00     0.011 A 
ATOM     14  C   UNL     1      44.751  10.230  -6.692  1.00  0.00     0.011 A 
ATOM     15  C   UNL     1      45.862  12.752  -6.223  1.00  0.00     0.046 A 
ATOM     16  C   UNL     1      45.129  11.041  -7.767  1.00  0.00     0.046 A 
ATOM     17  C   UNL     1      45.685  12.304  -7.535  1.00  0.00     0.115 A 
BRANCH  17  18
ATOM     18  O   UNL     1      46.065  13.120  -8.597  1.00  0.00    -0.508 OA
ATOM     19  H   UNL     1      46.491  12.736  -9.433  1.00  0.00     0.293 HD
ENDBRANCH  17  18
ENDBRANCH   2  12
BRANCH   8  20
ATOM     20  O   UNL     1      39.430  10.646  -3.244  1.00  0.00    -0.507 OA
ATOM     21  H   UNL     1      39.330  10.657  -2.240  1.00  0.00     0.293 HD
ENDBRANCH   8  20
BRANCH   6  22
ATOM     22  O   UNL     1      39.492   6.619  -5.855  1.00  0.00    -0.508 OA
ATOM     23  H   UNL     1      39.961   5.800  -6.226  1.00  0.00     0.293 HD
ENDBRANCH   6  22
TORSDOF 4
ENDMDL
MODEL 8
REMARK VINA RESULT:    -7.342     12.585     16.053
REMARK INTER + INTRA:          -8.803
REMARK INTER:                  -8.345
REMARK INTRA:                  -0.458
REMARK UNBOUND:                -0.388
REMARK SMILES O=C1C[C@H](c2ccc(O)cc2)Oc2cc(O)cc(O)c21
REMARK SMILES IDX 3 1 4 2 12 3 13 4 14 5 15 6 17 7 18 8 20 9 2 10 1 11 5 12
REMARK SMILES IDX 6 13 11 14 7 15 10 16 8 17 9 18 19 20 16 22
REMARK H PARENT 9 19 19 21 16 23
REMARK Flexibility Score: inf
ROOT
ATOM      1  C   UNL     1      37.102   3.217   5.839  1.00  0.00     0.131 C 
ATOM      2  C   UNL     1      36.196   3.099   4.601  1.00  0.00     0.211 C 
ATOM      3  O   UNL     1      36.877   3.516   3.409  1.00  0.00    -0.484 OA
ATOM      4  C   UNL     1      38.263   3.399   3.215  1.00  0.00     0.138 A 
ATOM      5  C   UNL     1      38.795   3.690   1.957  1.00  0.00     0.093 A 
ATOM      6  C   UNL     1      40.167   3.557   1.723  1.00  0.00     0.123 A 
ATOM      7  C   UNL     1      41.012   3.157   2.760  1.00  0.00     0.093 A 
ATOM      8  C   UNL     1      40.505   2.893   4.037  1.00  0.00     0.133 A 
ATOM      9  C   UNL     1      39.107   2.983   4.265  1.00  0.00     0.102 A 
ATOM     10  C   UNL     1      38.456   2.645   5.550  1.00  0.00     0.174 C 
ATOM     11  O   UNL     1      38.983   1.850   6.371  1.00  0.00    -0.294 OA
ENDROOT
BRANCH   2  12
ATOM     12  C   UNL     1      35.639   1.695   4.454  1.00  0.00    -0.007 A 
ATOM     13  C   UNL     1      35.492   1.087   3.192  1.00  0.00     0.011 A 
ATOM     14  C   UNL     1      35.321   0.955   5.605  1.00  0.00     0.011 A 
ATOM     15  C   UNL     1      35.011  -0.222   3.089  1.00  0.00     0.046 A 
ATOM     16  C   UNL     1      34.841  -0.354   5.498  1.00  0.00     0.046 A 
ATOM     17  C   UNL     1      34.684  -0.946   4.239  1.00  0.00     0.115 A 
BRANCH  17  18
ATOM     18  O   UNL     1      34.207  -2.248   4.119  1.00  0.00    -0.508 OA
ATOM     19  H   UNL     1      33.992  -2.652   3.215  1.00  0.00     0.293 HD
ENDBRANCH  17  18
ENDBRANCH   2  12
BRANCH   8  20
ATOM     20  O   UNL     1      41.420   2.585   5.045  1.00  0.00    -0.507 OA
ATOM     21  H   UNL     1      42.101   3.237   5.405  1.00  0.00     0.293 HD
ENDBRANCH   8  20
BRANCH   6  22
ATOM     22  O   UNL     1      40.702   3.826   0.465  1.00  0.00    -0.508 OA
ATOM     23  H   UNL     1      40.879   4.775   0.156  1.00  0.00     0.293 HD
ENDBRANCH   6  22
TORSDOF 4
ENDMDL
MODEL 9
REMARK VINA RESULT:    -7.190     12.887     16.805
REMARK INTER + INTRA:          -8.629
REMARK INTER:                  -8.172
REMARK INTRA:                  -0.456
REMARK UNBOUND:                -0.388
REMARK SMILES O=C1C[C@H](c2ccc(O)cc2)Oc2cc(O)cc(O)c21
REMARK SMILES IDX 3 1 4 2 12 3 13 4 14 5 15 6 17 7 18 8 20 9 2 10 1 11 5 12
REMARK SMILES IDX 6 13 11 14 7 15 10 16 8 17 9 18 19 20 16 22
REMARK H PARENT 9 19 19 21 16 23
REMARK Flexibility Score: inf
ROOT
ATOM      1  C   UNL     1      35.374   4.270   2.365  1.00  0.00     0.131 C 
ATOM      2  C   UNL     1      36.504   5.223   2.791  1.00  0.00     0.211 C 
ATOM      3  O   UNL     1      36.294   5.731   4.116  1.00  0.00    -0.484 OA
ATOM      4  C   UNL     1      35.621   5.027   5.129  1.00  0.00     0.138 A 
ATOM      5  C   UNL     1      35.614   5.550   6.423  1.00  0.00     0.093 A 
ATOM      6  C   UNL     1      34.976   4.861   7.459  1.00  0.00     0.123 A 
ATOM      7  C   UNL     1      34.320   3.658   7.192  1.00  0.00     0.093 A 
ATOM      8  C   UNL     1      34.285   3.134   5.895  1.00  0.00     0.133 A 
ATOM      9  C   UNL     1      34.971   3.807   4.851  1.00  0.00     0.102 A 
ATOM     10  C   UNL     1      35.070   3.298   3.464  1.00  0.00     0.174 C 
ATOM     11  O   UNL     1      34.965   2.073   3.199  1.00  0.00    -0.294 OA
ENDROOT
BRANCH   2  12
ATOM     12  C   UNL     1      37.864   4.562   2.664  1.00  0.00    -0.007 A 
ATOM     13  C   UNL     1      38.124   3.589   1.679  1.00  0.00     0.011 A 
ATOM     14  C   UNL     1      38.912   4.973   3.504  1.00  0.00     0.011 A 
ATOM     15  C   UNL     1      39.397   3.024   1.560  1.00  0.00     0.046 A 
ATOM     16  C   UNL     1      40.185   4.406   3.382  1.00  0.00     0.046 A 
ATOM     17  C   UNL     1      40.430   3.429   2.410  1.00  0.00     0.115 A 
BRANCH  17  18
ATOM     18  O   UNL     1      41.693   2.857   2.279  1.00  0.00    -0.508 OA
ATOM     19  H   UNL     1      42.348   2.838   3.052  1.00  0.00     0.293 HD
ENDBRANCH  17  18
ENDBRANCH   2  12
BRANCH   8  20
ATOM     20  O   UNL     1      33.536   1.974   5.686  1.00  0.00    -0.507 OA
ATOM     21  H   UNL     1      32.548   1.900   5.880  1.00  0.00     0.293 HD
ENDBRANCH   8  20
BRANCH   6  22
ATOM     22  O   UNL     1      34.983   5.367   8.757  1.00  0.00    -0.508 OA
ATOM     23  H   UNL     1      35.254   6.324   8.952  1.00  0.00     0.293 HD
ENDBRANCH   6  22
TORSDOF 4
ENDMDL
