MODEL 1
REMARK VINA RESULT:    -5.792      0.000      0.000
REMARK INTER + INTRA:          -8.418
REMARK INTER:                  -7.824
REMARK INTRA:                  -0.594
REMARK UNBOUND:                -0.594
REMARK SMILES COc1ccc(-c2cc(=O)c3c(OC)c(OC)c(OC)c(OC)c3o2)cc1
REMARK SMILES IDX 7 1 8 2 9 3 10 4 11 5 24 6 25 7 21 8 18 9 15 10 12 11 6 12
REMARK SMILES IDX 3 13 4 14 27 15 5 16 26 17 2 18 1 19 22 20 23 21 13 22 14 23
REMARK SMILES IDX 19 24 20 25 16 26 17 27
REMARK H PARENT
REMARK Flexibility Score: inf
ROOT
ATOM      1  C   UNL     1      34.593  12.897  20.411  1.00  0.00     0.138 A 
ATOM      2  C   UNL     1      33.519  13.674  19.971  1.00  0.00     0.100 A 
ATOM      3  C   UNL     1      32.273  13.080  19.805  1.00  0.00     0.197 A 
ATOM      4  O   UNL     1      31.315  13.802  19.419  1.00  0.00    -0.289 OA
ATOM      5  C   UNL     1      32.106  11.699  20.073  1.00  0.00     0.115 A 
ATOM      6  C   UNL     1      33.246  10.973  20.494  1.00  0.00     0.188 A 
ATOM      7  O   UNL     1      34.407  11.604  20.652  1.00  0.00    -0.452 OA
ATOM      8  C   UNL     1      33.158   9.584  20.742  1.00  0.00     0.209 A 
ATOM      9  C   UNL     1      31.907   8.926  20.616  1.00  0.00     0.211 A 
ATOM     10  C   UNL     1      30.752   9.663  20.241  1.00  0.00     0.208 A 
ATOM     11  C   UNL     1      30.858  11.046  19.942  1.00  0.00     0.179 A 
ENDROOT
BRANCH   1  12
ATOM     12  C   UNL     1      35.934  13.487  20.623  1.00  0.00     0.018 A 
ATOM     13  C   UNL     1      38.488  14.603  21.068  1.00  0.00     0.118 A 
ATOM     14  C   UNL     1      38.224  13.884  19.897  1.00  0.00     0.047 A 
ATOM     15  C   UNL     1      37.465  14.763  22.022  1.00  0.00     0.047 A 
ATOM     16  C   UNL     1      36.960  13.330  19.673  1.00  0.00     0.016 A 
ATOM     17  C   UNL     1      36.202  14.203  21.801  1.00  0.00     0.016 A 
BRANCH  13  18
ATOM     18  O   UNL     1      39.773  15.140  21.245  1.00  0.00    -0.497 OA
ATOM     19  C   UNL     1      40.656  14.781  22.303  1.00  0.00     0.278 C 
ENDBRANCH  13  18
ENDBRANCH   1  12
BRANCH   8  20
ATOM     20  O   UNL     1      34.282   8.818  21.112  1.00  0.00    -0.490 OA
ATOM     21  C   UNL     1      34.755   8.552  22.429  1.00  0.00     0.278 C 
ENDBRANCH   8  20
BRANCH  11  22
ATOM     22  O   UNL     1      29.756  11.821  19.516  1.00  0.00    -0.492 OA
ATOM     23  C   UNL     1      29.072  11.762  18.270  1.00  0.00     0.278 C 
ENDBRANCH  11  22
BRANCH   9  24
ATOM     24  O   UNL     1      31.761   7.541  20.833  1.00  0.00    -0.490 OA
ATOM     25  C   UNL     1      31.356   6.876  22.025  1.00  0.00     0.279 C 
ENDBRANCH   9  24
BRANCH  10  26
ATOM     26  O   UNL     1      29.478   9.068  20.149  1.00  0.00    -0.490 OA
ATOM     27  C   UNL     1      28.966   8.244  19.107  1.00  0.00     0.278 C 
ENDBRANCH  10  26
TORSDOF 6
ENDMDL
MODEL 2
REMARK VINA RESULT:    -5.456      1.303      3.699
REMARK INTER + INTRA:          -7.963
REMARK INTER:                  -7.380
REMARK INTRA:                  -0.583
REMARK UNBOUND:                -0.594
REMARK SMILES COc1ccc(-c2cc(=O)c3c(OC)c(OC)c(OC)c(OC)c3o2)cc1
REMARK SMILES IDX 7 1 8 2 9 3 10 4 11 5 24 6 25 7 21 8 18 9 15 10 12 11 6 12
REMARK SMILES IDX 3 13 4 14 27 15 5 16 26 17 2 18 1 19 22 20 23 21 13 22 14 23
REMARK SMILES IDX 19 24 20 25 16 26 17 27
REMARK H PARENT
REMARK Flexibility Score: inf
ROOT
ATOM      1  C   UNL     1      34.840  10.964  20.743  1.00  0.00     0.138 A 
ATOM      2  C   UNL     1      34.889   9.780  21.482  1.00  0.00     0.100 A 
ATOM      3  C   UNL     1      33.790   8.926  21.472  1.00  0.00     0.197 A 
ATOM      4  O   UNL     1      33.860   7.857  22.135  1.00  0.00    -0.289 OA
ATOM      5  C   UNL     1      32.636   9.268  20.724  1.00  0.00     0.115 A 
ATOM      6  C   UNL     1      32.653  10.495  20.020  1.00  0.00     0.188 A 
ATOM      7  O   UNL     1      33.743  11.259  20.054  1.00  0.00    -0.452 OA
ATOM      8  C   UNL     1      31.521  10.915  19.284  1.00  0.00     0.209 A 
ATOM      9  C   UNL     1      30.380  10.074  19.213  1.00  0.00     0.211 A 
ATOM     10  C   UNL     1      30.379   8.820  19.880  1.00  0.00     0.208 A 
ATOM     11  C   UNL     1      31.498   8.429  20.660  1.00  0.00     0.179 A 
ENDROOT
BRANCH   1  12
ATOM     12  C   UNL     1      35.990  11.894  20.706  1.00  0.00     0.018 A 
ATOM     13  C   UNL     1      38.203  13.645  20.605  1.00  0.00     0.118 A 
ATOM     14  C   UNL     1      36.908  14.149  20.765  1.00  0.00     0.047 A 
ATOM     15  C   UNL     1      38.389  12.253  20.494  1.00  0.00     0.047 A 
ATOM     16  C   UNL     1      35.809  13.285  20.815  1.00  0.00     0.016 A 
ATOM     17  C   UNL     1      37.290  11.389  20.539  1.00  0.00     0.016 A 
BRANCH  13  18
ATOM     18  O   UNL     1      39.271  14.553  20.561  1.00  0.00    -0.497 OA
ATOM     19  C   UNL     1      40.105  14.869  21.672  1.00  0.00     0.278 C 
ENDBRANCH  13  18
ENDBRANCH   1  12
BRANCH   8  20
ATOM     20  O   UNL     1      31.482  12.153  18.613  1.00  0.00    -0.490 OA
ATOM     21  C   UNL     1      30.719  13.304  18.959  1.00  0.00     0.278 C 
ENDBRANCH   8  20
BRANCH  11  22
ATOM     22  O   UNL     1      31.536   7.218  21.386  1.00  0.00    -0.492 OA
ATOM     23  C   UNL     1      30.808   6.876  22.559  1.00  0.00     0.278 C 
ENDBRANCH  11  22
BRANCH   9  24
ATOM     24  O   UNL     1      29.215  10.446  18.511  1.00  0.00    -0.490 OA
ATOM     25  C   UNL     1      28.948  10.314  17.119  1.00  0.00     0.279 C 
ENDBRANCH   9  24
BRANCH  10  26
ATOM     26  O   UNL     1      29.291   7.928  19.802  1.00  0.00    -0.490 OA
ATOM     27  C   UNL     1      29.035   6.939  18.811  1.00  0.00     0.278 C 
ENDBRANCH  10  26
TORSDOF 6
ENDMDL
MODEL 3
REMARK VINA RESULT:    -5.315      0.925      3.581
REMARK INTER + INTRA:          -7.774
REMARK INTER:                  -7.742
REMARK INTRA:                  -0.031
REMARK UNBOUND:                -0.594
REMARK SMILES COc1ccc(-c2cc(=O)c3c(OC)c(OC)c(OC)c(OC)c3o2)cc1
REMARK SMILES IDX 7 1 8 2 9 3 10 4 11 5 24 6 25 7 21 8 18 9 15 10 12 11 6 12
REMARK SMILES IDX 3 13 4 14 27 15 5 16 26 17 2 18 1 19 22 20 23 21 13 22 14 23
REMARK SMILES IDX 19 24 20 25 16 26 17 27
REMARK H PARENT
REMARK Flexibility Score: inf
ROOT
ATOM      1  C   UNL     1      35.209  11.468  20.636  1.00  0.00     0.138 A 
ATOM      2  C   UNL     1      35.301  10.106  20.931  1.00  0.00     0.100 A 
ATOM      3  C   UNL     1      34.178   9.299  20.774  1.00  0.00     0.197 A 
ATOM      4  O   UNL     1      34.286   8.071  21.033  1.00  0.00    -0.289 OA
ATOM      5  C   UNL     1      32.958   9.865  20.328  1.00  0.00     0.115 A 
ATOM      6  C   UNL     1      32.938  11.256  20.071  1.00  0.00     0.188 A 
ATOM      7  O   UNL     1      34.051  11.971  20.223  1.00  0.00    -0.452 OA
ATOM      8  C   UNL     1      31.744  11.891  19.660  1.00  0.00     0.209 A 
ATOM      9  C   UNL     1      30.572  11.117  19.456  1.00  0.00     0.211 A 
ATOM     10  C   UNL     1      30.603   9.713  19.666  1.00  0.00     0.208 A 
ATOM     11  C   UNL     1      31.790   9.090  20.130  1.00  0.00     0.179 A 
ENDROOT
BRANCH   1  12
ATOM     12  C   UNL     1      36.381  12.363  20.768  1.00  0.00     0.018 A 
ATOM     13  C   UNL     1      38.629  14.056  20.981  1.00  0.00     0.118 A 
ATOM     14  C   UNL     1      37.375  14.485  21.429  1.00  0.00     0.047 A 
ATOM     15  C   UNL     1      38.756  12.771  20.421  1.00  0.00     0.047 A 
ATOM     16  C   UNL     1      36.259  13.649  21.326  1.00  0.00     0.016 A 
ATOM     17  C   UNL     1      37.639  11.936  20.312  1.00  0.00     0.016 A 
BRANCH  13  18
ATOM     18  O   UNL     1      39.718  14.933  21.109  1.00  0.00    -0.497 OA
ATOM     19  C   UNL     1      40.674  14.881  22.163  1.00  0.00     0.278 C 
ENDBRANCH  13  18
ENDBRANCH   1  12
BRANCH   8  20
ATOM     20  O   UNL     1      31.672  13.282  19.445  1.00  0.00    -0.490 OA
ATOM     21  C   UNL     1      32.697  14.247  19.657  1.00  0.00     0.278 C 
ENDBRANCH   8  20
BRANCH  11  22
ATOM     22  O   UNL     1      31.869   7.707  20.405  1.00  0.00    -0.492 OA
ATOM     23  C   UNL     1      31.196   6.976  21.423  1.00  0.00     0.278 C 
ENDBRANCH  11  22
BRANCH   9  24
ATOM     24  O   UNL     1      29.348  11.696  19.064  1.00  0.00    -0.490 OA
ATOM     25  C   UNL     1      28.876  11.946  17.744  1.00  0.00     0.279 C 
ENDBRANCH   9  24
BRANCH  10  26
ATOM     26  O   UNL     1      29.482   8.893  19.432  1.00  0.00    -0.490 OA
ATOM     27  C   UNL     1      29.142   8.188  18.242  1.00  0.00     0.278 C 
ENDBRANCH  10  26
TORSDOF 6
ENDMDL
MODEL 4
REMARK VINA RESULT:    -4.616      2.425      7.103
REMARK INTER + INTRA:          -6.829
REMARK INTER:                  -7.420
REMARK INTRA:                   0.591
REMARK UNBOUND:                -0.594
REMARK SMILES COc1ccc(-c2cc(=O)c3c(OC)c(OC)c(OC)c(OC)c3o2)cc1
REMARK SMILES IDX 7 1 8 2 9 3 10 4 11 5 24 6 25 7 21 8 18 9 15 10 12 11 6 12
REMARK SMILES IDX 3 13 4 14 27 15 5 16 26 17 2 18 1 19 22 20 23 21 13 22 14 23
REMARK SMILES IDX 19 24 20 25 16 26 17 27
REMARK H PARENT
REMARK Flexibility Score: inf
ROOT
ATOM      1  C   UNL     1      32.440  11.151  19.668  1.00  0.00     0.138 A 
ATOM      2  C   UNL     1      32.003  10.110  20.490  1.00  0.00     0.100 A 
ATOM      3  C   UNL     1      32.911   9.491  21.344  1.00  0.00     0.197 A 
ATOM      4  O   UNL     1      32.495   8.563  22.086  1.00  0.00    -0.289 OA
ATOM      5  C   UNL     1      34.264   9.915  21.364  1.00  0.00     0.115 A 
ATOM      6  C   UNL     1      34.634  10.961  20.486  1.00  0.00     0.188 A 
ATOM      7  O   UNL     1      33.714  11.524  19.707  1.00  0.00    -0.452 OA
ATOM      8  C   UNL     1      35.975  11.406  20.429  1.00  0.00     0.209 A 
ATOM      9  C   UNL     1      36.942  10.833  21.294  1.00  0.00     0.211 A 
ATOM     10  C   UNL     1      36.561   9.816  22.211  1.00  0.00     0.208 A 
ATOM     11  C   UNL     1      35.226   9.337  22.226  1.00  0.00     0.179 A 
ENDROOT
BRANCH   1  12
ATOM     12  C   UNL     1      31.507  11.853  18.758  1.00  0.00     0.018 A 
ATOM     13  C   UNL     1      29.754  13.228  17.023  1.00  0.00     0.118 A 
ATOM     14  C   UNL     1      30.004  11.863  16.843  1.00  0.00     0.047 A 
ATOM     15  C   UNL     1      30.389  13.907  18.081  1.00  0.00     0.047 A 
ATOM     16  C   UNL     1      30.871  11.179  17.700  1.00  0.00     0.016 A 
ATOM     17  C   UNL     1      31.261  13.225  18.935  1.00  0.00     0.016 A 
BRANCH  13  18
ATOM     18  O   UNL     1      28.875  13.868  16.136  1.00  0.00    -0.497 OA
ATOM     19  C   UNL     1      28.977  15.234  15.748  1.00  0.00     0.278 C 
ENDBRANCH  13  18
ENDBRANCH   1  12
BRANCH   8  20
ATOM     20  O   UNL     1      36.392  12.409  19.530  1.00  0.00    -0.490 OA
ATOM     21  C   UNL     1      36.242  13.818  19.672  1.00  0.00     0.278 C 
ENDBRANCH   8  20
BRANCH  11  22
ATOM     22  O   UNL     1      34.799   8.295  23.079  1.00  0.00    -0.492 OA
ATOM     23  C   UNL     1      34.447   6.963  22.726  1.00  0.00     0.278 C 
ENDBRANCH  11  22
BRANCH   9  24
ATOM     24  O   UNL     1      38.297  11.222  21.271  1.00  0.00    -0.490 OA
ATOM     25  C   UNL     1      39.159  11.339  20.144  1.00  0.00     0.279 C 
ENDBRANCH   9  24
BRANCH  10  26
ATOM     26  O   UNL     1      37.471   9.249  23.125  1.00  0.00    -0.490 OA
ATOM     27  C   UNL     1      38.341   8.140  22.925  1.00  0.00     0.278 C 
ENDBRANCH  10  26
TORSDOF 6
ENDMDL
MODEL 5
REMARK VINA RESULT:    -3.895      1.580      1.829
REMARK INTER + INTRA:          -5.856
REMARK INTER:                  -5.655
REMARK INTRA:                  -0.200
REMARK UNBOUND:                -0.594
REMARK SMILES COc1ccc(-c2cc(=O)c3c(OC)c(OC)c(OC)c(OC)c3o2)cc1
REMARK SMILES IDX 7 1 8 2 9 3 10 4 11 5 24 6 25 7 21 8 18 9 15 10 12 11 6 12
REMARK SMILES IDX 3 13 4 14 27 15 5 16 26 17 2 18 1 19 22 20 23 21 13 22 14 23
REMARK SMILES IDX 19 24 20 25 16 26 17 27
REMARK H PARENT
REMARK Flexibility Score: inf
ROOT
ATOM      1  C   UNL     1      34.872  13.191  20.781  1.00  0.00     0.138 A 
ATOM      2  C   UNL     1      33.750  13.901  21.213  1.00  0.00     0.100 A 
ATOM      3  C   UNL     1      32.483  13.369  20.994  1.00  0.00     0.197 A 
ATOM      4  O   UNL     1      31.485  14.020  21.403  1.00  0.00    -0.289 OA
ATOM      5  C   UNL     1      32.344  12.125  20.330  1.00  0.00     0.115 A 
ATOM      6  C   UNL     1      33.526  11.477  19.902  1.00  0.00     0.188 A 
ATOM      7  O   UNL     1      34.711  12.029  20.159  1.00  0.00    -0.452 OA
ATOM      8  C   UNL     1      33.458  10.251  19.201  1.00  0.00     0.209 A 
ATOM      9  C   UNL     1      32.195   9.645  18.971  1.00  0.00     0.211 A 
ATOM     10  C   UNL     1      31.010  10.270  19.443  1.00  0.00     0.208 A 
ATOM     11  C   UNL     1      31.083  11.526  20.098  1.00  0.00     0.179 A 
ENDROOT
BRANCH   1  12
ATOM     12  C   UNL     1      36.241  13.706  21.009  1.00  0.00     0.018 A 
ATOM     13  C   UNL     1      38.845  14.686  21.486  1.00  0.00     0.118 A 
ATOM     14  C   UNL     1      38.613  13.763  20.460  1.00  0.00     0.047 A 
ATOM     15  C   UNL     1      37.764  15.119  22.278  1.00  0.00     0.047 A 
ATOM     16  C   UNL     1      37.325  13.276  20.221  1.00  0.00     0.016 A 
ATOM     17  C   UNL     1      36.476  14.627  22.043  1.00  0.00     0.016 A 
BRANCH  13  18
ATOM     18  O   UNL     1      40.156  15.145  21.685  1.00  0.00    -0.497 OA
ATOM     19  C   UNL     1      41.132  14.476  22.477  1.00  0.00     0.278 C 
ENDBRANCH  13  18
ENDBRANCH   1  12
BRANCH   8  20
ATOM     20  O   UNL     1      34.610   9.602  18.714  1.00  0.00    -0.490 OA
ATOM     21  C   UNL     1      35.632  10.152  17.890  1.00  0.00     0.278 C 
ENDBRANCH   8  20
BRANCH  11  22
ATOM     22  O   UNL     1      29.937  12.220  20.546  1.00  0.00    -0.492 OA
ATOM     23  C   UNL     1      28.875  12.754  19.765  1.00  0.00     0.278 C 
ENDBRANCH  11  22
BRANCH   9  24
ATOM     24  O   UNL     1      32.061   8.433  18.263  1.00  0.00    -0.490 OA
ATOM     25  C   UNL     1      31.278   8.175  17.102  1.00  0.00     0.279 C 
ENDBRANCH   9  24
BRANCH  10  26
ATOM     26  O   UNL     1      29.738   9.687  19.283  1.00  0.00    -0.490 OA
ATOM     27  C   UNL     1      29.075   8.773  20.150  1.00  0.00     0.278 C 
ENDBRANCH  10  26
TORSDOF 6
ENDMDL
MODEL 6
REMARK VINA RESULT:    -3.605      2.167      8.132
REMARK INTER + INTRA:          -5.464
REMARK INTER:                  -5.576
REMARK INTRA:                   0.112
REMARK UNBOUND:                -0.594
REMARK SMILES COc1ccc(-c2cc(=O)c3c(OC)c(OC)c(OC)c(OC)c3o2)cc1
REMARK SMILES IDX 7 1 8 2 9 3 10 4 11 5 24 6 25 7 21 8 18 9 15 10 12 11 6 12
REMARK SMILES IDX 3 13 4 14 27 15 5 16 26 17 2 18 1 19 22 20 23 21 13 22 14 23
REMARK SMILES IDX 19 24 20 25 16 26 17 27
REMARK H PARENT
REMARK Flexibility Score: inf
ROOT
ATOM      1  C   UNL     1      34.275  10.576  19.295  1.00  0.00     0.138 A 
ATOM      2  C   UNL     1      35.321  10.465  18.378  1.00  0.00     0.100 A 
ATOM      3  C   UNL     1      36.421  11.310  18.495  1.00  0.00     0.197 A 
ATOM      4  O   UNL     1      37.360  11.185  17.664  1.00  0.00    -0.289 OA
ATOM      5  C   UNL     1      36.464  12.274  19.532  1.00  0.00     0.115 A 
ATOM      6  C   UNL     1      35.356  12.341  20.409  1.00  0.00     0.188 A 
ATOM      7  O   UNL     1      34.342  11.492  20.255  1.00  0.00    -0.452 OA
ATOM      8  C   UNL     1      35.318  13.305  21.443  1.00  0.00     0.209 A 
ATOM      9  C   UNL     1      36.421  14.176  21.630  1.00  0.00     0.211 A 
ATOM     10  C   UNL     1      37.556  14.078  20.781  1.00  0.00     0.208 A 
ATOM     11  C   UNL     1      37.565  13.145  19.713  1.00  0.00     0.179 A 
ENDROOT
BRANCH   1  12
ATOM     12  C   UNL     1      33.093   9.688  19.224  1.00  0.00     0.018 A 
ATOM     13  C   UNL     1      30.850   7.982  19.048  1.00  0.00     0.118 A 
ATOM     14  C   UNL     1      31.586   8.065  20.235  1.00  0.00     0.047 A 
ATOM     15  C   UNL     1      31.243   8.759  17.942  1.00  0.00     0.047 A 
ATOM     16  C   UNL     1      32.697   8.908  20.327  1.00  0.00     0.016 A 
ATOM     17  C   UNL     1      32.358   9.599  18.031  1.00  0.00     0.016 A 
BRANCH  13  18
ATOM     18  O   UNL     1      29.743   7.121  19.009  1.00  0.00    -0.497 OA
ATOM     19  C   UNL     1      28.875   6.977  17.888  1.00  0.00     0.278 C 
ENDBRANCH  13  18
ENDBRANCH   1  12
BRANCH   8  20
ATOM     20  O   UNL     1      34.209  13.436  22.303  1.00  0.00    -0.490 OA
ATOM     21  C   UNL     1      32.851  13.665  21.939  1.00  0.00     0.278 C 
ENDBRANCH   8  20
BRANCH  11  22
ATOM     22  O   UNL     1      38.642  13.034  18.805  1.00  0.00    -0.492 OA
ATOM     23  C   UNL     1      39.085  13.991  17.850  1.00  0.00     0.278 C 
ENDBRANCH  11  22
BRANCH   9  24
ATOM     24  O   UNL     1      36.434  15.169  22.631  1.00  0.00    -0.490 OA
ATOM     25  C   UNL     1      35.340  15.935  23.124  1.00  0.00     0.279 C 
ENDBRANCH   9  24
BRANCH  10  26
ATOM     26  O   UNL     1      38.697  14.886  20.955  1.00  0.00    -0.490 OA
ATOM     27  C   UNL     1      39.740  14.740  21.913  1.00  0.00     0.278 C 
ENDBRANCH  10  26
TORSDOF 6
ENDMDL
