MODEL 1
REMARK VINA RESULT:   132.376      0.000      0.000
REMARK INTER + INTRA:         214.039
REMARK INTER:                 209.763
REMARK INTRA:                   4.276
REMARK UNBOUND:                 4.276
REMARK SMILES C[C@@H]1O[C@@H](O[C@@H]2CC[C@@]3(C)[C@H](CC[C@]4(C)[C@H]3C=C[C@@]35OC[C@]6(CCC(C)(C)C[C@@H]63)[C@H](O)C[C@]45C)[C@]2(C)CO)[C@@H](O)[C@@H](O[C@@H]2O[C@@H](CO)[C@H](O)[C@@H](O)[C@@H]2O)[C@@H]1O
REMARK SMILES IDX 1 1 2 2 54 3 41 4 39 5 4 6 3 7 55 8 42 10 43 11 52 12 44 13
REMARK SMILES IDX 50 14 45 15 48 16 53 17 51 19 46 21 47 22 49 24 5 26 6 27
REMARK SMILES IDX 7 28 35 29 8 30 11 31 36 32 9 33 12 34 10 35 16 36 13 37
REMARK SMILES IDX 14 38 17 39 15 40 33 41 18 42 19 43 32 44 34 45 29 46 20 47
REMARK SMILES IDX 30 48 22 49 28 50 21 51 23 52 25 53 24 54 26 55 27 56 37 57
REMARK SMILES IDX 38 58 31 60 40 62
REMARK H PARENT 55 9 53 18 51 20 47 23 49 25 38 59 31 61 40 63
REMARK Flexibility Score: inf
ROOT
ATOM      1  C   UNL     1      -2.937  29.365  30.902  1.00  0.00     0.041 C 
ATOM      2  C   UNL     1      -2.791  29.072  29.403  1.00  0.00     0.150 C 
ATOM      3  C   UNL     1      -4.176  28.891  28.725  1.00  0.00     0.175 C 
ATOM      4  C   UNL     1      -3.984  28.628  27.223  1.00  0.00     0.186 C 
ATOM      5  C   UNL     1      -3.107  29.743  26.624  1.00  0.00     0.202 C 
ATOM      6  C   UNL     1      -1.785  29.865  27.420  1.00  0.00     0.282 C 
ATOM      7  O   UNL     1      -2.052  30.125  28.797  1.00  0.00    -0.344 OA
ENDROOT
BRANCH   3   8
ATOM      8  O   UNL     1      -4.952  30.057  28.894  1.00  0.00    -0.388 OA
ATOM      9  H   UNL     1      -5.290  30.056  29.826  1.00  0.00     0.211 HD
ENDBRANCH   3   8
BRANCH   4  10
ATOM     10  O   UNL     1      -3.325  27.378  27.059  1.00  0.00    -0.341 OA
BRANCH  10  11
ATOM     11  C   UNL     1      -3.102  26.704  28.293  1.00  0.00     0.282 C 
ATOM     12  C   UNL     1      -3.490  25.214  28.088  1.00  0.00     0.202 C 
ATOM     13  O   UNL     1      -1.744  26.915  28.668  1.00  0.00    -0.341 OA
ATOM     14  C   UNL     1      -2.831  24.250  29.104  1.00  0.00     0.179 C 
ATOM     15  C   UNL     1      -1.226  26.045  29.677  1.00  0.00     0.178 C 
ATOM     16  C   UNL     1      -2.224  25.030  30.267  1.00  0.00     0.177 C 
BRANCH  12  17
ATOM     17  O   UNL     1      -3.236  24.783  26.774  1.00  0.00    -0.385 OA
ATOM     18  H   UNL     1      -2.563  24.052  26.811  1.00  0.00     0.211 HD
ENDBRANCH  12  17
BRANCH  14  19
ATOM     19  O   UNL     1      -3.778  23.324  29.578  1.00  0.00    -0.387 OA
ATOM     20  H   UNL     1      -3.404  22.923  30.409  1.00  0.00     0.211 HD
ENDBRANCH  14  19
BRANCH  15  21
ATOM     21  C   UNL     1      -0.543  26.898  30.758  1.00  0.00     0.191 C 
BRANCH  21  22
ATOM     22  O   UNL     1       0.677  26.306  31.119  1.00  0.00    -0.394 OA
ATOM     23  H   UNL     1       1.153  26.973  31.682  1.00  0.00     0.210 HD
ENDBRANCH  21  22
ENDBRANCH  15  21
BRANCH  16  24
ATOM     24  O   UNL     1      -1.535  24.140  31.109  1.00  0.00    -0.387 OA
ATOM     25  H   UNL     1      -0.913  24.678  31.663  1.00  0.00     0.211 HD
ENDBRANCH  16  24
ENDBRANCH  10  11
ENDBRANCH   4  10
BRANCH   6  26
ATOM     26  O   UNL     1      -0.995  28.676  27.282  1.00  0.00    -0.346 OA
BRANCH  26  27
ATOM     27  C   UNL     1       0.000  28.738  26.268  1.00  0.00     0.130 C 
ATOM     28  C   UNL     1      -0.656  29.218  24.958  1.00  0.00     0.033 C 
ATOM     29  C   UNL     1       0.700  27.358  26.086  1.00  0.00     0.020 C 
ATOM     30  C   UNL     1       0.134  28.856  23.676  1.00  0.00     0.010 C 
ATOM     31  C   UNL     1       1.886  27.536  25.040  1.00  0.00     0.006 C 
ATOM     32  C   UNL     1       1.303  26.942  27.455  1.00  0.00     0.017 C 
ATOM     33  C   UNL     1       1.668  28.623  23.891  1.00  0.00    -0.022 C 
ATOM     34  C   UNL     1       2.359  26.190  24.458  1.00  0.00     0.005 C 
ATOM     35  C   UNL     1       2.258  30.025  24.317  1.00  0.00     0.012 C 
ATOM     36  C   UNL     1       2.409  28.185  22.519  1.00  0.00     0.024 C 
ATOM     37  C   UNL     1       3.745  26.352  23.832  1.00  0.00     0.008 C 
ATOM     38  C   UNL     1       3.835  27.479  22.720  1.00  0.00    -0.017 C 
ATOM     39  C   UNL     1       1.507  27.443  21.523  1.00  0.00    -0.024 C 
ATOM     40  C   UNL     1       4.859  28.532  23.275  1.00  0.00     0.013 C 
ATOM     41  C   UNL     1       4.349  26.917  21.290  1.00  0.00     0.009 C 
ATOM     42  C   UNL     1       1.919  26.497  20.666  1.00  0.00     0.005 C 
ATOM     43  C   UNL     1       3.290  25.880  20.709  1.00  0.00     0.096 C 
ATOM     44  C   UNL     1       5.748  26.202  21.398  1.00  0.00     0.043 C 
ATOM     45  C   UNL     1       4.518  28.128  20.294  1.00  0.00     0.015 C 
ATOM     46  C   UNL     1       3.669  25.250  19.355  1.00  0.00     0.037 C 
ATOM     47  O   UNL     1       3.220  24.742  21.556  1.00  0.00    -0.369 OA
ATOM     48  C   UNL     1       6.053  25.198  20.245  1.00  0.00     0.124 C 
ATOM     49  C   UNL     1       4.794  24.361  19.813  1.00  0.00     0.026 C 
ATOM     50  C   UNL     1       3.978  26.021  18.052  1.00  0.00     0.014 C 
ATOM     51  C   UNL     1       4.116  23.760  21.050  1.00  0.00     0.171 C 
ATOM     52  C   UNL     1       5.120  23.330  18.704  1.00  0.00     0.013 C 
ATOM     53  C   UNL     1       4.358  25.040  16.894  1.00  0.00    -0.035 C 
ATOM     54  C   UNL     1       5.443  24.016  17.362  1.00  0.00     0.007 C 
ATOM     55  C   UNL     1       3.109  24.293  16.367  1.00  0.00     0.011 C 
ATOM     56  C   UNL     1       4.932  25.870  15.723  1.00  0.00     0.011 C 
BRANCH  29  57
ATOM     57  C   UNL     1      -0.319  26.235  25.673  1.00  0.00     0.165 C 
BRANCH  57  58
ATOM     58  O   UNL     1      -1.619  26.749  25.546  1.00  0.00    -0.396 OA
ATOM     59  H   UNL     1      -1.549  27.741  25.592  1.00  0.00     0.210 HD
ENDBRANCH  57  58
ENDBRANCH  29  57
BRANCH  48  60
ATOM     60  O   UNL     1       7.077  24.327  20.654  1.00  0.00    -0.392 OA
ATOM     61  H   UNL     1       6.754  23.403  20.504  1.00  0.00     0.210 HD
ENDBRANCH  48  60
ENDBRANCH  26  27
ENDBRANCH   6  26
BRANCH   5  62
ATOM     62  O   UNL     1      -2.851  29.473  25.274  1.00  0.00    -0.385 OA
ATOM     63  H   UNL     1      -3.558  29.925  24.743  1.00  0.00     0.211 HD
ENDBRANCH   5  62
TORSDOF 14
ENDMDL
MODEL 2
REMARK VINA RESULT:   134.630      1.582      2.896
REMARK INTER + INTRA:         217.611
REMARK INTER:                 201.032
REMARK INTRA:                  16.579
REMARK UNBOUND:                 4.276
REMARK SMILES C[C@@H]1O[C@@H](O[C@@H]2CC[C@@]3(C)[C@H](CC[C@]4(C)[C@H]3C=C[C@@]35OC[C@]6(CCC(C)(C)C[C@@H]63)[C@H](O)C[C@]45C)[C@]2(C)CO)[C@@H](O)[C@@H](O[C@@H]2O[C@@H](CO)[C@H](O)[C@@H](O)[C@@H]2O)[C@@H]1O
REMARK SMILES IDX 1 1 2 2 54 3 41 4 39 5 4 6 3 7 55 8 42 10 43 11 52 12 44 13
REMARK SMILES IDX 50 14 45 15 48 16 53 17 51 19 46 21 47 22 49 24 5 26 6 27
REMARK SMILES IDX 7 28 35 29 8 30 11 31 36 32 9 33 12 34 10 35 16 36 13 37
REMARK SMILES IDX 14 38 17 39 15 40 33 41 18 42 19 43 32 44 34 45 29 46 20 47
REMARK SMILES IDX 30 48 22 49 28 50 21 51 23 52 25 53 24 54 26 55 27 56 37 57
REMARK SMILES IDX 38 58 31 60 40 62
REMARK H PARENT 55 9 53 18 51 20 47 23 49 25 38 59 31 61 40 63
REMARK Flexibility Score: inf
ROOT
ATOM      1  C   UNL     1      -2.670  30.120  25.383  1.00  0.00     0.041 C 
ATOM      2  C   UNL     1      -2.696  29.195  26.607  1.00  0.00     0.150 C 
ATOM      3  C   UNL     1      -3.931  29.481  27.505  1.00  0.00     0.175 C 
ATOM      4  C   UNL     1      -3.932  28.516  28.701  1.00  0.00     0.186 C 
ATOM      5  C   UNL     1      -3.825  27.070  28.183  1.00  0.00     0.202 C 
ATOM      6  C   UNL     1      -2.595  26.927  27.255  1.00  0.00     0.282 C 
ATOM      7  O   UNL     1      -2.680  27.843  26.166  1.00  0.00    -0.344 OA
ENDROOT
BRANCH   3   8
ATOM      8  O   UNL     1      -5.117  29.300  26.765  1.00  0.00    -0.388 OA
ATOM      9  H   UNL     1      -5.244  28.325  26.641  1.00  0.00     0.211 HD
ENDBRANCH   3   8
BRANCH   4  10
ATOM     10  O   UNL     1      -2.805  28.803  29.520  1.00  0.00    -0.341 OA
BRANCH  10  11
ATOM     11  C   UNL     1      -1.894  27.712  29.610  1.00  0.00     0.282 C 
ATOM     12  C   UNL     1      -0.481  28.304  29.860  1.00  0.00     0.202 C 
ATOM     13  O   UNL     1      -2.358  26.838  30.634  1.00  0.00    -0.341 OA
ATOM     14  C   UNL     1       0.511  27.307  30.503  1.00  0.00     0.179 C 
ATOM     15  C   UNL     1      -1.414  25.880  31.120  1.00  0.00     0.178 C 
ATOM     16  C   UNL     1      -0.037  25.884  30.431  1.00  0.00     0.177 C 
BRANCH  12  17
ATOM     17  O   UNL     1      -0.536  29.490  30.615  1.00  0.00    -0.385 OA
ATOM     18  H   UNL     1      -1.055  30.163  30.098  1.00  0.00     0.211 HD
ENDBRANCH  12  17
BRANCH  14  19
ATOM     19  O   UNL     1       1.761  27.382  29.860  1.00  0.00    -0.387 OA
ATOM     20  H   UNL     1       1.590  27.666  28.922  1.00  0.00     0.211 HD
ENDBRANCH  14  19
BRANCH  15  21
ATOM     21  C   UNL     1      -2.076  24.492  31.112  1.00  0.00     0.191 C 
BRANCH  21  22
ATOM     22  O   UNL     1      -1.473  23.693  30.128  1.00  0.00    -0.394 OA
ATOM     23  H   UNL     1      -0.987  24.316  29.524  1.00  0.00     0.210 HD
ENDBRANCH  21  22
ENDBRANCH  15  21
BRANCH  16  24
ATOM     24  O   UNL     1       0.829  25.021  31.124  1.00  0.00    -0.387 OA
ATOM     25  H   UNL     1       0.269  24.335  31.571  1.00  0.00     0.211 HD
ENDBRANCH  16  24
ENDBRANCH  10  11
ENDBRANCH   4  10
BRANCH   6  26
ATOM     26  O   UNL     1      -1.378  27.135  27.987  1.00  0.00    -0.346 OA
BRANCH  26  27
ATOM     27  C   UNL     1      -0.268  27.532  27.192  1.00  0.00     0.130 C 
ATOM     28  C   UNL     1      -0.648  28.807  26.410  1.00  0.00     0.033 C 
ATOM     29  C   UNL     1       0.174  26.385  26.235  1.00  0.00     0.020 C 
ATOM     30  C   UNL     1       0.216  29.067  25.152  1.00  0.00     0.010 C 
ATOM     31  C   UNL     1       1.496  26.848  25.481  1.00  0.00     0.006 C 
ATOM     32  C   UNL     1       0.506  25.140  27.102  1.00  0.00     0.017 C 
ATOM     33  C   UNL     1       1.638  28.410  25.180  1.00  0.00    -0.022 C 
ATOM     34  C   UNL     1       1.775  26.007  24.220  1.00  0.00     0.005 C 
ATOM     35  C   UNL     1       2.424  29.141  26.339  1.00  0.00     0.012 C 
ATOM     36  C   UNL     1       2.451  28.673  23.805  1.00  0.00     0.024 C 
ATOM     37  C   UNL     1       3.235  26.172  23.797  1.00  0.00     0.008 C 
ATOM     38  C   UNL     1       3.679  27.674  23.548  1.00  0.00    -0.017 C 
ATOM     39  C   UNL     1       1.560  28.859  22.570  1.00  0.00    -0.024 C 
ATOM     40  C   UNL     1       4.805  27.957  24.605  1.00  0.00     0.013 C 
ATOM     41  C   UNL     1       4.255  27.924  22.054  1.00  0.00     0.009 C 
ATOM     42  C   UNL     1       1.890  28.503  21.319  1.00  0.00     0.005 C 
ATOM     43  C   UNL     1       3.102  27.677  20.986  1.00  0.00     0.096 C 
ATOM     44  C   UNL     1       5.468  26.977  21.717  1.00  0.00     0.043 C 
ATOM     45  C   UNL     1       4.777  29.408  21.949  1.00  0.00     0.015 C 
ATOM     46  C   UNL     1       3.525  27.861  19.515  1.00  0.00     0.037 C 
ATOM     47  O   UNL     1       2.709  26.312  21.012  1.00  0.00    -0.369 OA
ATOM     48  C   UNL     1       5.721  26.769  20.193  1.00  0.00     0.124 C 
ATOM     49  C   UNL     1       4.392  26.641  19.363  1.00  0.00     0.026 C 
ATOM     50  C   UNL     1       4.139  29.140  18.902  1.00  0.00     0.014 C 
ATOM     51  C   UNL     1       3.460  25.619  20.023  1.00  0.00     0.171 C 
ATOM     52  C   UNL     1       4.655  26.381  17.859  1.00  0.00     0.013 C 
ATOM     53  C   UNL     1       4.470  28.935  17.387  1.00  0.00    -0.035 C 
ATOM     54  C   UNL     1       5.272  27.611  17.164  1.00  0.00     0.007 C 
ATOM     55  C   UNL     1       3.180  28.930  16.532  1.00  0.00     0.011 C 
ATOM     56  C   UNL     1       5.337  30.125  16.915  1.00  0.00     0.011 C 
BRANCH  29  57
ATOM     57  C   UNL     1      -0.979  25.965  25.253  1.00  0.00     0.165 C 
BRANCH  57  58
ATOM     58  O   UNL     1      -1.505  24.709  25.592  1.00  0.00    -0.396 OA
ATOM     59  H   UNL     1      -1.353  24.106  24.815  1.00  0.00     0.210 HD
ENDBRANCH  57  58
ENDBRANCH  29  57
BRANCH  48  60
ATOM     60  O   UNL     1       6.500  25.612  20.011  1.00  0.00    -0.392 OA
ATOM     61  H   UNL     1       5.990  25.005  19.419  1.00  0.00     0.210 HD
ENDBRANCH  48  60
ENDBRANCH  26  27
ENDBRANCH   6  26
BRANCH   5  62
ATOM     62  O   UNL     1      -3.740  26.183  29.263  1.00  0.00    -0.385 OA
ATOM     63  H   UNL     1      -2.847  25.750  29.220  1.00  0.00     0.211 HD
ENDBRANCH   5  62
TORSDOF 14
ENDMDL
