MODEL 1
REMARK VINA RESULT:    -3.450      0.000      0.000
REMARK INTER + INTRA:          -4.354
REMARK INTER:                  -4.861
REMARK INTRA:                   0.508
REMARK UNBOUND:                 0.508
REMARK SMILES CC1=CCC(=C(C)C)C(=O)CC(C)=CCC1
REMARK SMILES IDX 12 1 14 2 13 3 15 4 16 5 2 6 1 7 3 8 11 10 9 11 10 12 5 13
REMARK SMILES IDX 6 14 7 15 8 16 4 17
REMARK H PARENT
REMARK Flexibility Score: 60.00
ROOT
ATOM      1  C   UNL     1      65.976  67.272  40.582  1.00  0.00    -0.070 C 
ATOM      2  C   UNL     1      66.177  67.648  41.867  1.00  0.00    -0.027 C 
ATOM      3  C   UNL     1      64.549  67.186  40.098  1.00  0.00     0.039 C 
ENDROOT
BRANCH   2   4
ATOM      4  C   UNL     1      67.512  67.899  42.526  1.00  0.00     0.032 C 
BRANCH   4   5
ATOM      5  C   UNL     1      68.331  66.608  42.720  1.00  0.00     0.034 C 
BRANCH   5   6
ATOM      6  C   UNL     1      69.682  66.679  42.036  1.00  0.00    -0.077 C 
ATOM      7  C   UNL     1      70.595  67.832  42.372  1.00  0.00     0.039 C 
ATOM      8  C   UNL     1      70.108  65.780  41.120  1.00  0.00    -0.023 CG0
ATOM      9  G   UNL     1      69.328  64.585  40.629  1.00  0.00     0.000 G0
ENDBRANCH   5   6
ENDBRANCH   4   5
ENDBRANCH   2   4
BRANCH   1  10
ATOM     10  C   UNL     1      67.099  67.001  39.594  1.00  0.00     0.111 C 
BRANCH  10  11
ATOM     11  C   UNL     1      67.300  65.521  39.375  1.00  0.00     0.163 C 
ATOM     12  O   UNL     1      66.276  64.790  39.295  1.00  0.00    -0.294 OA
BRANCH  11  13
ATOM     13  C   UNL     1      68.663  64.909  39.303  1.00  0.00    -0.002 C 
ATOM     14  C   UNL     1      69.304  64.720  38.110  1.00  0.00    -0.069 C 
ATOM     15  C   UNL     1      68.702  65.187  36.804  1.00  0.00     0.039 C 
ATOM     16  C   UNL     1      70.666  64.063  38.043  1.00  0.00     0.039 C 
BRANCH  13  17
ATOM     17  C   UNL     1      69.339  64.572  40.621  1.00  0.00     0.066 CG0
ATOM     18  G   UNL     1      70.102  65.773  41.126  1.00  0.00     0.000 G0
ENDBRANCH  13  17
ENDBRANCH  11  13
ENDBRANCH  10  11
ENDBRANCH   1  10
TORSDOF 0
ENDMDL
MODEL 2
REMARK VINA RESULT:    -3.352     16.035     18.490
REMARK INTER + INTRA:          -4.216
REMARK INTER:                  -4.528
REMARK INTRA:                   0.311
REMARK UNBOUND:                 0.508
REMARK SMILES CC1=CCC(=C(C)C)C(=O)CC(C)=CCC1
REMARK SMILES IDX 12 1 14 2 13 3 15 4 16 5 2 6 1 7 3 8 11 10 9 11 10 12 5 13
REMARK SMILES IDX 6 14 7 15 8 16 4 17
REMARK H PARENT
REMARK Flexibility Score: 60.00
ROOT
ATOM      1  C   UNL     1      54.522  71.480  29.452  1.00  0.00    -0.070 C 
ATOM      2  C   UNL     1      54.188  72.736  29.070  1.00  0.00    -0.027 C 
ATOM      3  C   UNL     1      54.631  70.431  28.373  1.00  0.00     0.039 C 
ENDROOT
BRANCH   2   4
ATOM      4  C   UNL     1      54.126  73.954  29.959  1.00  0.00     0.032 C 
BRANCH   4   5
ATOM      5  C   UNL     1      52.809  74.041  30.755  1.00  0.00     0.034 C 
BRANCH   5   6
ATOM      6  C   UNL     1      53.048  74.235  32.239  1.00  0.00    -0.077 C 
ATOM      7  C   UNL     1      53.705  75.512  32.698  1.00  0.00     0.039 C 
ATOM      8  C   UNL     1      52.730  73.315  33.177  1.00  0.00    -0.023 CG0
ATOM      9  G   UNL     1      52.102  71.967  32.914  1.00  0.00     0.000 G0
ENDBRANCH   5   6
ENDBRANCH   4   5
ENDBRANCH   2   4
BRANCH   1  10
ATOM     10  C   UNL     1      54.854  71.093  30.884  1.00  0.00     0.111 C 
BRANCH  10  11
ATOM     11  C   UNL     1      53.678  70.442  31.570  1.00  0.00     0.163 C 
ATOM     12  O   UNL     1      53.064  69.530  30.953  1.00  0.00    -0.294 OA
BRANCH  11  13
ATOM     13  C   UNL     1      53.203  70.884  32.918  1.00  0.00    -0.002 C 
ATOM     14  C   UNL     1      53.765  70.407  34.070  1.00  0.00    -0.069 C 
ATOM     15  C   UNL     1      54.945  69.463  34.044  1.00  0.00     0.039 C 
ATOM     16  C   UNL     1      53.252  70.829  35.430  1.00  0.00     0.039 C 
BRANCH  13  17
ATOM     17  C   UNL     1      52.117  71.945  32.953  1.00  0.00     0.066 CG0
ATOM     18  G   UNL     1      52.737  73.305  33.169  1.00  0.00     0.000 G0
ENDBRANCH  13  17
ENDBRANCH  11  13
ENDBRANCH  10  11
ENDBRANCH   1  10
TORSDOF 0
ENDMDL
MODEL 3
REMARK VINA RESULT:    -3.225     10.795     12.791
REMARK INTER + INTRA:          -4.037
REMARK INTER:                  -4.731
REMARK INTRA:                   0.694
REMARK UNBOUND:                 0.508
REMARK SMILES CC1=CCC(=C(C)C)C(=O)CC(C)=CCC1
REMARK SMILES IDX 12 1 14 2 13 3 15 4 16 5 2 6 1 7 3 8 11 10 9 11 10 12 5 13
REMARK SMILES IDX 6 14 7 15 8 16 4 17
REMARK H PARENT
REMARK Flexibility Score: 60.00
ROOT
ATOM      1  C   UNL     1      69.272  68.646  30.668  1.00  0.00    -0.070 C 
ATOM      2  C   UNL     1      68.073  68.021  30.589  1.00  0.00    -0.027 C 
ATOM      3  C   UNL     1      69.312  69.991  31.351  1.00  0.00     0.039 C 
ENDROOT
BRANCH   2   4
ATOM      4  C   UNL     1      67.821  66.635  30.047  1.00  0.00     0.032 C 
BRANCH   4   5
ATOM      5  C   UNL     1      67.218  66.653  28.629  1.00  0.00     0.034 C 
BRANCH   5   6
ATOM      6  C   UNL     1      68.258  66.373  27.561  1.00  0.00    -0.077 C 
ATOM      7  C   UNL     1      68.557  64.937  27.211  1.00  0.00     0.039 C 
ATOM      8  C   UNL     1      68.955  67.339  26.920  1.00  0.00    -0.023 CG0
ATOM      9  G   UNL     1      68.825  68.824  27.155  1.00  0.00     0.000 G0
ENDBRANCH   5   6
ENDBRANCH   4   5
ENDBRANCH   2   4
BRANCH   1  10
ATOM     10  C   UNL     1      70.575  68.041  30.169  1.00  0.00     0.111 C 
BRANCH  10  11
ATOM     11  C   UNL     1      70.806  68.346  28.710  1.00  0.00     0.163 C 
ATOM     12  O   UNL     1      71.748  67.750  28.122  1.00  0.00    -0.294 OA
BRANCH  11  13
ATOM     13  C   UNL     1      69.989  69.360  27.974  1.00  0.00    -0.002 C 
ATOM     14  C   UNL     1      70.304  70.690  27.994  1.00  0.00    -0.069 C 
ATOM     15  C   UNL     1      71.539  71.201  28.700  1.00  0.00     0.039 C 
ATOM     16  C   UNL     1      69.449  71.714  27.279  1.00  0.00     0.039 C 
BRANCH  13  17
ATOM     17  C   UNL     1      68.832  68.839  27.138  1.00  0.00     0.066 CG0
ATOM     18  G   UNL     1      68.976  67.350  26.936  1.00  0.00     0.000 G0
ENDBRANCH  13  17
ENDBRANCH  11  13
ENDBRANCH  10  11
ENDBRANCH   1  10
TORSDOF 0
ENDMDL
MODEL 4
REMARK VINA RESULT:    -3.223      2.050      4.089
REMARK INTER + INTRA:          -4.034
REMARK INTER:                  -4.584
REMARK INTRA:                   0.550
REMARK UNBOUND:                 0.508
REMARK SMILES CC1=CCC(=C(C)C)C(=O)CC(C)=CCC1
REMARK SMILES IDX 12 1 14 2 13 3 15 4 16 5 2 6 1 7 3 8 11 10 9 11 10 12 5 13
REMARK SMILES IDX 6 14 7 15 8 16 4 17
REMARK H PARENT
REMARK Flexibility Score: 60.00
ROOT
ATOM      1  C   UNL     1      67.139  67.725  42.112  1.00  0.00    -0.070 C 
ATOM      2  C   UNL     1      66.583  67.481  40.902  1.00  0.00    -0.027 C 
ATOM      3  C   UNL     1      67.258  69.165  42.545  1.00  0.00     0.039 C 
ENDROOT
BRANCH   2   4
ATOM      4  C   UNL     1      66.272  66.123  40.318  1.00  0.00     0.032 C 
BRANCH   4   5
ATOM      5  C   UNL     1      67.535  65.268  40.100  1.00  0.00     0.034 C 
BRANCH   5   6
ATOM      6  C   UNL     1      68.637  66.041  39.402  1.00  0.00    -0.077 C 
ATOM      7  C   UNL     1      68.388  66.531  37.998  1.00  0.00     0.039 C 
ATOM      8  C   UNL     1      69.844  66.295  39.957  1.00  0.00    -0.023 CG0
ATOM      9  G   UNL     1      70.293  65.859  41.331  1.00  0.00     0.000 G0
ENDBRANCH   5   6
ENDBRANCH   4   5
ENDBRANCH   2   4
BRANCH   1  10
ATOM     10  C   UNL     1      67.583  66.634  43.074  1.00  0.00     0.111 C 
BRANCH  10  11
ATOM     11  C   UNL     1      69.050  66.751  43.407  1.00  0.00     0.163 C 
ATOM     12  O   UNL     1      69.389  66.689  44.619  1.00  0.00    -0.294 OA
BRANCH  11  13
ATOM     13  C   UNL     1      70.085  66.987  42.353  1.00  0.00    -0.002 C 
ATOM     14  C   UNL     1      70.839  68.127  42.327  1.00  0.00    -0.069 C 
ATOM     15  C   UNL     1      70.719  69.180  43.405  1.00  0.00     0.039 C 
ATOM     16  C   UNL     1      71.856  68.375  41.234  1.00  0.00     0.039 C 
BRANCH  13  17
ATOM     17  C   UNL     1      70.317  65.869  41.351  1.00  0.00     0.066 CG0
ATOM     18  G   UNL     1      69.846  66.301  39.983  1.00  0.00     0.000 G0
ENDBRANCH  13  17
ENDBRANCH  11  13
ENDBRANCH  10  11
ENDBRANCH   1  10
TORSDOF 0
ENDMDL
MODEL 5
REMARK VINA RESULT:    -3.122      2.069      3.356
REMARK INTER + INTRA:          -3.892
REMARK INTER:                  -4.495
REMARK INTRA:                   0.603
REMARK UNBOUND:                 0.508
REMARK SMILES CC1=CCC(=C(C)C)C(=O)CC(C)=CCC1
REMARK SMILES IDX 12 1 14 2 13 3 15 4 16 5 2 6 1 7 3 8 11 10 9 11 10 12 5 13
REMARK SMILES IDX 6 14 7 15 8 16 4 17
REMARK H PARENT
REMARK Flexibility Score: 60.00
ROOT
ATOM      1  C   UNL     1      69.361  68.687  40.438  1.00  0.00    -0.070 C 
ATOM      2  C   UNL     1      68.128  68.820  40.981  1.00  0.00    -0.027 C 
ATOM      3  C   UNL     1      69.567  69.218  39.041  1.00  0.00     0.039 C 
ENDROOT
BRANCH   2   4
ATOM      4  C   UNL     1      67.728  68.459  42.391  1.00  0.00     0.032 C 
BRANCH   4   5
ATOM      5  C   UNL     1      66.760  67.261  42.445  1.00  0.00     0.034 C 
BRANCH   5   6
ATOM      6  C   UNL     1      66.445  66.717  41.065  1.00  0.00    -0.077 C 
ATOM      7  C   UNL     1      65.251  67.273  40.331  1.00  0.00     0.039 C 
ATOM      8  C   UNL     1      67.161  65.740  40.462  1.00  0.00    -0.023 CG0
ATOM      9  G   UNL     1      68.362  65.038  41.047  1.00  0.00     0.000 G0
ENDBRANCH   5   6
ENDBRANCH   4   5
ENDBRANCH   2   4
BRANCH   1  10
ATOM     10  C   UNL     1      70.551  68.096  41.177  1.00  0.00     0.111 C 
BRANCH  10  11
ATOM     11  C   UNL     1      70.335  66.638  41.502  1.00  0.00     0.163 C 
ATOM     12  O   UNL     1      70.786  66.202  42.595  1.00  0.00    -0.294 OA
BRANCH  11  13
ATOM     13  C   UNL     1      69.654  65.707  40.550  1.00  0.00    -0.002 C 
ATOM     14  C   UNL     1      70.182  65.423  39.321  1.00  0.00    -0.069 C 
ATOM     15  C   UNL     1      71.520  65.976  38.886  1.00  0.00     0.039 C 
ATOM     16  C   UNL     1      69.467  64.510  38.348  1.00  0.00     0.039 C 
BRANCH  13  17
ATOM     17  C   UNL     1      68.384  65.030  41.036  1.00  0.00     0.066 CG0
ATOM     18  G   UNL     1      67.178  65.725  40.453  1.00  0.00     0.000 G0
ENDBRANCH  13  17
ENDBRANCH  11  13
ENDBRANCH  10  11
ENDBRANCH   1  10
TORSDOF 0
ENDMDL
MODEL 6
REMARK VINA RESULT:    -3.061      1.567      1.894
REMARK INTER + INTRA:          -3.806
REMARK INTER:                  -4.649
REMARK INTRA:                   0.843
REMARK UNBOUND:                 0.508
REMARK SMILES CC1=CCC(=C(C)C)C(=O)CC(C)=CCC1
REMARK SMILES IDX 12 1 14 2 13 3 15 4 16 5 2 6 1 7 3 8 11 10 9 11 10 12 5 13
REMARK SMILES IDX 6 14 7 15 8 16 4 17
REMARK H PARENT
REMARK Flexibility Score: 60.00
ROOT
ATOM      1  C   UNL     1      65.982  66.860  40.598  1.00  0.00    -0.070 C 
ATOM      2  C   UNL     1      66.267  67.518  41.747  1.00  0.00    -0.027 C 
ATOM      3  C   UNL     1      65.133  67.578  39.578  1.00  0.00     0.039 C 
ENDROOT
BRANCH   2   4
ATOM      4  C   UNL     1      67.178  67.036  42.851  1.00  0.00     0.032 C 
BRANCH   4   5
ATOM      5  C   UNL     1      68.336  68.014  43.134  1.00  0.00     0.034 C 
BRANCH   5   6
ATOM      6  C   UNL     1      69.671  67.470  42.665  1.00  0.00    -0.077 C 
ATOM      7  C   UNL     1      70.675  67.042  43.705  1.00  0.00     0.039 C 
ATOM      8  C   UNL     1      70.026  67.371  41.364  1.00  0.00    -0.023 CG0
ATOM      9  G   UNL     1      69.178  67.779  40.184  1.00  0.00     0.000 G0
ENDBRANCH   5   6
ENDBRANCH   4   5
ENDBRANCH   2   4
BRANCH   1  10
ATOM     10  C   UNL     1      66.521  65.480  40.259  1.00  0.00     0.111 C 
BRANCH  10  11
ATOM     11  C   UNL     1      68.027  65.481  40.160  1.00  0.00     0.163 C 
ATOM     12  O   UNL     1      68.662  64.587  40.781  1.00  0.00    -0.294 OA
BRANCH  11  13
ATOM     13  C   UNL     1      68.769  66.532  39.397  1.00  0.00    -0.002 C 
ATOM     14  C   UNL     1      68.992  66.422  38.052  1.00  0.00    -0.069 C 
ATOM     15  C   UNL     1      68.436  65.268  37.249  1.00  0.00     0.039 C 
ATOM     16  C   UNL     1      69.778  67.470  37.295  1.00  0.00     0.039 C 
BRANCH  13  17
ATOM     17  C   UNL     1      69.203  67.767  40.167  1.00  0.00     0.066 CG0
ATOM     18  G   UNL     1      70.026  67.360  41.365  1.00  0.00     0.000 G0
ENDBRANCH  13  17
ENDBRANCH  11  13
ENDBRANCH  10  11
ENDBRANCH   1  10
TORSDOF 0
ENDMDL
MODEL 7
REMARK VINA RESULT:    -3.052      8.671     11.799
REMARK INTER + INTRA:          -3.794
REMARK INTER:                  -4.459
REMARK INTRA:                   0.665
REMARK UNBOUND:                 0.508
REMARK SMILES CC1=CCC(=C(C)C)C(=O)CC(C)=CCC1
REMARK SMILES IDX 12 1 14 2 13 3 15 4 16 5 2 6 1 7 3 8 11 10 9 11 10 12 5 13
REMARK SMILES IDX 6 14 7 15 8 16 4 17
REMARK H PARENT
REMARK Flexibility Score: 60.00
ROOT
ATOM      1  C   UNL     1      70.227  69.685  28.987  1.00  0.00    -0.070 C 
ATOM      2  C   UNL     1      70.412  69.302  27.701  1.00  0.00    -0.027 C 
ATOM      3  C   UNL     1      70.021  71.156  29.252  1.00  0.00     0.039 C 
ENDROOT
BRANCH   2   4
ATOM      4  C   UNL     1      70.531  67.883  27.200  1.00  0.00     0.032 C 
BRANCH   4   5
ATOM      5  C   UNL     1      69.163  67.193  27.042  1.00  0.00     0.034 C 
BRANCH   5   6
ATOM      6  C   UNL     1      69.048  65.946  27.896  1.00  0.00    -0.077 C 
ATOM      7  C   UNL     1      69.834  64.725  27.490  1.00  0.00     0.039 C 
ATOM      8  C   UNL     1      68.260  65.856  28.991  1.00  0.00    -0.023 CG0
ATOM      9  G   UNL     1      67.375  66.952  29.534  1.00  0.00     0.000 G0
ENDBRANCH   5   6
ENDBRANCH   4   5
ENDBRANCH   2   4
BRANCH   1  10
ATOM     10  C   UNL     1      70.149  68.715  30.155  1.00  0.00     0.111 C 
BRANCH  10  11
ATOM     11  C   UNL     1      68.777  68.710  30.783  1.00  0.00     0.163 C 
ATOM     12  O   UNL     1      68.359  69.781  31.300  1.00  0.00    -0.294 OA
BRANCH  11  13
ATOM     13  C   UNL     1      67.940  67.472  30.848  1.00  0.00    -0.002 C 
ATOM     14  C   UNL     1      67.641  66.868  32.037  1.00  0.00    -0.069 C 
ATOM     15  C   UNL     1      68.078  67.459  33.358  1.00  0.00     0.039 C 
ATOM     16  C   UNL     1      66.826  65.594  32.091  1.00  0.00     0.039 C 
BRANCH  13  17
ATOM     17  C   UNL     1      67.371  66.954  29.538  1.00  0.00     0.066 CG0
ATOM     18  G   UNL     1      68.249  65.850  29.000  1.00  0.00     0.000 G0
ENDBRANCH  13  17
ENDBRANCH  11  13
ENDBRANCH  10  11
ENDBRANCH   1  10
TORSDOF 0
ENDMDL
MODEL 8
REMARK VINA RESULT:    -2.976      2.270      3.806
REMARK INTER + INTRA:          -3.686
REMARK INTER:                  -4.559
REMARK INTRA:                   0.872
REMARK UNBOUND:                 0.508
REMARK SMILES CC1=CCC(=C(C)C)C(=O)CC(C)=CCC1
REMARK SMILES IDX 12 1 14 2 13 3 15 4 16 5 2 6 1 7 3 8 11 10 9 11 10 12 5 13
REMARK SMILES IDX 6 14 7 15 8 16 4 17
REMARK H PARENT
REMARK Flexibility Score: 60.00
ROOT
ATOM      1  C   UNL     1      69.614  67.939  39.653  1.00  0.00    -0.070 C 
ATOM      2  C   UNL     1      69.925  69.157  40.157  1.00  0.00    -0.027 C 
ATOM      3  C   UNL     1      69.052  67.889  38.253  1.00  0.00     0.039 C 
ENDROOT
BRANCH   2   4
ATOM      4  C   UNL     1      70.591  69.431  41.484  1.00  0.00     0.032 C 
BRANCH   4   5
ATOM      5  C   UNL     1      69.583  69.804  42.588  1.00  0.00     0.034 C 
BRANCH   5   6
ATOM      6  C   UNL     1      69.156  68.599  43.403  1.00  0.00    -0.077 C 
ATOM      7  C   UNL     1      69.980  68.220  44.608  1.00  0.00     0.039 C 
ATOM      8  C   UNL     1      68.090  67.825  43.097  1.00  0.00    -0.023 CG0
ATOM      9  G   UNL     1      67.168  68.019  41.918  1.00  0.00     0.000 G0
ENDBRANCH   5   6
ENDBRANCH   4   5
ENDBRANCH   2   4
BRANCH   1  10
ATOM     10  C   UNL     1      69.860  66.632  40.388  1.00  0.00     0.111 C 
BRANCH  10  11
ATOM     11  C   UNL     1      68.585  66.080  40.979  1.00  0.00     0.163 C 
ATOM     12  O   UNL     1      68.615  64.920  41.473  1.00  0.00    -0.294 OA
BRANCH  11  13
ATOM     13  C   UNL     1      67.300  66.844  40.944  1.00  0.00    -0.002 C 
ATOM     14  C   UNL     1      66.267  66.477  40.128  1.00  0.00    -0.069 C 
ATOM     15  C   UNL     1      66.339  65.235  39.269  1.00  0.00     0.039 C 
ATOM     16  C   UNL     1      64.984  67.279  40.070  1.00  0.00     0.039 C 
BRANCH  13  17
ATOM     17  C   UNL     1      67.162  68.006  41.913  1.00  0.00     0.066 CG0
ATOM     18  G   UNL     1      68.104  67.817  43.077  1.00  0.00     0.000 G0
ENDBRANCH  13  17
ENDBRANCH  11  13
ENDBRANCH  10  11
ENDBRANCH   1  10
TORSDOF 0
ENDMDL
MODEL 9
REMARK VINA RESULT:    -2.929      1.825      4.034
REMARK INTER + INTRA:          -3.620
REMARK INTER:                  -4.243
REMARK INTRA:                   0.623
REMARK UNBOUND:                 0.508
REMARK SMILES CC1=CCC(=C(C)C)C(=O)CC(C)=CCC1
REMARK SMILES IDX 12 1 14 2 13 3 15 4 16 5 2 6 1 7 3 8 11 10 9 11 10 12 5 13
REMARK SMILES IDX 6 14 7 15 8 16 4 17
REMARK H PARENT
REMARK Flexibility Score: 60.00
ROOT
ATOM      1  C   UNL     1      69.534  68.748  42.333  1.00  0.00    -0.070 C 
ATOM      2  C   UNL     1      70.701  68.341  41.779  1.00  0.00    -0.027 C 
ATOM      3  C   UNL     1      69.557  69.145  43.789  1.00  0.00     0.039 C 
ENDROOT
BRANCH   2   4
ATOM      4  C   UNL     1      70.930  68.001  40.326  1.00  0.00     0.032 C 
BRANCH   4   5
ATOM      5  C   UNL     1      71.023  66.482  40.080  1.00  0.00     0.034 C 
BRANCH   5   6
ATOM      6  C   UNL     1      69.992  66.001  39.078  1.00  0.00    -0.077 C 
ATOM      7  C   UNL     1      70.372  65.967  37.619  1.00  0.00     0.039 C 
ATOM      8  C   UNL     1      68.738  65.622  39.414  1.00  0.00    -0.023 CG0
ATOM      9  G   UNL     1      68.162  65.619  40.809  1.00  0.00     0.000 G0
ENDBRANCH   5   6
ENDBRANCH   4   5
ENDBRANCH   2   4
BRANCH   1  10
ATOM     10  C   UNL     1      68.234  68.887  41.558  1.00  0.00     0.111 C 
BRANCH  10  11
ATOM     11  C   UNL     1      67.272  67.770  41.883  1.00  0.00     0.163 C 
ATOM     12  O   UNL     1      66.687  67.798  42.999  1.00  0.00    -0.294 OA
BRANCH  11  13
ATOM     13  C   UNL     1      67.043  66.626  40.947  1.00  0.00    -0.002 C 
ATOM     14  C   UNL     1      65.910  66.535  40.186  1.00  0.00    -0.069 C 
ATOM     15  C   UNL     1      64.861  67.624  40.194  1.00  0.00     0.039 C 
ATOM     16  C   UNL     1      65.668  65.354  39.271  1.00  0.00     0.039 C 
BRANCH  13  17
ATOM     17  C   UNL     1      68.158  65.603  40.821  1.00  0.00     0.066 CG0
ATOM     18  G   UNL     1      68.721  65.630  39.420  1.00  0.00     0.000 G0
ENDBRANCH  13  17
ENDBRANCH  11  13
ENDBRANCH  10  11
ENDBRANCH   1  10
TORSDOF 0
ENDMDL
