MODEL 1
REMARK VINA RESULT:    -2.004      0.000      0.000
REMARK INTER + INTRA:          -2.004
REMARK INTER:                  -2.004
REMARK INTRA:                   0.000
REMARK UNBOUND:                 0.000
REMARK SMILES CC(=O)[O-]
REMARK SMILES IDX 1 1 2 2 3 3 4 4
REMARK H PARENT
REMARK Flexibility Score: inf
ROOT
ATOM      1  C   UNL     1      67.392 -14.409  13.098  1.00  0.00     0.063 C 
ATOM      2  C   UNL     1      65.978 -14.389  12.627  1.00  0.00     0.038 C 
ATOM      3  O   UNL     1      65.171 -15.273  13.014  1.00  0.00    -0.550 OA
ATOM      4  O   UNL     1      65.533 -13.362  11.804  1.00  0.00    -0.550 OA
ENDROOT
TORSDOF 0
ENDMDL
MODEL 2
REMARK VINA RESULT:    -1.998      1.762      1.983
REMARK INTER + INTRA:          -1.998
REMARK INTER:                  -1.998
REMARK INTRA:                   0.000
REMARK UNBOUND:                 0.000
REMARK SMILES CC(=O)[O-]
REMARK SMILES IDX 1 1 2 2 3 3 4 4
REMARK H PARENT
REMARK Flexibility Score: inf
ROOT
ATOM      1  C   UNL     1      67.137 -14.945  14.434  1.00  0.00     0.063 C 
ATOM      2  C   UNL     1      67.210 -14.430  13.036  1.00  0.00     0.038 C 
ATOM      3  O   UNL     1      68.306 -14.440  12.417  1.00  0.00    -0.550 OA
ATOM      4  O   UNL     1      66.059 -13.991  12.395  1.00  0.00    -0.550 OA
ENDROOT
TORSDOF 0
ENDMDL
MODEL 3
REMARK VINA RESULT:    -1.965      2.226      2.436
REMARK INTER + INTRA:          -1.965
REMARK INTER:                  -1.965
REMARK INTRA:                   0.000
REMARK UNBOUND:                 0.000
REMARK SMILES CC(=O)[O-]
REMARK SMILES IDX 1 1 2 2 3 3 4 4
REMARK H PARENT
REMARK Flexibility Score: inf
ROOT
ATOM      1  C   UNL     1      68.181 -15.731  15.387  1.00  0.00     0.063 C 
ATOM      2  C   UNL     1      67.048 -15.262  14.537  1.00  0.00     0.038 C 
ATOM      3  O   UNL     1      65.898 -15.745  14.698  1.00  0.00    -0.550 OA
ATOM      4  O   UNL     1      67.250 -14.253  13.605  1.00  0.00    -0.550 OA
ENDROOT
TORSDOF 0
ENDMDL
MODEL 4
REMARK VINA RESULT:    -1.964      1.992      2.570
REMARK INTER + INTRA:          -1.964
REMARK INTER:                  -1.964
REMARK INTRA:                   0.000
REMARK UNBOUND:                 0.000
REMARK SMILES CC(=O)[O-]
REMARK SMILES IDX 1 1 2 2 3 3 4 4
REMARK H PARENT
REMARK Flexibility Score: inf
ROOT
ATOM      1  C   UNL     1      65.901 -14.153  12.376  1.00  0.00     0.063 C 
ATOM      2  C   UNL     1      67.186 -14.437  13.078  1.00  0.00     0.038 C 
ATOM      3  O   UNL     1      68.265 -14.466  12.431  1.00  0.00    -0.550 OA
ATOM      4  O   UNL     1      67.201 -14.614  14.455  1.00  0.00    -0.550 OA
ENDROOT
TORSDOF 0
ENDMDL
MODEL 5
REMARK VINA RESULT:    -1.952      1.496      1.811
REMARK INTER + INTRA:          -1.952
REMARK INTER:                  -1.952
REMARK INTRA:                   0.000
REMARK UNBOUND:                 0.000
REMARK SMILES CC(=O)[O-]
REMARK SMILES IDX 1 1 2 2 3 3 4 4
REMARK H PARENT
REMARK Flexibility Score: inf
ROOT
ATOM      1  C   UNL     1      65.732 -15.400  11.078  1.00  0.00     0.063 C 
ATOM      2  C   UNL     1      65.971 -14.146  11.850  1.00  0.00     0.038 C 
ATOM      3  O   UNL     1      66.878 -14.105  12.721  1.00  0.00    -0.550 OA
ATOM      4  O   UNL     1      65.231 -13.005  11.570  1.00  0.00    -0.550 OA
ENDROOT
TORSDOF 0
ENDMDL
MODEL 6
REMARK VINA RESULT:    -1.946     18.305     18.562
REMARK INTER + INTRA:          -1.946
REMARK INTER:                  -1.946
REMARK INTRA:                   0.000
REMARK UNBOUND:                 0.000
REMARK SMILES CC(=O)[O-]
REMARK SMILES IDX 1 1 2 2 3 3 4 4
REMARK H PARENT
REMARK Flexibility Score: inf
ROOT
ATOM      1  C   UNL     1      57.411  -0.056  21.054  1.00  0.00     0.063 C 
ATOM      2  C   UNL     1      57.476  -1.075  22.142  1.00  0.00     0.038 C 
ATOM      3  O   UNL     1      58.436  -1.886  22.191  1.00  0.00    -0.550 OA
ATOM      4  O   UNL     1      56.505  -1.093  23.135  1.00  0.00    -0.550 OA
ENDROOT
TORSDOF 0
ENDMDL
MODEL 7
REMARK VINA RESULT:    -1.937     18.253     18.483
REMARK INTER + INTRA:          -1.937
REMARK INTER:                  -1.937
REMARK INTRA:                   0.000
REMARK UNBOUND:                 0.000
REMARK SMILES CC(=O)[O-]
REMARK SMILES IDX 1 1 2 2 3 3 4 4
REMARK H PARENT
REMARK Flexibility Score: inf
ROOT
ATOM      1  C   UNL     1      58.531  -1.865  22.510  1.00  0.00     0.063 C 
ATOM      2  C   UNL     1      57.389  -1.005  22.088  1.00  0.00     0.038 C 
ATOM      3  O   UNL     1      56.325  -0.994  22.759  1.00  0.00    -0.550 OA
ATOM      4  O   UNL     1      57.517  -0.171  20.984  1.00  0.00    -0.550 OA
ENDROOT
TORSDOF 0
ENDMDL
MODEL 8
REMARK VINA RESULT:    -1.847     18.613     18.786
REMARK INTER + INTRA:          -1.847
REMARK INTER:                  -1.847
REMARK INTRA:                   0.000
REMARK UNBOUND:                 0.000
REMARK SMILES CC(=O)[O-]
REMARK SMILES IDX 1 1 2 2 3 3 4 4
REMARK H PARENT
REMARK Flexibility Score: inf
ROOT
ATOM      1  C   UNL     1      58.519  -1.914  22.575  1.00  0.00     0.063 C 
ATOM      2  C   UNL     1      58.136  -1.722  24.003  1.00  0.00     0.038 C 
ATOM      3  O   UNL     1      58.875  -2.164  24.920  1.00  0.00    -0.550 OA
ATOM      4  O   UNL     1      56.990  -1.005  24.325  1.00  0.00    -0.550 OA
ENDROOT
TORSDOF 0
ENDMDL
MODEL 9
REMARK VINA RESULT:    -1.773     18.255     18.422
REMARK INTER + INTRA:          -1.773
REMARK INTER:                  -1.773
REMARK INTRA:                   0.000
REMARK UNBOUND:                 0.000
REMARK SMILES CC(=O)[O-]
REMARK SMILES IDX 1 1 2 2 3 3 4 4
REMARK H PARENT
REMARK Flexibility Score: inf
ROOT
ATOM      1  C   UNL     1      59.617  -1.968  24.749  1.00  0.00     0.063 C 
ATOM      2  C   UNL     1      58.465  -1.828  23.812  1.00  0.00     0.038 C 
ATOM      3  O   UNL     1      57.371  -1.362  24.223  1.00  0.00    -0.550 OA
ATOM      4  O   UNL     1      58.615  -2.160  22.472  1.00  0.00    -0.550 OA
ENDROOT
TORSDOF 0
ENDMDL
