MODEL 1
REMARK VINA RESULT:    -3.254      0.000      0.000
REMARK INTER + INTRA:         -14.046
REMARK INTER:                  -8.580
REMARK INTRA:                  -5.465
REMARK UNBOUND:                -5.465
REMARK SMILES CCCCCCCCCCCCCCCCCCCCCCCCCCCCCC(=O)[O-]
REMARK SMILES IDX 16 1 17 2 18 3 19 4 20 5 21 6 22 7 23 8 24 9 25 10 26 11
REMARK SMILES IDX 27 12 28 13 29 14 30 15 31 16 32 17 15 18 14 19 13 20 12 21
REMARK SMILES IDX 11 22 10 23 9 24 8 25 7 26 6 27 5 28 4 29 3 30 2 31 1 32
REMARK H PARENT
REMARK Flexibility Score: inf
ROOT
ATOM      1  C   UNL     1      53.386  26.793  49.846  1.00  0.00     0.000 C 
ENDROOT
BRANCH   1   2
ATOM      2  C   UNL     1      54.412  25.651  49.762  1.00  0.00     0.000 C 
BRANCH   2   3
ATOM      3  C   UNL     1      55.662  25.900  50.622  1.00  0.00     0.000 C 
BRANCH   3   4
ATOM      4  C   UNL     1      55.623  25.153  51.971  1.00  0.00     0.000 C 
BRANCH   4   5
ATOM      5  C   UNL     1      56.856  25.393  52.858  1.00  0.00     0.000 C 
BRANCH   5   6
ATOM      6  C   UNL     1      56.929  26.823  53.421  1.00  0.00     0.000 C 
BRANCH   6   7
ATOM      7  C   UNL     1      58.379  27.305  53.646  1.00  0.00     0.000 C 
BRANCH   7   8
ATOM      8  C   UNL     1      58.485  28.700  54.290  1.00  0.00     0.000 C 
BRANCH   8   9
ATOM      9  C   UNL     1      59.885  29.078  54.806  1.00  0.00     0.000 C 
BRANCH   9  10
ATOM     10  C   UNL     1      60.500  30.338  54.165  1.00  0.00     0.000 C 
BRANCH  10  11
ATOM     11  C   UNL     1      60.355  30.429  52.634  1.00  0.00     0.000 C 
BRANCH  11  12
ATOM     12  C   UNL     1      61.656  30.203  51.844  1.00  0.00     0.000 C 
BRANCH  12  13
ATOM     13  C   UNL     1      62.865  30.920  52.462  1.00  0.00     0.006 C 
BRANCH  13  14
ATOM     14  C   UNL     1      63.088  32.286  51.799  1.00  0.00     0.053 C 
BRANCH  14  15
ATOM     15  C   UNL     1      63.380  32.128  50.339  1.00  0.00     0.041 C 
ATOM     16  O   UNL     1      62.635  32.671  49.479  1.00  0.00    -0.550 OA
ATOM     17  O   UNL     1      64.470  31.371  49.925  1.00  0.00    -0.550 OA
ENDBRANCH  14  15
ENDBRANCH  13  14
ENDBRANCH  12  13
ENDBRANCH  11  12
ENDBRANCH  10  11
ENDBRANCH   9  10
ENDBRANCH   8   9
ENDBRANCH   7   8
ENDBRANCH   6   7
ENDBRANCH   5   6
ENDBRANCH   4   5
ENDBRANCH   3   4
ENDBRANCH   2   3
ENDBRANCH   1   2
BRANCH   1  18
ATOM     18  C   UNL     1      53.748  27.890  50.869  1.00  0.00     0.000 C 
BRANCH  18  19
ATOM     19  C   UNL     1      53.386  29.301  50.376  1.00  0.00     0.000 C 
BRANCH  19  20
ATOM     20  C   UNL     1      54.453  30.323  50.800  1.00  0.00     0.000 C 
BRANCH  20  21
ATOM     21  C   UNL     1      55.601  29.698  51.615  1.00  0.00     0.000 C 
BRANCH  21  22
ATOM     22  C   UNL     1      57.014  29.917  51.042  1.00  0.00     0.000 C 
BRANCH  22  23
ATOM     23  C   UNL     1      57.620  28.649  50.417  1.00  0.00     0.000 C 
BRANCH  23  24
ATOM     24  C   UNL     1      58.914  28.934  49.633  1.00  0.00    -0.000 C 
BRANCH  24  25
ATOM     25  C   UNL     1      59.960  27.801  49.668  1.00  0.00    -0.000 C 
BRANCH  25  26
ATOM     26  C   UNL     1      59.416  26.416  50.074  1.00  0.00    -0.000 C 
BRANCH  26  27
ATOM     27  C   UNL     1      60.255  25.670  51.125  1.00  0.00    -0.000 C 
BRANCH  27  28
ATOM     28  C   UNL     1      61.222  26.594  51.887  1.00  0.00    -0.000 C 
BRANCH  28  29
ATOM     29  C   UNL     1      62.610  25.958  52.068  1.00  0.00    -0.000 C 
BRANCH  29  30
ATOM     30  C   UNL     1      63.732  26.811  51.451  1.00  0.00    -0.000 C 
BRANCH  30  31
ATOM     31  C   UNL     1      63.772  26.705  49.917  1.00  0.00    -0.003 C 
ATOM     32  C   UNL     1      63.473  28.039  49.230  1.00  0.00     0.004 C 
ENDBRANCH  30  31
ENDBRANCH  29  30
ENDBRANCH  28  29
ENDBRANCH  27  28
ENDBRANCH  26  27
ENDBRANCH  25  26
ENDBRANCH  24  25
ENDBRANCH  23  24
ENDBRANCH  22  23
ENDBRANCH  21  22
ENDBRANCH  20  21
ENDBRANCH  19  20
ENDBRANCH  18  19
ENDBRANCH   1  18
TORSDOF 28
ENDMDL
MODEL 2
REMARK VINA RESULT:    -3.233      3.435      4.912
REMARK INTER + INTRA:         -13.991
REMARK INTER:                  -7.739
REMARK INTRA:                  -6.252
REMARK UNBOUND:                -5.465
REMARK SMILES CCCCCCCCCCCCCCCCCCCCCCCCCCCCCC(=O)[O-]
REMARK SMILES IDX 16 1 17 2 18 3 19 4 20 5 21 6 22 7 23 8 24 9 25 10 26 11
REMARK SMILES IDX 27 12 28 13 29 14 30 15 31 16 32 17 15 18 14 19 13 20 12 21
REMARK SMILES IDX 11 22 10 23 9 24 8 25 7 26 6 27 5 28 4 29 3 30 2 31 1 32
REMARK H PARENT
REMARK Flexibility Score: inf
ROOT
ATOM      1  C   UNL     1      54.197  28.176  50.297  1.00  0.00     0.000 C 
ENDROOT
BRANCH   1   2
ATOM      2  C   UNL     1      53.537  26.859  49.855  1.00  0.00     0.000 C 
BRANCH   2   3
ATOM      3  C   UNL     1      54.506  25.664  49.876  1.00  0.00     0.000 C 
BRANCH   3   4
ATOM      4  C   UNL     1      55.952  26.068  50.231  1.00  0.00     0.000 C 
BRANCH   4   5
ATOM      5  C   UNL     1      56.433  25.546  51.594  1.00  0.00     0.000 C 
BRANCH   5   6
ATOM      6  C   UNL     1      55.282  25.109  52.517  1.00  0.00     0.000 C 
BRANCH   6   7
ATOM      7  C   UNL     1      54.746  26.264  53.393  1.00  0.00     0.000 C 
BRANCH   7   8
ATOM      8  C   UNL     1      55.831  27.244  53.874  1.00  0.00     0.000 C 
BRANCH   8   9
ATOM      9  C   UNL     1      55.304  28.542  54.513  1.00  0.00     0.000 C 
BRANCH   9  10
ATOM     10  C   UNL     1      55.851  28.843  55.923  1.00  0.00     0.000 C 
BRANCH  10  11
ATOM     11  C   UNL     1      57.274  29.435  55.960  1.00  0.00     0.000 C 
BRANCH  11  12
ATOM     12  C   UNL     1      57.371  30.919  55.566  1.00  0.00     0.000 C 
BRANCH  12  13
ATOM     13  C   UNL     1      56.458  31.823  56.407  1.00  0.00     0.006 C 
BRANCH  13  14
ATOM     14  C   UNL     1      55.553  32.674  55.506  1.00  0.00     0.053 C 
BRANCH  14  15
ATOM     15  C   UNL     1      54.777  33.665  56.315  1.00  0.00     0.041 C 
ATOM     16  O   UNL     1      53.967  33.272  57.197  1.00  0.00    -0.550 OA
ATOM     17  O   UNL     1      54.939  35.028  56.089  1.00  0.00    -0.550 OA
ENDBRANCH  14  15
ENDBRANCH  13  14
ENDBRANCH  12  13
ENDBRANCH  11  12
ENDBRANCH  10  11
ENDBRANCH   9  10
ENDBRANCH   8   9
ENDBRANCH   7   8
ENDBRANCH   6   7
ENDBRANCH   5   6
ENDBRANCH   4   5
ENDBRANCH   3   4
ENDBRANCH   2   3
ENDBRANCH   1   2
BRANCH   1  18
ATOM     18  C   UNL     1      53.327  29.029  51.245  1.00  0.00     0.000 C 
BRANCH  18  19
ATOM     19  C   UNL     1      53.927  30.419  51.508  1.00  0.00     0.000 C 
BRANCH  19  20
ATOM     20  C   UNL     1      55.346  30.525  50.928  1.00  0.00     0.000 C 
BRANCH  20  21
ATOM     21  C   UNL     1      56.394  30.969  51.967  1.00  0.00     0.000 C 
BRANCH  21  22
ATOM     22  C   UNL     1      57.674  30.113  52.022  1.00  0.00     0.000 C 
BRANCH  22  23
ATOM     23  C   UNL     1      57.697  28.988  50.973  1.00  0.00     0.000 C 
BRANCH  23  24
ATOM     24  C   UNL     1      58.831  29.159  49.946  1.00  0.00    -0.000 C 
BRANCH  24  25
ATOM     25  C   UNL     1      59.585  27.862  49.586  1.00  0.00    -0.000 C 
BRANCH  25  26
ATOM     26  C   UNL     1      61.028  27.771  50.125  1.00  0.00    -0.000 C 
BRANCH  26  27
ATOM     27  C   UNL     1      61.343  26.499  50.930  1.00  0.00    -0.000 C 
BRANCH  27  28
ATOM     28  C   UNL     1      60.116  25.939  51.670  1.00  0.00    -0.000 C 
BRANCH  28  29
ATOM     29  C   UNL     1      60.223  26.122  53.193  1.00  0.00    -0.000 C 
BRANCH  29  30
ATOM     30  C   UNL     1      59.429  27.340  53.696  1.00  0.00    -0.000 C 
BRANCH  30  31
ATOM     31  C   UNL     1      60.327  28.376  54.394  1.00  0.00    -0.003 C 
ATOM     32  C   UNL     1      60.931  29.383  53.413  1.00  0.00     0.004 C 
ENDBRANCH  30  31
ENDBRANCH  29  30
ENDBRANCH  28  29
ENDBRANCH  27  28
ENDBRANCH  26  27
ENDBRANCH  25  26
ENDBRANCH  24  25
ENDBRANCH  23  24
ENDBRANCH  22  23
ENDBRANCH  21  22
ENDBRANCH  20  21
ENDBRANCH  19  20
ENDBRANCH  18  19
ENDBRANCH   1  18
TORSDOF 28
ENDMDL
MODEL 3
REMARK VINA RESULT:    -3.199      3.092      5.398
REMARK INTER + INTRA:         -13.900
REMARK INTER:                  -7.243
REMARK INTRA:                  -6.656
REMARK UNBOUND:                -5.465
REMARK SMILES CCCCCCCCCCCCCCCCCCCCCCCCCCCCCC(=O)[O-]
REMARK SMILES IDX 16 1 17 2 18 3 19 4 20 5 21 6 22 7 23 8 24 9 25 10 26 11
REMARK SMILES IDX 27 12 28 13 29 14 30 15 31 16 32 17 15 18 14 19 13 20 12 21
REMARK SMILES IDX 11 22 10 23 9 24 8 25 7 26 6 27 5 28 4 29 3 30 2 31 1 32
REMARK H PARENT
REMARK Flexibility Score: inf
ROOT
ATOM      1  C   UNL     1      54.463  28.132  50.455  1.00  0.00     0.000 C 
ENDROOT
BRANCH   1   2
ATOM      2  C   UNL     1      53.566  29.357  50.699  1.00  0.00     0.000 C 
BRANCH   2   3
ATOM      3  C   UNL     1      54.337  30.566  51.257  1.00  0.00     0.000 C 
BRANCH   3   4
ATOM      4  C   UNL     1      55.866  30.420  51.119  1.00  0.00     0.000 C 
BRANCH   4   5
ATOM      5  C   UNL     1      56.662  31.027  52.286  1.00  0.00     0.000 C 
BRANCH   5   6
ATOM      6  C   UNL     1      57.898  30.196  52.674  1.00  0.00     0.000 C 
BRANCH   6   7
ATOM      7  C   UNL     1      58.479  30.593  54.049  1.00  0.00     0.000 C 
BRANCH   7   8
ATOM      8  C   UNL     1      58.681  29.409  55.012  1.00  0.00     0.000 C 
BRANCH   8   9
ATOM      9  C   UNL     1      58.418  28.019  54.405  1.00  0.00     0.000 C 
BRANCH   9  10
ATOM     10  C   UNL     1      57.483  27.113  55.231  1.00  0.00     0.000 C 
BRANCH  10  11
ATOM     11  C   UNL     1      56.171  26.713  54.528  1.00  0.00     0.000 C 
BRANCH  11  12
ATOM     12  C   UNL     1      55.384  27.882  53.910  1.00  0.00     0.000 C 
BRANCH  12  13
ATOM     13  C   UNL     1      54.324  28.460  54.859  1.00  0.00     0.006 C 
BRANCH  13  14
ATOM     14  C   UNL     1      54.476  29.981  54.985  1.00  0.00     0.053 C 
BRANCH  14  15
ATOM     15  C   UNL     1      55.330  30.336  56.162  1.00  0.00     0.041 C 
ATOM     16  O   UNL     1      55.533  29.494  57.078  1.00  0.00    -0.550 OA
ATOM     17  O   UNL     1      55.895  31.603  56.255  1.00  0.00    -0.550 OA
ENDBRANCH  14  15
ENDBRANCH  13  14
ENDBRANCH  12  13
ENDBRANCH  11  12
ENDBRANCH  10  11
ENDBRANCH   9  10
ENDBRANCH   8   9
ENDBRANCH   7   8
ENDBRANCH   6   7
ENDBRANCH   5   6
ENDBRANCH   4   5
ENDBRANCH   3   4
ENDBRANCH   2   3
ENDBRANCH   1   2
BRANCH   1  18
ATOM     18  C   UNL     1      53.698  26.874  49.993  1.00  0.00     0.000 C 
BRANCH  18  19
ATOM     19  C   UNL     1      54.601  25.633  49.903  1.00  0.00     0.000 C 
BRANCH  19  20
ATOM     20  C   UNL     1      55.646  25.629  51.029  1.00  0.00     0.000 C 
BRANCH  20  21
ATOM     21  C   UNL     1      57.097  25.681  50.511  1.00  0.00     0.000 C 
BRANCH  21  22
ATOM     22  C   UNL     1      57.920  26.898  50.974  1.00  0.00     0.000 C 
BRANCH  22  23
ATOM     23  C   UNL     1      59.155  27.164  50.097  1.00  0.00     0.000 C 
BRANCH  23  24
ATOM     24  C   UNL     1      59.266  28.637  49.662  1.00  0.00    -0.000 C 
BRANCH  24  25
ATOM     25  C   UNL     1      60.322  29.464  50.423  1.00  0.00    -0.000 C 
BRANCH  25  26
ATOM     26  C   UNL     1      61.458  28.644  51.070  1.00  0.00    -0.000 C 
BRANCH  26  27
ATOM     27  C   UNL     1      61.724  28.957  52.552  1.00  0.00    -0.000 C 
BRANCH  27  28
ATOM     28  C   UNL     1      61.841  27.693  53.420  1.00  0.00    -0.000 C 
BRANCH  28  29
ATOM     29  C   UNL     1      61.890  26.410  52.573  1.00  0.00    -0.000 C 
BRANCH  29  30
ATOM     30  C   UNL     1      60.743  25.441  52.908  1.00  0.00    -0.000 C 
BRANCH  30  31
ATOM     31  C   UNL     1      60.604  24.317  51.866  1.00  0.00    -0.003 C 
ATOM     32  C   UNL     1      59.562  23.272  52.267  1.00  0.00     0.004 C 
ENDBRANCH  30  31
ENDBRANCH  29  30
ENDBRANCH  28  29
ENDBRANCH  27  28
ENDBRANCH  26  27
ENDBRANCH  25  26
ENDBRANCH  24  25
ENDBRANCH  23  24
ENDBRANCH  22  23
ENDBRANCH  21  22
ENDBRANCH  20  21
ENDBRANCH  19  20
ENDBRANCH  18  19
ENDBRANCH   1  18
TORSDOF 28
ENDMDL
MODEL 4
REMARK VINA RESULT:    -3.177      2.963      4.584
REMARK INTER + INTRA:         -13.842
REMARK INTER:                  -7.741
REMARK INTRA:                  -6.101
REMARK UNBOUND:                -5.465
REMARK SMILES CCCCCCCCCCCCCCCCCCCCCCCCCCCCCC(=O)[O-]
REMARK SMILES IDX 16 1 17 2 18 3 19 4 20 5 21 6 22 7 23 8 24 9 25 10 26 11
REMARK SMILES IDX 27 12 28 13 29 14 30 15 31 16 32 17 15 18 14 19 13 20 12 21
REMARK SMILES IDX 11 22 10 23 9 24 8 25 7 26 6 27 5 28 4 29 3 30 2 31 1 32
REMARK H PARENT
REMARK Flexibility Score: inf
ROOT
ATOM      1  C   UNL     1      54.047  28.077  50.350  1.00  0.00     0.000 C 
ENDROOT
BRANCH   1   2
ATOM      2  C   UNL     1      53.435  26.749  49.874  1.00  0.00     0.000 C 
BRANCH   2   3
ATOM      3  C   UNL     1      54.428  25.575  49.929  1.00  0.00     0.000 C 
BRANCH   3   4
ATOM      4  C   UNL     1      55.863  26.017  50.280  1.00  0.00     0.000 C 
BRANCH   4   5
ATOM      5  C   UNL     1      56.332  25.576  51.676  1.00  0.00     0.000 C 
BRANCH   5   6
ATOM      6  C   UNL     1      55.186  25.068  52.568  1.00  0.00     0.000 C 
BRANCH   6   7
ATOM      7  C   UNL     1      54.721  26.116  53.603  1.00  0.00     0.000 C 
BRANCH   7   8
ATOM      8  C   UNL     1      55.692  27.299  53.780  1.00  0.00     0.000 C 
BRANCH   8   9
ATOM      9  C   UNL     1      55.096  28.536  54.474  1.00  0.00     0.000 C 
BRANCH   9  10
ATOM     10  C   UNL     1      55.831  28.984  55.754  1.00  0.00     0.000 C 
BRANCH  10  11
ATOM     11  C   UNL     1      56.392  30.419  55.718  1.00  0.00     0.000 C 
BRANCH  11  12
ATOM     12  C   UNL     1      56.653  31.049  57.097  1.00  0.00     0.000 C 
BRANCH  12  13
ATOM     13  C   UNL     1      58.147  31.245  57.393  1.00  0.00     0.006 C 
BRANCH  13  14
ATOM     14  C   UNL     1      58.778  29.943  57.904  1.00  0.00     0.053 C 
BRANCH  14  15
ATOM     15  C   UNL     1      60.238  30.130  58.176  1.00  0.00     0.041 C 
ATOM     16  O   UNL     1      61.023  30.452  57.244  1.00  0.00    -0.550 OA
ATOM     17  O   UNL     1      60.738  29.936  59.459  1.00  0.00    -0.550 OA
ENDBRANCH  14  15
ENDBRANCH  13  14
ENDBRANCH  12  13
ENDBRANCH  11  12
ENDBRANCH  10  11
ENDBRANCH   9  10
ENDBRANCH   8   9
ENDBRANCH   7   8
ENDBRANCH   6   7
ENDBRANCH   5   6
ENDBRANCH   4   5
ENDBRANCH   3   4
ENDBRANCH   2   3
ENDBRANCH   1   2
BRANCH   1  18
ATOM     18  C   UNL     1      53.134  28.888  51.294  1.00  0.00     0.000 C 
BRANCH  18  19
ATOM     19  C   UNL     1      53.649  30.317  51.532  1.00  0.00     0.000 C 
BRANCH  19  20
ATOM     20  C   UNL     1      55.056  30.500  50.944  1.00  0.00     0.000 C 
BRANCH  20  21
ATOM     21  C   UNL     1      56.061  31.097  51.948  1.00  0.00     0.000 C 
BRANCH  21  22
ATOM     22  C   UNL     1      57.369  30.303  52.124  1.00  0.00     0.000 C 
BRANCH  22  23
ATOM     23  C   UNL     1      57.494  29.115  51.155  1.00  0.00     0.000 C 
BRANCH  23  24
ATOM     24  C   UNL     1      58.572  29.338  50.080  1.00  0.00    -0.000 C 
BRANCH  24  25
ATOM     25  C   UNL     1      59.385  28.083  49.701  1.00  0.00    -0.000 C 
BRANCH  25  26
ATOM     26  C   UNL     1      60.821  28.036  50.263  1.00  0.00    -0.000 C 
BRANCH  26  27
ATOM     27  C   UNL     1      61.182  26.745  51.016  1.00  0.00    -0.000 C 
BRANCH  27  28
ATOM     28  C   UNL     1      59.989  26.141  51.778  1.00  0.00    -0.000 C 
BRANCH  28  29
ATOM     29  C   UNL     1      60.257  26.039  53.288  1.00  0.00    -0.000 C 
BRANCH  29  30
ATOM     30  C   UNL     1      59.030  26.427  54.131  1.00  0.00    -0.000 C 
BRANCH  30  31
ATOM     31  C   UNL     1      59.319  27.603  55.079  1.00  0.00    -0.003 C 
ATOM     32  C   UNL     1      59.711  28.877  54.329  1.00  0.00     0.004 C 
ENDBRANCH  30  31
ENDBRANCH  29  30
ENDBRANCH  28  29
ENDBRANCH  27  28
ENDBRANCH  26  27
ENDBRANCH  25  26
ENDBRANCH  24  25
ENDBRANCH  23  24
ENDBRANCH  22  23
ENDBRANCH  21  22
ENDBRANCH  20  21
ENDBRANCH  19  20
ENDBRANCH  18  19
ENDBRANCH   1  18
TORSDOF 28
ENDMDL
MODEL 5
REMARK VINA RESULT:    -3.109      3.421      5.904
REMARK INTER + INTRA:         -13.664
REMARK INTER:                  -7.423
REMARK INTRA:                  -6.241
REMARK UNBOUND:                -5.465
REMARK SMILES CCCCCCCCCCCCCCCCCCCCCCCCCCCCCC(=O)[O-]
REMARK SMILES IDX 16 1 17 2 18 3 19 4 20 5 21 6 22 7 23 8 24 9 25 10 26 11
REMARK SMILES IDX 27 12 28 13 29 14 30 15 31 16 32 17 15 18 14 19 13 20 12 21
REMARK SMILES IDX 11 22 10 23 9 24 8 25 7 26 6 27 5 28 4 29 3 30 2 31 1 32
REMARK H PARENT
REMARK Flexibility Score: inf
ROOT
ATOM      1  C   UNL     1      56.812  26.311  52.701  1.00  0.00     0.000 C 
ENDROOT
BRANCH   1   2
ATOM      2  C   UNL     1      56.836  25.610  51.333  1.00  0.00     0.000 C 
BRANCH   2   3
ATOM      3  C   UNL     1      55.725  26.098  50.387  1.00  0.00     0.000 C 
BRANCH   3   4
ATOM      4  C   UNL     1      54.774  27.115  51.050  1.00  0.00     0.000 C 
BRANCH   4   5
ATOM      5  C   UNL     1      53.751  27.738  50.087  1.00  0.00     0.000 C 
BRANCH   5   6
ATOM      6  C   UNL     1      53.452  29.216  50.393  1.00  0.00     0.000 C 
BRANCH   6   7
ATOM      7  C   UNL     1      54.394  29.808  51.465  1.00  0.00     0.000 C 
BRANCH   7   8
ATOM      8  C   UNL     1      55.035  31.150  51.067  1.00  0.00     0.000 C 
BRANCH   8   9
ATOM      9  C   UNL     1      55.446  32.054  52.243  1.00  0.00     0.000 C 
BRANCH   9  10
ATOM     10  C   UNL     1      55.107  31.500  53.641  1.00  0.00     0.000 C 
BRANCH  10  11
ATOM     11  C   UNL     1      55.794  32.224  54.816  1.00  0.00     0.000 C 
BRANCH  11  12
ATOM     12  C   UNL     1      57.244  31.786  55.090  1.00  0.00     0.000 C 
BRANCH  12  13
ATOM     13  C   UNL     1      57.432  31.179  56.488  1.00  0.00     0.006 C 
BRANCH  13  14
ATOM     14  C   UNL     1      57.110  29.679  56.480  1.00  0.00     0.053 C 
BRANCH  14  15
ATOM     15  C   UNL     1      55.883  29.393  57.288  1.00  0.00     0.041 C 
ATOM     16  O   UNL     1      55.980  29.106  58.512  1.00  0.00    -0.550 OA
ATOM     17  O   UNL     1      54.630  29.433  56.688  1.00  0.00    -0.550 OA
ENDBRANCH  14  15
ENDBRANCH  13  14
ENDBRANCH  12  13
ENDBRANCH  11  12
ENDBRANCH  10  11
ENDBRANCH   9  10
ENDBRANCH   8   9
ENDBRANCH   7   8
ENDBRANCH   6   7
ENDBRANCH   5   6
ENDBRANCH   4   5
ENDBRANCH   3   4
ENDBRANCH   2   3
ENDBRANCH   1   2
BRANCH   1  18
ATOM     18  C   UNL     1      57.981  27.294  52.926  1.00  0.00     0.000 C 
BRANCH  18  19
ATOM     19  C   UNL     1      57.525  28.762  52.943  1.00  0.00     0.000 C 
BRANCH  19  20
ATOM     20  C   UNL     1      58.237  29.573  51.850  1.00  0.00     0.000 C 
BRANCH  20  21
ATOM     21  C   UNL     1      57.961  29.047  50.428  1.00  0.00     0.000 C 
BRANCH  21  22
ATOM     22  C   UNL     1      59.213  28.731  49.587  1.00  0.00     0.000 C 
BRANCH  22  23
ATOM     23  C   UNL     1      59.765  27.316  49.829  1.00  0.00     0.000 C 
BRANCH  23  24
ATOM     24  C   UNL     1      61.090  27.322  50.612  1.00  0.00    -0.000 C 
BRANCH  24  25
ATOM     25  C   UNL     1      61.786  28.696  50.705  1.00  0.00    -0.000 C 
BRANCH  25  26
ATOM     26  C   UNL     1      61.840  29.311  52.118  1.00  0.00    -0.000 C 
BRANCH  26  27
ATOM     27  C   UNL     1      62.043  30.835  52.158  1.00  0.00    -0.000 C 
BRANCH  27  28
ATOM     28  C   UNL     1      61.143  31.533  53.193  1.00  0.00    -0.000 C 
BRANCH  28  29
ATOM     29  C   UNL     1      60.534  30.539  54.196  1.00  0.00    -0.000 C 
BRANCH  29  30
ATOM     30  C   UNL     1      61.219  30.597  55.572  1.00  0.00    -0.000 C 
BRANCH  30  31
ATOM     31  C   UNL     1      61.407  29.201  56.191  1.00  0.00    -0.003 C 
ATOM     32  C   UNL     1      60.463  28.160  55.587  1.00  0.00     0.004 C 
ENDBRANCH  30  31
ENDBRANCH  29  30
ENDBRANCH  28  29
ENDBRANCH  27  28
ENDBRANCH  26  27
ENDBRANCH  25  26
ENDBRANCH  24  25
ENDBRANCH  23  24
ENDBRANCH  22  23
ENDBRANCH  21  22
ENDBRANCH  20  21
ENDBRANCH  19  20
ENDBRANCH  18  19
ENDBRANCH   1  18
TORSDOF 28
ENDMDL
MODEL 6
REMARK VINA RESULT:    -3.096      1.955      5.710
REMARK INTER + INTRA:         -13.629
REMARK INTER:                  -8.084
REMARK INTRA:                  -5.544
REMARK UNBOUND:                -5.465
REMARK SMILES CCCCCCCCCCCCCCCCCCCCCCCCCCCCCC(=O)[O-]
REMARK SMILES IDX 16 1 17 2 18 3 19 4 20 5 21 6 22 7 23 8 24 9 25 10 26 11
REMARK SMILES IDX 27 12 28 13 29 14 30 15 31 16 32 17 15 18 14 19 13 20 12 21
REMARK SMILES IDX 11 22 10 23 9 24 8 25 7 26 6 27 5 28 4 29 3 30 2 31 1 32
REMARK H PARENT
REMARK Flexibility Score: inf
ROOT
ATOM      1  C   UNL     1      60.086  26.124  51.213  1.00  0.00     0.000 C 
ENDROOT
BRANCH   1   2
ATOM      2  C   UNL     1      60.482  27.398  50.448  1.00  0.00     0.000 C 
BRANCH   2   3
ATOM      3  C   UNL     1      59.354  27.938  49.552  1.00  0.00     0.000 C 
BRANCH   3   4
ATOM      4  C   UNL     1      58.860  29.335  49.982  1.00  0.00     0.000 C 
BRANCH   4   5
ATOM      5  C   UNL     1      57.506  29.325  50.709  1.00  0.00     0.000 C 
BRANCH   5   6
ATOM      6  C   UNL     1      57.637  29.137  52.231  1.00  0.00     0.000 C 
BRANCH   6   7
ATOM      7  C   UNL     1      58.639  30.123  52.873  1.00  0.00     0.000 C 
BRANCH   7   8
ATOM      8  C   UNL     1      58.003  31.438  53.359  1.00  0.00     0.000 C 
BRANCH   8   9
ATOM      9  C   UNL     1      59.001  32.555  53.716  1.00  0.00     0.000 C 
BRANCH   9  10
ATOM     10  C   UNL     1      60.450  32.085  53.949  1.00  0.00     0.000 C 
BRANCH  10  11
ATOM     11  C   UNL     1      61.540  33.039  53.423  1.00  0.00     0.000 C 
BRANCH  11  12
ATOM     12  C   UNL     1      62.274  32.553  52.161  1.00  0.00     0.000 C 
BRANCH  12  13
ATOM     13  C   UNL     1      62.098  31.050  51.906  1.00  0.00     0.006 C 
BRANCH  13  14
ATOM     14  C   UNL     1      62.206  30.733  50.409  1.00  0.00     0.053 C 
BRANCH  14  15
ATOM     15  C   UNL     1      63.577  30.239  50.066  1.00  0.00     0.041 C 
ATOM     16  O   UNL     1      64.504  31.055  49.816  1.00  0.00    -0.550 OA
ATOM     17  O   UNL     1      63.831  28.873  50.011  1.00  0.00    -0.550 OA
ENDBRANCH  14  15
ENDBRANCH  13  14
ENDBRANCH  12  13
ENDBRANCH  11  12
ENDBRANCH  10  11
ENDBRANCH   9  10
ENDBRANCH   8   9
ENDBRANCH   7   8
ENDBRANCH   6   7
ENDBRANCH   5   6
ENDBRANCH   4   5
ENDBRANCH   3   4
ENDBRANCH   2   3
ENDBRANCH   1   2
BRANCH   1  18
ATOM     18  C   UNL     1      58.672  25.605  50.881  1.00  0.00     0.000 C 
BRANCH  18  19
ATOM     19  C   UNL     1      57.828  25.342  52.139  1.00  0.00     0.000 C 
BRANCH  19  20
ATOM     20  C   UNL     1      56.347  25.662  51.886  1.00  0.00     0.000 C 
BRANCH  20  21
ATOM     21  C   UNL     1      56.034  25.954  50.405  1.00  0.00     0.000 C 
BRANCH  21  22
ATOM     22  C   UNL     1      54.630  26.524  50.127  1.00  0.00     0.000 C 
BRANCH  22  23
ATOM     23  C   UNL     1      54.214  27.625  51.118  1.00  0.00     0.000 C 
BRANCH  23  24
ATOM     24  C   UNL     1      53.818  28.936  50.416  1.00  0.00    -0.000 C 
BRANCH  24  25
ATOM     25  C   UNL     1      53.338  30.060  51.356  1.00  0.00    -0.000 C 
BRANCH  25  26
ATOM     26  C   UNL     1      54.423  31.073  51.777  1.00  0.00    -0.000 C 
BRANCH  26  27
ATOM     27  C   UNL     1      54.451  31.411  53.277  1.00  0.00    -0.000 C 
BRANCH  27  28
ATOM     28  C   UNL     1      54.066  30.217  54.168  1.00  0.00    -0.000 C 
BRANCH  28  29
ATOM     29  C   UNL     1      55.258  29.696  54.988  1.00  0.00    -0.000 C 
BRANCH  29  30
ATOM     30  C   UNL     1      55.147  30.057  56.480  1.00  0.00    -0.000 C 
BRANCH  30  31
ATOM     31  C   UNL     1      56.495  30.500  57.077  1.00  0.00    -0.003 C 
ATOM     32  C   UNL     1      57.660  29.631  56.600  1.00  0.00     0.004 C 
ENDBRANCH  30  31
ENDBRANCH  29  30
ENDBRANCH  28  29
ENDBRANCH  27  28
ENDBRANCH  26  27
ENDBRANCH  25  26
ENDBRANCH  24  25
ENDBRANCH  23  24
ENDBRANCH  22  23
ENDBRANCH  21  22
ENDBRANCH  20  21
ENDBRANCH  19  20
ENDBRANCH  18  19
ENDBRANCH   1  18
TORSDOF 28
ENDMDL
MODEL 7
REMARK VINA RESULT:    -3.053      4.444      7.776
REMARK INTER + INTRA:         -13.517
REMARK INTER:                  -8.186
REMARK INTRA:                  -5.331
REMARK UNBOUND:                -5.465
REMARK SMILES CCCCCCCCCCCCCCCCCCCCCCCCCCCCCC(=O)[O-]
REMARK SMILES IDX 16 1 17 2 18 3 19 4 20 5 21 6 22 7 23 8 24 9 25 10 26 11
REMARK SMILES IDX 27 12 28 13 29 14 30 15 31 16 32 17 15 18 14 19 13 20 12 21
REMARK SMILES IDX 11 22 10 23 9 24 8 25 7 26 6 27 5 28 4 29 3 30 2 31 1 32
REMARK H PARENT
REMARK Flexibility Score: inf
ROOT
ATOM      1  C   UNL     1      54.508  28.620  50.693  1.00  0.00     0.000 C 
ENDROOT
BRANCH   1   2
ATOM      2  C   UNL     1      55.989  28.211  50.765  1.00  0.00     0.000 C 
BRANCH   2   3
ATOM      3  C   UNL     1      56.942  29.414  50.859  1.00  0.00     0.000 C 
BRANCH   3   4
ATOM      4  C   UNL     1      58.409  29.003  51.101  1.00  0.00     0.000 C 
BRANCH   4   5
ATOM      5  C   UNL     1      59.261  28.934  49.824  1.00  0.00     0.000 C 
BRANCH   5   6
ATOM      6  C   UNL     1      59.978  27.585  49.644  1.00  0.00     0.000 C 
BRANCH   6   7
ATOM      7  C   UNL     1      59.308  26.440  50.436  1.00  0.00     0.000 C 
BRANCH   7   8
ATOM      8  C   UNL     1      60.268  25.669  51.360  1.00  0.00     0.000 C 
BRANCH   8   9
ATOM      9  C   UNL     1      59.929  24.181  51.561  1.00  0.00     0.000 C 
BRANCH   9  10
ATOM     10  C   UNL     1      60.855  23.426  52.535  1.00  0.00     0.000 C 
BRANCH  10  11
ATOM     11  C   UNL     1      60.193  22.262  53.298  1.00  0.00     0.000 C 
BRANCH  11  12
ATOM     12  C   UNL     1      58.703  22.043  52.983  1.00  0.00     0.000 C 
BRANCH  12  13
ATOM     13  C   UNL     1      58.303  20.561  52.980  1.00  0.00     0.006 C 
BRANCH  13  14
ATOM     14  C   UNL     1      59.117  19.776  51.943  1.00  0.00     0.053 C 
BRANCH  14  15
ATOM     15  C   UNL     1      58.219  18.975  51.054  1.00  0.00     0.041 C 
ATOM     16  O   UNL     1      58.654  18.501  49.970  1.00  0.00    -0.550 OA
ATOM     17  O   UNL     1      56.894  18.760  51.416  1.00  0.00    -0.550 OA
ENDBRANCH  14  15
ENDBRANCH  13  14
ENDBRANCH  12  13
ENDBRANCH  11  12
ENDBRANCH  10  11
ENDBRANCH   9  10
ENDBRANCH   8   9
ENDBRANCH   7   8
ENDBRANCH   6   7
ENDBRANCH   5   6
ENDBRANCH   4   5
ENDBRANCH   3   4
ENDBRANCH   2   3
ENDBRANCH   1   2
BRANCH   1  18
ATOM     18  C   UNL     1      53.547  27.454  50.379  1.00  0.00     0.000 C 
BRANCH  18  19
ATOM     19  C   UNL     1      54.289  26.170  49.971  1.00  0.00     0.000 C 
BRANCH  19  20
ATOM     20  C   UNL     1      53.877  24.989  50.863  1.00  0.00     0.000 C 
BRANCH  20  21
ATOM     21  C   UNL     1      54.055  25.275  52.367  1.00  0.00     0.000 C 
BRANCH  21  22
ATOM     22  C   UNL     1      55.240  24.558  53.040  1.00  0.00     0.000 C 
BRANCH  22  23
ATOM     23  C   UNL     1      56.607  25.139  52.642  1.00  0.00     0.000 C 
BRANCH  23  24
ATOM     24  C   UNL     1      57.371  25.733  53.839  1.00  0.00    -0.000 C 
BRANCH  24  25
ATOM     25  C   UNL     1      57.150  27.242  54.070  1.00  0.00    -0.000 C 
BRANCH  25  26
ATOM     26  C   UNL     1      55.969  27.599  54.996  1.00  0.00    -0.000 C 
BRANCH  26  27
ATOM     27  C   UNL     1      54.853  28.426  54.337  1.00  0.00    -0.000 C 
BRANCH  27  28
ATOM     28  C   UNL     1      54.881  29.908  54.750  1.00  0.00    -0.000 C 
BRANCH  28  29
ATOM     29  C   UNL     1      54.802  30.850  53.537  1.00  0.00    -0.000 C 
BRANCH  29  30
ATOM     30  C   UNL     1      55.984  31.834  53.478  1.00  0.00    -0.000 C 
BRANCH  30  31
ATOM     31  C   UNL     1      57.254  31.264  54.133  1.00  0.00    -0.003 C 
ATOM     32  C   UNL     1      58.534  31.789  53.483  1.00  0.00     0.004 C 
ENDBRANCH  30  31
ENDBRANCH  29  30
ENDBRANCH  28  29
ENDBRANCH  27  28
ENDBRANCH  26  27
ENDBRANCH  25  26
ENDBRANCH  24  25
ENDBRANCH  23  24
ENDBRANCH  22  23
ENDBRANCH  21  22
ENDBRANCH  20  21
ENDBRANCH  19  20
ENDBRANCH  18  19
ENDBRANCH   1  18
TORSDOF 28
ENDMDL
MODEL 8
REMARK VINA RESULT:    -3.042      4.742      8.091
REMARK INTER + INTRA:         -13.488
REMARK INTER:                  -8.482
REMARK INTRA:                  -5.006
REMARK UNBOUND:                -5.465
REMARK SMILES CCCCCCCCCCCCCCCCCCCCCCCCCCCCCC(=O)[O-]
REMARK SMILES IDX 16 1 17 2 18 3 19 4 20 5 21 6 22 7 23 8 24 9 25 10 26 11
REMARK SMILES IDX 27 12 28 13 29 14 30 15 31 16 32 17 15 18 14 19 13 20 12 21
REMARK SMILES IDX 11 22 10 23 9 24 8 25 7 26 6 27 5 28 4 29 3 30 2 31 1 32
REMARK H PARENT
REMARK Flexibility Score: inf
ROOT
ATOM      1  C   UNL     1      58.938  29.026  50.054  1.00  0.00     0.000 C 
ENDROOT
BRANCH   1   2
ATOM      2  C   UNL     1      59.606  27.699  49.660  1.00  0.00     0.000 C 
BRANCH   2   3
ATOM      3  C   UNL     1      58.820  26.464  50.135  1.00  0.00     0.000 C 
BRANCH   3   4
ATOM      4  C   UNL     1      59.696  25.452  50.901  1.00  0.00     0.000 C 
BRANCH   4   5
ATOM      5  C   UNL     1      60.284  25.997  52.213  1.00  0.00     0.000 C 
BRANCH   5   6
ATOM      6  C   UNL     1      59.928  25.139  53.439  1.00  0.00     0.000 C 
BRANCH   6   7
ATOM      7  C   UNL     1      59.055  23.916  53.082  1.00  0.00     0.000 C 
BRANCH   7   8
ATOM      8  C   UNL     1      58.178  23.409  54.242  1.00  0.00     0.000 C 
BRANCH   8   9
ATOM      9  C   UNL     1      56.894  22.672  53.819  1.00  0.00     0.000 C 
BRANCH   9  10
ATOM     10  C   UNL     1      56.960  21.135  53.920  1.00  0.00     0.000 C 
BRANCH  10  11
ATOM     11  C   UNL     1      55.631  20.446  54.286  1.00  0.00     0.000 C 
BRANCH  11  12
ATOM     12  C   UNL     1      55.096  19.465  53.229  1.00  0.00     0.000 C 
BRANCH  12  13
ATOM     13  C   UNL     1      56.187  18.555  52.648  1.00  0.00     0.006 C 
BRANCH  13  14
ATOM     14  C   UNL     1      56.182  18.604  51.115  1.00  0.00     0.053 C 
BRANCH  14  15
ATOM     15  C   UNL     1      57.486  18.119  50.562  1.00  0.00     0.041 C 
ATOM     16  O   UNL     1      58.401  18.938  50.278  1.00  0.00    -0.550 OA
ATOM     17  O   UNL     1      57.688  16.760  50.348  1.00  0.00    -0.550 OA
ENDBRANCH  14  15
ENDBRANCH  13  14
ENDBRANCH  12  13
ENDBRANCH  11  12
ENDBRANCH  10  11
ENDBRANCH   9  10
ENDBRANCH   8   9
ENDBRANCH   7   8
ENDBRANCH   6   7
ENDBRANCH   5   6
ENDBRANCH   4   5
ENDBRANCH   3   4
ENDBRANCH   2   3
ENDBRANCH   1   2
BRANCH   1  18
ATOM     18  C   UNL     1      57.537  28.864  50.682  1.00  0.00     0.000 C 
BRANCH  18  19
ATOM     19  C   UNL     1      57.020  30.164  51.318  1.00  0.00     0.000 C 
BRANCH  19  20
ATOM     20  C   UNL     1      55.627  30.524  50.781  1.00  0.00     0.000 C 
BRANCH  20  21
ATOM     21  C   UNL     1      54.500  29.675  51.400  1.00  0.00     0.000 C 
BRANCH  21  22
ATOM     22  C   UNL     1      53.563  28.984  50.390  1.00  0.00     0.000 C 
BRANCH  22  23
ATOM     23  C   UNL     1      53.446  27.466  50.610  1.00  0.00     0.000 C 
BRANCH  23  24
ATOM     24  C   UNL     1      54.654  26.692  50.052  1.00  0.00    -0.000 C 
BRANCH  24  25
ATOM     25  C   UNL     1      55.071  25.455  50.873  1.00  0.00    -0.000 C 
BRANCH  25  26
ATOM     26  C   UNL     1      55.983  25.746  52.082  1.00  0.00    -0.000 C 
BRANCH  26  27
ATOM     27  C   UNL     1      55.244  26.039  53.399  1.00  0.00    -0.000 C 
BRANCH  27  28
ATOM     28  C   UNL     1      55.786  27.281  54.128  1.00  0.00    -0.000 C 
BRANCH  28  29
ATOM     29  C   UNL     1      57.308  27.427  53.971  1.00  0.00    -0.000 C 
BRANCH  29  30
ATOM     30  C   UNL     1      57.828  28.772  54.507  1.00  0.00    -0.000 C 
BRANCH  30  31
ATOM     31  C   UNL     1      59.292  29.034  54.110  1.00  0.00    -0.003 C 
ATOM     32  C   UNL     1      60.285  28.423  55.100  1.00  0.00     0.004 C 
ENDBRANCH  30  31
ENDBRANCH  29  30
ENDBRANCH  28  29
ENDBRANCH  27  28
ENDBRANCH  26  27
ENDBRANCH  25  26
ENDBRANCH  24  25
ENDBRANCH  23  24
ENDBRANCH  22  23
ENDBRANCH  21  22
ENDBRANCH  20  21
ENDBRANCH  19  20
ENDBRANCH  18  19
ENDBRANCH   1  18
TORSDOF 28
ENDMDL
MODEL 9
REMARK VINA RESULT:    -3.032      3.274      5.978
REMARK INTER + INTRA:         -13.461
REMARK INTER:                  -7.382
REMARK INTRA:                  -6.078
REMARK UNBOUND:                -5.465
REMARK SMILES CCCCCCCCCCCCCCCCCCCCCCCCCCCCCC(=O)[O-]
REMARK SMILES IDX 16 1 17 2 18 3 19 4 20 5 21 6 22 7 23 8 24 9 25 10 26 11
REMARK SMILES IDX 27 12 28 13 29 14 30 15 31 16 32 17 15 18 14 19 13 20 12 21
REMARK SMILES IDX 11 22 10 23 9 24 8 25 7 26 6 27 5 28 4 29 3 30 2 31 1 32
REMARK H PARENT
REMARK Flexibility Score: inf
ROOT
ATOM      1  C   UNL     1      58.610  25.590  52.670  1.00  0.00     0.000 C 
ENDROOT
BRANCH   1   2
ATOM      2  C   UNL     1      57.127  25.597  52.265  1.00  0.00     0.000 C 
BRANCH   2   3
ATOM      3  C   UNL     1      56.919  25.686  50.743  1.00  0.00     0.000 C 
BRANCH   3   4
ATOM      4  C   UNL     1      55.500  26.149  50.356  1.00  0.00     0.000 C 
BRANCH   4   5
ATOM      5  C   UNL     1      54.969  27.318  51.202  1.00  0.00     0.000 C 
BRANCH   5   6
ATOM      6  C   UNL     1      54.382  28.462  50.355  1.00  0.00     0.000 C 
BRANCH   6   7
ATOM      7  C   UNL     1      53.672  29.535  51.208  1.00  0.00     0.000 C 
BRANCH   7   8
ATOM      8  C   UNL     1      54.515  30.799  51.458  1.00  0.00     0.000 C 
BRANCH   8   9
ATOM      9  C   UNL     1      55.212  30.861  52.829  1.00  0.00     0.000 C 
BRANCH   9  10
ATOM     10  C   UNL     1      54.270  30.758  54.045  1.00  0.00     0.000 C 
BRANCH  10  11
ATOM     11  C   UNL     1      54.430  29.478  54.889  1.00  0.00     0.000 C 
BRANCH  11  12
ATOM     12  C   UNL     1      55.580  28.553  54.455  1.00  0.00     0.000 C 
BRANCH  12  13
ATOM     13  C   UNL     1      56.798  28.634  55.386  1.00  0.00     0.006 C 
BRANCH  13  14
ATOM     14  C   UNL     1      56.479  28.023  56.757  1.00  0.00     0.053 C 
BRANCH  14  15
ATOM     15  C   UNL     1      56.495  29.072  57.825  1.00  0.00     0.041 C 
ATOM     16  O   UNL     1      55.612  29.078  58.724  1.00  0.00    -0.550 OA
ATOM     17  O   UNL     1      57.480  30.053  57.822  1.00  0.00    -0.550 OA
ENDBRANCH  14  15
ENDBRANCH  13  14
ENDBRANCH  12  13
ENDBRANCH  11  12
ENDBRANCH  10  11
ENDBRANCH   9  10
ENDBRANCH   8   9
ENDBRANCH   7   8
ENDBRANCH   6   7
ENDBRANCH   5   6
ENDBRANCH   4   5
ENDBRANCH   3   4
ENDBRANCH   2   3
ENDBRANCH   1   2
BRANCH   1  18
ATOM     18  C   UNL     1      59.587  25.448  51.484  1.00  0.00     0.000 C 
BRANCH  18  19
ATOM     19  C   UNL     1      60.799  26.386  51.599  1.00  0.00     0.000 C 
BRANCH  19  20
ATOM     20  C   UNL     1      60.961  27.235  50.329  1.00  0.00     0.000 C 
BRANCH  20  21
ATOM     21  C   UNL     1      59.620  27.577  49.652  1.00  0.00     0.000 C 
BRANCH  21  22
ATOM     22  C   UNL     1      59.246  29.071  49.644  1.00  0.00     0.000 C 
BRANCH  22  23
ATOM     23  C   UNL     1      58.001  29.390  50.489  1.00  0.00     0.000 C 
BRANCH  23  24
ATOM     24  C   UNL     1      58.208  29.096  51.986  1.00  0.00    -0.000 C 
BRANCH  24  25
ATOM     25  C   UNL     1      58.919  30.212  52.777  1.00  0.00    -0.000 C 
BRANCH  25  26
ATOM     26  C   UNL     1      60.167  29.767  53.566  1.00  0.00    -0.000 C 
BRANCH  26  27
ATOM     27  C   UNL     1      61.483  29.793  52.770  1.00  0.00    -0.000 C 
BRANCH  27  28
ATOM     28  C   UNL     1      61.715  31.128  52.040  1.00  0.00    -0.000 C 
BRANCH  28  29
ATOM     29  C   UNL     1      62.203  30.922  50.596  1.00  0.00    -0.000 C 
BRANCH  29  30
ATOM     30  C   UNL     1      63.706  30.600  50.523  1.00  0.00    -0.000 C 
BRANCH  30  31
ATOM     31  C   UNL     1      63.973  29.167  50.031  1.00  0.00    -0.003 C 
ATOM     32  C   UNL     1      64.512  28.259  51.137  1.00  0.00     0.004 C 
ENDBRANCH  30  31
ENDBRANCH  29  30
ENDBRANCH  28  29
ENDBRANCH  27  28
ENDBRANCH  26  27
ENDBRANCH  25  26
ENDBRANCH  24  25
ENDBRANCH  23  24
ENDBRANCH  22  23
ENDBRANCH  21  22
ENDBRANCH  20  21
ENDBRANCH  19  20
ENDBRANCH  18  19
ENDBRANCH   1  18
TORSDOF 28
ENDMDL
