MODEL 1
REMARK VINA RESULT:    -7.530      0.000      0.000
REMARK INTER + INTRA:          -9.739
REMARK INTER:                 -10.171
REMARK INTRA:                   0.432
REMARK UNBOUND:                 0.432
REMARK SMILES O=c1c(-c2ccc(O)cc2)coc2c([C@@H]3O[C@@H](CO)[C@H](O)[C@@H](O)[C@H]3O)c(O)ccc12
REMARK SMILES IDX 3 1 11 2 12 3 13 4 30 5 2 6 1 7 29 8 28 9 26 10 14 11 4 12
REMARK SMILES IDX 5 13 6 14 7 15 10 16 9 17 8 18 15 20 24 21 16 22 22 23 17 24
REMARK SMILES IDX 20 25 25 26 23 28 18 30 19 31 21 33 27 35
REMARK H PARENT 8 19 25 27 23 29 19 32 21 34 27 36
REMARK Flexibility Score: inf
ROOT
ATOM      1  C   UNL     1      -3.018  -4.145  -4.779  1.00  0.00     0.065 A 
ATOM      2  C   UNL     1      -3.245  -2.911  -4.157  1.00  0.00     0.208 A 
ATOM      3  O   UNL     1      -4.430  -2.319  -4.230  1.00  0.00    -0.463 OA
ATOM      4  C   UNL     1      -5.470  -2.837  -4.881  1.00  0.00     0.147 A 
ATOM      5  C   UNL     1      -5.319  -4.070  -5.558  1.00  0.00     0.066 A 
ATOM      6  C   UNL     1      -4.075  -4.726  -5.501  1.00  0.00     0.200 A 
ATOM      7  O   UNL     1      -3.902  -5.818  -6.112  1.00  0.00    -0.288 OA
ATOM      8  C   UNL     1      -6.397  -4.603  -6.273  1.00  0.00     0.020 A 
ATOM      9  C   UNL     1      -7.600  -3.911  -6.339  1.00  0.00     0.047 A 
ATOM     10  C   UNL     1      -7.769  -2.688  -5.679  1.00  0.00     0.125 A 
ATOM     11  C   UNL     1      -6.713  -2.147  -4.890  1.00  0.00     0.069 A 
ENDROOT
BRANCH   1  12
ATOM     12  C   UNL     1      -1.689  -4.796  -4.671  1.00  0.00    -0.011 A 
ATOM     13  C   UNL     1      -0.730  -4.643  -5.688  1.00  0.00     0.013 A 
ATOM     14  C   UNL     1       0.517  -5.268  -5.585  1.00  0.00     0.047 A 
ATOM     15  C   UNL     1       0.820  -6.056  -4.468  1.00  0.00     0.115 A 
ATOM     16  C   UNL     1      -1.378  -5.596  -3.555  1.00  0.00     0.013 A 
ATOM     17  C   UNL     1      -0.130  -6.218  -3.456  1.00  0.00     0.047 A 
BRANCH  15  18
ATOM     18  O   UNL     1       2.059  -6.682  -4.355  1.00  0.00    -0.508 OA
ATOM     19  H   UNL     1       2.139  -7.690  -4.305  1.00  0.00     0.293 HD
ENDBRANCH  15  18
ENDBRANCH   1  12
BRANCH  11  20
ATOM     20  C   UNL     1      -6.793  -0.823  -4.092  1.00  0.00     0.188 C 
ATOM     21  C   UNL     1      -5.545   0.094  -3.966  1.00  0.00     0.179 C 
ATOM     22  O   UNL     1      -7.902  -0.035  -4.509  1.00  0.00    -0.362 OA
ATOM     23  C   UNL     1      -5.260   0.793  -5.308  1.00  0.00     0.177 C 
ATOM     24  C   UNL     1      -7.709   0.502  -5.811  1.00  0.00     0.176 C 
ATOM     25  C   UNL     1      -6.528   1.498  -5.819  1.00  0.00     0.177 C 
BRANCH  21  26
ATOM     26  O   UNL     1      -5.795   1.077  -2.991  1.00  0.00    -0.387 OA
ATOM     27  H   UNL     1      -5.662   1.961  -3.424  1.00  0.00     0.211 HD
ENDBRANCH  21  26
BRANCH  23  28
ATOM     28  O   UNL     1      -4.222   1.724  -5.135  1.00  0.00    -0.387 OA
ATOM     29  H   UNL     1      -3.404   1.322  -5.527  1.00  0.00     0.211 HD
ENDBRANCH  23  28
BRANCH  24  30
ATOM     30  C   UNL     1      -9.013   1.188  -6.246  1.00  0.00     0.191 C 
BRANCH  30  31
ATOM     31  O   UNL     1      -8.944   2.568  -6.008  1.00  0.00    -0.394 OA
ATOM     32  H   UNL     1      -9.755   2.969  -6.418  1.00  0.00     0.210 HD
ENDBRANCH  30  31
ENDBRANCH  24  30
BRANCH  25  33
ATOM     33  O   UNL     1      -6.296   1.964  -7.125  1.00  0.00    -0.388 OA
ATOM     34  H   UNL     1      -6.463   2.943  -7.123  1.00  0.00     0.211 HD
ENDBRANCH  25  33
ENDBRANCH  11  20
BRANCH  10  35
ATOM     35  O   UNL     1      -8.986  -2.030  -5.833  1.00  0.00    -0.507 OA
ATOM     36  H   UNL     1      -9.835  -2.521  -6.092  1.00  0.00     0.293 HD
ENDBRANCH  10  35
TORSDOF 9
ENDMDL
MODEL 2
REMARK VINA RESULT:    -7.164      1.979      8.234
REMARK INTER + INTRA:          -9.245
REMARK INTER:                  -9.917
REMARK INTRA:                   0.672
REMARK UNBOUND:                 0.432
REMARK SMILES O=c1c(-c2ccc(O)cc2)coc2c([C@@H]3O[C@@H](CO)[C@H](O)[C@@H](O)[C@H]3O)c(O)ccc12
REMARK SMILES IDX 3 1 11 2 12 3 13 4 30 5 2 6 1 7 29 8 28 9 26 10 14 11 4 12
REMARK SMILES IDX 5 13 6 14 7 15 10 16 9 17 8 18 15 20 24 21 16 22 22 23 17 24
REMARK SMILES IDX 20 25 25 26 23 28 18 30 19 31 21 33 27 35
REMARK H PARENT 8 19 25 27 23 29 19 32 21 34 27 36
REMARK Flexibility Score: inf
ROOT
ATOM      1  C   UNL     1      -4.666  -1.375  -4.780  1.00  0.00     0.065 A 
ATOM      2  C   UNL     1      -3.365  -1.502  -4.279  1.00  0.00     0.208 A 
ATOM      3  O   UNL     1      -2.797  -2.694  -4.150  1.00  0.00    -0.463 OA
ATOM      4  C   UNL     1      -3.403  -3.833  -4.479  1.00  0.00     0.147 A 
ATOM      5  C   UNL     1      -4.728  -3.797  -4.971  1.00  0.00     0.066 A 
ATOM      6  C   UNL     1      -5.361  -2.549  -5.121  1.00  0.00     0.200 A 
ATOM      7  O   UNL     1      -6.551  -2.483  -5.538  1.00  0.00    -0.288 OA
ATOM      8  C   UNL     1      -5.382  -4.993  -5.285  1.00  0.00     0.020 A 
ATOM      9  C   UNL     1      -4.742  -6.211  -5.091  1.00  0.00     0.047 A 
ATOM     10  C   UNL     1      -3.431  -6.268  -4.602  1.00  0.00     0.125 A 
ATOM     11  C   UNL     1      -2.713  -5.068  -4.330  1.00  0.00     0.069 A 
ENDROOT
BRANCH   1  12
ATOM     12  C   UNL     1      -5.275  -0.030  -4.930  1.00  0.00    -0.011 A 
ATOM     13  C   UNL     1      -4.911   0.806  -6.001  1.00  0.00     0.013 A 
ATOM     14  C   UNL     1      -5.481   2.077  -6.131  1.00  0.00     0.047 A 
ATOM     15  C   UNL     1      -6.416   2.529  -5.192  1.00  0.00     0.115 A 
ATOM     16  C   UNL     1      -6.210   0.436  -3.988  1.00  0.00     0.013 A 
ATOM     17  C   UNL     1      -6.778   1.706  -4.122  1.00  0.00     0.047 A 
BRANCH  15  18
ATOM     18  O   UNL     1      -6.990   3.793  -5.312  1.00  0.00    -0.508 OA
ATOM     19  H   UNL     1      -6.608   4.490  -5.941  1.00  0.00     0.293 HD
ENDBRANCH  15  18
ENDBRANCH   1  12
BRANCH  11  20
ATOM     20  C   UNL     1      -1.253  -5.006  -3.819  1.00  0.00     0.188 C 
ATOM     21  C   UNL     1      -0.672  -6.166  -2.964  1.00  0.00     0.179 C 
ATOM     22  O   UNL     1      -0.347  -4.718  -4.878  1.00  0.00    -0.362 OA
ATOM     23  C   UNL     1      -0.427  -7.406  -3.844  1.00  0.00     0.177 C 
ATOM     24  C   UNL     1      -0.222  -5.809  -5.779  1.00  0.00     0.176 C 
ATOM     25  C   UNL     1       0.417  -7.027  -5.073  1.00  0.00     0.177 C 
BRANCH  21  26
ATOM     26  O   UNL     1       0.556  -5.758  -2.412  1.00  0.00    -0.387 OA
ATOM     27  H   UNL     1       1.200  -5.667  -3.162  1.00  0.00     0.211 HD
ENDBRANCH  21  26
BRANCH  23  28
ATOM     28  O   UNL     1       0.231  -8.390  -3.087  1.00  0.00    -0.387 OA
ATOM     29  H   UNL     1       0.064  -8.180  -2.132  1.00  0.00     0.211 HD
ENDBRANCH  23  28
BRANCH  24  30
ATOM     30  C   UNL     1       0.632  -5.352  -6.971  1.00  0.00     0.191 C 
BRANCH  30  31
ATOM     31  O   UNL     1       1.995  -5.391  -6.642  1.00  0.00    -0.394 OA
ATOM     32  H   UNL     1       2.459  -4.784  -7.276  1.00  0.00     0.210 HD
ENDBRANCH  30  31
ENDBRANCH  24  30
BRANCH  25  33
ATOM     33  O   UNL     1       0.465  -8.125  -5.950  1.00  0.00    -0.388 OA
ATOM     34  H   UNL     1      -0.471  -8.348  -6.194  1.00  0.00     0.211 HD
ENDBRANCH  25  33
ENDBRANCH  11  20
BRANCH  10  35
ATOM     35  O   UNL     1      -2.874  -7.526  -4.386  1.00  0.00    -0.507 OA
ATOM     36  H   UNL     1      -2.018  -7.822  -4.842  1.00  0.00     0.293 HD
ENDBRANCH  10  35
TORSDOF 9
ENDMDL
MODEL 3
REMARK VINA RESULT:    -6.982      1.867      3.305
REMARK INTER + INTRA:          -8.999
REMARK INTER:                  -9.206
REMARK INTRA:                   0.208
REMARK UNBOUND:                 0.432
REMARK SMILES O=c1c(-c2ccc(O)cc2)coc2c([C@@H]3O[C@@H](CO)[C@H](O)[C@@H](O)[C@H]3O)c(O)ccc12
REMARK SMILES IDX 3 1 11 2 12 3 13 4 30 5 2 6 1 7 29 8 28 9 26 10 14 11 4 12
REMARK SMILES IDX 5 13 6 14 7 15 10 16 9 17 8 18 15 20 24 21 16 22 22 23 17 24
REMARK SMILES IDX 20 25 25 26 23 28 18 30 19 31 21 33 27 35
REMARK H PARENT 8 19 25 27 23 29 19 32 21 34 27 36
REMARK Flexibility Score: inf
ROOT
ATOM      1  C   UNL     1      -3.261  -3.477  -4.738  1.00  0.00     0.065 A 
ATOM      2  C   UNL     1      -4.293  -2.968  -3.940  1.00  0.00     0.208 A 
ATOM      3  O   UNL     1      -4.785  -1.755  -4.152  1.00  0.00    -0.463 OA
ATOM      4  C   UNL     1      -4.349  -0.945  -5.115  1.00  0.00     0.147 A 
ATOM      5  C   UNL     1      -3.292  -1.371  -5.952  1.00  0.00     0.066 A 
ATOM      6  C   UNL     1      -2.746  -2.653  -5.756  1.00  0.00     0.200 A 
ATOM      7  O   UNL     1      -1.788  -3.055  -6.473  1.00  0.00    -0.288 OA
ATOM      8  C   UNL     1      -2.806  -0.511  -6.944  1.00  0.00     0.020 A 
ATOM      9  C   UNL     1      -3.342   0.762  -7.087  1.00  0.00     0.047 A 
ATOM     10  C   UNL     1      -4.387   1.203  -6.267  1.00  0.00     0.125 A 
ATOM     11  C   UNL     1      -4.948   0.333  -5.288  1.00  0.00     0.069 A 
ENDROOT
BRANCH   1  12
ATOM     12  C   UNL     1      -2.737  -4.843  -4.493  1.00  0.00    -0.011 A 
ATOM     13  C   UNL     1      -1.602  -5.042  -3.687  1.00  0.00     0.013 A 
ATOM     14  C   UNL     1      -1.107  -6.331  -3.468  1.00  0.00     0.047 A 
ATOM     15  C   UNL     1      -1.737  -7.436  -4.053  1.00  0.00     0.115 A 
ATOM     16  C   UNL     1      -3.360  -5.959  -5.082  1.00  0.00     0.013 A 
ATOM     17  C   UNL     1      -2.862  -7.246  -4.860  1.00  0.00     0.047 A 
BRANCH  15  18
ATOM     18  O   UNL     1      -1.253  -8.725  -3.841  1.00  0.00    -0.508 OA
ATOM     19  H   UNL     1      -1.760  -9.540  -4.166  1.00  0.00     0.293 HD
ENDBRANCH  15  18
ENDBRANCH   1  12
BRANCH  11  20
ATOM     20  C   UNL     1      -6.123   0.697  -4.349  1.00  0.00     0.188 C 
ATOM     21  C   UNL     1      -6.903   2.026  -4.548  1.00  0.00     0.179 C 
ATOM     22  O   UNL     1      -7.056  -0.373  -4.250  1.00  0.00    -0.362 OA
ATOM     23  C   UNL     1      -7.790   1.940  -5.803  1.00  0.00     0.177 C 
ATOM     24  C   UNL     1      -7.784  -0.553  -5.457  1.00  0.00     0.176 C 
ATOM     25  C   UNL     1      -8.670   0.679  -5.747  1.00  0.00     0.177 C 
BRANCH  21  26
ATOM     26  O   UNL     1      -7.727   2.245  -3.429  1.00  0.00    -0.387 OA
ATOM     27  H   UNL     1      -7.157   2.633  -2.715  1.00  0.00     0.211 HD
ENDBRANCH  21  26
BRANCH  23  28
ATOM     28  O   UNL     1      -8.593   3.090  -5.884  1.00  0.00    -0.387 OA
ATOM     29  H   UNL     1      -8.414   3.507  -6.767  1.00  0.00     0.211 HD
ENDBRANCH  23  28
BRANCH  24  30
ATOM     30  C   UNL     1      -8.635  -1.824  -5.319  1.00  0.00     0.191 C 
BRANCH  30  31
ATOM     31  O   UNL     1      -9.998  -1.499  -5.269  1.00  0.00    -0.394 OA
ATOM     32  H   UNL     1     -10.486  -2.345  -5.091  1.00  0.00     0.210 HD
ENDBRANCH  30  31
ENDBRANCH  24  30
BRANCH  25  33
ATOM     33  O   UNL     1      -9.326   0.525  -6.981  1.00  0.00    -0.388 OA
ATOM     34  H   UNL     1      -8.821  -0.154  -7.500  1.00  0.00     0.211 HD
ENDBRANCH  25  33
ENDBRANCH  11  20
BRANCH  10  35
ATOM     35  O   UNL     1      -4.838   2.509  -6.437  1.00  0.00    -0.507 OA
ATOM     36  H   UNL     1      -4.742   3.212  -5.712  1.00  0.00     0.293 HD
ENDBRANCH  10  35
TORSDOF 9
ENDMDL
MODEL 4
REMARK VINA RESULT:    -6.614      2.353      7.898
REMARK INTER + INTRA:          -8.502
REMARK INTER:                  -8.656
REMARK INTRA:                   0.154
REMARK UNBOUND:                 0.432
REMARK SMILES O=c1c(-c2ccc(O)cc2)coc2c([C@@H]3O[C@@H](CO)[C@H](O)[C@@H](O)[C@H]3O)c(O)ccc12
REMARK SMILES IDX 3 1 11 2 12 3 13 4 30 5 2 6 1 7 29 8 28 9 26 10 14 11 4 12
REMARK SMILES IDX 5 13 6 14 7 15 10 16 9 17 8 18 15 20 24 21 16 22 22 23 17 24
REMARK SMILES IDX 20 25 25 26 23 28 18 30 19 31 21 33 27 35
REMARK H PARENT 8 19 25 27 23 29 19 32 21 34 27 36
REMARK Flexibility Score: inf
ROOT
ATOM      1  C   UNL     1      -6.957   1.238  -6.075  1.00  0.00     0.065 A 
ATOM      2  C   UNL     1      -5.659   0.779  -6.328  1.00  0.00     0.208 A 
ATOM      3  O   UNL     1      -5.401  -0.519  -6.426  1.00  0.00    -0.463 OA
ATOM      4  C   UNL     1      -6.332  -1.462  -6.296  1.00  0.00     0.147 A 
ATOM      5  C   UNL     1      -7.666  -1.086  -6.015  1.00  0.00     0.066 A 
ATOM      6  C   UNL     1      -7.975   0.282  -5.905  1.00  0.00     0.200 A 
ATOM      7  O   UNL     1      -9.152   0.651  -5.635  1.00  0.00    -0.288 OA
ATOM      8  C   UNL     1      -8.642  -2.074  -5.843  1.00  0.00     0.020 A 
ATOM      9  C   UNL     1      -8.296  -3.417  -5.921  1.00  0.00     0.047 A 
ATOM     10  C   UNL     1      -6.980  -3.811  -6.195  1.00  0.00     0.125 A 
ATOM     11  C   UNL     1      -5.974  -2.832  -6.437  1.00  0.00     0.069 A 
ENDROOT
BRANCH   1  12
ATOM     12  C   UNL     1      -7.224   2.695  -5.986  1.00  0.00    -0.011 A 
ATOM     13  C   UNL     1      -7.611   3.424  -7.125  1.00  0.00     0.013 A 
ATOM     14  C   UNL     1      -7.851   4.799  -7.036  1.00  0.00     0.047 A 
ATOM     15  C   UNL     1      -7.704   5.463  -5.812  1.00  0.00     0.115 A 
ATOM     16  C   UNL     1      -7.072   3.371  -4.761  1.00  0.00     0.013 A 
ATOM     17  C   UNL     1      -7.314   4.745  -4.677  1.00  0.00     0.047 A 
BRANCH  15  18
ATOM     18  O   UNL     1      -7.941   6.832  -5.712  1.00  0.00    -0.508 OA
ATOM     19  H   UNL     1      -7.397   7.502  -6.241  1.00  0.00     0.293 HD
ENDBRANCH  15  18
ENDBRANCH   1  12
BRANCH  11  20
ATOM     20  C   UNL     1      -4.498  -3.146  -6.780  1.00  0.00     0.188 C 
ATOM     21  C   UNL     1      -3.387  -2.099  -6.492  1.00  0.00     0.179 C 
ATOM     22  O   UNL     1      -4.098  -4.400  -6.241  1.00  0.00    -0.362 OA
ATOM     23  C   UNL     1      -3.128  -1.999  -4.978  1.00  0.00     0.177 C 
ATOM     24  C   UNL     1      -3.994  -4.358  -4.824  1.00  0.00     0.176 C 
ATOM     25  C   UNL     1      -2.864  -3.397  -4.391  1.00  0.00     0.177 C 
BRANCH  21  26
ATOM     26  O   UNL     1      -2.198  -2.507  -7.125  1.00  0.00    -0.387 OA
ATOM     27  H   UNL     1      -2.145  -3.495  -7.042  1.00  0.00     0.211 HD
ENDBRANCH  21  26
BRANCH  23  28
ATOM     28  O   UNL     1      -2.025  -1.160  -4.749  1.00  0.00    -0.387 OA
ATOM     29  H   UNL     1      -1.215  -1.663  -5.024  1.00  0.00     0.211 HD
ENDBRANCH  23  28
BRANCH  24  30
ATOM     30  C   UNL     1      -3.729  -5.784  -4.319  1.00  0.00     0.191 C 
BRANCH  30  31
ATOM     31  O   UNL     1      -2.373  -5.947  -3.999  1.00  0.00    -0.394 OA
ATOM     32  H   UNL     1      -2.341  -6.372  -3.102  1.00  0.00     0.210 HD
ENDBRANCH  30  31
ENDBRANCH  24  30
BRANCH  25  33
ATOM     33  O   UNL     1      -2.819  -3.301  -2.989  1.00  0.00    -0.388 OA
ATOM     34  H   UNL     1      -2.438  -2.413  -2.766  1.00  0.00     0.211 HD
ENDBRANCH  25  33
ENDBRANCH  11  20
BRANCH  10  35
ATOM     35  O   UNL     1      -6.701  -5.175  -6.208  1.00  0.00    -0.507 OA
ATOM     36  H   UNL     1      -6.463  -5.684  -5.364  1.00  0.00     0.293 HD
ENDBRANCH  10  35
TORSDOF 9
ENDMDL
MODEL 5
REMARK VINA RESULT:    -6.287      7.937     12.143
REMARK INTER + INTRA:          -8.060
REMARK INTER:                  -9.347
REMARK INTRA:                   1.286
REMARK UNBOUND:                 0.432
REMARK SMILES O=c1c(-c2ccc(O)cc2)coc2c([C@@H]3O[C@@H](CO)[C@H](O)[C@@H](O)[C@H]3O)c(O)ccc12
REMARK SMILES IDX 3 1 11 2 12 3 13 4 30 5 2 6 1 7 29 8 28 9 26 10 14 11 4 12
REMARK SMILES IDX 5 13 6 14 7 15 10 16 9 17 8 18 15 20 24 21 16 22 22 23 17 24
REMARK SMILES IDX 20 25 25 26 23 28 18 30 19 31 21 33 27 35
REMARK H PARENT 8 19 25 27 23 29 19 32 21 34 27 36
REMARK Flexibility Score: inf
ROOT
ATOM      1  C   UNL     1       2.653  -8.896   2.896  1.00  0.00     0.065 A 
ATOM      2  C   UNL     1       1.538  -9.047   2.062  1.00  0.00     0.208 A 
ATOM      3  O   UNL     1       1.665  -9.020   0.741  1.00  0.00    -0.463 OA
ATOM      4  C   UNL     1       2.832  -8.853   0.121  1.00  0.00     0.147 A 
ATOM      5  C   UNL     1       4.005  -8.669   0.889  1.00  0.00     0.066 A 
ATOM      6  C   UNL     1       3.907  -8.692   2.292  1.00  0.00     0.200 A 
ATOM      7  O   UNL     1       4.932  -8.510   3.006  1.00  0.00    -0.288 OA
ATOM      8  C   UNL     1       5.228  -8.458   0.243  1.00  0.00     0.020 A 
ATOM      9  C   UNL     1       5.284  -8.404  -1.144  1.00  0.00     0.047 A 
ATOM     10  C   UNL     1       4.134  -8.581  -1.923  1.00  0.00     0.125 A 
ATOM     11  C   UNL     1       2.883  -8.859  -1.300  1.00  0.00     0.069 A 
ENDROOT
BRANCH   1  12
ATOM     12  C   UNL     1       2.489  -8.945   4.370  1.00  0.00    -0.011 A 
ATOM     13  C   UNL     1       1.214  -8.827   4.953  1.00  0.00     0.013 A 
ATOM     14  C   UNL     1       1.067  -8.864   6.344  1.00  0.00     0.047 A 
ATOM     15  C   UNL     1       2.190  -9.014   7.167  1.00  0.00     0.115 A 
ATOM     16  C   UNL     1       3.612  -9.088   5.205  1.00  0.00     0.013 A 
ATOM     17  C   UNL     1       3.460  -9.125   6.594  1.00  0.00     0.047 A 
BRANCH  15  18
ATOM     18  O   UNL     1       2.055  -9.053   8.553  1.00  0.00    -0.508 OA
ATOM     19  H   UNL     1       1.711  -9.879   9.028  1.00  0.00     0.293 HD
ENDBRANCH  15  18
ENDBRANCH   1  12
BRANCH  11  20
ATOM     20  C   UNL     1       1.554  -9.104  -2.055  1.00  0.00     0.188 C 
ATOM     21  C   UNL     1       0.217  -8.548  -1.490  1.00  0.00     0.179 C 
ATOM     22  O   UNL     1       1.663  -8.734  -3.425  1.00  0.00    -0.362 OA
ATOM     23  C   UNL     1       0.161  -7.020  -1.663  1.00  0.00     0.177 C 
ATOM     24  C   UNL     1       1.754  -7.325  -3.587  1.00  0.00     0.176 C 
ATOM     25  C   UNL     1       0.449  -6.639  -3.125  1.00  0.00     0.177 C 
BRANCH  21  26
ATOM     26  O   UNL     1      -0.854  -9.121  -2.201  1.00  0.00    -0.387 OA
ATOM     27  H   UNL     1      -1.520  -8.401  -2.358  1.00  0.00     0.211 HD
ENDBRANCH  21  26
BRANCH  23  28
ATOM     28  O   UNL     1      -1.110  -6.556  -1.281  1.00  0.00    -0.387 OA
ATOM     29  H   UNL     1      -0.999  -5.613  -0.990  1.00  0.00     0.211 HD
ENDBRANCH  23  28
BRANCH  24  30
ATOM     30  C   UNL     1       2.039  -7.029  -5.067  1.00  0.00     0.191 C 
BRANCH  30  31
ATOM     31  O   UNL     1       2.813  -8.053  -5.632  1.00  0.00    -0.394 OA
ATOM     32  H   UNL     1       2.722  -7.969  -6.617  1.00  0.00     0.210 HD
ENDBRANCH  30  31
ENDBRANCH  24  30
BRANCH  25  33
ATOM     33  O   UNL     1       0.578  -5.242  -3.215  1.00  0.00    -0.388 OA
ATOM     34  H   UNL     1       0.006  -4.941  -3.969  1.00  0.00     0.211 HD
ENDBRANCH  25  33
ENDBRANCH  11  20
BRANCH  10  35
ATOM     35  O   UNL     1       4.261  -8.464  -3.304  1.00  0.00    -0.507 OA
ATOM     36  H   UNL     1       4.555  -9.241  -3.886  1.00  0.00     0.293 HD
ENDBRANCH  10  35
TORSDOF 9
ENDMDL
MODEL 6
REMARK VINA RESULT:    -6.275      2.215      7.559
REMARK INTER + INTRA:          -8.044
REMARK INTER:                  -8.408
REMARK INTRA:                   0.364
REMARK UNBOUND:                 0.432
REMARK SMILES O=c1c(-c2ccc(O)cc2)coc2c([C@@H]3O[C@@H](CO)[C@H](O)[C@@H](O)[C@H]3O)c(O)ccc12
REMARK SMILES IDX 3 1 11 2 12 3 13 4 30 5 2 6 1 7 29 8 28 9 26 10 14 11 4 12
REMARK SMILES IDX 5 13 6 14 7 15 10 16 9 17 8 18 15 20 24 21 16 22 22 23 17 24
REMARK SMILES IDX 20 25 25 26 23 28 18 30 19 31 21 33 27 35
REMARK H PARENT 8 19 25 27 23 29 19 32 21 34 27 36
REMARK Flexibility Score: inf
ROOT
ATOM      1  C   UNL     1      -6.858   0.024  -5.173  1.00  0.00     0.065 A 
ATOM      2  C   UNL     1      -5.871  -0.579  -4.383  1.00  0.00     0.208 A 
ATOM      3  O   UNL     1      -5.606  -1.874  -4.493  1.00  0.00    -0.463 OA
ATOM      4  C   UNL     1      -6.241  -2.682  -5.341  1.00  0.00     0.147 A 
ATOM      5  C   UNL     1      -7.269  -2.159  -6.159  1.00  0.00     0.066 A 
ATOM      6  C   UNL     1      -7.575  -0.789  -6.068  1.00  0.00     0.200 A 
ATOM      7  O   UNL     1      -8.502  -0.295  -6.770  1.00  0.00    -0.288 OA
ATOM      8  C   UNL     1      -7.963  -3.010  -7.026  1.00  0.00     0.020 A 
ATOM      9  C   UNL     1      -7.660  -4.365  -7.064  1.00  0.00     0.047 A 
ATOM     10  C   UNL     1      -6.648  -4.903  -6.260  1.00  0.00     0.125 A 
ATOM     11  C   UNL     1      -5.880  -4.056  -5.411  1.00  0.00     0.069 A 
ENDROOT
BRANCH   1  12
ATOM     12  C   UNL     1      -7.125   1.478  -5.044  1.00  0.00    -0.011 A 
ATOM     13  C   UNL     1      -8.154   1.947  -4.207  1.00  0.00     0.013 A 
ATOM     14  C   UNL     1      -8.408   3.318  -4.098  1.00  0.00     0.047 A 
ATOM     15  C   UNL     1      -7.640   4.236  -4.825  1.00  0.00     0.115 A 
ATOM     16  C   UNL     1      -6.364   2.408  -5.777  1.00  0.00     0.013 A 
ATOM     17  C   UNL     1      -6.620   3.777  -5.664  1.00  0.00     0.047 A 
BRANCH  15  18
ATOM     18  O   UNL     1      -7.884   5.604  -4.723  1.00  0.00    -0.508 OA
ATOM     19  H   UNL     1      -8.336   6.117  -5.470  1.00  0.00     0.293 HD
ENDBRANCH  15  18
ENDBRANCH   1  12
BRANCH  11  20
ATOM     20  C   UNL     1      -4.718  -4.530  -4.504  1.00  0.00     0.188 C 
ATOM     21  C   UNL     1      -3.979  -5.862  -4.809  1.00  0.00     0.179 C 
ATOM     22  O   UNL     1      -3.753  -3.500  -4.321  1.00  0.00    -0.362 OA
ATOM     23  C   UNL     1      -3.087  -5.703  -6.054  1.00  0.00     0.177 C 
ATOM     24  C   UNL     1      -3.018  -3.246  -5.511  1.00  0.00     0.176 C 
ATOM     25  C   UNL     1      -2.169  -4.479  -5.898  1.00  0.00     0.177 C 
BRANCH  21  26
ATOM     26  O   UNL     1      -3.163  -6.194  -3.712  1.00  0.00    -0.387 OA
ATOM     27  H   UNL     1      -2.682  -7.031  -3.947  1.00  0.00     0.211 HD
ENDBRANCH  21  26
BRANCH  23  28
ATOM     28  O   UNL     1      -2.319  -6.867  -6.227  1.00  0.00    -0.387 OA
ATOM     29  H   UNL     1      -2.038  -7.166  -5.323  1.00  0.00     0.211 HD
ENDBRANCH  23  28
BRANCH  24  30
ATOM     30  C   UNL     1      -2.128  -2.017  -5.273  1.00  0.00     0.191 C 
BRANCH  30  31
ATOM     31  O   UNL     1      -2.551  -1.319  -4.132  1.00  0.00    -0.394 OA
ATOM     32  H   UNL     1      -1.911  -0.571  -4.003  1.00  0.00     0.210 HD
ENDBRANCH  30  31
ENDBRANCH  24  30
BRANCH  25  33
ATOM     33  O   UNL     1      -1.507  -4.247  -7.116  1.00  0.00    -0.388 OA
ATOM     34  H   UNL     1      -2.198  -3.997  -7.784  1.00  0.00     0.211 HD
ENDBRANCH  25  33
ENDBRANCH  11  20
BRANCH  10  35
ATOM     35  O   UNL     1      -6.437  -6.278  -6.317  1.00  0.00    -0.507 OA
ATOM     36  H   UNL     1      -5.608  -6.679  -6.742  1.00  0.00     0.293 HD
ENDBRANCH  10  35
TORSDOF 9
ENDMDL
MODEL 7
REMARK VINA RESULT:    -6.147      1.959      8.847
REMARK INTER + INTRA:          -7.872
REMARK INTER:                  -8.970
REMARK INTRA:                   1.098
REMARK UNBOUND:                 0.432
REMARK SMILES O=c1c(-c2ccc(O)cc2)coc2c([C@@H]3O[C@@H](CO)[C@H](O)[C@@H](O)[C@H]3O)c(O)ccc12
REMARK SMILES IDX 3 1 11 2 12 3 13 4 30 5 2 6 1 7 29 8 28 9 26 10 14 11 4 12
REMARK SMILES IDX 5 13 6 14 7 15 10 16 9 17 8 18 15 20 24 21 16 22 22 23 17 24
REMARK SMILES IDX 20 25 25 26 23 28 18 30 19 31 21 33 27 35
REMARK H PARENT 8 19 25 27 23 29 19 32 21 34 27 36
REMARK Flexibility Score: inf
ROOT
ATOM      1  C   UNL     1      -4.345  -3.013  -4.830  1.00  0.00     0.065 A 
ATOM      2  C   UNL     1      -3.110  -2.805  -4.202  1.00  0.00     0.208 A 
ATOM      3  O   UNL     1      -2.261  -3.808  -4.017  1.00  0.00    -0.463 OA
ATOM      4  C   UNL     1      -2.509  -5.058  -4.404  1.00  0.00     0.147 A 
ATOM      5  C   UNL     1      -3.743  -5.360  -5.025  1.00  0.00     0.066 A 
ATOM      6  C   UNL     1      -4.667  -4.320  -5.237  1.00  0.00     0.200 A 
ATOM      7  O   UNL     1      -5.786  -4.560  -5.769  1.00  0.00    -0.288 OA
ATOM      8  C   UNL     1      -4.023  -6.678  -5.402  1.00  0.00     0.020 A 
ATOM      9  C   UNL     1      -3.104  -7.688  -5.145  1.00  0.00     0.047 A 
ATOM     10  C   UNL     1      -1.878  -7.410  -4.529  1.00  0.00     0.125 A 
ATOM     11  C   UNL     1      -1.534  -6.070  -4.188  1.00  0.00     0.069 A 
ENDROOT
BRANCH   1  12
ATOM     12  C   UNL     1      -5.271  -1.873  -5.040  1.00  0.00    -0.011 A 
ATOM     13  C   UNL     1      -5.866  -1.221  -3.945  1.00  0.00     0.013 A 
ATOM     14  C   UNL     1      -6.746  -0.154  -4.150  1.00  0.00     0.047 A 
ATOM     15  C   UNL     1      -7.046   0.272  -5.450  1.00  0.00     0.115 A 
ATOM     16  C   UNL     1      -5.584  -1.443  -6.343  1.00  0.00     0.013 A 
ATOM     17  C   UNL     1      -6.464  -0.376  -6.543  1.00  0.00     0.047 A 
BRANCH  15  18
ATOM     18  O   UNL     1      -7.921   1.334  -5.665  1.00  0.00    -0.508 OA
ATOM     19  H   UNL     1      -8.281   1.543  -6.589  1.00  0.00     0.293 HD
ENDBRANCH  15  18
ENDBRANCH   1  12
BRANCH  11  20
ATOM     20  C   UNL     1      -0.198  -5.639  -3.535  1.00  0.00     0.188 C 
ATOM     21  C   UNL     1       0.375  -6.429  -2.326  1.00  0.00     0.179 C 
ATOM     22  O   UNL     1       0.827  -5.484  -4.510  1.00  0.00    -0.362 OA
ATOM     23  C   UNL     1       0.916  -7.793  -2.790  1.00  0.00     0.177 C 
ATOM     24  C   UNL     1       1.236  -6.733  -5.050  1.00  0.00     0.176 C 
ATOM     25  C   UNL     1       1.898  -7.606  -3.960  1.00  0.00     0.177 C 
BRANCH  21  26
ATOM     26  O   UNL     1       1.433  -5.695  -1.759  1.00  0.00    -0.387 OA
ATOM     27  H   UNL     1       2.264  -5.968  -2.228  1.00  0.00     0.211 HD
ENDBRANCH  21  26
BRANCH  23  28
ATOM     28  O   UNL     1       1.559  -8.428  -1.713  1.00  0.00    -0.387 OA
ATOM     29  H   UNL     1       2.426  -7.964  -1.578  1.00  0.00     0.211 HD
ENDBRANCH  23  28
BRANCH  24  30
ATOM     30  C   UNL     1       2.211  -6.460  -6.205  1.00  0.00     0.191 C 
BRANCH  30  31
ATOM     31  O   UNL     1       2.270  -7.564  -7.069  1.00  0.00    -0.394 OA
ATOM     32  H   UNL     1       1.468  -7.512  -7.652  1.00  0.00     0.210 HD
ENDBRANCH  30  31
ENDBRANCH  24  30
BRANCH  25  33
ATOM     33  O   UNL     1       2.228  -8.868  -4.484  1.00  0.00    -0.388 OA
ATOM     34  H   UNL     1       2.121  -9.529  -3.751  1.00  0.00     0.211 HD
ENDBRANCH  25  33
ENDBRANCH  11  20
BRANCH  10  35
ATOM     35  O   UNL     1      -1.031  -8.481  -4.259  1.00  0.00    -0.507 OA
ATOM     36  H   UNL     1      -0.703  -8.686  -3.321  1.00  0.00     0.293 HD
ENDBRANCH  10  35
TORSDOF 9
ENDMDL
MODEL 8
REMARK VINA RESULT:    -5.904      2.175      8.480
REMARK INTER + INTRA:          -7.542
REMARK INTER:                  -9.287
REMARK INTRA:                   1.745
REMARK UNBOUND:                 0.432
REMARK SMILES O=c1c(-c2ccc(O)cc2)coc2c([C@@H]3O[C@@H](CO)[C@H](O)[C@@H](O)[C@H]3O)c(O)ccc12
REMARK SMILES IDX 3 1 11 2 12 3 13 4 30 5 2 6 1 7 29 8 28 9 26 10 14 11 4 12
REMARK SMILES IDX 5 13 6 14 7 15 10 16 9 17 8 18 15 20 24 21 16 22 22 23 17 24
REMARK SMILES IDX 20 25 25 26 23 28 18 30 19 31 21 33 27 35
REMARK H PARENT 8 19 25 27 23 29 19 32 21 34 27 36
REMARK Flexibility Score: inf
ROOT
ATOM      1  C   UNL     1      -6.361   1.086  -5.015  1.00  0.00     0.065 A 
ATOM      2  C   UNL     1      -6.692  -0.132  -4.409  1.00  0.00     0.208 A 
ATOM      3  O   UNL     1      -5.962  -1.220  -4.619  1.00  0.00    -0.463 OA
ATOM      4  C   UNL     1      -4.884  -1.239  -5.401  1.00  0.00     0.147 A 
ATOM      5  C   UNL     1      -4.493  -0.057  -6.071  1.00  0.00     0.066 A 
ATOM      6  C   UNL     1      -5.245   1.116  -5.870  1.00  0.00     0.200 A 
ATOM      7  O   UNL     1      -4.934   2.183  -6.470  1.00  0.00    -0.288 OA
ATOM      8  C   UNL     1      -3.382  -0.079  -6.921  1.00  0.00     0.020 A 
ATOM      9  C   UNL     1      -2.683  -1.262  -7.125  1.00  0.00     0.047 A 
ATOM     10  C   UNL     1      -3.056  -2.444  -6.474  1.00  0.00     0.125 A 
ATOM     11  C   UNL     1      -4.144  -2.444  -5.554  1.00  0.00     0.069 A 
ENDROOT
BRANCH   1  12
ATOM     12  C   UNL     1      -7.183   2.293  -4.753  1.00  0.00    -0.011 A 
ATOM     13  C   UNL     1      -6.597   3.571  -4.743  1.00  0.00     0.013 A 
ATOM     14  C   UNL     1      -7.376   4.704  -4.484  1.00  0.00     0.047 A 
ATOM     15  C   UNL     1      -8.747   4.573  -4.229  1.00  0.00     0.115 A 
ATOM     16  C   UNL     1      -8.560   2.170  -4.487  1.00  0.00     0.013 A 
ATOM     17  C   UNL     1      -9.334   3.305  -4.231  1.00  0.00     0.047 A 
BRANCH  15  18
ATOM     18  O   UNL     1      -9.532   5.694  -3.972  1.00  0.00    -0.508 OA
ATOM     19  H   UNL     1     -10.540   5.669  -4.074  1.00  0.00     0.293 HD
ENDBRANCH  15  18
ENDBRANCH   1  12
BRANCH  11  20
ATOM     20  C   UNL     1      -4.626  -3.677  -4.753  1.00  0.00     0.188 C 
ATOM     21  C   UNL     1      -5.323  -4.860  -5.480  1.00  0.00     0.179 C 
ATOM     22  O   UNL     1      -3.590  -4.193  -3.925  1.00  0.00    -0.362 OA
ATOM     23  C   UNL     1      -4.297  -5.660  -6.302  1.00  0.00     0.177 C 
ATOM     24  C   UNL     1      -2.562  -4.811  -4.688  1.00  0.00     0.176 C 
ATOM     25  C   UNL     1      -3.103  -6.060  -5.418  1.00  0.00     0.177 C 
BRANCH  21  26
ATOM     26  O   UNL     1      -5.893  -5.716  -4.519  1.00  0.00    -0.387 OA
ATOM     27  H   UNL     1      -6.701  -6.123  -4.930  1.00  0.00     0.211 HD
ENDBRANCH  21  26
BRANCH  23  28
ATOM     28  O   UNL     1      -4.915  -6.804  -6.832  1.00  0.00    -0.387 OA
ATOM     29  H   UNL     1      -5.065  -6.632  -7.798  1.00  0.00     0.211 HD
ENDBRANCH  23  28
BRANCH  24  30
ATOM     30  C   UNL     1      -1.415  -5.181  -3.736  1.00  0.00     0.191 C 
BRANCH  30  31
ATOM     31  O   UNL     1      -0.232  -5.404  -4.456  1.00  0.00    -0.394 OA
ATOM     32  H   UNL     1      -0.150  -6.386  -4.574  1.00  0.00     0.210 HD
ENDBRANCH  30  31
ENDBRANCH  24  30
BRANCH  25  33
ATOM     33  O   UNL     1      -2.101  -6.619  -6.230  1.00  0.00    -0.388 OA
ATOM     34  H   UNL     1      -1.973  -7.559  -5.937  1.00  0.00     0.211 HD
ENDBRANCH  25  33
ENDBRANCH  11  20
BRANCH  10  35
ATOM     35  O   UNL     1      -2.339  -3.601  -6.767  1.00  0.00    -0.507 OA
ATOM     36  H   UNL     1      -2.251  -4.363  -6.105  1.00  0.00     0.293 HD
ENDBRANCH  10  35
TORSDOF 9
ENDMDL
MODEL 9
REMARK VINA RESULT:    -5.833      1.439      2.004
REMARK INTER + INTRA:          -7.447
REMARK INTER:                  -8.885
REMARK INTRA:                   1.438
REMARK UNBOUND:                 0.432
REMARK SMILES O=c1c(-c2ccc(O)cc2)coc2c([C@@H]3O[C@@H](CO)[C@H](O)[C@@H](O)[C@H]3O)c(O)ccc12
REMARK SMILES IDX 3 1 11 2 12 3 13 4 30 5 2 6 1 7 29 8 28 9 26 10 14 11 4 12
REMARK SMILES IDX 5 13 6 14 7 15 10 16 9 17 8 18 15 20 24 21 16 22 22 23 17 24
REMARK SMILES IDX 20 25 25 26 23 28 18 30 19 31 21 33 27 35
REMARK H PARENT 8 19 25 27 23 29 19 32 21 34 27 36
REMARK Flexibility Score: inf
ROOT
ATOM      1  C   UNL     1      -2.209  -5.230  -3.934  1.00  0.00     0.065 A 
ATOM      2  C   UNL     1      -2.268  -3.868  -3.613  1.00  0.00     0.208 A 
ATOM      3  O   UNL     1      -3.333  -3.139  -3.923  1.00  0.00    -0.463 OA
ATOM      4  C   UNL     1      -4.401  -3.631  -4.547  1.00  0.00     0.147 A 
ATOM      5  C   UNL     1      -4.414  -4.992  -4.930  1.00  0.00     0.066 A 
ATOM      6  C   UNL     1      -3.302  -5.795  -4.616  1.00  0.00     0.200 A 
ATOM      7  O   UNL     1      -3.274  -7.009  -4.962  1.00  0.00    -0.288 OA
ATOM      8  C   UNL     1      -5.520  -5.507  -5.616  1.00  0.00     0.020 A 
ATOM      9  C   UNL     1      -6.586  -4.678  -5.942  1.00  0.00     0.047 A 
ATOM     10  C   UNL     1      -6.591  -3.327  -5.575  1.00  0.00     0.125 A 
ATOM     11  C   UNL     1      -5.510  -2.784  -4.822  1.00  0.00     0.069 A 
ENDROOT
BRANCH   1  12
ATOM     12  C   UNL     1      -1.015  -6.028  -3.564  1.00  0.00    -0.011 A 
ATOM     13  C   UNL     1      -0.907  -6.604  -2.285  1.00  0.00     0.013 A 
ATOM     14  C   UNL     1       0.226  -7.347  -1.938  1.00  0.00     0.047 A 
ATOM     15  C   UNL     1       1.265  -7.520  -2.861  1.00  0.00     0.115 A 
ATOM     16  C   UNL     1       0.037  -6.201  -4.482  1.00  0.00     0.013 A 
ATOM     17  C   UNL     1       1.167  -6.945  -4.132  1.00  0.00     0.047 A 
BRANCH  15  18
ATOM     18  O   UNL     1       2.398  -8.259  -2.527  1.00  0.00    -0.508 OA
ATOM     19  H   UNL     1       2.847  -8.870  -3.198  1.00  0.00     0.293 HD
ENDBRANCH  15  18
ENDBRANCH   1  12
BRANCH  11  20
ATOM     20  C   UNL     1      -5.420  -1.319  -4.333  1.00  0.00     0.188 C 
ATOM     21  C   UNL     1      -4.725  -0.241  -5.210  1.00  0.00     0.179 C 
ATOM     22  O   UNL     1      -6.694  -0.830  -3.928  1.00  0.00    -0.362 OA
ATOM     23  C   UNL     1      -5.604   0.104  -6.426  1.00  0.00     0.177 C 
ATOM     24  C   UNL     1      -7.565  -0.643  -5.036  1.00  0.00     0.176 C 
ATOM     25  C   UNL     1      -7.027   0.466  -5.969  1.00  0.00     0.177 C 
BRANCH  21  26
ATOM     26  O   UNL     1      -4.542   0.925  -4.444  1.00  0.00    -0.387 OA
ATOM     27  H   UNL     1      -5.090   0.825  -3.622  1.00  0.00     0.211 HD
ENDBRANCH  21  26
BRANCH  23  28
ATOM     28  O   UNL     1      -5.029   1.179  -7.125  1.00  0.00    -0.387 OA
ATOM     29  H   UNL     1      -4.079   0.944  -7.288  1.00  0.00     0.211 HD
ENDBRANCH  23  28
BRANCH  24  30
ATOM     30  C   UNL     1      -8.957  -0.282  -4.497  1.00  0.00     0.191 C 
BRANCH  30  31
ATOM     31  O   UNL     1      -9.946  -0.599  -5.440  1.00  0.00    -0.394 OA
ATOM     32  H   UNL     1     -10.689  -1.029  -4.941  1.00  0.00     0.210 HD
ENDBRANCH  30  31
ENDBRANCH  24  30
BRANCH  25  33
ATOM     33  O   UNL     1      -7.852   0.590  -7.100  1.00  0.00    -0.388 OA
ATOM     34  H   UNL     1      -7.537   1.382  -7.609  1.00  0.00     0.211 HD
ENDBRANCH  25  33
ENDBRANCH  11  20
BRANCH  10  35
ATOM     35  O   UNL     1      -7.671  -2.549  -5.981  1.00  0.00    -0.507 OA
ATOM     36  H   UNL     1      -8.001  -1.758  -5.438  1.00  0.00     0.293 HD
ENDBRANCH  10  35
TORSDOF 9
ENDMDL
