MODEL 1
REMARK VINA RESULT:    -3.853      0.000      0.000
REMARK INTER + INTRA:          -4.601
REMARK INTER:                  -4.304
REMARK INTRA:                  -0.297
REMARK UNBOUND:                -0.297
REMARK SMILES CC(=O)c1ccc(O)cc1O
REMARK SMILES IDX 4 1 10 2 9 3 7 4 6 5 5 6 2 7 1 8 3 9 11 10 8 12
REMARK H PARENT 11 11 8 13
REMARK Flexibility Score: inf
ROOT
ATOM      1  C   UNL     1       0.970 -15.020  10.019  1.00  0.00     0.059 A 
ATOM      2  C   UNL     1       1.557 -16.278  10.298  1.00  0.00     0.130 A 
ATOM      3  C   UNL     1       2.194 -16.495  11.529  1.00  0.00     0.093 A 
ATOM      4  C   UNL     1       2.241 -15.483  12.494  1.00  0.00     0.119 A 
ATOM      5  C   UNL     1       1.647 -14.248  12.231  1.00  0.00     0.047 A 
ATOM      6  C   UNL     1       1.016 -14.018  11.006  1.00  0.00     0.019 A 
ENDROOT
BRANCH   1   7
ATOM      7  C   UNL     1       0.295 -14.720   8.726  1.00  0.00     0.163 C 
ATOM      8  C   UNL     1       0.435 -13.398   8.035  1.00  0.00     0.093 C 
ATOM      9  O   UNL     1      -0.424 -15.603   8.186  1.00  0.00    -0.294 OA
ENDBRANCH   1   7
BRANCH   2  10
ATOM     10  O   UNL     1       1.492 -17.318   9.372  1.00  0.00    -0.507 OA
ATOM     11  H   UNL     1       0.902 -17.264   8.550  1.00  0.00     0.293 HD
ENDBRANCH   2  10
BRANCH   4  12
ATOM     12  O   UNL     1       2.871 -15.696  13.718  1.00  0.00    -0.508 OA
ATOM     13  H   UNL     1       2.504 -15.306  14.578  1.00  0.00     0.293 HD
ENDBRANCH   4  12
TORSDOF 3
ENDMDL
MODEL 2
REMARK VINA RESULT:    -3.748      1.297      3.973
REMARK INTER + INTRA:          -4.484
REMARK INTER:                  -4.205
REMARK INTRA:                  -0.279
REMARK UNBOUND:                -0.297
REMARK SMILES CC(=O)c1ccc(O)cc1O
REMARK SMILES IDX 4 1 10 2 9 3 7 4 6 5 5 6 2 7 1 8 3 9 11 10 8 12
REMARK H PARENT 11 11 8 13
REMARK Flexibility Score: inf
ROOT
ATOM      1  C   UNL     1       1.285 -15.193  10.869  1.00  0.00     0.059 A 
ATOM      2  C   UNL     1       1.086 -15.922   9.671  1.00  0.00     0.130 A 
ATOM      3  C   UNL     1       0.666 -15.257   8.510  1.00  0.00     0.093 A 
ATOM      4  C   UNL     1       0.455 -13.874   8.518  1.00  0.00     0.119 A 
ATOM      5  C   UNL     1       0.667 -13.149   9.692  1.00  0.00     0.047 A 
ATOM      6  C   UNL     1       1.080 -13.801  10.856  1.00  0.00     0.019 A 
ENDROOT
BRANCH   1   7
ATOM      7  C   UNL     1       1.713 -15.841  12.139  1.00  0.00     0.163 C 
ATOM      8  C   UNL     1       1.311 -15.317  13.484  1.00  0.00     0.093 C 
ATOM      9  O   UNL     1       2.443 -16.868  12.093  1.00  0.00    -0.294 OA
ENDBRANCH   1   7
BRANCH   2  10
ATOM     10  O   UNL     1       1.326 -17.294   9.621  1.00  0.00    -0.507 OA
ATOM     11  H   UNL     1       1.814 -17.778  10.366  1.00  0.00     0.293 HD
ENDBRANCH   2  10
BRANCH   4  12
ATOM     12  O   UNL     1       0.038 -13.210   7.366  1.00  0.00    -0.508 OA
ATOM     13  H   UNL     1      -0.135 -12.212   7.362  1.00  0.00     0.293 HD
ENDBRANCH   4  12
TORSDOF 3
ENDMDL
MODEL 3
REMARK VINA RESULT:    -3.645      1.548      2.185
REMARK INTER + INTRA:          -4.368
REMARK INTER:                  -4.067
REMARK INTRA:                  -0.302
REMARK UNBOUND:                -0.297
REMARK SMILES CC(=O)c1ccc(O)cc1O
REMARK SMILES IDX 4 1 10 2 9 3 7 4 6 5 5 6 2 7 1 8 3 9 11 10 8 12
REMARK H PARENT 11 11 8 13
REMARK Flexibility Score: inf
ROOT
ATOM      1  C   UNL     1       1.150 -15.238  10.567  1.00  0.00     0.059 A 
ATOM      2  C   UNL     1       1.631 -15.697  11.818  1.00  0.00     0.130 A 
ATOM      3  C   UNL     1       1.841 -14.787  12.864  1.00  0.00     0.093 A 
ATOM      4  C   UNL     1       1.563 -13.426  12.690  1.00  0.00     0.119 A 
ATOM      5  C   UNL     1       1.072 -12.972  11.466  1.00  0.00     0.047 A 
ATOM      6  C   UNL     1       0.864 -13.868  10.415  1.00  0.00     0.019 A 
ENDROOT
BRANCH   1   7
ATOM      7  C   UNL     1       0.922 -16.149   9.413  1.00  0.00     0.163 C 
ATOM      8  C   UNL     1      -0.268 -16.021   8.511  1.00  0.00     0.093 C 
ATOM      9  O   UNL     1       1.754 -17.066   9.177  1.00  0.00    -0.294 OA
ENDBRANCH   1   7
BRANCH   2  10
ATOM     10  O   UNL     1       1.879 -17.052  12.034  1.00  0.00    -0.507 OA
ATOM     11  H   UNL     1       2.575 -17.366  12.699  1.00  0.00     0.293 HD
ENDBRANCH   2  10
BRANCH   4  12
ATOM     12  O   UNL     1       1.770 -12.520  13.727  1.00  0.00    -0.508 OA
ATOM     13  H   UNL     1       2.106 -12.820  14.635  1.00  0.00     0.293 HD
ENDBRANCH   4  12
TORSDOF 3
ENDMDL
MODEL 4
REMARK VINA RESULT:    -3.599      5.373      7.378
REMARK INTER + INTRA:          -4.317
REMARK INTER:                  -4.020
REMARK INTRA:                  -0.297
REMARK UNBOUND:                -0.297
REMARK SMILES CC(=O)c1ccc(O)cc1O
REMARK SMILES IDX 4 1 10 2 9 3 7 4 6 5 5 6 2 7 1 8 3 9 11 10 8 12
REMARK H PARENT 11 11 8 13
REMARK Flexibility Score: inf
ROOT
ATOM      1  C   UNL     1       2.471 -19.871  15.074  1.00  0.00     0.059 A 
ATOM      2  C   UNL     1       1.489 -19.990  16.088  1.00  0.00     0.130 A 
ATOM      3  C   UNL     1       0.443 -19.059  16.161  1.00  0.00     0.093 A 
ATOM      4  C   UNL     1       0.348 -18.019  15.230  1.00  0.00     0.119 A 
ATOM      5  C   UNL     1       1.303 -17.909  14.218  1.00  0.00     0.047 A 
ATOM      6  C   UNL     1       2.353 -18.827  14.138  1.00  0.00     0.019 A 
ENDROOT
BRANCH   1   7
ATOM      7  C   UNL     1       3.614 -20.815  14.952  1.00  0.00     0.163 C 
ATOM      8  C   UNL     1       3.885 -21.593  13.699  1.00  0.00     0.093 C 
ATOM      9  O   UNL     1       4.390 -20.976  15.932  1.00  0.00    -0.294 OA
ENDBRANCH   1   7
BRANCH   2  10
ATOM     10  O   UNL     1       1.534 -21.038  17.007  1.00  0.00    -0.507 OA
ATOM     11  H   UNL     1       0.870 -21.803  16.975  1.00  0.00     0.293 HD
ENDBRANCH   2  10
BRANCH   4  12
ATOM     12  O   UNL     1      -0.690 -17.094  15.299  1.00  0.00    -0.508 OA
ATOM     13  H   UNL     1      -0.524 -16.128  15.556  1.00  0.00     0.293 HD
ENDBRANCH   4  12
TORSDOF 3
ENDMDL
MODEL 5
REMARK VINA RESULT:    -3.516      1.755      2.532
REMARK INTER + INTRA:          -4.224
REMARK INTER:                  -3.927
REMARK INTRA:                  -0.298
REMARK UNBOUND:                -0.297
REMARK SMILES CC(=O)c1ccc(O)cc1O
REMARK SMILES IDX 4 1 10 2 9 3 7 4 6 5 5 6 2 7 1 8 3 9 11 10 8 12
REMARK H PARENT 11 11 8 13
REMARK Flexibility Score: inf
ROOT
ATOM      1  C   UNL     1       1.241 -13.727   8.735  1.00  0.00     0.059 A 
ATOM      2  C   UNL     1       0.475 -14.915   8.645  1.00  0.00     0.130 A 
ATOM      3  C   UNL     1       0.693 -15.958   9.557  1.00  0.00     0.093 A 
ATOM      4  C   UNL     1       1.650 -15.830  10.570  1.00  0.00     0.119 A 
ATOM      5  C   UNL     1       2.393 -14.654  10.674  1.00  0.00     0.047 A 
ATOM      6  C   UNL     1       2.190 -13.611   9.767  1.00  0.00     0.019 A 
ENDROOT
BRANCH   1   7
ATOM      7  C   UNL     1       1.072 -12.592   7.788  1.00  0.00     0.163 C 
ATOM      8  C   UNL     1       2.200 -12.069   6.950  1.00  0.00     0.093 C 
ATOM      9  O   UNL     1      -0.057 -12.041   7.679  1.00  0.00    -0.294 OA
ENDBRANCH   1   7
BRANCH   2  10
ATOM     10  O   UNL     1      -0.513 -15.057   7.671  1.00  0.00    -0.507 OA
ATOM     11  H   UNL     1      -0.685 -15.943   7.212  1.00  0.00     0.293 HD
ENDBRANCH   2  10
BRANCH   4  12
ATOM     12  O   UNL     1       1.867 -16.863  11.479  1.00  0.00    -0.508 OA
ATOM     13  H   UNL     1       2.411 -17.681  11.231  1.00  0.00     0.293 HD
ENDBRANCH   4  12
TORSDOF 3
ENDMDL
MODEL 6
REMARK VINA RESULT:    -3.488      3.389      5.626
REMARK INTER + INTRA:          -4.193
REMARK INTER:                  -3.894
REMARK INTRA:                  -0.299
REMARK UNBOUND:                -0.297
REMARK SMILES CC(=O)c1ccc(O)cc1O
REMARK SMILES IDX 4 1 10 2 9 3 7 4 6 5 5 6 2 7 1 8 3 9 11 10 8 12
REMARK H PARENT 11 11 8 13
REMARK Flexibility Score: inf
ROOT
ATOM      1  C   UNL     1       2.796 -13.037   8.890  1.00  0.00     0.059 A 
ATOM      2  C   UNL     1       3.562 -12.544   7.805  1.00  0.00     0.130 A 
ATOM      3  C   UNL     1       2.925 -12.165   6.615  1.00  0.00     0.093 A 
ATOM      4  C   UNL     1       1.534 -12.253   6.492  1.00  0.00     0.119 A 
ATOM      5  C   UNL     1       0.774 -12.720   7.565  1.00  0.00     0.047 A 
ATOM      6  C   UNL     1       1.397 -13.107   8.753  1.00  0.00     0.019 A 
ENDROOT
BRANCH   1   7
ATOM      7  C   UNL     1       3.412 -13.473  10.172  1.00  0.00     0.163 C 
ATOM      8  C   UNL     1       3.225 -14.853  10.726  1.00  0.00     0.093 C 
ATOM      9  O   UNL     1       4.119 -12.659  10.826  1.00  0.00    -0.294 OA
ENDBRANCH   1   7
BRANCH   2  10
ATOM     10  O   UNL     1       4.946 -12.408   7.910  1.00  0.00    -0.507 OA
ATOM     11  H   UNL     1       5.538 -13.184   8.180  1.00  0.00     0.293 HD
ENDBRANCH   2  10
BRANCH   4  12
ATOM     12  O   UNL     1       0.898 -11.875   5.311  1.00  0.00    -0.508 OA
ATOM     13  H   UNL     1      -0.066 -12.124   5.125  1.00  0.00     0.293 HD
ENDBRANCH   4  12
TORSDOF 3
ENDMDL
MODEL 7
REMARK VINA RESULT:    -3.485      2.404      3.061
REMARK INTER + INTRA:          -4.190
REMARK INTER:                  -3.885
REMARK INTRA:                  -0.306
REMARK UNBOUND:                -0.297
REMARK SMILES CC(=O)c1ccc(O)cc1O
REMARK SMILES IDX 4 1 10 2 9 3 7 4 6 5 5 6 2 7 1 8 3 9 11 10 8 12
REMARK H PARENT 11 11 8 13
REMARK Flexibility Score: inf
ROOT
ATOM      1  C   UNL     1       1.382 -13.655   8.537  1.00  0.00     0.059 A 
ATOM      2  C   UNL     1       2.478 -13.689   9.434  1.00  0.00     0.130 A 
ATOM      3  C   UNL     1       2.591 -14.737  10.360  1.00  0.00     0.093 A 
ATOM      4  C   UNL     1       1.638 -15.761  10.396  1.00  0.00     0.119 A 
ATOM      5  C   UNL     1       0.567 -15.741   9.502  1.00  0.00     0.047 A 
ATOM      6  C   UNL     1       0.440 -14.700   8.579  1.00  0.00     0.019 A 
ENDROOT
BRANCH   1   7
ATOM      7  C   UNL     1       1.195 -12.563   7.544  1.00  0.00     0.163 C 
ATOM      8  C   UNL     1      -0.122 -11.875   7.344  1.00  0.00     0.093 C 
ATOM      9  O   UNL     1       2.172 -12.196   6.838  1.00  0.00    -0.294 OA
ENDBRANCH   1   7
BRANCH   2  10
ATOM     10  O   UNL     1       3.464 -12.704   9.397  1.00  0.00    -0.507 OA
ATOM     11  H   UNL     1       4.450 -12.937   9.415  1.00  0.00     0.293 HD
ENDBRANCH   2  10
BRANCH   4  12
ATOM     12  O   UNL     1       1.749 -16.804  11.313  1.00  0.00    -0.508 OA
ATOM     13  H   UNL     1       2.639 -17.247  11.508  1.00  0.00     0.293 HD
ENDBRANCH   4  12
TORSDOF 3
ENDMDL
MODEL 8
REMARK VINA RESULT:    -3.469      1.857      4.503
REMARK INTER + INTRA:          -4.172
REMARK INTER:                  -3.867
REMARK INTRA:                  -0.306
REMARK UNBOUND:                -0.297
REMARK SMILES CC(=O)c1ccc(O)cc1O
REMARK SMILES IDX 4 1 10 2 9 3 7 4 6 5 5 6 2 7 1 8 3 9 11 10 8 12
REMARK H PARENT 11 11 8 13
REMARK Flexibility Score: inf
ROOT
ATOM      1  C   UNL     1       2.049 -15.274  10.425  1.00  0.00     0.059 A 
ATOM      2  C   UNL     1       2.450 -13.971  10.044  1.00  0.00     0.130 A 
ATOM      3  C   UNL     1       1.767 -13.301   9.019  1.00  0.00     0.093 A 
ATOM      4  C   UNL     1       0.678 -13.902   8.378  1.00  0.00     0.119 A 
ATOM      5  C   UNL     1       0.268 -15.178   8.763  1.00  0.00     0.047 A 
ATOM      6  C   UNL     1       0.945 -15.859   9.778  1.00  0.00     0.019 A 
ENDROOT
BRANCH   1   7
ATOM      7  C   UNL     1       2.743 -16.045  11.493  1.00  0.00     0.163 C 
ATOM      8  C   UNL     1       1.998 -16.806  12.548  1.00  0.00     0.093 C 
ATOM      9  O   UNL     1       4.003 -16.066  11.521  1.00  0.00    -0.294 OA
ENDBRANCH   1   7
BRANCH   2  10
ATOM     10  O   UNL     1       3.506 -13.330  10.691  1.00  0.00    -0.507 OA
ATOM     11  H   UNL     1       3.347 -12.649  11.425  1.00  0.00     0.293 HD
ENDBRANCH   2  10
BRANCH   4  12
ATOM     12  O   UNL     1      -0.003 -13.238   7.360  1.00  0.00    -0.508 OA
ATOM     13  H   UNL     1      -0.811 -13.649   6.908  1.00  0.00     0.293 HD
ENDBRANCH   4  12
TORSDOF 3
ENDMDL
MODEL 9
REMARK VINA RESULT:    -1.656      3.237      5.625
REMARK INTER + INTRA:          -2.147
REMARK INTER:                  -1.855
REMARK INTRA:                  -0.292
REMARK UNBOUND:                -0.297
REMARK SMILES CC(=O)c1ccc(O)cc1O
REMARK SMILES IDX 4 1 10 2 9 3 7 4 6 5 5 6 2 7 1 8 3 9 11 10 8 12
REMARK H PARENT 11 11 8 13
REMARK Flexibility Score: inf
ROOT
ATOM      1  C   UNL     1       2.826 -12.888   8.562  1.00  0.00     0.059 A 
ATOM      2  C   UNL     1       1.414 -12.994   8.568  1.00  0.00     0.130 A 
ATOM      3  C   UNL     1       0.682 -12.650   7.422  1.00  0.00     0.093 A 
ATOM      4  C   UNL     1       1.336 -12.216   6.263  1.00  0.00     0.119 A 
ATOM      5  C   UNL     1       2.728 -12.128   6.247  1.00  0.00     0.047 A 
ATOM      6  C   UNL     1       3.468 -12.462   7.384  1.00  0.00     0.019 A 
ENDROOT
BRANCH   1   7
ATOM      7  C   UNL     1       3.659 -13.220   9.749  1.00  0.00     0.163 C 
ATOM      8  C   UNL     1       4.729 -14.269   9.712  1.00  0.00     0.093 C 
ATOM      9  O   UNL     1       3.465 -12.605  10.832  1.00  0.00    -0.294 OA
ENDBRANCH   1   7
BRANCH   2  10
ATOM     10  O   UNL     1       0.737 -13.460   9.694  1.00  0.00    -0.507 OA
ATOM     11  H   UNL     1       0.396 -12.829  10.410  1.00  0.00     0.293 HD
ENDBRANCH   2  10
BRANCH   4  12
ATOM     12  O   UNL     1       0.611 -11.875   5.123  1.00  0.00    -0.508 OA
ATOM     13  H   UNL     1       0.943 -11.170   4.476  1.00  0.00     0.293 HD
ENDBRANCH   4  12
TORSDOF 3
ENDMDL
