MODEL 1
REMARK VINA RESULT:    -4.184      0.000      0.000
REMARK INTER + INTRA:          -6.495
REMARK INTER:                  -6.141
REMARK INTRA:                  -0.354
REMARK UNBOUND:                -0.354
REMARK SMILES O=C([O-])CCCCCCCC(=O)[O-]
REMARK SMILES IDX 7 1 6 2 5 3 4 4 2 5 1 6 3 7 8 8 9 9 10 10 11 11 12 12 13 13
REMARK H PARENT
REMARK Flexibility Score: inf
ROOT
ATOM      1  C   UNL     1      46.158  -3.967  83.875  1.00  0.00     0.000 C 
ENDROOT
BRANCH   1   2
ATOM      2  C   UNL     1      45.257  -5.165  83.538  1.00  0.00     0.000 C 
BRANCH   2   3
ATOM      3  C   UNL     1      44.007  -5.234  84.429  1.00  0.00     0.006 C 
BRANCH   3   4
ATOM      4  C   UNL     1      42.771  -5.740  83.674  1.00  0.00     0.053 C 
BRANCH   4   5
ATOM      5  C   UNL     1      42.460  -7.150  84.068  1.00  0.00     0.041 C 
ATOM      6  O   UNL     1      41.875  -7.918  83.260  1.00  0.00    -0.550 OA
ATOM      7  O   UNL     1      42.773  -7.600  85.343  1.00  0.00    -0.550 OA
ENDBRANCH   4   5
ENDBRANCH   3   4
ENDBRANCH   2   3
ENDBRANCH   1   2
BRANCH   1   8
ATOM      8  C   UNL     1      45.541  -3.116  84.996  1.00  0.00     0.000 C 
BRANCH   8   9
ATOM      9  C   UNL     1      46.346  -1.839  85.282  1.00  0.00     0.006 C 
BRANCH   9  10
ATOM     10  C   UNL     1      47.661  -1.780  84.494  1.00  0.00     0.053 C 
BRANCH  10  11
ATOM     11  C   UNL     1      47.617  -0.675  83.486  1.00  0.00     0.041 C 
ATOM     12  O   UNL     1      46.682   0.168  83.511  1.00  0.00    -0.550 OA
ATOM     13  O   UNL     1      48.635  -0.547  82.551  1.00  0.00    -0.550 OA
ENDBRANCH  10  11
ENDBRANCH   9  10
ENDBRANCH   8   9
ENDBRANCH   1   8
TORSDOF 8
ENDMDL
MODEL 2
REMARK VINA RESULT:    -4.042      1.289      7.152
REMARK INTER + INTRA:          -6.287
REMARK INTER:                  -5.986
REMARK INTRA:                  -0.301
REMARK UNBOUND:                -0.354
REMARK SMILES O=C([O-])CCCCCCCC(=O)[O-]
REMARK SMILES IDX 7 1 6 2 5 3 4 4 2 5 1 6 3 7 8 8 9 9 10 10 11 11 12 12 13 13
REMARK H PARENT
REMARK Flexibility Score: inf
ROOT
ATOM      1  C   UNL     1      45.915  -4.052  83.886  1.00  0.00     0.000 C 
ENDROOT
BRANCH   1   2
ATOM      2  C   UNL     1      45.316  -3.177  84.998  1.00  0.00     0.000 C 
BRANCH   2   3
ATOM      3  C   UNL     1      46.210  -1.978  85.353  1.00  0.00     0.006 C 
BRANCH   3   4
ATOM      4  C   UNL     1      47.554  -2.004  84.613  1.00  0.00     0.053 C 
BRANCH   4   5
ATOM      5  C   UNL     1      48.352  -0.781  84.939  1.00  0.00     0.041 C 
ATOM      6  O   UNL     1      48.337   0.210  84.162  1.00  0.00    -0.550 OA
ATOM      7  O   UNL     1      49.151  -0.753  86.074  1.00  0.00    -0.550 OA
ENDBRANCH   4   5
ENDBRANCH   3   4
ENDBRANCH   2   3
ENDBRANCH   1   2
BRANCH   1   8
ATOM      8  C   UNL     1      45.242  -5.433  83.856  1.00  0.00     0.000 C 
BRANCH   8   9
ATOM      9  C   UNL     1      43.720  -5.347  83.661  1.00  0.00     0.006 C 
BRANCH   9  10
ATOM     10  C   UNL     1      42.939  -5.961  84.829  1.00  0.00     0.053 C 
BRANCH  10  11
ATOM     11  C   UNL     1      42.319  -7.260  84.418  1.00  0.00     0.041 C 
ATOM     12  O   UNL     1      42.238  -7.565  83.199  1.00  0.00    -0.550 OA
ATOM     13  O   UNL     1      41.875  -8.154  85.383  1.00  0.00    -0.550 OA
ENDBRANCH  10  11
ENDBRANCH   9  10
ENDBRANCH   8   9
ENDBRANCH   1   8
TORSDOF 8
ENDMDL
MODEL 3
REMARK VINA RESULT:    -4.000      1.257      6.583
REMARK INTER + INTRA:          -6.224
REMARK INTER:                  -5.880
REMARK INTRA:                  -0.345
REMARK UNBOUND:                -0.354
REMARK SMILES O=C([O-])CCCCCCCC(=O)[O-]
REMARK SMILES IDX 7 1 6 2 5 3 4 4 2 5 1 6 3 7 8 8 9 9 10 10 11 11 12 12 13 13
REMARK H PARENT
REMARK Flexibility Score: inf
ROOT
ATOM      1  C   UNL     1      45.259  -3.120  85.146  1.00  0.00     0.000 C 
ENDROOT
BRANCH   1   2
ATOM      2  C   UNL     1      46.027  -1.843  85.523  1.00  0.00     0.000 C 
BRANCH   2   3
ATOM      3  C   UNL     1      47.382  -1.734  84.806  1.00  0.00     0.006 C 
BRANCH   3   4
ATOM      4  C   UNL     1      47.462  -2.622  83.557  1.00  0.00     0.053 C 
BRANCH   4   5
ATOM      5  C   UNL     1      47.814  -1.801  82.356  1.00  0.00     0.041 C 
ATOM      6  O   UNL     1      49.003  -1.761  81.943  1.00  0.00    -0.550 OA
ATOM      7  O   UNL     1      46.839  -1.043  81.722  1.00  0.00    -0.550 OA
ENDBRANCH   4   5
ENDBRANCH   3   4
ENDBRANCH   2   3
ENDBRANCH   1   2
BRANCH   1   8
ATOM      8  C   UNL     1      43.946  -3.221  85.937  1.00  0.00     0.000 C 
BRANCH   8   9
ATOM      9  C   UNL     1      43.060  -4.385  85.467  1.00  0.00     0.006 C 
BRANCH   9  10
ATOM     10  C   UNL     1      43.830  -5.414  84.630  1.00  0.00     0.053 C 
BRANCH  10  11
ATOM     11  C   UNL     1      43.099  -6.720  84.603  1.00  0.00     0.041 C 
ATOM     12  O   UNL     1      42.394  -7.031  83.608  1.00  0.00    -0.550 OA
ATOM     13  O   UNL     1      43.234  -7.614  85.658  1.00  0.00    -0.550 OA
ENDBRANCH  10  11
ENDBRANCH   9  10
ENDBRANCH   8   9
ENDBRANCH   1   8
TORSDOF 8
ENDMDL
MODEL 4
REMARK VINA RESULT:    -3.986      1.556      2.133
REMARK INTER + INTRA:          -6.204
REMARK INTER:                  -5.896
REMARK INTRA:                  -0.307
REMARK UNBOUND:                -0.354
REMARK SMILES O=C([O-])CCCCCCCC(=O)[O-]
REMARK SMILES IDX 7 1 6 2 5 3 4 4 2 5 1 6 3 7 8 8 9 9 10 10 11 11 12 12 13 13
REMARK H PARENT
REMARK Flexibility Score: inf
ROOT
ATOM      1  C   UNL     1      45.935  -3.580  84.385  1.00  0.00     0.000 C 
ENDROOT
BRANCH   1   2
ATOM      2  C   UNL     1      45.600  -4.618  83.304  1.00  0.00     0.000 C 
BRANCH   2   3
ATOM      3  C   UNL     1      44.846  -5.834  83.864  1.00  0.00     0.006 C 
BRANCH   3   4
ATOM      4  C   UNL     1      43.546  -5.445  84.579  1.00  0.00     0.053 C 
BRANCH   4   5
ATOM      5  C   UNL     1      42.602  -6.606  84.613  1.00  0.00     0.041 C 
ATOM      6  O   UNL     1      41.953  -6.863  85.660  1.00  0.00    -0.550 OA
ATOM      7  O   UNL     1      42.475  -7.432  83.504  1.00  0.00    -0.550 OA
ENDBRANCH   4   5
ENDBRANCH   3   4
ENDBRANCH   2   3
ENDBRANCH   1   2
BRANCH   1   8
ATOM      8  C   UNL     1      47.054  -2.638  83.912  1.00  0.00     0.000 C 
BRANCH   8   9
ATOM      9  C   UNL     1      47.376  -1.539  84.935  1.00  0.00     0.006 C 
BRANCH   9  10
ATOM     10  C   UNL     1      46.209  -1.262  85.892  1.00  0.00     0.053 C 
BRANCH  10  11
ATOM     11  C   UNL     1      45.540   0.030  85.541  1.00  0.00     0.041 C 
ATOM     12  O   UNL     1      44.289   0.079  85.407  1.00  0.00    -0.550 OA
ATOM     13  O   UNL     1      46.293   1.189  85.410  1.00  0.00    -0.550 OA
ENDBRANCH  10  11
ENDBRANCH   9  10
ENDBRANCH   8   9
ENDBRANCH   1   8
TORSDOF 8
ENDMDL
MODEL 5
REMARK VINA RESULT:    -3.887     12.190     13.935
REMARK INTER + INTRA:          -6.058
REMARK INTER:                  -5.763
REMARK INTRA:                  -0.296
REMARK UNBOUND:                -0.354
REMARK SMILES O=C([O-])CCCCCCCC(=O)[O-]
REMARK SMILES IDX 7 1 6 2 5 3 4 4 2 5 1 6 3 7 8 8 9 9 10 10 11 11 12 12 13 13
REMARK H PARENT
REMARK Flexibility Score: inf
ROOT
ATOM      1  C   UNL     1      52.619  -1.164  72.210  1.00  0.00     0.000 C 
ENDROOT
BRANCH   1   2
ATOM      2  C   UNL     1      52.444  -2.617  72.677  1.00  0.00     0.000 C 
BRANCH   2   3
ATOM      3  C   UNL     1      53.773  -3.388  72.724  1.00  0.00     0.006 C 
BRANCH   3   4
ATOM      4  C   UNL     1      53.758  -4.529  73.749  1.00  0.00     0.053 C 
BRANCH   4   5
ATOM      5  C   UNL     1      55.062  -5.263  73.731  1.00  0.00     0.041 C 
ATOM      6  O   UNL     1      56.145  -4.627  73.644  1.00  0.00    -0.550 OA
ATOM      7  O   UNL     1      55.078  -6.651  73.762  1.00  0.00    -0.550 OA
ENDBRANCH   4   5
ENDBRANCH   3   4
ENDBRANCH   2   3
ENDBRANCH   1   2
BRANCH   1   8
ATOM      8  C   UNL     1      51.264  -0.441  72.153  1.00  0.00     0.000 C 
BRANCH   8   9
ATOM      9  C   UNL     1      50.078  -1.412  72.060  1.00  0.00     0.006 C 
BRANCH   9  10
ATOM     10  C   UNL     1      48.731  -0.690  71.933  1.00  0.00     0.053 C 
BRANCH  10  11
ATOM     11  C   UNL     1      48.437   0.090  73.176  1.00  0.00     0.041 C 
ATOM     12  O   UNL     1      48.442  -0.480  74.298  1.00  0.00    -0.550 OA
ATOM     13  O   UNL     1      48.205   1.457  73.099  1.00  0.00    -0.550 OA
ENDBRANCH  10  11
ENDBRANCH   9  10
ENDBRANCH   8   9
ENDBRANCH   1   8
TORSDOF 8
ENDMDL
MODEL 6
REMARK VINA RESULT:    -3.834     10.559     12.717
REMARK INTER + INTRA:          -5.981
REMARK INTER:                  -5.233
REMARK INTRA:                  -0.748
REMARK UNBOUND:                -0.354
REMARK SMILES O=C([O-])CCCCCCCC(=O)[O-]
REMARK SMILES IDX 7 1 6 2 5 3 4 4 2 5 1 6 3 7 8 8 9 9 10 10 11 11 12 12 13 13
REMARK H PARENT
REMARK Flexibility Score: inf
ROOT
ATOM      1  C   UNL     1      48.833  -0.893  71.893  1.00  0.00     0.000 C 
ENDROOT
BRANCH   1   2
ATOM      2  C   UNL     1      48.259   0.139  72.875  1.00  0.00     0.000 C 
BRANCH   2   3
ATOM      3  C   UNL     1      49.047   0.205  74.192  1.00  0.00     0.006 C 
BRANCH   3   4
ATOM      4  C   UNL     1      48.419  -0.649  75.301  1.00  0.00     0.053 C 
BRANCH   4   5
ATOM      5  C   UNL     1      49.163  -1.938  75.451  1.00  0.00     0.041 C 
ATOM      6  O   UNL     1      48.735  -2.985  74.897  1.00  0.00    -0.550 OA
ATOM      7  O   UNL     1      50.303  -1.995  76.243  1.00  0.00    -0.550 OA
ENDBRANCH   4   5
ENDBRANCH   3   4
ENDBRANCH   2   3
ENDBRANCH   1   2
BRANCH   1   8
ATOM      8  C   UNL     1      50.368  -0.846  71.885  1.00  0.00     0.000 C 
BRANCH   8   9
ATOM      9  C   UNL     1      51.004  -2.197  72.247  1.00  0.00     0.006 C 
BRANCH   9  10
ATOM     10  C   UNL     1      52.240  -2.048  73.143  1.00  0.00     0.053 C 
BRANCH  10  11
ATOM     11  C   UNL     1      53.491  -2.125  72.325  1.00  0.00     0.041 C 
ATOM     12  O   UNL     1      54.155  -3.193  72.283  1.00  0.00    -0.550 OA
ATOM     13  O   UNL     1      53.896  -1.031  71.570  1.00  0.00    -0.550 OA
ENDBRANCH  10  11
ENDBRANCH   9  10
ENDBRANCH   8   9
ENDBRANCH   1   8
TORSDOF 8
ENDMDL
MODEL 7
REMARK VINA RESULT:    -3.803     11.475     13.607
REMARK INTER + INTRA:          -5.935
REMARK INTER:                  -5.519
REMARK INTRA:                  -0.416
REMARK UNBOUND:                -0.354
REMARK SMILES O=C([O-])CCCCCCCC(=O)[O-]
REMARK SMILES IDX 7 1 6 2 5 3 4 4 2 5 1 6 3 7 8 8 9 9 10 10 11 11 12 12 13 13
REMARK H PARENT
REMARK Flexibility Score: inf
ROOT
ATOM      1  C   UNL     1      51.310  -0.244  72.056  1.00  0.00     0.000 C 
ENDROOT
BRANCH   1   2
ATOM      2  C   UNL     1      50.211  -1.302  71.876  1.00  0.00     0.000 C 
BRANCH   2   3
ATOM      3  C   UNL     1      48.835  -0.813  72.355  1.00  0.00     0.006 C 
BRANCH   3   4
ATOM      4  C   UNL     1      48.755  -0.674  73.881  1.00  0.00     0.053 C 
BRANCH   4   5
ATOM      5  C   UNL     1      48.447   0.740  74.261  1.00  0.00     0.041 C 
ATOM      6  O   UNL     1      48.000   1.004  75.407  1.00  0.00    -0.550 OA
ATOM      7  O   UNL     1      48.608   1.760  73.332  1.00  0.00    -0.550 OA
ENDBRANCH   4   5
ENDBRANCH   3   4
ENDBRANCH   2   3
ENDBRANCH   1   2
BRANCH   1   8
ATOM      8  C   UNL     1      52.704  -0.890  72.013  1.00  0.00     0.000 C 
BRANCH   8   9
ATOM      9  C   UNL     1      52.742  -2.261  72.705  1.00  0.00     0.006 C 
BRANCH   9  10
ATOM     10  C   UNL     1      54.025  -3.044  72.396  1.00  0.00     0.053 C 
BRANCH  10  11
ATOM     11  C   UNL     1      54.279  -4.070  73.455  1.00  0.00     0.041 C 
ATOM     12  O   UNL     1      53.337  -4.471  74.188  1.00  0.00    -0.550 OA
ATOM     13  O   UNL     1      55.546  -4.620  73.600  1.00  0.00    -0.550 OA
ENDBRANCH  10  11
ENDBRANCH   9  10
ENDBRANCH   8   9
ENDBRANCH   1   8
TORSDOF 8
ENDMDL
MODEL 8
REMARK VINA RESULT:    -3.797     11.512     14.056
REMARK INTER + INTRA:          -5.927
REMARK INTER:                  -5.448
REMARK INTRA:                  -0.479
REMARK UNBOUND:                -0.354
REMARK SMILES O=C([O-])CCCCCCCC(=O)[O-]
REMARK SMILES IDX 7 1 6 2 5 3 4 4 2 5 1 6 3 7 8 8 9 9 10 10 11 11 12 12 13 13
REMARK H PARENT
REMARK Flexibility Score: inf
ROOT
ATOM      1  C   UNL     1      49.036  -1.430  73.538  1.00  0.00     0.000 C 
ENDROOT
BRANCH   1   2
ATOM      2  C   UNL     1      49.728  -1.361  72.168  1.00  0.00     0.000 C 
BRANCH   2   3
ATOM      3  C   UNL     1      51.183  -0.876  72.264  1.00  0.00     0.006 C 
BRANCH   3   4
ATOM      4  C   UNL     1      52.101  -1.893  72.955  1.00  0.00     0.053 C 
BRANCH   4   5
ATOM      5  C   UNL     1      53.433  -1.940  72.275  1.00  0.00     0.041 C 
ATOM      6  O   UNL     1      54.137  -2.982  72.335  1.00  0.00    -0.550 OA
ATOM      7  O   UNL     1      53.918  -0.817  71.617  1.00  0.00    -0.550 OA
ENDBRANCH   4   5
ENDBRANCH   3   4
ENDBRANCH   2   3
ENDBRANCH   1   2
BRANCH   1   8
ATOM      8  C   UNL     1      48.628  -2.873  73.873  1.00  0.00     0.000 C 
BRANCH   8   9
ATOM      9  C   UNL     1      48.392  -3.728  72.618  1.00  0.00     0.006 C 
BRANCH   9  10
ATOM     10  C   UNL     1      48.971  -5.142  72.749  1.00  0.00     0.053 C 
BRANCH  10  11
ATOM     11  C   UNL     1      47.892  -6.166  72.584  1.00  0.00     0.041 C 
ATOM     12  O   UNL     1      46.712  -5.905  72.937  1.00  0.00    -0.550 OA
ATOM     13  O   UNL     1      48.181  -7.390  71.995  1.00  0.00    -0.550 OA
ENDBRANCH  10  11
ENDBRANCH   9  10
ENDBRANCH   8   9
ENDBRANCH   1   8
TORSDOF 8
ENDMDL
MODEL 9
REMARK VINA RESULT:    -3.771     17.042     18.494
REMARK INTER + INTRA:          -5.889
REMARK INTER:                  -5.548
REMARK INTRA:                  -0.341
REMARK UNBOUND:                -0.354
REMARK SMILES O=C([O-])CCCCCCCC(=O)[O-]
REMARK SMILES IDX 7 1 6 2 5 3 4 4 2 5 1 6 3 7 8 8 9 9 10 10 11 11 12 12 13 13
REMARK H PARENT
REMARK Flexibility Score: inf
ROOT
ATOM      1  C   UNL     1      60.344  -9.424  73.030  1.00  0.00     0.000 C 
ENDROOT
BRANCH   1   2
ATOM      2  C   UNL     1      61.792  -9.191  73.490  1.00  0.00     0.000 C 
BRANCH   2   3
ATOM      3  C   UNL     1      62.125  -9.932  74.794  1.00  0.00     0.006 C 
BRANCH   3   4
ATOM      4  C   UNL     1      61.044 -10.946  75.191  1.00  0.00     0.053 C 
BRANCH   4   5
ATOM      5  C   UNL     1      61.289 -11.456  76.576  1.00  0.00     0.041 C 
ATOM      6  O   UNL     1      61.521 -10.650  77.515  1.00  0.00    -0.550 OA
ATOM      7  O   UNL     1      61.312 -12.823  76.819  1.00  0.00    -0.550 OA
ENDBRANCH   4   5
ENDBRANCH   3   4
ENDBRANCH   2   3
ENDBRANCH   1   2
BRANCH   1   8
ATOM      8  C   UNL     1      59.506  -8.147  73.194  1.00  0.00     0.000 C 
BRANCH   8   9
ATOM      9  C   UNL     1      58.064  -8.437  73.638  1.00  0.00     0.006 C 
BRANCH   9  10
ATOM     10  C   UNL     1      57.332  -7.181  74.128  1.00  0.00     0.053 C 
BRANCH  10  11
ATOM     11  C   UNL     1      56.000  -7.058  73.456  1.00  0.00     0.041 C 
ATOM     12  O   UNL     1      55.296  -6.030  73.632  1.00  0.00    -0.550 OA
ATOM     13  O   UNL     1      55.560  -8.056  72.598  1.00  0.00    -0.550 OA
ENDBRANCH  10  11
ENDBRANCH   9  10
ENDBRANCH   8   9
ENDBRANCH   1   8
TORSDOF 8
ENDMDL
