MODEL 1
REMARK VINA RESULT:    -3.247      0.000      0.000
REMARK INTER + INTRA:          -5.338
REMARK INTER:                  -4.765
REMARK INTRA:                  -0.573
REMARK UNBOUND:                -0.573
REMARK SMILES CCCCCCCCCC=O
REMARK SMILES IDX 6 1 5 2 4 3 3 4 2 5 1 6 7 7 8 8 9 9 10 10 11 11
REMARK H PARENT
REMARK Flexibility Score: inf
ROOT
ATOM      1  C   UNL     1     134.613 135.394 128.626  1.00  0.00     0.000 C 
ENDROOT
BRANCH   1   2
ATOM      2  C   UNL     1     135.111 134.644 129.874  1.00  0.00     0.000 C 
BRANCH   2   3
ATOM      3  C   UNL     1     136.461 135.193 130.381  1.00  0.00    -0.000 C 
BRANCH   3   4
ATOM      4  C   UNL     1     137.530 135.312 129.280  1.00  0.00    -0.000 C 
BRANCH   4   5
ATOM      5  C   UNL     1     138.252 133.987 129.003  1.00  0.00    -0.003 C 
ATOM      6  C   UNL     1     139.498 134.208 128.149  1.00  0.00     0.004 C 
ENDBRANCH   4   5
ENDBRANCH   3   4
ENDBRANCH   2   3
ENDBRANCH   1   2
BRANCH   1   7
ATOM      7  C   UNL     1     134.103 136.806 128.952  1.00  0.00     0.000 C 
BRANCH   7   8
ATOM      8  C   UNL     1     135.001 137.907 128.357  1.00  0.00     0.008 C 
BRANCH   8   9
ATOM      9  C   UNL     1     135.541 138.855 129.436  1.00  0.00     0.072 C 
BRANCH   9  10
ATOM     10  C   UNL     1     135.021 140.255 129.279  1.00  0.00     0.224 C 
ATOM     11  O   UNL     1     135.393 140.940 128.340  1.00  0.00    -0.303 OA
ENDBRANCH   9  10
ENDBRANCH   8   9
ENDBRANCH   7   8
ENDBRANCH   1   7
TORSDOF 8
ENDMDL
MODEL 2
REMARK VINA RESULT:    -3.231      2.677      4.600
REMARK INTER + INTRA:          -5.316
REMARK INTER:                  -4.313
REMARK INTRA:                  -1.003
REMARK UNBOUND:                -0.573
REMARK SMILES CCCCCCCCCC=O
REMARK SMILES IDX 6 1 5 2 4 3 3 4 2 5 1 6 7 7 8 8 9 9 10 10 11 11
REMARK H PARENT
REMARK Flexibility Score: inf
ROOT
ATOM      1  C   UNL     1     136.961 134.815 129.369  1.00  0.00     0.000 C 
ENDROOT
BRANCH   1   2
ATOM      2  C   UNL     1     135.480 134.965 129.760  1.00  0.00     0.000 C 
BRANCH   2   3
ATOM      3  C   UNL     1     134.622 135.495 128.592  1.00  0.00    -0.000 C 
BRANCH   3   4
ATOM      4  C   UNL     1     133.960 136.853 128.882  1.00  0.00    -0.000 C 
BRANCH   4   5
ATOM      5  C   UNL     1     134.877 137.813 129.652  1.00  0.00    -0.003 C 
ATOM      6  C   UNL     1     135.377 138.938 128.750  1.00  0.00     0.004 C 
ENDBRANCH   4   5
ENDBRANCH   3   4
ENDBRANCH   2   3
ENDBRANCH   1   2
BRANCH   1   7
ATOM      7  C   UNL     1     137.244 135.299 127.938  1.00  0.00     0.000 C 
BRANCH   7   8
ATOM      8  C   UNL     1     138.175 136.525 127.906  1.00  0.00     0.008 C 
BRANCH   8   9
ATOM      9  C   UNL     1     138.718 136.872 129.298  1.00  0.00     0.072 C 
BRANCH   9  10
ATOM     10  C   UNL     1     140.191 136.608 129.420  1.00  0.00     0.224 C 
ATOM     11  O   UNL     1     140.586 135.495 129.727  1.00  0.00    -0.303 OA
ENDBRANCH   9  10
ENDBRANCH   8   9
ENDBRANCH   7   8
ENDBRANCH   1   7
TORSDOF 8
ENDMDL
MODEL 3
REMARK VINA RESULT:    -3.210      2.600      4.945
REMARK INTER + INTRA:          -5.285
REMARK INTER:                  -4.355
REMARK INTRA:                  -0.930
REMARK UNBOUND:                -0.573
REMARK SMILES CCCCCCCCCC=O
REMARK SMILES IDX 6 1 5 2 4 3 3 4 2 5 1 6 7 7 8 8 9 9 10 10 11 11
REMARK H PARENT
REMARK Flexibility Score: inf
ROOT
ATOM      1  C   UNL     1     134.748 138.293 129.441  1.00  0.00     0.000 C 
ENDROOT
BRANCH   1   2
ATOM      2  C   UNL     1     134.783 139.802 129.741  1.00  0.00     0.000 C 
BRANCH   2   3
ATOM      3  C   UNL     1     135.509 140.597 128.636  1.00  0.00    -0.000 C 
BRANCH   3   4
ATOM      4  C   UNL     1     136.835 141.226 129.100  1.00  0.00    -0.000 C 
BRANCH   4   5
ATOM      5  C   UNL     1     138.012 140.242 129.052  1.00  0.00    -0.003 C 
ATOM      6  C   UNL     1     138.408 139.791 130.455  1.00  0.00     0.004 C 
ENDBRANCH   4   5
ENDBRANCH   3   4
ENDBRANCH   2   3
ENDBRANCH   1   2
BRANCH   1   7
ATOM      7  C   UNL     1     135.281 137.960 128.039  1.00  0.00     0.000 C 
BRANCH   7   8
ATOM      8  C   UNL     1     136.160 136.695 128.030  1.00  0.00     0.008 C 
BRANCH   8   9
ATOM      9  C   UNL     1     136.671 136.339 129.432  1.00  0.00     0.072 C 
BRANCH   9  10
ATOM     10  C   UNL     1     136.340 134.927 129.820  1.00  0.00     0.224 C 
ATOM     11  O   UNL     1     135.193 134.524 129.726  1.00  0.00    -0.303 OA
ENDBRANCH   9  10
ENDBRANCH   8   9
ENDBRANCH   7   8
ENDBRANCH   1   7
TORSDOF 8
ENDMDL
MODEL 4
REMARK VINA RESULT:    -3.184      2.003      2.952
REMARK INTER + INTRA:          -5.247
REMARK INTER:                  -4.276
REMARK INTRA:                  -0.971
REMARK UNBOUND:                -0.573
REMARK SMILES CCCCCCCCCC=O
REMARK SMILES IDX 6 1 5 2 4 3 3 4 2 5 1 6 7 7 8 8 9 9 10 10 11 11
REMARK H PARENT
REMARK Flexibility Score: inf
ROOT
ATOM      1  C   UNL     1     137.149 134.694 129.167  1.00  0.00     0.000 C 
ENDROOT
BRANCH   1   2
ATOM      2  C   UNL     1     138.383 133.811 128.910  1.00  0.00     0.000 C 
BRANCH   2   3
ATOM      3  C   UNL     1     139.609 134.639 128.473  1.00  0.00    -0.000 C 
BRANCH   3   4
ATOM      4  C   UNL     1     140.459 135.150 129.651  1.00  0.00    -0.000 C 
BRANCH   4   5
ATOM      5  C   UNL     1     140.244 136.642 129.940  1.00  0.00    -0.003 C 
ATOM      6  C   UNL     1     140.263 137.460 128.652  1.00  0.00     0.004 C 
ENDBRANCH   4   5
ENDBRANCH   3   4
ENDBRANCH   2   3
ENDBRANCH   1   2
BRANCH   1   7
ATOM      7  C   UNL     1     136.732 135.497 127.925  1.00  0.00     0.000 C 
BRANCH   7   8
ATOM      8  C   UNL     1     136.648 137.009 128.204  1.00  0.00     0.008 C 
BRANCH   8   9
ATOM      9  C   UNL     1     136.554 137.313 129.705  1.00  0.00     0.072 C 
BRANCH   9  10
ATOM     10  C   UNL     1     135.192 137.801 130.106  1.00  0.00     0.224 C 
ATOM     11  O   UNL     1     134.635 138.662 129.445  1.00  0.00    -0.303 OA
ENDBRANCH   9  10
ENDBRANCH   8   9
ENDBRANCH   7   8
ENDBRANCH   1   7
TORSDOF 8
ENDMDL
MODEL 5
REMARK VINA RESULT:    -3.176      2.690      4.845
REMARK INTER + INTRA:          -5.234
REMARK INTER:                  -4.271
REMARK INTRA:                  -0.963
REMARK UNBOUND:                -0.573
REMARK SMILES CCCCCCCCCC=O
REMARK SMILES IDX 6 1 5 2 4 3 3 4 2 5 1 6 7 7 8 8 9 9 10 10 11 11
REMARK H PARENT
REMARK Flexibility Score: inf
ROOT
ATOM      1  C   UNL     1     134.768 139.896 129.814  1.00  0.00     0.000 C 
ENDROOT
BRANCH   1   2
ATOM      2  C   UNL     1     135.452 140.591 128.623  1.00  0.00     0.000 C 
BRANCH   2   3
ATOM      3  C   UNL     1     136.801 141.227 129.019  1.00  0.00    -0.000 C 
BRANCH   3   4
ATOM      4  C   UNL     1     137.987 140.249 128.950  1.00  0.00    -0.000 C 
BRANCH   4   5
ATOM      5  C   UNL     1     138.608 139.965 130.324  1.00  0.00    -0.003 C 
ATOM      6  C   UNL     1     138.491 138.486 130.685  1.00  0.00     0.004 C 
ENDBRANCH   4   5
ENDBRANCH   3   4
ENDBRANCH   2   3
ENDBRANCH   1   2
BRANCH   1   7
ATOM      7  C   UNL     1     134.862 138.364 129.735  1.00  0.00     0.000 C 
BRANCH   7   8
ATOM      8  C   UNL     1     135.149 137.866 128.306  1.00  0.00     0.008 C 
BRANCH   8   9
ATOM      9  C   UNL     1     136.216 136.763 128.284  1.00  0.00     0.072 C 
BRANCH   9  10
ATOM     10  C   UNL     1     135.684 135.445 128.767  1.00  0.00     0.224 C 
ATOM     11  O   UNL     1     136.238 134.866 129.687  1.00  0.00    -0.303 OA
ENDBRANCH   9  10
ENDBRANCH   8   9
ENDBRANCH   7   8
ENDBRANCH   1   7
TORSDOF 8
ENDMDL
MODEL 6
REMARK VINA RESULT:    -3.158      3.904      5.641
REMARK INTER + INTRA:          -5.209
REMARK INTER:                  -4.329
REMARK INTRA:                  -0.880
REMARK UNBOUND:                -0.573
REMARK SMILES CCCCCCCCCC=O
REMARK SMILES IDX 6 1 5 2 4 3 3 4 2 5 1 6 7 7 8 8 9 9 10 10 11 11
REMARK H PARENT
REMARK Flexibility Score: inf
ROOT
ATOM      1  C   UNL     1     136.889 140.970 128.988  1.00  0.00     0.000 C 
ENDROOT
BRANCH   1   2
ATOM      2  C   UNL     1     135.425 140.649 128.636  1.00  0.00     0.000 C 
BRANCH   2   3
ATOM      3  C   UNL     1     134.654 140.065 129.838  1.00  0.00    -0.000 C 
BRANCH   3   4
ATOM      4  C   UNL     1     135.312 140.364 131.197  1.00  0.00    -0.000 C 
BRANCH   4   5
ATOM      5  C   UNL     1     135.616 139.096 132.005  1.00  0.00    -0.003 C 
ATOM      6  C   UNL     1     135.851 137.901 131.086  1.00  0.00     0.004 C 
ENDBRANCH   4   5
ENDBRANCH   3   4
ENDBRANCH   2   3
ENDBRANCH   1   2
BRANCH   1   7
ATOM      7  C   UNL     1     137.876 139.968 128.371  1.00  0.00     0.000 C 
BRANCH   7   8
ATOM      8  C   UNL     1     139.217 139.923 129.128  1.00  0.00     0.008 C 
BRANCH   8   9
ATOM      9  C   UNL     1     139.021 139.969 130.649  1.00  0.00     0.072 C 
BRANCH   9  10
ATOM     10  C   UNL     1     140.315 139.830 131.397  1.00  0.00     0.224 C 
ATOM     11  O   UNL     1     140.792 140.795 131.973  1.00  0.00    -0.303 OA
ENDBRANCH   9  10
ENDBRANCH   8   9
ENDBRANCH   7   8
ENDBRANCH   1   7
TORSDOF 8
ENDMDL
MODEL 7
REMARK VINA RESULT:    -3.143      2.802      4.752
REMARK INTER + INTRA:          -5.186
REMARK INTER:                  -4.524
REMARK INTRA:                  -0.662
REMARK UNBOUND:                -0.573
REMARK SMILES CCCCCCCCCC=O
REMARK SMILES IDX 6 1 5 2 4 3 3 4 2 5 1 6 7 7 8 8 9 9 10 10 11 11
REMARK H PARENT
REMARK Flexibility Score: inf
ROOT
ATOM      1  C   UNL     1     139.097 134.693 130.152  1.00  0.00     0.000 C 
ENDROOT
BRANCH   1   2
ATOM      2  C   UNL     1     138.445 134.032 128.924  1.00  0.00     0.000 C 
BRANCH   2   3
ATOM      3  C   UNL     1     137.470 134.984 128.201  1.00  0.00    -0.000 C 
BRANCH   3   4
ATOM      4  C   UNL     1     136.519 135.731 129.153  1.00  0.00    -0.000 C 
BRANCH   4   5
ATOM      5  C   UNL     1     135.261 134.922 129.498  1.00  0.00    -0.003 C 
ATOM      6  C   UNL     1     135.031 134.880 131.006  1.00  0.00     0.004 C 
ENDBRANCH   4   5
ENDBRANCH   3   4
ENDBRANCH   2   3
ENDBRANCH   1   2
BRANCH   1   7
ATOM      7  C   UNL     1     140.409 135.414 129.804  1.00  0.00     0.000 C 
BRANCH   7   8
ATOM      8  C   UNL     1     140.259 136.946 129.821  1.00  0.00     0.008 C 
BRANCH   8   9
ATOM      9  C   UNL     1     140.238 137.538 128.405  1.00  0.00     0.072 C 
BRANCH   9  10
ATOM     10  C   UNL     1     141.100 138.762 128.284  1.00  0.00     0.224 C 
ATOM     11  O   UNL     1     140.681 139.841 128.668  1.00  0.00    -0.303 OA
ENDBRANCH   9  10
ENDBRANCH   8   9
ENDBRANCH   7   8
ENDBRANCH   1   7
TORSDOF 8
ENDMDL
MODEL 8
REMARK VINA RESULT:    -3.121      1.986      2.548
REMARK INTER + INTRA:          -5.154
REMARK INTER:                  -4.219
REMARK INTRA:                  -0.935
REMARK UNBOUND:                -0.573
REMARK SMILES CCCCCCCCCC=O
REMARK SMILES IDX 6 1 5 2 4 3 3 4 2 5 1 6 7 7 8 8 9 9 10 10 11 11
REMARK H PARENT
REMARK Flexibility Score: inf
ROOT
ATOM      1  C   UNL     1     133.991 136.818 128.956  1.00  0.00     0.000 C 
ENDROOT
BRANCH   1   2
ATOM      2  C   UNL     1     134.576 135.438 128.607  1.00  0.00     0.000 C 
BRANCH   2   3
ATOM      3  C   UNL     1     135.497 134.899 129.722  1.00  0.00    -0.000 C 
BRANCH   3   4
ATOM      4  C   UNL     1     134.893 135.022 131.132  1.00  0.00    -0.000 C 
BRANCH   4   5
ATOM      5  C   UNL     1     135.885 135.583 132.160  1.00  0.00    -0.003 C 
ATOM      6  C   UNL     1     137.270 135.763 131.546  1.00  0.00     0.004 C 
ENDBRANCH   4   5
ENDBRANCH   3   4
ENDBRANCH   2   3
ENDBRANCH   1   2
BRANCH   1   7
ATOM      7  C   UNL     1     135.038 137.939 128.873  1.00  0.00     0.000 C 
BRANCH   7   8
ATOM      8  C   UNL     1     135.083 138.796 130.151  1.00  0.00     0.008 C 
BRANCH   8   9
ATOM      9  C   UNL     1     136.503 139.285 130.466  1.00  0.00     0.072 C 
BRANCH   9  10
ATOM     10  C   UNL     1     136.840 140.562 129.751  1.00  0.00     0.224 C 
ATOM     11  O   UNL     1     137.636 140.549 128.827  1.00  0.00    -0.303 OA
ENDBRANCH   9  10
ENDBRANCH   8   9
ENDBRANCH   7   8
ENDBRANCH   1   7
TORSDOF 8
ENDMDL
MODEL 9
REMARK VINA RESULT:    -3.102      3.289      4.597
REMARK INTER + INTRA:          -5.125
REMARK INTER:                  -4.165
REMARK INTRA:                  -0.960
REMARK UNBOUND:                -0.573
REMARK SMILES CCCCCCCCCC=O
REMARK SMILES IDX 6 1 5 2 4 3 3 4 2 5 1 6 7 7 8 8 9 9 10 10 11 11
REMARK H PARENT
REMARK Flexibility Score: inf
ROOT
ATOM      1  C   UNL     1     140.392 139.532 128.518  1.00  0.00     0.000 C 
ENDROOT
BRANCH   1   2
ATOM      2  C   UNL     1     140.908 138.129 128.884  1.00  0.00     0.000 C 
BRANCH   2   3
ATOM      3  C   UNL     1     139.916 137.021 128.473  1.00  0.00    -0.000 C 
BRANCH   3   4
ATOM      4  C   UNL     1     139.005 136.553 129.622  1.00  0.00    -0.000 C 
BRANCH   4   5
ATOM      5  C   UNL     1     139.719 136.535 130.981  1.00  0.00    -0.003 C 
ATOM      6  C   UNL     1     138.961 137.367 132.011  1.00  0.00     0.004 C 
ENDBRANCH   4   5
ENDBRANCH   3   4
ENDBRANCH   2   3
ENDBRANCH   1   2
BRANCH   1   7
ATOM      7  C   UNL     1     139.786 140.270 129.722  1.00  0.00     0.000 C 
BRANCH   7   8
ATOM      8  C   UNL     1     138.247 140.266 129.698  1.00  0.00     0.008 C 
BRANCH   8   9
ATOM      9  C   UNL     1     137.693 140.175 128.270  1.00  0.00     0.072 C 
BRANCH   9  10
ATOM     10  C   UNL     1     136.449 140.996 128.086  1.00  0.00     0.224 C 
ATOM     11  O   UNL     1     135.392 140.616 128.561  1.00  0.00    -0.303 OA
ENDBRANCH   9  10
ENDBRANCH   8   9
ENDBRANCH   7   8
ENDBRANCH   1   7
TORSDOF 8
ENDMDL
