MODEL 1
REMARK VINA RESULT:    -5.809      0.000      0.000
REMARK INTER + INTRA:          -7.380
REMARK INTER:                  -6.998
REMARK INTRA:                  -0.382
REMARK UNBOUND:                -0.382
REMARK SMILES O=c1ccn([C@H]2O[C@@H](CO)[C@@H](O)[C@H]2O)c(=O)[nH]1
REMARK SMILES IDX 6 1 13 2 11 3 8 4 7 5 5 6 3 7 4 8 2 9 17 10 1 11 15 12 16 14
REMARK SMILES IDX 14 15 12 17 9 19 10 20
REMARK H PARENT 17 13 14 16 12 18 10 21
REMARK Flexibility Score: inf
ROOT
ATOM      1  C   UNL     1      27.997   4.797 -15.327  1.00  0.00     0.255 C 
ATOM      2  C   UNL     1      28.135   6.268 -14.892  1.00  0.00     0.196 C 
ATOM      3  C   UNL     1      27.517   7.045 -16.048  1.00  0.00     0.179 C 
ATOM      4  C   UNL     1      27.375   5.977 -17.140  1.00  0.00     0.178 C 
ATOM      5  O   UNL     1      27.216   4.734 -16.502  1.00  0.00    -0.347 OA
ENDROOT
BRANCH   1   6
ATOM      6  N   UNL     1      27.430   3.939 -14.262  1.00  0.00    -0.271 N 
ATOM      7  C   UNL     1      25.484   2.961 -13.253  1.00  0.00     0.090 A 
ATOM      8  C   UNL     1      26.072   3.777 -14.215  1.00  0.00     0.099 A 
ATOM      9  C   UNL     1      26.305   2.302 -12.346  1.00  0.00     0.253 A 
ATOM     10  N   UNL     1      27.653   2.459 -12.417  1.00  0.00    -0.274 N 
ATOM     11  O   UNL     1      25.800   1.558 -11.463  1.00  0.00    -0.269 OA
ATOM     12  C   UNL     1      28.220   3.258 -13.363  1.00  0.00     0.330 A 
ATOM     13  H   UNL     1      28.265   1.954 -11.737  1.00  0.00     0.175 HD
ATOM     14  O   UNL     1      29.476   3.359 -13.404  1.00  0.00    -0.248 OA
ENDBRANCH   1   6
BRANCH   2  15
ATOM     15  O   UNL     1      27.484   6.523 -13.671  1.00  0.00    -0.386 OA
ATOM     16  H   UNL     1      28.174   6.883 -13.054  1.00  0.00     0.211 HD
ENDBRANCH   2  15
BRANCH   3  17
ATOM     17  O   UNL     1      26.287   7.640 -15.702  1.00  0.00    -0.387 OA
ATOM     18  H   UNL     1      26.411   8.137 -14.852  1.00  0.00     0.211 HD
ENDBRANCH   3  17
BRANCH   4  19
ATOM     19  C   UNL     1      26.219   6.219 -18.125  1.00  0.00     0.191 C 
BRANCH  19  20
ATOM     20  O   UNL     1      24.980   6.087 -17.481  1.00  0.00    -0.394 OA
ATOM     21  H   UNL     1      24.811   5.113 -17.389  1.00  0.00     0.210 HD
ENDBRANCH  19  20
ENDBRANCH   4  19
TORSDOF 5
ENDMDL
MODEL 2
REMARK VINA RESULT:    -5.682      2.425      5.090
REMARK INTER + INTRA:          -7.226
REMARK INTER:                  -6.844
REMARK INTRA:                  -0.382
REMARK UNBOUND:                -0.382
REMARK SMILES O=c1ccn([C@H]2O[C@@H](CO)[C@@H](O)[C@H]2O)c(=O)[nH]1
REMARK SMILES IDX 6 1 13 2 11 3 8 4 7 5 5 6 3 7 4 8 2 9 17 10 1 11 15 12 16 14
REMARK SMILES IDX 14 15 12 17 9 19 10 20
REMARK H PARENT 17 13 14 16 12 18 10 21
REMARK Flexibility Score: inf
ROOT
ATOM      1  C   UNL     1      27.836   3.737 -13.618  1.00  0.00     0.255 C 
ATOM      2  C   UNL     1      26.449   4.088 -14.186  1.00  0.00     0.196 C 
ATOM      3  C   UNL     1      25.508   3.145 -13.446  1.00  0.00     0.179 C 
ATOM      4  C   UNL     1      26.471   2.159 -12.773  1.00  0.00     0.178 C 
ATOM      5  O   UNL     1      27.680   2.838 -12.540  1.00  0.00    -0.347 OA
ENDROOT
BRANCH   1   6
ATOM      6  N   UNL     1      28.604   4.935 -13.208  1.00  0.00    -0.271 N 
ATOM      7  C   UNL     1      29.239   6.446 -11.454  1.00  0.00     0.090 A 
ATOM      8  C   UNL     1      28.520   5.342 -11.904  1.00  0.00     0.099 A 
ATOM      9  C   UNL     1      30.056   7.121 -12.354  1.00  0.00     0.253 A 
ATOM     10  N   UNL     1      30.142   6.693 -13.640  1.00  0.00    -0.274 N 
ATOM     11  O   UNL     1      30.717   8.124 -11.975  1.00  0.00    -0.269 OA
ATOM     12  C   UNL     1      29.436   5.611 -14.071  1.00  0.00     0.330 A 
ATOM     13  H   UNL     1      30.765   7.200 -14.309  1.00  0.00     0.175 HD
ATOM     14  O   UNL     1      29.562   5.237 -15.269  1.00  0.00    -0.248 OA
ENDBRANCH   1   6
BRANCH   2  15
ATOM     15  O   UNL     1      26.118   5.440 -13.981  1.00  0.00    -0.386 OA
ATOM     16  H   UNL     1      25.998   5.554 -13.002  1.00  0.00     0.211 HD
ENDBRANCH   2  15
BRANCH   3  17
ATOM     17  O   UNL     1      24.684   3.820 -12.523  1.00  0.00    -0.387 OA
ATOM     18  H   UNL     1      23.839   3.308 -12.428  1.00  0.00     0.211 HD
ENDBRANCH   3  17
BRANCH   4  19
ATOM     19  C   UNL     1      25.948   1.545 -11.465  1.00  0.00     0.191 C 
BRANCH  19  20
ATOM     20  O   UNL     1      24.655   1.030 -11.638  1.00  0.00    -0.394 OA
ATOM     21  H   UNL     1      24.074   1.798 -11.880  1.00  0.00     0.210 HD
ENDBRANCH  19  20
ENDBRANCH   4  19
TORSDOF 5
ENDMDL
MODEL 3
REMARK VINA RESULT:    -5.548      1.932      2.741
REMARK INTER + INTRA:          -7.065
REMARK INTER:                  -6.753
REMARK INTRA:                  -0.311
REMARK UNBOUND:                -0.382
REMARK SMILES O=c1ccn([C@H]2O[C@@H](CO)[C@@H](O)[C@H]2O)c(=O)[nH]1
REMARK SMILES IDX 6 1 13 2 11 3 8 4 7 5 5 6 3 7 4 8 2 9 17 10 1 11 15 12 16 14
REMARK SMILES IDX 14 15 12 17 9 19 10 20
REMARK H PARENT 17 13 14 16 12 18 10 21
REMARK Flexibility Score: inf
ROOT
ATOM      1  C   UNL     1      26.179   4.117 -13.988  1.00  0.00     0.255 C 
ATOM      2  C   UNL     1      26.986   3.922 -15.284  1.00  0.00     0.196 C 
ATOM      3  C   UNL     1      27.131   5.337 -15.833  1.00  0.00     0.179 C 
ATOM      4  C   UNL     1      26.146   6.140 -14.974  1.00  0.00     0.178 C 
ATOM      5  O   UNL     1      26.049   5.498 -13.727  1.00  0.00    -0.347 OA
ENDROOT
BRANCH   1   6
ATOM      6  N   UNL     1      26.777   3.408 -12.833  1.00  0.00    -0.271 N 
ATOM      7  C   UNL     1      26.758   1.495 -11.384  1.00  0.00     0.090 A 
ATOM      8  C   UNL     1      26.223   2.219 -12.446  1.00  0.00     0.099 A 
ATOM      9  C   UNL     1      27.877   2.000 -10.730  1.00  0.00     0.253 A 
ATOM     10  N   UNL     1      28.425   3.173 -11.139  1.00  0.00    -0.274 N 
ATOM     11  O   UNL     1      28.382   1.367  -9.765  1.00  0.00    -0.269 OA
ATOM     12  C   UNL     1      27.896   3.874 -12.180  1.00  0.00     0.330 A 
ATOM     13  H   UNL     1      29.272   3.542 -10.648  1.00  0.00     0.175 HD
ATOM     14  O   UNL     1      28.450   4.949 -12.538  1.00  0.00    -0.248 OA
ENDBRANCH   1   6
BRANCH   2  15
ATOM     15  O   UNL     1      28.231   3.313 -15.048  1.00  0.00    -0.386 OA
ATOM     16  H   UNL     1      28.870   4.046 -14.851  1.00  0.00     0.211 HD
ENDBRANCH   2  15
BRANCH   3  17
ATOM     17  O   UNL     1      28.453   5.817 -15.742  1.00  0.00    -0.387 OA
ATOM     18  H   UNL     1      29.062   5.118 -16.098  1.00  0.00     0.211 HD
ENDBRANCH   3  17
BRANCH   4  19
ATOM     19  C   UNL     1      26.521   7.618 -14.783  1.00  0.00     0.191 C 
BRANCH  19  20
ATOM     20  O   UNL     1      27.466   7.763 -13.757  1.00  0.00    -0.394 OA
ATOM     21  H   UNL     1      28.245   8.234 -14.153  1.00  0.00     0.210 HD
ENDBRANCH  19  20
ENDBRANCH   4  19
TORSDOF 5
ENDMDL
MODEL 4
REMARK VINA RESULT:    -5.506      2.333      4.031
REMARK INTER + INTRA:          -7.014
REMARK INTER:                  -6.644
REMARK INTRA:                  -0.370
REMARK UNBOUND:                -0.382
REMARK SMILES O=c1ccn([C@H]2O[C@@H](CO)[C@@H](O)[C@H]2O)c(=O)[nH]1
REMARK SMILES IDX 6 1 13 2 11 3 8 4 7 5 5 6 3 7 4 8 2 9 17 10 1 11 15 12 16 14
REMARK SMILES IDX 14 15 12 17 9 19 10 20
REMARK H PARENT 17 13 14 16 12 18 10 21
REMARK Flexibility Score: inf
ROOT
ATOM      1  C   UNL     1      27.550   6.243 -12.944  1.00  0.00     0.255 C 
ATOM      2  C   UNL     1      28.109   6.433 -14.366  1.00  0.00     0.196 C 
ATOM      3  C   UNL     1      29.324   7.329 -14.157  1.00  0.00     0.179 C 
ATOM      4  C   UNL     1      29.156   7.802 -12.708  1.00  0.00     0.178 C 
ATOM      5  O   UNL     1      28.452   6.802 -12.013  1.00  0.00    -0.347 OA
ENDROOT
BRANCH   1   6
ATOM      6  N   UNL     1      27.267   4.824 -12.628  1.00  0.00    -0.271 N 
ATOM      7  C   UNL     1      27.833   2.867 -11.358  1.00  0.00     0.090 A 
ATOM      8  C   UNL     1      28.066   4.193 -11.714  1.00  0.00     0.099 A 
ATOM      9  C   UNL     1      26.762   2.199 -11.941  1.00  0.00     0.253 A 
ATOM     10  N   UNL     1      25.968   2.846 -12.833  1.00  0.00    -0.274 N 
ATOM     11  O   UNL     1      26.528   0.999 -11.638  1.00  0.00    -0.269 OA
ATOM     12  C   UNL     1      26.202   4.144 -13.174  1.00  0.00     0.330 A 
ATOM     13  H   UNL     1      25.159   2.340 -13.260  1.00  0.00     0.175 HD
ATOM     14  O   UNL     1      25.427   4.710 -13.991  1.00  0.00    -0.248 OA
ENDBRANCH   1   6
BRANCH   2  15
ATOM     15  O   UNL     1      28.448   5.209 -14.971  1.00  0.00    -0.386 OA
ATOM     16  H   UNL     1      27.605   4.690 -15.045  1.00  0.00     0.211 HD
ENDBRANCH   2  15
BRANCH   3  17
ATOM     17  O   UNL     1      30.540   6.648 -14.372  1.00  0.00    -0.387 OA
ATOM     18  H   UNL     1      30.783   6.742 -15.329  1.00  0.00     0.211 HD
ENDBRANCH   3  17
BRANCH   4  19
ATOM     19  C   UNL     1      30.472   8.125 -11.982  1.00  0.00     0.191 C 
BRANCH  19  20
ATOM     20  O   UNL     1      31.100   6.951 -11.543  1.00  0.00    -0.394 OA
ATOM     21  H   UNL     1      30.718   6.207 -12.080  1.00  0.00     0.210 HD
ENDBRANCH  19  20
ENDBRANCH   4  19
TORSDOF 5
ENDMDL
MODEL 5
REMARK VINA RESULT:    -5.452      1.826      5.440
REMARK INTER + INTRA:          -6.949
REMARK INTER:                  -6.663
REMARK INTRA:                  -0.286
REMARK UNBOUND:                -0.382
REMARK SMILES O=c1ccn([C@H]2O[C@@H](CO)[C@@H](O)[C@H]2O)c(=O)[nH]1
REMARK SMILES IDX 6 1 13 2 11 3 8 4 7 5 5 6 3 7 4 8 2 9 17 10 1 11 15 12 16 14
REMARK SMILES IDX 14 15 12 17 9 19 10 20
REMARK H PARENT 17 13 14 16 12 18 10 21
REMARK Flexibility Score: inf
ROOT
ATOM      1  C   UNL     1      26.629   4.855 -12.935  1.00  0.00     0.255 C 
ATOM      2  C   UNL     1      27.981   4.817 -12.199  1.00  0.00     0.196 C 
ATOM      3  C   UNL     1      28.022   3.419 -11.593  1.00  0.00     0.179 C 
ATOM      4  C   UNL     1      26.582   2.923 -11.780  1.00  0.00     0.178 C 
ATOM      5  O   UNL     1      26.056   3.564 -12.916  1.00  0.00    -0.347 OA
ENDROOT
BRANCH   1   6
ATOM      6  N   UNL     1      26.749   5.365 -14.320  1.00  0.00    -0.271 N 
ATOM      7  C   UNL     1      27.196   4.900 -16.632  1.00  0.00     0.090 A 
ATOM      8  C   UNL     1      27.093   4.484 -15.308  1.00  0.00     0.099 A 
ATOM      9  C   UNL     1      26.928   6.230 -16.935  1.00  0.00     0.253 A 
ATOM     10  N   UNL     1      26.570   7.089 -15.945  1.00  0.00    -0.274 N 
ATOM     11  O   UNL     1      27.014   6.635 -18.125  1.00  0.00    -0.269 OA
ATOM     12  C   UNL     1      26.470   6.672 -14.652  1.00  0.00     0.330 A 
ATOM     13  H   UNL     1      26.361   8.086 -16.182  1.00  0.00     0.175 HD
ATOM     14  O   UNL     1      26.115   7.499 -13.769  1.00  0.00    -0.248 OA
ENDBRANCH   1   6
BRANCH   2  15
ATOM     15  O   UNL     1      29.064   5.053 -13.066  1.00  0.00    -0.386 OA
ATOM     16  H   UNL     1      29.074   4.302 -13.714  1.00  0.00     0.211 HD
ENDBRANCH   2  15
BRANCH   3  17
ATOM     17  O   UNL     1      28.973   2.587 -12.219  1.00  0.00    -0.387 OA
ATOM     18  H   UNL     1      28.587   2.267 -13.076  1.00  0.00     0.211 HD
ENDBRANCH   3  17
BRANCH   4  19
ATOM     19  C   UNL     1      26.444   1.399 -11.921  1.00  0.00     0.191 C 
BRANCH  19  20
ATOM     20  O   UNL     1      27.356   0.736 -11.087  1.00  0.00    -0.394 OA
ATOM     21  H   UNL     1      27.672   1.405 -10.424  1.00  0.00     0.210 HD
ENDBRANCH  19  20
ENDBRANCH   4  19
TORSDOF 5
ENDMDL
MODEL 6
REMARK VINA RESULT:    -5.447      1.616      2.768
REMARK INTER + INTRA:          -6.943
REMARK INTER:                  -6.663
REMARK INTRA:                  -0.280
REMARK UNBOUND:                -0.382
REMARK SMILES O=c1ccn([C@H]2O[C@@H](CO)[C@@H](O)[C@H]2O)c(=O)[nH]1
REMARK SMILES IDX 6 1 13 2 11 3 8 4 7 5 5 6 3 7 4 8 2 9 17 10 1 11 15 12 16 14
REMARK SMILES IDX 14 15 12 17 9 19 10 20
REMARK H PARENT 17 13 14 16 12 18 10 21
REMARK Flexibility Score: inf
ROOT
ATOM      1  C   UNL     1      27.083   5.137 -15.051  1.00  0.00     0.255 C 
ATOM      2  C   UNL     1      27.684   4.569 -16.349  1.00  0.00     0.196 C 
ATOM      3  C   UNL     1      28.874   5.481 -16.624  1.00  0.00     0.179 C 
ATOM      4  C   UNL     1      28.649   6.640 -15.644  1.00  0.00     0.178 C 
ATOM      5  O   UNL     1      27.944   6.132 -14.539  1.00  0.00    -0.347 OA
ENDROOT
BRANCH   1   6
ATOM      6  N   UNL     1      26.819   4.088 -14.040  1.00  0.00    -0.271 N 
ATOM      7  C   UNL     1      25.222   2.668 -12.946  1.00  0.00     0.090 A 
ATOM      8  C   UNL     1      25.528   3.669 -13.863  1.00  0.00     0.099 A 
ATOM      9  C   UNL     1      26.257   2.091 -12.219  1.00  0.00     0.253 A 
ATOM     10  N   UNL     1      27.535   2.505 -12.419  1.00  0.00    -0.274 N 
ATOM     11  O   UNL     1      26.009   1.183 -11.381  1.00  0.00    -0.269 OA
ATOM     12  C   UNL     1      27.826   3.485 -13.320  1.00  0.00     0.330 A 
ATOM     13  H   UNL     1      28.309   2.061 -11.875  1.00  0.00     0.175 HD
ATOM     14  O   UNL     1      29.028   3.824 -13.487  1.00  0.00    -0.248 OA
ENDBRANCH   1   6
BRANCH   2  15
ATOM     15  O   UNL     1      28.066   3.222 -16.213  1.00  0.00    -0.386 OA
ATOM     16  H   UNL     1      27.388   2.796 -15.627  1.00  0.00     0.211 HD
ENDBRANCH   2  15
BRANCH   3  17
ATOM     17  O   UNL     1      30.109   4.830 -16.427  1.00  0.00    -0.387 OA
ATOM     18  H   UNL     1      30.408   4.461 -17.298  1.00  0.00     0.211 HD
ENDBRANCH   3  17
BRANCH   4  19
ATOM     19  C   UNL     1      29.935   7.340 -15.176  1.00  0.00     0.191 C 
BRANCH  19  20
ATOM     20  O   UNL     1      30.464   6.706 -14.043  1.00  0.00    -0.394 OA
ATOM     21  H   UNL     1      30.598   5.753 -14.288  1.00  0.00     0.210 HD
ENDBRANCH  19  20
ENDBRANCH   4  19
TORSDOF 5
ENDMDL
MODEL 7
REMARK VINA RESULT:    -5.274      2.352      5.130
REMARK INTER + INTRA:          -6.735
REMARK INTER:                  -6.368
REMARK INTRA:                  -0.367
REMARK UNBOUND:                -0.382
REMARK SMILES O=c1ccn([C@H]2O[C@@H](CO)[C@@H](O)[C@H]2O)c(=O)[nH]1
REMARK SMILES IDX 6 1 13 2 11 3 8 4 7 5 5 6 3 7 4 8 2 9 17 10 1 11 15 12 16 14
REMARK SMILES IDX 14 15 12 17 9 19 10 20
REMARK H PARENT 17 13 14 16 12 18 10 21
REMARK Flexibility Score: inf
ROOT
ATOM      1  C   UNL     1      27.566   4.768 -13.558  1.00  0.00     0.255 C 
ATOM      2  C   UNL     1      28.181   3.852 -12.484  1.00  0.00     0.196 C 
ATOM      3  C   UNL     1      27.045   2.899 -12.131  1.00  0.00     0.179 C 
ATOM      4  C   UNL     1      25.830   3.553 -12.799  1.00  0.00     0.178 C 
ATOM      5  O   UNL     1      26.294   4.271 -13.916  1.00  0.00    -0.347 OA
ENDROOT
BRANCH   1   6
ATOM      6  N   UNL     1      28.436   4.915 -14.747  1.00  0.00    -0.271 N 
ATOM      7  C   UNL     1      28.976   4.210 -16.977  1.00  0.00     0.090 A 
ATOM      8  C   UNL     1      28.207   4.100 -15.821  1.00  0.00     0.099 A 
ATOM      9  C   UNL     1      29.974   5.176 -17.023  1.00  0.00     0.253 A 
ATOM     10  N   UNL     1      30.176   5.990 -15.954  1.00  0.00    -0.274 N 
ATOM     11  O   UNL     1      30.686   5.298 -18.055  1.00  0.00    -0.269 OA
ATOM     12  C   UNL     1      29.418   5.876 -14.828  1.00  0.00     0.330 A 
ATOM     13  H   UNL     1      30.924   6.720 -16.000  1.00  0.00     0.175 HD
ATOM     14  O   UNL     1      29.628   6.666 -13.868  1.00  0.00    -0.248 OA
ENDBRANCH   1   6
BRANCH   2  15
ATOM     15  O   UNL     1      29.319   3.172 -12.955  1.00  0.00    -0.386 OA
ATOM     16  H   UNL     1      30.038   3.852 -13.039  1.00  0.00     0.211 HD
ENDBRANCH   2  15
BRANCH   3  17
ATOM     17  O   UNL     1      27.281   1.586 -12.589  1.00  0.00    -0.387 OA
ATOM     18  H   UNL     1      28.262   1.432 -12.597  1.00  0.00     0.211 HD
ENDBRANCH   3  17
BRANCH   4  19
ATOM     19  C   UNL     1      24.726   2.570 -13.223  1.00  0.00     0.191 C 
BRANCH  19  20
ATOM     20  O   UNL     1      24.522   1.595 -12.236  1.00  0.00    -0.394 OA
ATOM     21  H   UNL     1      24.531   0.716 -12.699  1.00  0.00     0.210 HD
ENDBRANCH  19  20
ENDBRANCH   4  19
TORSDOF 5
ENDMDL
MODEL 8
REMARK VINA RESULT:    -5.065      2.156      2.197
REMARK INTER + INTRA:          -6.483
REMARK INTER:                  -6.123
REMARK INTRA:                  -0.360
REMARK UNBOUND:                -0.382
REMARK SMILES O=c1ccn([C@H]2O[C@@H](CO)[C@@H](O)[C@H]2O)c(=O)[nH]1
REMARK SMILES IDX 6 1 13 2 11 3 8 4 7 5 5 6 3 7 4 8 2 9 17 10 1 11 15 12 16 14
REMARK SMILES IDX 14 15 12 17 9 19 10 20
REMARK H PARENT 17 13 14 16 12 18 10 21
REMARK Flexibility Score: inf
ROOT
ATOM      1  C   UNL     1      28.353   4.749 -15.907  1.00  0.00     0.255 C 
ATOM      2  C   UNL     1      29.163   5.872 -16.580  1.00  0.00     0.196 C 
ATOM      3  C   UNL     1      28.222   6.398 -17.658  1.00  0.00     0.179 C 
ATOM      4  C   UNL     1      27.115   5.338 -17.692  1.00  0.00     0.178 C 
ATOM      5  O   UNL     1      27.034   4.765 -16.410  1.00  0.00    -0.347 OA
ENDROOT
BRANCH   1   6
ATOM      6  N   UNL     1      28.363   4.847 -14.430  1.00  0.00    -0.271 N 
ATOM      7  C   UNL     1      27.409   5.802 -12.445  1.00  0.00     0.090 A 
ATOM      8  C   UNL     1      27.465   5.688 -13.831  1.00  0.00     0.099 A 
ATOM      9  C   UNL     1      28.277   5.034 -11.678  1.00  0.00     0.253 A 
ATOM     10  N   UNL     1      29.151   4.191 -12.287  1.00  0.00    -0.274 N 
ATOM     11  O   UNL     1      28.250   5.118 -10.421  1.00  0.00    -0.269 OA
ATOM     12  C   UNL     1      29.197   4.084 -13.644  1.00  0.00     0.330 A 
ATOM     13  H   UNL     1      29.795   3.610 -11.703  1.00  0.00     0.175 HD
ATOM     14  O   UNL     1      30.010   3.274 -14.166  1.00  0.00    -0.248 OA
ENDBRANCH   1   6
BRANCH   2  15
ATOM     15  O   UNL     1      29.542   6.873 -15.668  1.00  0.00    -0.386 OA
ATOM     16  H   UNL     1      30.085   6.425 -14.968  1.00  0.00     0.211 HD
ENDBRANCH   2  15
BRANCH   3  17
ATOM     17  O   UNL     1      27.735   7.688 -17.364  1.00  0.00    -0.387 OA
ATOM     18  H   UNL     1      28.513   8.288 -17.222  1.00  0.00     0.211 HD
ENDBRANCH   3  17
BRANCH   4  19
ATOM     19  C   UNL     1      25.737   5.865 -18.125  1.00  0.00     0.191 C 
BRANCH  19  20
ATOM     20  O   UNL     1      25.056   6.431 -17.038  1.00  0.00    -0.394 OA
ATOM     21  H   UNL     1      25.247   7.406 -17.060  1.00  0.00     0.210 HD
ENDBRANCH  19  20
ENDBRANCH   4  19
TORSDOF 5
ENDMDL
MODEL 9
REMARK VINA RESULT:    -4.870      2.346      5.153
REMARK INTER + INTRA:          -6.248
REMARK INTER:                  -6.129
REMARK INTRA:                  -0.119
REMARK UNBOUND:                -0.382
REMARK SMILES O=c1ccn([C@H]2O[C@@H](CO)[C@@H](O)[C@H]2O)c(=O)[nH]1
REMARK SMILES IDX 6 1 13 2 11 3 8 4 7 5 5 6 3 7 4 8 2 9 17 10 1 11 15 12 16 14
REMARK SMILES IDX 14 15 12 17 9 19 10 20
REMARK H PARENT 17 13 14 16 12 18 10 21
REMARK Flexibility Score: inf
ROOT
ATOM      1  C   UNL     1      27.749   5.377 -13.457  1.00  0.00     0.255 C 
ATOM      2  C   UNL     1      28.308   4.332 -12.474  1.00  0.00     0.196 C 
ATOM      3  C   UNL     1      27.155   3.352 -12.297  1.00  0.00     0.179 C 
ATOM      4  C   UNL     1      25.975   4.092 -12.940  1.00  0.00     0.178 C 
ATOM      5  O   UNL     1      26.495   4.938 -13.935  1.00  0.00    -0.347 OA
ENDROOT
BRANCH   1   6
ATOM      6  N   UNL     1      28.678   5.662 -14.575  1.00  0.00    -0.271 N 
ATOM      7  C   UNL     1      30.324   7.122 -15.534  1.00  0.00     0.090 A 
ATOM      8  C   UNL     1      29.416   6.813 -14.525  1.00  0.00     0.099 A 
ATOM      9  C   UNL     1      30.476   6.229 -16.589  1.00  0.00     0.253 A 
ATOM     10  N   UNL     1      29.749   5.083 -16.614  1.00  0.00    -0.274 N 
ATOM     11  O   UNL     1      31.290   6.483 -17.517  1.00  0.00    -0.269 OA
ATOM     12  C   UNL     1      28.863   4.788 -15.621  1.00  0.00     0.330 A 
ATOM     13  H   UNL     1      29.875   4.412 -17.406  1.00  0.00     0.175 HD
ATOM     14  O   UNL     1      28.224   3.703 -15.676  1.00  0.00    -0.248 OA
ENDBRANCH   1   6
BRANCH   2  15
ATOM     15  O   UNL     1      29.467   3.707 -12.968  1.00  0.00    -0.386 OA
ATOM     16  H   UNL     1      29.819   3.143 -12.230  1.00  0.00     0.211 HD
ENDBRANCH   2  15
BRANCH   3  17
ATOM     17  O   UNL     1      27.411   2.103 -12.900  1.00  0.00    -0.387 OA
ATOM     18  H   UNL     1      28.392   2.011 -13.016  1.00  0.00     0.211 HD
ENDBRANCH   3  17
BRANCH   4  19
ATOM     19  C   UNL     1      24.893   3.177 -13.535  1.00  0.00     0.191 C 
BRANCH  19  20
ATOM     20  O   UNL     1      24.435   2.259 -12.578  1.00  0.00    -0.394 OA
ATOM     21  H   UNL     1      24.421   1.370 -13.022  1.00  0.00     0.210 HD
ENDBRANCH  19  20
ENDBRANCH   4  19
TORSDOF 5
ENDMDL
