MODEL 1
REMARK VINA RESULT:    -5.356      0.000      0.000
REMARK INTER + INTRA:          -9.248
REMARK INTER:                  -8.487
REMARK INTRA:                  -0.761
REMARK UNBOUND:                -0.761
REMARK SMILES CCCCCCCCCCCC(=O)[O-]
REMARK SMILES IDX 7 1 8 2 9 3 10 4 11 5 12 6 13 7 14 8 6 9 5 10 4 11 3 12 2 13
REMARK SMILES IDX 1 14
REMARK H PARENT
REMARK Flexibility Score: inf
ROOT
ATOM      1  C   UNL     1     103.780 313.208 195.737  1.00  0.00     0.000 C 
ENDROOT
BRANCH   1   2
ATOM      2  C   UNL     1     103.704 311.672 195.756  1.00  0.00     0.000 C 
BRANCH   2   3
ATOM      3  C   UNL     1     103.792 311.090 197.178  1.00  0.00     0.000 C 
BRANCH   3   4
ATOM      4  C   UNL     1     103.641 312.165 198.265  1.00  0.00     0.006 C 
BRANCH   4   5
ATOM      5  C   UNL     1     103.081 311.601 199.577  1.00  0.00     0.053 C 
BRANCH   5   6
ATOM      6  C   UNL     1     103.967 311.969 200.725  1.00  0.00     0.041 C 
ATOM      7  O   UNL     1     104.063 311.206 201.722  1.00  0.00    -0.550 OA
ATOM      8  O   UNL     1     104.727 313.131 200.672  1.00  0.00    -0.550 OA
ENDBRANCH   5   6
ENDBRANCH   4   5
ENDBRANCH   3   4
ENDBRANCH   2   3
ENDBRANCH   1   2
BRANCH   1   9
ATOM      9  C   UNL     1     104.705 313.738 194.628  1.00  0.00     0.000 C 
BRANCH   9  10
ATOM     10  C   UNL     1     105.717 312.684 194.152  1.00  0.00    -0.000 C 
BRANCH  10  11
ATOM     11  C   UNL     1     105.655 312.443 192.633  1.00  0.00    -0.000 C 
BRANCH  11  12
ATOM     12  C   UNL     1     104.223 312.520 192.081  1.00  0.00    -0.000 C 
BRANCH  12  13
ATOM     13  C   UNL     1     104.052 313.631 191.036  1.00  0.00    -0.003 C 
ATOM     14  C   UNL     1     105.389 314.291 190.712  1.00  0.00     0.004 C 
ENDBRANCH  12  13
ENDBRANCH  11  12
ENDBRANCH  10  11
ENDBRANCH   9  10
ENDBRANCH   1   9
TORSDOF 10
ENDMDL
MODEL 2
REMARK VINA RESULT:    -5.301      5.765      8.639
REMARK INTER + INTRA:          -9.162
REMARK INTER:                  -8.537
REMARK INTRA:                  -0.624
REMARK UNBOUND:                -0.761
REMARK SMILES CCCCCCCCCCCC(=O)[O-]
REMARK SMILES IDX 7 1 8 2 9 3 10 4 11 5 12 6 13 7 14 8 6 9 5 10 4 11 3 12 2 13
REMARK SMILES IDX 1 14
REMARK H PARENT
REMARK Flexibility Score: inf
ROOT
ATOM      1  C   UNL     1     104.728 313.297 191.618  1.00  0.00     0.000 C 
ENDROOT
BRANCH   1   2
ATOM      2  C   UNL     1     103.682 313.773 190.597  1.00  0.00     0.000 C 
BRANCH   2   3
ATOM      3  C   UNL     1     104.207 314.899 189.689  1.00  0.00     0.000 C 
BRANCH   3   4
ATOM      4  C   UNL     1     103.428 315.007 188.370  1.00  0.00     0.006 C 
BRANCH   4   5
ATOM      5  C   UNL     1     102.050 314.336 188.444  1.00  0.00     0.053 C 
BRANCH   5   6
ATOM      6  C   UNL     1     101.006 315.218 187.835  1.00  0.00     0.041 C 
ATOM      7  O   UNL     1      99.785 314.952 187.984  1.00  0.00    -0.550 OA
ATOM      8  O   UNL     1     101.381 316.364 187.144  1.00  0.00    -0.550 OA
ENDBRANCH   5   6
ENDBRANCH   4   5
ENDBRANCH   3   4
ENDBRANCH   2   3
ENDBRANCH   1   2
BRANCH   1   9
ATOM      9  C   UNL     1     104.217 312.133 192.486  1.00  0.00     0.000 C 
BRANCH   9  10
ATOM     10  C   UNL     1     105.343 311.451 193.278  1.00  0.00    -0.000 C 
BRANCH  10  11
ATOM     11  C   UNL     1     105.322 311.814 194.773  1.00  0.00    -0.000 C 
BRANCH  11  12
ATOM     12  C   UNL     1     103.899 311.855 195.352  1.00  0.00    -0.000 C 
BRANCH  12  13
ATOM     13  C   UNL     1     103.589 313.179 196.064  1.00  0.00    -0.003 C 
ATOM     14  C   UNL     1     104.403 314.326 195.471  1.00  0.00     0.004 C 
ENDBRANCH  12  13
ENDBRANCH  11  12
ENDBRANCH  10  11
ENDBRANCH   9  10
ENDBRANCH   1   9
TORSDOF 10
ENDMDL
MODEL 3
REMARK VINA RESULT:    -5.299      3.332      4.433
REMARK INTER + INTRA:          -9.158
REMARK INTER:                  -8.252
REMARK INTRA:                  -0.907
REMARK UNBOUND:                -0.761
REMARK SMILES CCCCCCCCCCCC(=O)[O-]
REMARK SMILES IDX 7 1 8 2 9 3 10 4 11 5 12 6 13 7 14 8 6 9 5 10 4 11 3 12 2 13
REMARK SMILES IDX 1 14
REMARK H PARENT
REMARK Flexibility Score: inf
ROOT
ATOM      1  C   UNL     1     104.668 311.325 193.223  1.00  0.00     0.000 C 
ENDROOT
BRANCH   1   2
ATOM      2  C   UNL     1     105.092 311.914 194.578  1.00  0.00     0.000 C 
BRANCH   2   3
ATOM      3  C   UNL     1     103.956 311.894 195.617  1.00  0.00     0.000 C 
BRANCH   3   4
ATOM      4  C   UNL     1     103.590 313.298 196.117  1.00  0.00     0.006 C 
BRANCH   4   5
ATOM      5  C   UNL     1     104.347 314.406 195.373  1.00  0.00     0.053 C 
BRANCH   5   6
ATOM      6  C   UNL     1     103.387 315.393 194.787  1.00  0.00     0.041 C 
ATOM      7  O   UNL     1     103.335 315.564 193.541  1.00  0.00    -0.550 OA
ATOM      8  O   UNL     1     102.513 316.088 195.615  1.00  0.00    -0.550 OA
ENDBRANCH   5   6
ENDBRANCH   4   5
ENDBRANCH   3   4
ENDBRANCH   2   3
ENDBRANCH   1   2
BRANCH   1   9
ATOM      9  C   UNL     1     104.258 312.410 192.211  1.00  0.00     0.000 C 
BRANCH   9  10
ATOM     10  C   UNL     1     105.438 313.300 191.793  1.00  0.00    -0.000 C 
BRANCH  10  11
ATOM     11  C   UNL     1     105.071 314.284 190.668  1.00  0.00    -0.000 C 
BRANCH  11  12
ATOM     12  C   UNL     1     103.606 314.154 190.224  1.00  0.00    -0.000 C 
BRANCH  12  13
ATOM     13  C   UNL     1     103.334 314.844 188.880  1.00  0.00    -0.003 C 
ATOM     14  C   UNL     1     101.979 314.429 188.313  1.00  0.00     0.004 C 
ENDBRANCH  12  13
ENDBRANCH  11  12
ENDBRANCH  10  11
ENDBRANCH   9  10
ENDBRANCH   1   9
TORSDOF 10
ENDMDL
MODEL 4
REMARK VINA RESULT:    -5.277     19.542     21.169
REMARK INTER + INTRA:          -9.123
REMARK INTER:                  -8.457
REMARK INTRA:                  -0.665
REMARK UNBOUND:                -0.761
REMARK SMILES CCCCCCCCCCCC(=O)[O-]
REMARK SMILES IDX 7 1 8 2 9 3 10 4 11 5 12 6 13 7 14 8 6 9 5 10 4 11 3 12 2 13
REMARK SMILES IDX 1 14
REMARK H PARENT
REMARK Flexibility Score: inf
ROOT
ATOM      1  C   UNL     1      87.739 324.463 192.807  1.00  0.00     0.000 C 
ENDROOT
BRANCH   1   2
ATOM      2  C   UNL     1      88.286 324.348 191.374  1.00  0.00     0.000 C 
BRANCH   2   3
ATOM      3  C   UNL     1      87.564 323.268 190.548  1.00  0.00     0.000 C 
BRANCH   3   4
ATOM      4  C   UNL     1      88.324 322.901 189.265  1.00  0.00     0.006 C 
BRANCH   4   5
ATOM      5  C   UNL     1      89.625 323.698 189.102  1.00  0.00     0.053 C 
BRANCH   5   6
ATOM      6  C   UNL     1      90.677 322.854 188.453  1.00  0.00     0.041 C 
ATOM      7  O   UNL     1      90.350 321.856 187.760  1.00  0.00    -0.550 OA
ATOM      8  O   UNL     1      92.017 323.201 188.573  1.00  0.00    -0.550 OA
ENDBRANCH   5   6
ENDBRANCH   4   5
ENDBRANCH   3   4
ENDBRANCH   2   3
ENDBRANCH   1   2
BRANCH   1   9
ATOM      9  C   UNL     1      87.873 325.887 193.375  1.00  0.00     0.000 C 
BRANCH   9  10
ATOM     10  C   UNL     1      86.663 326.295 194.230  1.00  0.00    -0.000 C 
BRANCH  10  11
ATOM     11  C   UNL     1      86.910 326.107 195.738  1.00  0.00    -0.000 C 
BRANCH  11  12
ATOM     12  C   UNL     1      88.402 326.147 196.102  1.00  0.00    -0.000 C 
BRANCH  12  13
ATOM     13  C   UNL     1      88.839 324.935 196.935  1.00  0.00    -0.003 C 
ATOM     14  C   UNL     1      88.234 323.645 196.389  1.00  0.00     0.004 C 
ENDBRANCH  12  13
ENDBRANCH  11  12
ENDBRANCH  10  11
ENDBRANCH   9  10
ENDBRANCH   1   9
TORSDOF 10
ENDMDL
MODEL 5
REMARK VINA RESULT:    -5.274     19.869     21.199
REMARK INTER + INTRA:          -9.118
REMARK INTER:                  -7.987
REMARK INTRA:                  -1.131
REMARK UNBOUND:                -0.761
REMARK SMILES CCCCCCCCCCCC(=O)[O-]
REMARK SMILES IDX 7 1 8 2 9 3 10 4 11 5 12 6 13 7 14 8 6 9 5 10 4 11 3 12 2 13
REMARK SMILES IDX 1 14
REMARK H PARENT
REMARK Flexibility Score: inf
ROOT
ATOM      1  C   UNL     1      87.530 326.666 194.138  1.00  0.00     0.000 C 
ENDROOT
BRANCH   1   2
ATOM      2  C   UNL     1      87.855 325.551 193.130  1.00  0.00     0.000 C 
BRANCH   2   3
ATOM      3  C   UNL     1      86.628 324.689 192.782  1.00  0.00     0.000 C 
BRANCH   3   4
ATOM      4  C   UNL     1      86.887 323.745 191.598  1.00  0.00     0.006 C 
BRANCH   4   5
ATOM      5  C   UNL     1      88.298 323.903 191.016  1.00  0.00     0.053 C 
BRANCH   5   6
ATOM      6  C   UNL     1      88.384 323.251 189.671  1.00  0.00     0.041 C 
ATOM      7  O   UNL     1      87.490 322.447 189.298  1.00  0.00    -0.550 OA
ATOM      8  O   UNL     1      89.426 323.572 188.810  1.00  0.00    -0.550 OA
ENDBRANCH   5   6
ENDBRANCH   4   5
ENDBRANCH   3   4
ENDBRANCH   2   3
ENDBRANCH   1   2
BRANCH   1   9
ATOM      9  C   UNL     1      87.274 326.124 195.555  1.00  0.00     0.000 C 
BRANCH   9  10
ATOM     10  C   UNL     1      88.537 326.147 196.430  1.00  0.00    -0.000 C 
BRANCH  10  11
ATOM     11  C   UNL     1      88.904 324.758 196.981  1.00  0.00    -0.000 C 
BRANCH  11  12
ATOM     12  C   UNL     1      88.189 323.619 196.235  1.00  0.00    -0.000 C 
BRANCH  12  13
ATOM     13  C   UNL     1      89.161 322.542 195.734  1.00  0.00    -0.003 C 
ATOM     14  C   UNL     1      88.804 322.095 194.319  1.00  0.00     0.004 C 
ENDBRANCH  12  13
ENDBRANCH  11  12
ENDBRANCH  10  11
ENDBRANCH   9  10
ENDBRANCH   1   9
TORSDOF 10
ENDMDL
MODEL 6
REMARK VINA RESULT:    -5.243      5.453      7.660
REMARK INTER + INTRA:          -9.068
REMARK INTER:                  -7.982
REMARK INTRA:                  -1.086
REMARK UNBOUND:                -0.761
REMARK SMILES CCCCCCCCCCCC(=O)[O-]
REMARK SMILES IDX 7 1 8 2 9 3 10 4 11 5 12 6 13 7 14 8 6 9 5 10 4 11 3 12 2 13
REMARK SMILES IDX 1 14
REMARK H PARENT
REMARK Flexibility Score: inf
ROOT
ATOM      1  C   UNL     1     104.679 311.452 193.100  1.00  0.00     0.000 C 
ENDROOT
BRANCH   1   2
ATOM      2  C   UNL     1     104.214 312.594 192.182  1.00  0.00     0.000 C 
BRANCH   2   3
ATOM      3  C   UNL     1     105.387 313.356 191.540  1.00  0.00     0.000 C 
BRANCH   3   4
ATOM      4  C   UNL     1     104.922 314.411 190.525  1.00  0.00     0.006 C 
BRANCH   4   5
ATOM      5  C   UNL     1     103.441 314.258 190.155  1.00  0.00     0.053 C 
BRANCH   5   6
ATOM      6  C   UNL     1     103.203 314.718 188.750  1.00  0.00     0.041 C 
ATOM      7  O   UNL     1     104.091 315.366 188.137  1.00  0.00    -0.550 OA
ATOM      8  O   UNL     1     102.020 314.386 188.102  1.00  0.00    -0.550 OA
ENDBRANCH   5   6
ENDBRANCH   4   5
ENDBRANCH   3   4
ENDBRANCH   2   3
ENDBRANCH   1   2
BRANCH   1   9
ATOM      9  C   UNL     1     105.212 311.962 194.451  1.00  0.00     0.000 C 
BRANCH   9  10
ATOM     10  C   UNL     1     104.172 311.846 195.576  1.00  0.00    -0.000 C 
BRANCH  10  11
ATOM     11  C   UNL     1     103.682 313.215 196.077  1.00  0.00    -0.000 C 
BRANCH  11  12
ATOM     12  C   UNL     1     104.397 314.388 195.386  1.00  0.00    -0.000 C 
BRANCH  12  13
ATOM     13  C   UNL     1     103.451 315.557 195.081  1.00  0.00    -0.003 C 
ATOM     14  C   UNL     1     103.372 315.823 193.580  1.00  0.00     0.004 C 
ENDBRANCH  12  13
ENDBRANCH  11  12
ENDBRANCH  10  11
ENDBRANCH   9  10
ENDBRANCH   1   9
TORSDOF 10
ENDMDL
MODEL 7
REMARK VINA RESULT:    -5.214      1.352      1.737
REMARK INTER + INTRA:          -9.023
REMARK INTER:                  -8.665
REMARK INTRA:                  -0.358
REMARK UNBOUND:                -0.761
REMARK SMILES CCCCCCCCCCCC(=O)[O-]
REMARK SMILES IDX 7 1 8 2 9 3 10 4 11 5 12 6 13 7 14 8 6 9 5 10 4 11 3 12 2 13
REMARK SMILES IDX 1 14
REMARK H PARENT
REMARK Flexibility Score: inf
ROOT
ATOM      1  C   UNL     1     103.815 312.371 195.999  1.00  0.00     0.000 C 
ENDROOT
BRANCH   1   2
ATOM      2  C   UNL     1     103.818 311.497 197.264  1.00  0.00     0.000 C 
BRANCH   2   3
ATOM      3  C   UNL     1     103.595 312.312 198.550  1.00  0.00     0.000 C 
BRANCH   3   4
ATOM      4  C   UNL     1     103.177 311.436 199.740  1.00  0.00     0.006 C 
BRANCH   4   5
ATOM      5  C   UNL     1     104.005 311.719 201.000  1.00  0.00     0.053 C 
BRANCH   5   6
ATOM      6  C   UNL     1     103.418 311.009 202.181  1.00  0.00     0.041 C 
ATOM      7  O   UNL     1     104.165 310.590 203.103  1.00  0.00    -0.550 OA
ATOM      8  O   UNL     1     102.041 310.856 202.285  1.00  0.00    -0.550 OA
ENDBRANCH   5   6
ENDBRANCH   4   5
ENDBRANCH   3   4
ENDBRANCH   2   3
ENDBRANCH   1   2
BRANCH   1   9
ATOM      9  C   UNL     1     104.141 311.568 194.728  1.00  0.00     0.000 C 
BRANCH   9  10
ATOM     10  C   UNL     1     105.569 311.821 194.221  1.00  0.00    -0.000 C 
BRANCH  10  11
ATOM     11  C   UNL     1     105.599 312.427 192.807  1.00  0.00    -0.000 C 
BRANCH  11  12
ATOM     12  C   UNL     1     104.201 312.528 192.177  1.00  0.00    -0.000 C 
BRANCH  12  13
ATOM     13  C   UNL     1     103.830 313.967 191.792  1.00  0.00    -0.003 C 
ATOM     14  C   UNL     1     103.806 314.143 190.276  1.00  0.00     0.004 C 
ENDBRANCH  12  13
ENDBRANCH  11  12
ENDBRANCH  10  11
ENDBRANCH   9  10
ENDBRANCH   1   9
TORSDOF 10
ENDMDL
MODEL 8
REMARK VINA RESULT:    -5.141     19.900     20.578
REMARK INTER + INTRA:          -8.907
REMARK INTER:                  -8.326
REMARK INTRA:                  -0.581
REMARK UNBOUND:                -0.761
REMARK SMILES CCCCCCCCCCCC(=O)[O-]
REMARK SMILES IDX 7 1 8 2 9 3 10 4 11 5 12 6 13 7 14 8 6 9 5 10 4 11 3 12 2 13
REMARK SMILES IDX 1 14
REMARK H PARENT
REMARK Flexibility Score: inf
ROOT
ATOM      1  C   UNL     1      88.692 325.047 196.421  1.00  0.00     0.000 C 
ENDROOT
BRANCH   1   2
ATOM      2  C   UNL     1      89.037 324.944 197.916  1.00  0.00     0.000 C 
BRANCH   2   3
ATOM      3  C   UNL     1      88.991 326.307 198.631  1.00  0.00     0.000 C 
BRANCH   3   4
ATOM      4  C   UNL     1      89.051 326.173 200.160  1.00  0.00     0.006 C 
BRANCH   4   5
ATOM      5  C   UNL     1      90.480 325.962 200.677  1.00  0.00     0.053 C 
BRANCH   5   6
ATOM      6  C   UNL     1      90.694 326.724 201.947  1.00  0.00     0.041 C 
ATOM      7  O   UNL     1      89.756 326.847 202.778  1.00  0.00    -0.550 OA
ATOM      8  O   UNL     1      91.945 327.255 202.237  1.00  0.00    -0.550 OA
ENDBRANCH   5   6
ENDBRANCH   4   5
ENDBRANCH   3   4
ENDBRANCH   2   3
ENDBRANCH   1   2
BRANCH   1   9
ATOM      9  C   UNL     1      88.601 326.504 195.936  1.00  0.00     0.000 C 
BRANCH   9  10
ATOM     10  C   UNL     1      88.143 326.610 194.473  1.00  0.00    -0.000 C 
BRANCH  10  11
ATOM     11  C   UNL     1      86.695 326.134 194.267  1.00  0.00    -0.000 C 
BRANCH  11  12
ATOM     12  C   UNL     1      86.581 325.025 193.209  1.00  0.00    -0.000 C 
BRANCH  12  13
ATOM     13  C   UNL     1      87.935 324.379 192.885  1.00  0.00    -0.003 C 
ATOM     14  C   UNL     1      88.133 324.244 191.378  1.00  0.00     0.004 C 
ENDBRANCH  12  13
ENDBRANCH  11  12
ENDBRANCH  10  11
ENDBRANCH   9  10
ENDBRANCH   1   9
TORSDOF 10
ENDMDL
MODEL 9
REMARK VINA RESULT:    -5.130      2.733      4.306
REMARK INTER + INTRA:          -8.891
REMARK INTER:                  -8.131
REMARK INTRA:                  -0.760
REMARK UNBOUND:                -0.761
REMARK SMILES CCCCCCCCCCCC(=O)[O-]
REMARK SMILES IDX 7 1 8 2 9 3 10 4 11 5 12 6 13 7 14 8 6 9 5 10 4 11 3 12 2 13
REMARK SMILES IDX 1 14
REMARK H PARENT
REMARK Flexibility Score: inf
ROOT
ATOM      1  C   UNL     1     104.221 312.989 191.824  1.00  0.00     0.000 C 
ENDROOT
BRANCH   1   2
ATOM      2  C   UNL     1     104.209 311.725 192.698  1.00  0.00     0.000 C 
BRANCH   2   3
ATOM      3  C   UNL     1     105.564 311.463 193.382  1.00  0.00     0.000 C 
BRANCH   3   4
ATOM      4  C   UNL     1     105.567 311.875 194.861  1.00  0.00     0.006 C 
BRANCH   4   5
ATOM      5  C   UNL     1     104.156 311.938 195.459  1.00  0.00     0.053 C 
BRANCH   5   6
ATOM      6  C   UNL     1     103.841 313.331 195.908  1.00  0.00     0.041 C 
ATOM      7  O   UNL     1     103.225 313.524 196.989  1.00  0.00    -0.550 OA
ATOM      8  O   UNL     1     104.272 314.418 195.157  1.00  0.00    -0.550 OA
ENDBRANCH   5   6
ENDBRANCH   4   5
ENDBRANCH   3   4
ENDBRANCH   2   3
ENDBRANCH   1   2
BRANCH   1   9
ATOM      9  C   UNL     1     105.643 313.519 191.572  1.00  0.00     0.000 C 
BRANCH   9  10
ATOM     10  C   UNL     1     105.702 314.517 190.406  1.00  0.00    -0.000 C 
BRANCH  10  11
ATOM     11  C   UNL     1     104.309 314.875 189.858  1.00  0.00    -0.000 C 
BRANCH  11  12
ATOM     12  C   UNL     1     104.375 315.629 188.521  1.00  0.00    -0.000 C 
BRANCH  12  13
ATOM     13  C   UNL     1     103.067 315.532 187.724  1.00  0.00    -0.003 C 
ATOM     14  C   UNL     1     102.126 314.497 188.334  1.00  0.00     0.004 C 
ENDBRANCH  12  13
ENDBRANCH  11  12
ENDBRANCH  10  11
ENDBRANCH   9  10
ENDBRANCH   1   9
TORSDOF 10
ENDMDL
