MODEL 1
REMARK VINA RESULT:    -3.955      0.000      0.000
REMARK INTER + INTRA:          -5.211
REMARK INTER:                  -5.111
REMARK INTRA:                  -0.100
REMARK UNBOUND:                -0.100
REMARK SMILES CCCCCCC(=O)[O-]
REMARK SMILES IDX 5 1 6 2 7 3 8 4 9 5 4 6 3 7 2 8 1 9
REMARK H PARENT
REMARK Flexibility Score: inf
ROOT
ATOM      1  C   UNL     1      37.938  56.667  16.909  1.00  0.00     0.006 C 
ENDROOT
BRANCH   1   2
ATOM      2  C   UNL     1      36.609  57.427  16.941  1.00  0.00     0.053 C 
BRANCH   2   3
ATOM      3  C   UNL     1      35.683  56.908  15.887  1.00  0.00     0.041 C 
ATOM      4  O   UNL     1      36.120  56.637  14.737  1.00  0.00    -0.550 OA
ATOM      5  O   UNL     1      34.347  56.679  16.186  1.00  0.00    -0.550 OA
ENDBRANCH   2   3
ENDBRANCH   1   2
BRANCH   1   6
ATOM      6  C   UNL     1      38.881  57.160  18.017  1.00  0.00     0.000 C 
BRANCH   6   7
ATOM      7  C   UNL     1      40.014  56.165  18.327  1.00  0.00    -0.000 C 
BRANCH   7   8
ATOM      8  C   UNL     1      40.994  55.920  17.166  1.00  0.00    -0.003 C 
ATOM      9  C   UNL     1      42.324  55.320  17.623  1.00  0.00     0.004 C 
ENDBRANCH   7   8
ENDBRANCH   6   7
ENDBRANCH   1   6
TORSDOF 5
ENDMDL
MODEL 2
REMARK VINA RESULT:    -3.930      3.841      6.113
REMARK INTER + INTRA:          -5.179
REMARK INTER:                  -5.014
REMARK INTRA:                  -0.165
REMARK UNBOUND:                -0.100
REMARK SMILES CCCCCCC(=O)[O-]
REMARK SMILES IDX 5 1 6 2 7 3 8 4 9 5 4 6 3 7 2 8 1 9
REMARK H PARENT
REMARK Flexibility Score: inf
ROOT
ATOM      1  C   UNL     1      42.960  55.341  17.232  1.00  0.00     0.006 C 
ENDROOT
BRANCH   1   2
ATOM      2  C   UNL     1      43.069  53.831  17.004  1.00  0.00     0.053 C 
BRANCH   2   3
ATOM      3  C   UNL     1      43.003  53.515  15.544  1.00  0.00     0.041 C 
ATOM      4  O   UNL     1      41.968  53.794  14.881  1.00  0.00    -0.550 OA
ATOM      5  O   UNL     1      44.100  52.956  14.902  1.00  0.00    -0.550 OA
ENDBRANCH   2   3
ENDBRANCH   1   2
BRANCH   1   6
ATOM      6  C   UNL     1      41.725  55.681  18.080  1.00  0.00     0.000 C 
BRANCH   6   7
ATOM      7  C   UNL     1      40.506  56.085  17.229  1.00  0.00    -0.000 C 
BRANCH   7   8
ATOM      8  C   UNL     1      39.343  56.707  18.022  1.00  0.00    -0.003 C 
ATOM      9  C   UNL     1      38.031  56.733  17.238  1.00  0.00     0.004 C 
ENDBRANCH   7   8
ENDBRANCH   6   7
ENDBRANCH   1   6
TORSDOF 5
ENDMDL
MODEL 3
REMARK VINA RESULT:    -3.920      3.607      5.752
REMARK INTER + INTRA:          -5.166
REMARK INTER:                  -5.051
REMARK INTRA:                  -0.114
REMARK UNBOUND:                -0.100
REMARK SMILES CCCCCCC(=O)[O-]
REMARK SMILES IDX 5 1 6 2 7 3 8 4 9 5 4 6 3 7 2 8 1 9
REMARK H PARENT
REMARK Flexibility Score: inf
ROOT
ATOM      1  C   UNL     1      40.744  56.014  17.208  1.00  0.00     0.006 C 
ENDROOT
BRANCH   1   2
ATOM      2  C   UNL     1      42.086  55.435  17.666  1.00  0.00     0.053 C 
BRANCH   2   3
ATOM      3  C   UNL     1      42.869  54.936  16.493  1.00  0.00     0.041 C 
ATOM      4  O   UNL     1      42.273  54.484  15.480  1.00  0.00    -0.550 OA
ATOM      5  O   UNL     1      44.255  55.014  16.498  1.00  0.00    -0.550 OA
ENDBRANCH   2   3
ENDBRANCH   1   2
BRANCH   1   6
ATOM      6  C   UNL     1      39.852  56.351  18.412  1.00  0.00     0.000 C 
BRANCH   6   7
ATOM      7  C   UNL     1      38.624  57.198  18.029  1.00  0.00    -0.000 C 
BRANCH   7   8
ATOM      8  C   UNL     1      37.833  56.678  16.815  1.00  0.00    -0.003 C 
ATOM      9  C   UNL     1      36.423  57.260  16.726  1.00  0.00     0.004 C 
ENDBRANCH   7   8
ENDBRANCH   6   7
ENDBRANCH   1   6
TORSDOF 5
ENDMDL
MODEL 4
REMARK VINA RESULT:    -3.891      2.982      5.182
REMARK INTER + INTRA:          -5.128
REMARK INTER:                  -4.988
REMARK INTRA:                  -0.139
REMARK UNBOUND:                -0.100
REMARK SMILES CCCCCCC(=O)[O-]
REMARK SMILES IDX 5 1 6 2 7 3 8 4 9 5 4 6 3 7 2 8 1 9
REMARK H PARENT
REMARK Flexibility Score: inf
ROOT
ATOM      1  C   UNL     1      38.471  56.464  17.035  1.00  0.00     0.006 C 
ENDROOT
BRANCH   1   2
ATOM      2  C   UNL     1      39.646  56.624  18.004  1.00  0.00     0.053 C 
BRANCH   2   3
ATOM      3  C   UNL     1      40.842  55.878  17.505  1.00  0.00     0.041 C 
ATOM      4  O   UNL     1      41.718  55.470  18.313  1.00  0.00    -0.550 OA
ATOM      5  O   UNL     1      40.969  55.591  16.152  1.00  0.00    -0.550 OA
ENDBRANCH   2   3
ENDBRANCH   1   2
BRANCH   1   6
ATOM      6  C   UNL     1      37.295  57.364  17.442  1.00  0.00     0.000 C 
BRANCH   6   7
ATOM      7  C   UNL     1      36.025  57.105  16.611  1.00  0.00    -0.000 C 
BRANCH   7   8
ATOM      8  C   UNL     1      35.803  58.088  15.448  1.00  0.00    -0.003 C 
ATOM      9  C   UNL     1      36.421  57.611  14.134  1.00  0.00     0.004 C 
ENDBRANCH   7   8
ENDBRANCH   6   7
ENDBRANCH   1   6
TORSDOF 5
ENDMDL
MODEL 5
REMARK VINA RESULT:    -3.492      5.785      7.702
REMARK INTER + INTRA:          -4.612
REMARK INTER:                  -4.530
REMARK INTRA:                  -0.082
REMARK UNBOUND:                -0.100
REMARK SMILES CCCCCCC(=O)[O-]
REMARK SMILES IDX 5 1 6 2 7 3 8 4 9 5 4 6 3 7 2 8 1 9
REMARK H PARENT
REMARK Flexibility Score: inf
ROOT
ATOM      1  C   UNL     1      44.001  55.646  16.883  1.00  0.00     0.006 C 
ENDROOT
BRANCH   1   2
ATOM      2  C   UNL     1      44.639  55.027  15.636  1.00  0.00     0.053 C 
BRANCH   2   3
ATOM      3  C   UNL     1      46.131  55.076  15.732  1.00  0.00     0.041 C 
ATOM      4  O   UNL     1      46.839  54.388  14.950  1.00  0.00    -0.550 OA
ATOM      5  O   UNL     1      46.742  55.915  16.655  1.00  0.00    -0.550 OA
ENDBRANCH   2   3
ENDBRANCH   1   2
BRANCH   1   6
ATOM      6  C   UNL     1      42.739  54.874  17.297  1.00  0.00     0.000 C 
BRANCH   6   7
ATOM      7  C   UNL     1      41.440  55.639  16.987  1.00  0.00    -0.000 C 
BRANCH   7   8
ATOM      8  C   UNL     1      40.573  55.964  18.217  1.00  0.00    -0.003 C 
ATOM      9  C   UNL     1      39.292  56.719  17.863  1.00  0.00     0.004 C 
ENDBRANCH   7   8
ENDBRANCH   6   7
ENDBRANCH   1   6
TORSDOF 5
ENDMDL
MODEL 6
REMARK VINA RESULT:    -3.448      2.216      3.422
REMARK INTER + INTRA:          -4.556
REMARK INTER:                  -4.431
REMARK INTRA:                  -0.125
REMARK UNBOUND:                -0.100
REMARK SMILES CCCCCCC(=O)[O-]
REMARK SMILES IDX 5 1 6 2 7 3 8 4 9 5 4 6 3 7 2 8 1 9
REMARK H PARENT
REMARK Flexibility Score: inf
ROOT
ATOM      1  C   UNL     1      34.871  57.040  15.125  1.00  0.00     0.006 C 
ENDROOT
BRANCH   1   2
ATOM      2  C   UNL     1      34.085  56.409  16.278  1.00  0.00     0.053 C 
BRANCH   2   3
ATOM      3  C   UNL     1      32.620  56.412  15.976  1.00  0.00     0.041 C 
ATOM      4  O   UNL     1      32.212  56.158  14.811  1.00  0.00    -0.550 OA
ATOM      5  O   UNL     1      31.701  56.648  16.990  1.00  0.00    -0.550 OA
ENDBRANCH   2   3
ENDBRANCH   1   2
BRANCH   1   6
ATOM      6  C   UNL     1      36.107  57.789  15.648  1.00  0.00     0.000 C 
BRANCH   6   7
ATOM      7  C   UNL     1      37.129  56.859  16.326  1.00  0.00    -0.000 C 
BRANCH   7   8
ATOM      8  C   UNL     1      37.754  57.418  17.617  1.00  0.00    -0.003 C 
ATOM      9  C   UNL     1      39.137  56.838  17.912  1.00  0.00     0.004 C 
ENDBRANCH   7   8
ENDBRANCH   6   7
ENDBRANCH   1   6
TORSDOF 5
ENDMDL
MODEL 7
REMARK VINA RESULT:    -3.374      3.228      6.447
REMARK INTER + INTRA:          -4.460
REMARK INTER:                  -4.334
REMARK INTRA:                  -0.125
REMARK UNBOUND:                -0.100
REMARK SMILES CCCCCCC(=O)[O-]
REMARK SMILES IDX 5 1 6 2 7 3 8 4 9 5 4 6 3 7 2 8 1 9
REMARK H PARENT
REMARK Flexibility Score: inf
ROOT
ATOM      1  C   UNL     1      34.389  56.720  15.449  1.00  0.00     0.006 C 
ENDROOT
BRANCH   1   2
ATOM      2  C   UNL     1      35.377  57.434  16.376  1.00  0.00     0.053 C 
BRANCH   2   3
ATOM      3  C   UNL     1      36.772  56.959  16.120  1.00  0.00     0.041 C 
ATOM      4  O   UNL     1      37.126  56.628  14.957  1.00  0.00    -0.550 OA
ATOM      5  O   UNL     1      37.697  56.926  17.155  1.00  0.00    -0.550 OA
ENDBRANCH   2   3
ENDBRANCH   1   2
BRANCH   1   6
ATOM      6  C   UNL     1      33.364  55.910  16.257  1.00  0.00     0.000 C 
BRANCH   6   7
ATOM      7  C   UNL     1      31.908  56.295  15.936  1.00  0.00    -0.000 C 
BRANCH   7   8
ATOM      8  C   UNL     1      31.079  56.754  17.148  1.00  0.00    -0.003 C 
ATOM      9  C   UNL     1      30.609  55.593  18.025  1.00  0.00     0.004 C 
ENDBRANCH   7   8
ENDBRANCH   6   7
ENDBRANCH   1   6
TORSDOF 5
ENDMDL
MODEL 8
REMARK VINA RESULT:    -3.366      4.756      6.764
REMARK INTER + INTRA:          -4.449
REMARK INTER:                  -4.341
REMARK INTRA:                  -0.108
REMARK UNBOUND:                -0.100
REMARK SMILES CCCCCCC(=O)[O-]
REMARK SMILES IDX 5 1 6 2 7 3 8 4 9 5 4 6 3 7 2 8 1 9
REMARK H PARENT
REMARK Flexibility Score: inf
ROOT
ATOM      1  C   UNL     1      44.463  55.100  16.062  1.00  0.00     0.006 C 
ENDROOT
BRANCH   1   2
ATOM      2  C   UNL     1      43.381  54.913  17.130  1.00  0.00     0.053 C 
BRANCH   2   3
ATOM      3  C   UNL     1      42.037  55.275  16.582  1.00  0.00     0.041 C 
ATOM      4  O   UNL     1      41.700  54.898  15.428  1.00  0.00    -0.550 OA
ATOM      5  O   UNL     1      41.136  55.987  17.363  1.00  0.00    -0.550 OA
ENDBRANCH   2   3
ENDBRANCH   1   2
BRANCH   1   6
ATOM      6  C   UNL     1      45.551  56.070  16.546  1.00  0.00     0.000 C 
BRANCH   6   7
ATOM      7  C   UNL     1      46.974  55.505  16.380  1.00  0.00    -0.000 C 
BRANCH   7   8
ATOM      8  C   UNL     1      47.966  55.918  17.483  1.00  0.00    -0.003 C 
ATOM      9  C   UNL     1      48.159  57.432  17.577  1.00  0.00     0.004 C 
ENDBRANCH   7   8
ENDBRANCH   6   7
ENDBRANCH   1   6
TORSDOF 5
ENDMDL
MODEL 9
REMARK VINA RESULT:    -3.273      6.139      8.303
REMARK INTER + INTRA:          -4.329
REMARK INTER:                  -3.956
REMARK INTRA:                  -0.373
REMARK UNBOUND:                -0.100
REMARK SMILES CCCCCCC(=O)[O-]
REMARK SMILES IDX 5 1 6 2 7 3 8 4 9 5 4 6 3 7 2 8 1 9
REMARK H PARENT
REMARK Flexibility Score: inf
ROOT
ATOM      1  C   UNL     1      44.972  54.606  14.623  1.00  0.00     0.006 C 
ENDROOT
BRANCH   1   2
ATOM      2  C   UNL     1      46.349  54.763  15.273  1.00  0.00     0.053 C 
BRANCH   2   3
ATOM      3  C   UNL     1      46.296  55.773  16.376  1.00  0.00     0.041 C 
ATOM      4  O   UNL     1      45.417  56.676  16.366  1.00  0.00    -0.550 OA
ATOM      5  O   UNL     1      47.185  55.691  17.439  1.00  0.00    -0.550 OA
ENDBRANCH   2   3
ENDBRANCH   1   2
BRANCH   1   6
ATOM      6  C   UNL     1      44.350  53.246  14.975  1.00  0.00     0.000 C 
BRANCH   6   7
ATOM      7  C   UNL     1      42.977  53.373  15.660  1.00  0.00    -0.000 C 
BRANCH   7   8
ATOM      8  C   UNL     1      43.009  54.019  17.056  1.00  0.00    -0.003 C 
ATOM      9  C   UNL     1      42.228  55.331  17.126  1.00  0.00     0.004 C 
ENDBRANCH   7   8
ENDBRANCH   6   7
ENDBRANCH   1   6
TORSDOF 5
ENDMDL
