MODEL 1
REMARK VINA RESULT:    -4.371      0.000      0.000
REMARK INTER + INTRA:          -4.371
REMARK INTER:                  -4.371
REMARK INTRA:                   0.000
REMARK UNBOUND:                 0.000
REMARK SMILES CC1=CC[C@H]2C[C@@H]1C2(C)C
REMARK SMILES IDX 1 1 2 2 3 3 4 4 5 5 6 6 7 7 8 8 9 9 10 10
REMARK H PARENT
REMARK Flexibility Score: inf
ROOT
ATOM      1  C   UNL     1       9.004   8.574  13.809  1.00  0.00     0.039 C 
ATOM      2  C   UNL     1       7.992   7.558  13.372  1.00  0.00    -0.074 C 
ATOM      3  C   UNL     1       8.217   6.745  12.299  1.00  0.00    -0.027 C 
ATOM      4  C   UNL     1       7.122   5.741  11.885  1.00  0.00     0.031 C 
ATOM      5  C   UNL     1       5.907   5.835  12.871  1.00  0.00    -0.000 C 
ATOM      6  C   UNL     1       6.517   5.841  14.287  1.00  0.00     0.013 C 
ATOM      7  C   UNL     1       6.662   7.366  14.116  1.00  0.00     0.021 C 
ATOM      8  C   UNL     1       5.501   7.319  13.088  1.00  0.00    -0.026 C 
ATOM      9  C   UNL     1       5.548   8.290  11.875  1.00  0.00     0.012 C 
ATOM     10  C   UNL     1       4.113   7.453  13.764  1.00  0.00     0.012 C 
ENDROOT
TORSDOF 0
ENDMDL
MODEL 2
REMARK VINA RESULT:    -4.041      8.925     10.857
REMARK INTER + INTRA:          -4.041
REMARK INTER:                  -4.041
REMARK INTRA:                   0.000
REMARK UNBOUND:                 0.000
REMARK SMILES CC1=CC[C@H]2C[C@@H]1C2(C)C
REMARK SMILES IDX 1 1 2 2 3 3 4 4 5 5 6 6 7 7 8 8 9 9 10 10
REMARK H PARENT
REMARK Flexibility Score: inf
ROOT
ATOM      1  C   UNL     1      -0.942  13.124  19.366  1.00  0.00     0.039 C 
ATOM      2  C   UNL     1      -0.125  13.597  18.203  1.00  0.00    -0.074 C 
ATOM      3  C   UNL     1       0.493  12.717  17.361  1.00  0.00    -0.027 C 
ATOM      4  C   UNL     1       1.343  13.271  16.201  1.00  0.00     0.031 C 
ATOM      5  C   UNL     1       1.289  14.838  16.197  1.00  0.00    -0.000 C 
ATOM      6  C   UNL     1      -0.198  15.207  16.368  1.00  0.00     0.013 C 
ATOM      7  C   UNL     1       0.046  15.090  17.886  1.00  0.00     0.021 C 
ATOM      8  C   UNL     1       1.546  15.392  17.625  1.00  0.00    -0.026 C 
ATOM      9  C   UNL     1       2.607  14.688  18.517  1.00  0.00     0.012 C 
ATOM     10  C   UNL     1       1.847  16.912  17.619  1.00  0.00     0.012 C 
ENDROOT
TORSDOF 0
ENDMDL
MODEL 3
REMARK VINA RESULT:    -4.017      8.509     10.741
REMARK INTER + INTRA:          -4.017
REMARK INTER:                  -4.017
REMARK INTRA:                   0.000
REMARK UNBOUND:                 0.000
REMARK SMILES CC1=CC[C@H]2C[C@@H]1C2(C)C
REMARK SMILES IDX 1 1 2 2 3 3 4 4 5 5 6 6 7 7 8 8 9 9 10 10
REMARK H PARENT
REMARK Flexibility Score: inf
ROOT
ATOM      1  C   UNL     1      -0.983  12.738  19.769  1.00  0.00     0.039 C 
ATOM      2  C   UNL     1      -0.457  13.578  18.644  1.00  0.00    -0.074 C 
ATOM      3  C   UNL     1      -1.064  14.747  18.285  1.00  0.00    -0.027 C 
ATOM      4  C   UNL     1      -0.489  15.549  17.100  1.00  0.00     0.031 C 
ATOM      5  C   UNL     1       0.785  14.831  16.535  1.00  0.00    -0.000 C 
ATOM      6  C   UNL     1       1.640  14.465  17.765  1.00  0.00     0.013 C 
ATOM      7  C   UNL     1       0.795  13.178  17.850  1.00  0.00     0.021 C 
ATOM      8  C   UNL     1       0.508  13.316  16.332  1.00  0.00    -0.026 C 
ATOM      9  C   UNL     1      -0.887  12.879  15.802  1.00  0.00     0.012 C 
ATOM     10  C   UNL     1       1.594  12.633  15.464  1.00  0.00     0.012 C 
ENDROOT
TORSDOF 0
ENDMDL
MODEL 4
REMARK VINA RESULT:    -3.939      9.368     11.186
REMARK INTER + INTRA:          -3.939
REMARK INTER:                  -3.939
REMARK INTRA:                   0.000
REMARK UNBOUND:                 0.000
REMARK SMILES CC1=CC[C@H]2C[C@@H]1C2(C)C
REMARK SMILES IDX 1 1 2 2 3 3 4 4 5 5 6 6 7 7 8 8 9 9 10 10
REMARK H PARENT
REMARK Flexibility Score: inf
ROOT
ATOM      1  C   UNL     1      -0.009  17.628  14.776  1.00  0.00     0.039 C 
ATOM      2  C   UNL     1       0.505  16.799  15.913  1.00  0.00    -0.074 C 
ATOM      3  C   UNL     1       1.524  17.236  16.710  1.00  0.00    -0.027 C 
ATOM      4  C   UNL     1       2.025  16.321  17.845  1.00  0.00     0.031 C 
ATOM      5  C   UNL     1       1.178  15.002  17.884  1.00  0.00    -0.000 C 
ATOM      6  C   UNL     1      -0.295  15.447  17.782  1.00  0.00     0.013 C 
ATOM      7  C   UNL     1      -0.096  15.428  16.254  1.00  0.00     0.021 C 
ATOM      8  C   UNL     1       1.048  14.401  16.457  1.00  0.00    -0.026 C 
ATOM      9  C   UNL     1       2.277  14.466  15.507  1.00  0.00     0.012 C 
ATOM     10  C   UNL     1       0.530  12.940  16.483  1.00  0.00     0.012 C 
ENDROOT
TORSDOF 0
ENDMDL
MODEL 5
REMARK VINA RESULT:    -3.886      9.100     10.828
REMARK INTER + INTRA:          -3.886
REMARK INTER:                  -3.886
REMARK INTRA:                   0.000
REMARK UNBOUND:                 0.000
REMARK SMILES CC1=CC[C@H]2C[C@@H]1C2(C)C
REMARK SMILES IDX 1 1 2 2 3 3 4 4 5 5 6 6 7 7 8 8 9 9 10 10
REMARK H PARENT
REMARK Flexibility Score: inf
ROOT
ATOM      1  C   UNL     1       2.963  13.867  15.028  1.00  0.00     0.039 C 
ATOM      2  C   UNL     1       1.953  14.466  15.960  1.00  0.00    -0.074 C 
ATOM      3  C   UNL     1       1.334  13.714  16.917  1.00  0.00    -0.027 C 
ATOM      4  C   UNL     1       0.284  14.385  17.824  1.00  0.00     0.031 C 
ATOM      5  C   UNL     1       0.161  15.907  17.468  1.00  0.00    -0.000 C 
ATOM      6  C   UNL     1       1.607  16.432  17.365  1.00  0.00     0.013 C 
ATOM      7  C   UNL     1       1.576  15.953  15.900  1.00  0.00     0.021 C 
ATOM      8  C   UNL     1       0.032  16.093  15.931  1.00  0.00    -0.026 C 
ATOM      9  C   UNL     1      -0.819  15.071  15.125  1.00  0.00     0.012 C 
ATOM     10  C   UNL     1      -0.436  17.521  15.551  1.00  0.00     0.012 C 
ENDROOT
TORSDOF 0
ENDMDL
MODEL 6
REMARK VINA RESULT:    -3.858      8.040      9.922
REMARK INTER + INTRA:          -3.858
REMARK INTER:                  -3.858
REMARK INTRA:                   0.000
REMARK UNBOUND:                 0.000
REMARK SMILES CC1=CC[C@H]2C[C@@H]1C2(C)C
REMARK SMILES IDX 1 1 2 2 3 3 4 4 5 5 6 6 7 7 8 8 9 9 10 10
REMARK H PARENT
REMARK Flexibility Score: inf
ROOT
ATOM      1  C   UNL     1       3.151  13.870  14.451  1.00  0.00     0.039 C 
ATOM      2  C   UNL     1       1.985  14.238  15.318  1.00  0.00    -0.074 C 
ATOM      3  C   UNL     1       1.524  15.522  15.384  1.00  0.00    -0.027 C 
ATOM      4  C   UNL     1       0.339  15.838  16.317  1.00  0.00     0.031 C 
ATOM      5  C   UNL     1      -0.157  14.526  17.018  1.00  0.00    -0.000 C 
ATOM      6  C   UNL     1      -0.256  13.467  15.903  1.00  0.00     0.013 C 
ATOM      7  C   UNL     1       1.239  13.193  16.160  1.00  0.00     0.021 C 
ATOM      8  C   UNL     1       1.047  13.736  17.601  1.00  0.00    -0.026 C 
ATOM      9  C   UNL     1       2.214  14.529  18.252  1.00  0.00     0.012 C 
ATOM     10  C   UNL     1       0.599  12.630  18.590  1.00  0.00     0.012 C 
ENDROOT
TORSDOF 0
ENDMDL
MODEL 7
REMARK VINA RESULT:    -3.799      8.467     10.413
REMARK INTER + INTRA:          -3.799
REMARK INTER:                  -3.799
REMARK INTRA:                   0.000
REMARK UNBOUND:                 0.000
REMARK SMILES CC1=CC[C@H]2C[C@@H]1C2(C)C
REMARK SMILES IDX 1 1 2 2 3 3 4 4 5 5 6 6 7 7 8 8 9 9 10 10
REMARK H PARENT
REMARK Flexibility Score: inf
ROOT
ATOM      1  C   UNL     1       1.491  12.270  14.886  1.00  0.00     0.039 C 
ATOM      2  C   UNL     1       1.051  13.167  16.003  1.00  0.00    -0.074 C 
ATOM      3  C   UNL     1       0.029  12.816  16.838  1.00  0.00    -0.027 C 
ATOM      4  C   UNL     1      -0.393  13.798  17.949  1.00  0.00     0.031 C 
ATOM      5  C   UNL     1       0.525  15.069  17.919  1.00  0.00    -0.000 C 
ATOM      6  C   UNL     1       1.968  14.541  17.801  1.00  0.00     0.013 C 
ATOM      7  C   UNL     1       1.734  14.515  16.277  1.00  0.00     0.021 C 
ATOM      8  C   UNL     1       0.652  15.610  16.468  1.00  0.00    -0.026 C 
ATOM      9  C   UNL     1      -0.602  15.578  15.549  1.00  0.00     0.012 C 
ATOM     10  C   UNL     1       1.249  17.040  16.426  1.00  0.00     0.012 C 
ENDROOT
TORSDOF 0
ENDMDL
MODEL 8
REMARK VINA RESULT:    -3.781      9.038     10.680
REMARK INTER + INTRA:          -3.781
REMARK INTER:                  -3.781
REMARK INTRA:                   0.000
REMARK UNBOUND:                 0.000
REMARK SMILES CC1=CC[C@H]2C[C@@H]1C2(C)C
REMARK SMILES IDX 1 1 2 2 3 3 4 4 5 5 6 6 7 7 8 8 9 9 10 10
REMARK H PARENT
REMARK Flexibility Score: inf
ROOT
ATOM      1  C   UNL     1       1.904  17.367  17.503  1.00  0.00     0.039 C 
ATOM      2  C   UNL     1       1.309  16.120  16.923  1.00  0.00    -0.074 C 
ATOM      3  C   UNL     1       0.471  16.164  15.846  1.00  0.00    -0.027 C 
ATOM      4  C   UNL     1      -0.129  14.846  15.317  1.00  0.00     0.031 C 
ATOM      5  C   UNL     1       0.412  13.636  16.154  1.00  0.00    -0.000 C 
ATOM      6  C   UNL     1       1.934  13.853  16.267  1.00  0.00     0.013 C 
ATOM      7  C   UNL     1       1.622  14.730  17.496  1.00  0.00     0.021 C 
ATOM      8  C   UNL     1       0.301  13.937  17.674  1.00  0.00    -0.026 C 
ATOM      9  C   UNL     1      -0.952  14.697  18.193  1.00  0.00     0.012 C 
ATOM     10  C   UNL     1       0.491  12.665  18.538  1.00  0.00     0.012 C 
ENDROOT
TORSDOF 0
ENDMDL
