MODEL 1
REMARK VINA RESULT:    -6.971      0.000      0.000
REMARK INTER + INTRA:          -8.673
REMARK INTER:                  -8.397
REMARK INTRA:                  -0.276
REMARK UNBOUND:                -0.276
REMARK SMILES O=c1c(O)c(-c2ccc(O)c(O)c2)oc2cc(O)cc(O)c12
REMARK SMILES IDX 5 1 3 2 2 3 1 4 22 5 20 6 19 7 17 8 16 9 15 10 14 11 6 12
REMARK SMILES IDX 7 13 8 14 9 15 13 16 11 17 10 18 12 20 4 22 21 24 18 26
REMARK H PARENT 10 19 12 21 4 23 21 25 18 27
REMARK Flexibility Score: inf
ROOT
ATOM      1  C   UNL     1      -4.774  36.010  60.010  1.00  0.00     0.180 A 
ATOM      2  C   UNL     1      -6.017  35.912  59.362  1.00  0.00     0.208 A 
ATOM      3  C   UNL     1      -6.846  37.042  59.303  1.00  0.00     0.238 A 
ATOM      4  O   UNL     1      -7.934  36.963  58.674  1.00  0.00    -0.285 OA
ATOM      5  C   UNL     1      -6.430  38.254  59.907  1.00  0.00     0.111 A 
ATOM      6  C   UNL     1      -7.207  39.451  59.943  1.00  0.00     0.134 A 
ATOM      7  C   UNL     1      -6.642  40.626  60.453  1.00  0.00     0.093 A 
ATOM      8  C   UNL     1      -5.354  40.633  60.987  1.00  0.00     0.123 A 
ATOM      9  C   UNL     1      -4.608  39.455  61.011  1.00  0.00     0.094 A 
ATOM     10  C   UNL     1      -5.130  38.274  60.477  1.00  0.00     0.146 A 
ATOM     11  O   UNL     1      -4.383  37.178  60.510  1.00  0.00    -0.452 OA
ENDROOT
BRANCH   1  12
ATOM     12  C   UNL     1      -3.855  34.855  60.135  1.00  0.00     0.025 A 
ATOM     13  C   UNL     1      -3.806  34.139  61.341  1.00  0.00     0.016 A 
ATOM     14  C   UNL     1      -2.961  33.034  61.473  1.00  0.00     0.051 A 
ATOM     15  C   UNL     1      -2.166  32.618  60.400  1.00  0.00     0.157 A 
ATOM     16  C   UNL     1      -3.070  34.424  59.050  1.00  0.00     0.062 A 
ATOM     17  C   UNL     1      -2.224  33.314  59.180  1.00  0.00     0.158 A 
BRANCH  15  18
ATOM     18  O   UNL     1      -1.331  31.513  60.562  1.00  0.00    -0.504 OA
ATOM     19  H   UNL     1      -0.636  31.469  61.298  1.00  0.00     0.293 HD
ENDBRANCH  15  18
BRANCH  17  20
ATOM     20  O   UNL     1      -1.445  32.897  58.102  1.00  0.00    -0.504 OA
ATOM     21  H   UNL     1      -0.604  33.394  57.830  1.00  0.00     0.293 HD
ENDBRANCH  17  20
ENDBRANCH   1  12
BRANCH   2  22
ATOM     22  O   UNL     1      -6.398  34.713  58.754  1.00  0.00    -0.502 OA
ATOM     23  H   UNL     1      -6.159  33.807  59.139  1.00  0.00     0.293 HD
ENDBRANCH   2  22
BRANCH   6  24
ATOM     24  O   UNL     1      -8.537  39.530  59.520  1.00  0.00    -0.507 OA
ATOM     25  H   UNL     1      -8.925  40.290  58.981  1.00  0.00     0.293 HD
ENDBRANCH   6  24
BRANCH   8  26
ATOM     26  O   UNL     1      -4.830  41.818  61.500  1.00  0.00    -0.508 OA
ATOM     27  H   UNL     1      -4.057  42.293  61.049  1.00  0.00     0.293 HD
ENDBRANCH   8  26
TORSDOF 6
ENDMDL
MODEL 2
REMARK VINA RESULT:    -6.555     15.023     16.922
REMARK INTER + INTRA:          -8.172
REMARK INTER:                  -7.854
REMARK INTRA:                  -0.318
REMARK UNBOUND:                -0.276
REMARK SMILES O=c1c(O)c(-c2ccc(O)c(O)c2)oc2cc(O)cc(O)c12
REMARK SMILES IDX 5 1 3 2 2 3 1 4 22 5 20 6 19 7 17 8 16 9 15 10 14 11 6 12
REMARK SMILES IDX 7 13 8 14 9 15 13 16 11 17 10 18 12 20 4 22 21 24 18 26
REMARK H PARENT 10 19 12 21 4 23 21 25 18 27
REMARK Flexibility Score: inf
ROOT
ATOM      1  C   UNL     1     -16.315  27.939  51.938  1.00  0.00     0.180 A 
ATOM      2  C   UNL     1     -15.444  27.873  50.837  1.00  0.00     0.208 A 
ATOM      3  C   UNL     1     -15.709  28.667  49.710  1.00  0.00     0.238 A 
ATOM      4  O   UNL     1     -14.896  28.645  48.750  1.00  0.00    -0.285 OA
ATOM      5  C   UNL     1     -16.850  29.506  49.692  1.00  0.00     0.111 A 
ATOM      6  C   UNL     1     -17.238  30.323  48.588  1.00  0.00     0.134 A 
ATOM      7  C   UNL     1     -18.312  31.210  48.729  1.00  0.00     0.093 A 
ATOM      8  C   UNL     1     -19.053  31.263  49.909  1.00  0.00     0.123 A 
ATOM      9  C   UNL     1     -18.719  30.425  50.974  1.00  0.00     0.094 A 
ATOM     10  C   UNL     1     -17.630  29.556  50.877  1.00  0.00     0.146 A 
ATOM     11  O   UNL     1     -17.340  28.783  51.917  1.00  0.00    -0.452 OA
ENDROOT
BRANCH   1  12
ATOM     12  C   UNL     1     -16.115  27.113  53.152  1.00  0.00     0.025 A 
ATOM     13  C   UNL     1     -16.605  25.798  53.181  1.00  0.00     0.016 A 
ATOM     14  C   UNL     1     -16.410  24.996  54.308  1.00  0.00     0.051 A 
ATOM     15  C   UNL     1     -15.710  25.488  55.415  1.00  0.00     0.157 A 
ATOM     16  C   UNL     1     -15.394  27.600  54.257  1.00  0.00     0.062 A 
ATOM     17  C   UNL     1     -15.196  26.795  55.388  1.00  0.00     0.158 A 
BRANCH  15  18
ATOM     18  O   UNL     1     -15.534  24.664  56.526  1.00  0.00    -0.504 OA
ATOM     19  H   UNL     1     -14.829  24.854  57.229  1.00  0.00     0.293 HD
ENDBRANCH  15  18
BRANCH  17  20
ATOM     20  O   UNL     1     -14.486  27.287  56.482  1.00  0.00    -0.504 OA
ATOM     21  H   UNL     1     -14.692  26.986  57.428  1.00  0.00     0.293 HD
ENDBRANCH  17  20
ENDBRANCH   1  12
BRANCH   2  22
ATOM     22  O   UNL     1     -14.311  27.056  50.885  1.00  0.00    -0.502 OA
ATOM     23  H   UNL     1     -13.373  27.421  50.775  1.00  0.00     0.293 HD
ENDBRANCH   2  22
BRANCH   6  24
ATOM     24  O   UNL     1     -16.624  30.282  47.333  1.00  0.00    -0.507 OA
ATOM     25  H   UNL     1     -16.014  30.997  46.968  1.00  0.00     0.293 HD
ENDBRANCH   6  24
BRANCH   8  26
ATOM     26  O   UNL     1     -20.125  32.147  50.009  1.00  0.00    -0.508 OA
ATOM     27  H   UNL     1     -20.896  32.119  49.352  1.00  0.00     0.293 HD
ENDBRANCH   8  26
TORSDOF 6
ENDMDL
MODEL 3
REMARK VINA RESULT:    -6.394     16.000     17.445
REMARK INTER + INTRA:          -7.979
REMARK INTER:                  -7.734
REMARK INTRA:                  -0.245
REMARK UNBOUND:                -0.276
REMARK SMILES O=c1c(O)c(-c2ccc(O)c(O)c2)oc2cc(O)cc(O)c12
REMARK SMILES IDX 5 1 3 2 2 3 1 4 22 5 20 6 19 7 17 8 16 9 15 10 14 11 6 12
REMARK SMILES IDX 7 13 8 14 9 15 13 16 11 17 10 18 12 20 4 22 21 24 18 26
REMARK H PARENT 10 19 12 21 4 23 21 25 18 27
REMARK Flexibility Score: inf
ROOT
ATOM      1  C   UNL     1     -16.435  28.242  50.420  1.00  0.00     0.180 A 
ATOM      2  C   UNL     1     -16.346  27.846  49.074  1.00  0.00     0.208 A 
ATOM      3  C   UNL     1     -16.441  28.821  48.069  1.00  0.00     0.238 A 
ATOM      4  O   UNL     1     -16.306  28.467  46.869  1.00  0.00    -0.285 OA
ATOM      5  C   UNL     1     -16.641  30.178  48.421  1.00  0.00     0.111 A 
ATOM      6  C   UNL     1     -16.792  31.245  47.484  1.00  0.00     0.134 A 
ATOM      7  C   UNL     1     -16.854  32.565  47.945  1.00  0.00     0.093 A 
ATOM      8  C   UNL     1     -16.836  32.854  49.309  1.00  0.00     0.123 A 
ATOM      9  C   UNL     1     -16.749  31.815  50.236  1.00  0.00     0.094 A 
ATOM     10  C   UNL     1     -16.649  30.489  49.806  1.00  0.00     0.146 A 
ATOM     11  O   UNL     1     -16.557  29.531  50.720  1.00  0.00    -0.452 OA
ENDROOT
BRANCH   1  12
ATOM     12  C   UNL     1     -16.368  27.269  51.535  1.00  0.00     0.025 A 
ATOM     13  C   UNL     1     -15.263  27.285  52.399  1.00  0.00     0.016 A 
ATOM     14  C   UNL     1     -15.190  26.389  53.470  1.00  0.00     0.051 A 
ATOM     15  C   UNL     1     -16.225  25.478  53.702  1.00  0.00     0.157 A 
ATOM     16  C   UNL     1     -17.418  26.366  51.781  1.00  0.00     0.062 A 
ATOM     17  C   UNL     1     -17.347  25.468  52.856  1.00  0.00     0.158 A 
BRANCH  15  18
ATOM     18  O   UNL     1     -16.123  24.595  54.776  1.00  0.00    -0.504 OA
ATOM     19  H   UNL     1     -16.855  24.507  55.471  1.00  0.00     0.293 HD
ENDBRANCH  15  18
BRANCH  17  20
ATOM     20  O   UNL     1     -18.388  24.571  53.089  1.00  0.00    -0.504 OA
ATOM     21  H   UNL     1     -19.348  24.884  53.180  1.00  0.00     0.293 HD
ENDBRANCH  17  20
ENDBRANCH   1  12
BRANCH   2  22
ATOM     22  O   UNL     1     -16.126  26.505  48.751  1.00  0.00    -0.502 OA
ATOM     23  H   UNL     1     -15.437  25.936  49.228  1.00  0.00     0.293 HD
ENDBRANCH   2  22
BRANCH   6  24
ATOM     24  O   UNL     1     -16.914  31.059  46.104  1.00  0.00    -0.507 OA
ATOM     25  H   UNL     1     -17.176  31.779  45.448  1.00  0.00     0.293 HD
ENDBRANCH   6  24
BRANCH   8  26
ATOM     26  O   UNL     1     -16.915  34.179  49.732  1.00  0.00    -0.508 OA
ATOM     27  H   UNL     1     -16.882  34.948  49.072  1.00  0.00     0.293 HD
ENDBRANCH   8  26
TORSDOF 6
ENDMDL
MODEL 4
REMARK VINA RESULT:    -6.390     15.727     17.206
REMARK INTER + INTRA:          -7.973
REMARK INTER:                  -7.656
REMARK INTRA:                  -0.317
REMARK UNBOUND:                -0.276
REMARK SMILES O=c1c(O)c(-c2ccc(O)c(O)c2)oc2cc(O)cc(O)c12
REMARK SMILES IDX 5 1 3 2 2 3 1 4 22 5 20 6 19 7 17 8 16 9 15 10 14 11 6 12
REMARK SMILES IDX 7 13 8 14 9 15 13 16 11 17 10 18 12 20 4 22 21 24 18 26
REMARK H PARENT 10 19 12 21 4 23 21 25 18 27
REMARK Flexibility Score: inf
ROOT
ATOM      1  C   UNL     1     -17.043  27.555  52.284  1.00  0.00     0.180 A 
ATOM      2  C   UNL     1     -17.764  26.952  51.239  1.00  0.00     0.208 A 
ATOM      3  C   UNL     1     -18.129  27.726  50.127  1.00  0.00     0.238 A 
ATOM      4  O   UNL     1     -18.727  27.167  49.170  1.00  0.00    -0.285 OA
ATOM      5  C   UNL     1     -17.784  29.099  50.080  1.00  0.00     0.111 A 
ATOM      6  C   UNL     1     -18.138  29.989  49.021  1.00  0.00     0.134 A 
ATOM      7  C   UNL     1     -17.631  31.294  49.017  1.00  0.00     0.093 A 
ATOM      8  C   UNL     1     -16.839  31.762  50.065  1.00  0.00     0.123 A 
ATOM      9  C   UNL     1     -16.536  30.919  51.135  1.00  0.00     0.094 A 
ATOM     10  C   UNL     1     -16.996  29.600  51.150  1.00  0.00     0.146 A 
ATOM     11  O   UNL     1     -16.677  28.828  52.181  1.00  0.00    -0.452 OA
ENDROOT
BRANCH   1  12
ATOM     12  C   UNL     1     -16.644  26.810  53.500  1.00  0.00     0.025 A 
ATOM     13  C   UNL     1     -15.439  26.090  53.504  1.00  0.00     0.016 A 
ATOM     14  C   UNL     1     -15.034  25.397  54.648  1.00  0.00     0.051 A 
ATOM     15  C   UNL     1     -15.815  25.426  55.807  1.00  0.00     0.157 A 
ATOM     16  C   UNL     1     -17.419  26.856  54.673  1.00  0.00     0.062 A 
ATOM     17  C   UNL     1     -17.012  26.162  55.822  1.00  0.00     0.158 A 
BRANCH  15  18
ATOM     18  O   UNL     1     -15.385  24.723  56.932  1.00  0.00    -0.504 OA
ATOM     19  H   UNL     1     -15.061  25.194  57.768  1.00  0.00     0.293 HD
ENDBRANCH  15  18
BRANCH  17  20
ATOM     20  O   UNL     1     -17.789  26.207  56.979  1.00  0.00    -0.504 OA
ATOM     21  H   UNL     1     -17.456  26.655  57.825  1.00  0.00     0.293 HD
ENDBRANCH  17  20
ENDBRANCH   1  12
BRANCH   2  22
ATOM     22  O   UNL     1     -18.075  25.591  51.295  1.00  0.00    -0.502 OA
ATOM     23  H   UNL     1     -17.486  24.918  51.771  1.00  0.00     0.293 HD
ENDBRANCH   2  22
BRANCH   6  24
ATOM     24  O   UNL     1     -18.999  29.650  47.973  1.00  0.00    -0.507 OA
ATOM     25  H   UNL     1     -18.921  29.999  47.030  1.00  0.00     0.293 HD
ENDBRANCH   6  24
BRANCH   8  26
ATOM     26  O   UNL     1     -16.366  33.072  50.035  1.00  0.00    -0.508 OA
ATOM     27  H   UNL     1     -15.426  33.302  50.339  1.00  0.00     0.293 HD
ENDBRANCH   8  26
TORSDOF 6
ENDMDL
MODEL 5
REMARK VINA RESULT:    -6.381      1.600      6.503
REMARK INTER + INTRA:          -7.962
REMARK INTER:                  -7.782
REMARK INTRA:                  -0.180
REMARK UNBOUND:                -0.276
REMARK SMILES O=c1c(O)c(-c2ccc(O)c(O)c2)oc2cc(O)cc(O)c12
REMARK SMILES IDX 5 1 3 2 2 3 1 4 22 5 20 6 19 7 17 8 16 9 15 10 14 11 6 12
REMARK SMILES IDX 7 13 8 14 9 15 13 16 11 17 10 18 12 20 4 22 21 24 18 26
REMARK H PARENT 10 19 12 21 4 23 21 25 18 27
REMARK Flexibility Score: inf
ROOT
ATOM      1  C   UNL     1      -4.967  38.704  60.245  1.00  0.00     0.180 A 
ATOM      2  C   UNL     1      -6.226  38.476  59.664  1.00  0.00     0.208 A 
ATOM      3  C   UNL     1      -6.578  37.169  59.291  1.00  0.00     0.238 A 
ATOM      4  O   UNL     1      -7.728  36.963  58.822  1.00  0.00    -0.285 OA
ATOM      5  C   UNL     1      -5.660  36.109  59.488  1.00  0.00     0.111 A 
ATOM      6  C   UNL     1      -5.894  34.752  59.110  1.00  0.00     0.134 A 
ATOM      7  C   UNL     1      -4.969  33.765  59.471  1.00  0.00     0.093 A 
ATOM      8  C   UNL     1      -3.789  34.093  60.137  1.00  0.00     0.123 A 
ATOM      9  C   UNL     1      -3.522  35.424  60.458  1.00  0.00     0.094 A 
ATOM     10  C   UNL     1      -4.442  36.427  60.144  1.00  0.00     0.146 A 
ATOM     11  O   UNL     1      -4.154  37.680  60.476  1.00  0.00    -0.452 OA
ENDROOT
BRANCH   1  12
ATOM     12  C   UNL     1      -4.515  40.058  60.642  1.00  0.00     0.025 A 
ATOM     13  C   UNL     1      -5.139  40.705  61.719  1.00  0.00     0.016 A 
ATOM     14  C   UNL     1      -4.714  41.974  62.123  1.00  0.00     0.051 A 
ATOM     15  C   UNL     1      -3.652  42.606  61.469  1.00  0.00     0.157 A 
ATOM     16  C   UNL     1      -3.434  40.686  59.997  1.00  0.00     0.062 A 
ATOM     17  C   UNL     1      -3.006  41.958  60.403  1.00  0.00     0.158 A 
BRANCH  15  18
ATOM     18  O   UNL     1      -3.253  43.873  61.893  1.00  0.00    -0.504 OA
ATOM     19  H   UNL     1      -3.801  44.418  62.548  1.00  0.00     0.293 HD
ENDBRANCH  15  18
BRANCH  17  20
ATOM     20  O   UNL     1      -1.938  42.577  59.755  1.00  0.00    -0.504 OA
ATOM     21  H   UNL     1      -1.636  43.513  60.002  1.00  0.00     0.293 HD
ENDBRANCH  17  20
ENDBRANCH   1  12
BRANCH   2  22
ATOM     22  O   UNL     1      -7.126  39.532  59.500  1.00  0.00    -0.502 OA
ATOM     23  H   UNL     1      -8.114  39.385  59.330  1.00  0.00     0.293 HD
ENDBRANCH   2  22
BRANCH   6  24
ATOM     24  O   UNL     1      -6.997  34.331  58.362  1.00  0.00    -0.507 OA
ATOM     25  H   UNL     1      -7.099  33.413  57.954  1.00  0.00     0.293 HD
ENDBRANCH   6  24
BRANCH   8  26
ATOM     26  O   UNL     1      -2.885  33.086  60.466  1.00  0.00    -0.508 OA
ATOM     27  H   UNL     1      -1.897  33.280  60.586  1.00  0.00     0.293 HD
ENDBRANCH   8  26
TORSDOF 6
ENDMDL
MODEL 6
REMARK VINA RESULT:    -6.380     15.836     17.378
REMARK INTER + INTRA:          -7.961
REMARK INTER:                  -7.696
REMARK INTRA:                  -0.265
REMARK UNBOUND:                -0.276
REMARK SMILES O=c1c(O)c(-c2ccc(O)c(O)c2)oc2cc(O)cc(O)c12
REMARK SMILES IDX 5 1 3 2 2 3 1 4 22 5 20 6 19 7 17 8 16 9 15 10 14 11 6 12
REMARK SMILES IDX 7 13 8 14 9 15 13 16 11 17 10 18 12 20 4 22 21 24 18 26
REMARK H PARENT 10 19 12 21 4 23 21 25 18 27
REMARK Flexibility Score: inf
ROOT
ATOM      1  C   UNL     1     -16.656  27.810  52.752  1.00  0.00     0.180 A 
ATOM      2  C   UNL     1     -15.650  26.836  52.872  1.00  0.00     0.208 A 
ATOM      3  C   UNL     1     -15.567  26.085  54.054  1.00  0.00     0.238 A 
ATOM      4  O   UNL     1     -14.699  25.177  54.134  1.00  0.00    -0.285 OA
ATOM      5  C   UNL     1     -16.480  26.327  55.109  1.00  0.00     0.111 A 
ATOM      6  C   UNL     1     -16.464  25.653  56.367  1.00  0.00     0.134 A 
ATOM      7  C   UNL     1     -17.495  25.881  57.286  1.00  0.00     0.093 A 
ATOM      8  C   UNL     1     -18.505  26.805  57.022  1.00  0.00     0.123 A 
ATOM      9  C   UNL     1     -18.498  27.514  55.820  1.00  0.00     0.094 A 
ATOM     10  C   UNL     1     -17.503  27.282  54.867  1.00  0.00     0.146 A 
ATOM     11  O   UNL     1     -17.539  27.969  53.732  1.00  0.00    -0.452 OA
ENDROOT
BRANCH   1  12
ATOM     12  C   UNL     1     -16.792  28.659  51.545  1.00  0.00     0.025 A 
ATOM     13  C   UNL     1     -17.377  28.125  50.387  1.00  0.00     0.016 A 
ATOM     14  C   UNL     1     -17.534  28.915  49.246  1.00  0.00     0.051 A 
ATOM     15  C   UNL     1     -17.124  30.252  49.248  1.00  0.00     0.157 A 
ATOM     16  C   UNL     1     -16.398  30.010  51.554  1.00  0.00     0.062 A 
ATOM     17  C   UNL     1     -16.556  30.804  50.409  1.00  0.00     0.158 A 
BRANCH  15  18
ATOM     18  O   UNL     1     -17.291  31.015  48.092  1.00  0.00    -0.504 OA
ATOM     19  H   UNL     1     -16.687  30.907  47.286  1.00  0.00     0.293 HD
ENDBRANCH  15  18
BRANCH  17  20
ATOM     20  O   UNL     1     -16.158  32.140  50.423  1.00  0.00    -0.504 OA
ATOM     21  H   UNL     1     -15.250  32.427  50.076  1.00  0.00     0.293 HD
ENDBRANCH  17  20
ENDBRANCH   1  12
BRANCH   2  22
ATOM     22  O   UNL     1     -14.773  26.598  51.810  1.00  0.00    -0.502 OA
ATOM     23  H   UNL     1     -14.263  25.728  51.711  1.00  0.00     0.293 HD
ENDBRANCH   2  22
BRANCH   6  24
ATOM     24  O   UNL     1     -15.451  24.779  56.770  1.00  0.00    -0.507 OA
ATOM     25  H   UNL     1     -14.464  24.946  56.645  1.00  0.00     0.293 HD
ENDBRANCH   6  24
BRANCH   8  26
ATOM     26  O   UNL     1     -19.506  27.018  57.966  1.00  0.00    -0.508 OA
ATOM     27  H   UNL     1     -19.952  26.245  58.448  1.00  0.00     0.293 HD
ENDBRANCH   8  26
TORSDOF 6
ENDMDL
MODEL 7
REMARK VINA RESULT:    -6.363     16.241     17.784
REMARK INTER + INTRA:          -7.941
REMARK INTER:                  -8.063
REMARK INTRA:                   0.122
REMARK UNBOUND:                -0.276
REMARK SMILES O=c1c(O)c(-c2ccc(O)c(O)c2)oc2cc(O)cc(O)c12
REMARK SMILES IDX 5 1 3 2 2 3 1 4 22 5 20 6 19 7 17 8 16 9 15 10 14 11 6 12
REMARK SMILES IDX 7 13 8 14 9 15 13 16 11 17 10 18 12 20 4 22 21 24 18 26
REMARK H PARENT 10 19 12 21 4 23 21 25 18 27
REMARK Flexibility Score: inf
ROOT
ATOM      1  C   UNL     1     -17.131  31.016  50.136  1.00  0.00     0.180 A 
ATOM      2  C   UNL     1     -18.111  31.089  51.141  1.00  0.00     0.208 A 
ATOM      3  C   UNL     1     -18.155  30.088  52.124  1.00  0.00     0.238 A 
ATOM      4  O   UNL     1     -19.000  30.188  53.052  1.00  0.00    -0.285 OA
ATOM      5  C   UNL     1     -17.229  29.018  52.081  1.00  0.00     0.111 A 
ATOM      6  C   UNL     1     -17.207  27.927  53.002  1.00  0.00     0.134 A 
ATOM      7  C   UNL     1     -16.166  26.993  52.941  1.00  0.00     0.093 A 
ATOM      8  C   UNL     1     -15.184  27.072  51.955  1.00  0.00     0.123 A 
ATOM      9  C   UNL     1     -15.229  28.100  51.013  1.00  0.00     0.094 A 
ATOM     10  C   UNL     1     -16.235  29.068  51.069  1.00  0.00     0.146 A 
ATOM     11  O   UNL     1     -16.236  30.035  50.160  1.00  0.00    -0.452 OA
ENDROOT
BRANCH   1  12
ATOM     12  C   UNL     1     -17.037  32.021  49.051  1.00  0.00     0.025 A 
ATOM     13  C   UNL     1     -17.121  33.386  49.365  1.00  0.00     0.016 A 
ATOM     14  C   UNL     1     -17.014  34.350  48.360  1.00  0.00     0.051 A 
ATOM     15  C   UNL     1     -16.806  33.967  47.031  1.00  0.00     0.157 A 
ATOM     16  C   UNL     1     -16.808  31.637  47.717  1.00  0.00     0.062 A 
ATOM     17  C   UNL     1     -16.699  32.604  46.708  1.00  0.00     0.158 A 
BRANCH  15  18
ATOM     18  O   UNL     1     -16.706  34.953  46.049  1.00  0.00    -0.504 OA
ATOM     19  H   UNL     1     -16.475  34.732  45.088  1.00  0.00     0.293 HD
ENDBRANCH  15  18
BRANCH  17  20
ATOM     20  O   UNL     1     -16.478  32.216  45.387  1.00  0.00    -0.504 OA
ATOM     21  H   UNL     1     -15.544  32.164  44.998  1.00  0.00     0.293 HD
ENDBRANCH  17  20
ENDBRANCH   1  12
BRANCH   2  22
ATOM     22  O   UNL     1     -19.001  32.166  51.177  1.00  0.00    -0.502 OA
ATOM     23  H   UNL     1     -19.924  32.124  50.762  1.00  0.00     0.293 HD
ENDBRANCH   2  22
BRANCH   6  24
ATOM     24  O   UNL     1     -18.192  27.702  53.968  1.00  0.00    -0.507 OA
ATOM     25  H   UNL     1     -18.439  26.797  54.338  1.00  0.00     0.293 HD
ENDBRANCH   6  24
BRANCH   8  26
ATOM     26  O   UNL     1     -14.171  26.116  51.916  1.00  0.00    -0.508 OA
ATOM     27  H   UNL     1     -14.054  25.439  52.662  1.00  0.00     0.293 HD
ENDBRANCH   8  26
TORSDOF 6
ENDMDL
MODEL 8
REMARK VINA RESULT:    -6.312      1.294      2.889
REMARK INTER + INTRA:          -7.879
REMARK INTER:                  -7.544
REMARK INTRA:                  -0.335
REMARK UNBOUND:                -0.276
REMARK SMILES O=c1c(O)c(-c2ccc(O)c(O)c2)oc2cc(O)cc(O)c12
REMARK SMILES IDX 5 1 3 2 2 3 1 4 22 5 20 6 19 7 17 8 16 9 15 10 14 11 6 12
REMARK SMILES IDX 7 13 8 14 9 15 13 16 11 17 10 18 12 20 4 22 21 24 18 26
REMARK H PARENT 10 19 12 21 4 23 21 25 18 27
REMARK Flexibility Score: inf
ROOT
ATOM      1  C   UNL     1      -3.942  36.023  60.085  1.00  0.00     0.180 A 
ATOM      2  C   UNL     1      -3.374  37.242  60.491  1.00  0.00     0.208 A 
ATOM      3  C   UNL     1      -4.175  38.395  60.507  1.00  0.00     0.238 A 
ATOM      4  O   UNL     1      -3.676  39.473  60.924  1.00  0.00    -0.285 OA
ATOM      5  C   UNL     1      -5.530  38.317  60.102  1.00  0.00     0.111 A 
ATOM      6  C   UNL     1      -6.423  39.429  60.040  1.00  0.00     0.134 A 
ATOM      7  C   UNL     1      -7.776  39.213  59.750  1.00  0.00     0.093 A 
ATOM      8  C   UNL     1      -8.255  37.937  59.456  1.00  0.00     0.123 A 
ATOM      9  C   UNL     1      -7.379  36.852  59.455  1.00  0.00     0.094 A 
ATOM     10  C   UNL     1      -6.031  37.029  59.776  1.00  0.00     0.146 A 
ATOM     11  O   UNL     1      -5.232  35.968  59.773  1.00  0.00    -0.452 OA
ENDROOT
BRANCH   1  12
ATOM     12  C   UNL     1      -3.155  34.769  60.019  1.00  0.00     0.025 A 
ATOM     13  C   UNL     1      -3.148  33.899  61.119  1.00  0.00     0.016 A 
ATOM     14  C   UNL     1      -2.429  32.702  61.069  1.00  0.00     0.051 A 
ATOM     15  C   UNL     1      -1.720  32.349  59.916  1.00  0.00     0.157 A 
ATOM     16  C   UNL     1      -2.459  34.405  58.852  1.00  0.00     0.062 A 
ATOM     17  C   UNL     1      -1.738  33.203  58.800  1.00  0.00     0.158 A 
BRANCH  15  18
ATOM     18  O   UNL     1      -1.010  31.150  59.897  1.00  0.00    -0.504 OA
ATOM     19  H   UNL     1      -0.068  31.089  59.530  1.00  0.00     0.293 HD
ENDBRANCH  15  18
BRANCH  17  20
ATOM     20  O   UNL     1      -1.045  32.851  57.643  1.00  0.00    -0.504 OA
ATOM     21  H   UNL     1      -1.527  32.523  56.814  1.00  0.00     0.293 HD
ENDBRANCH  17  20
ENDBRANCH   1  12
BRANCH   2  22
ATOM     22  O   UNL     1      -2.042  37.292  60.909  1.00  0.00    -0.502 OA
ATOM     23  H   UNL     1      -1.561  38.165  61.091  1.00  0.00     0.293 HD
ENDBRANCH   2  22
BRANCH   6  24
ATOM     24  O   UNL     1      -6.029  40.757  60.227  1.00  0.00    -0.507 OA
ATOM     25  H   UNL     1      -5.345  41.238  59.663  1.00  0.00     0.293 HD
ENDBRANCH   6  24
BRANCH   8  26
ATOM     26  O   UNL     1      -9.604  37.763  59.156  1.00  0.00    -0.508 OA
ATOM     27  H   UNL     1     -10.321  37.858  59.867  1.00  0.00     0.293 HD
ENDBRANCH   8  26
TORSDOF 6
ENDMDL
MODEL 9
REMARK VINA RESULT:    -6.236     16.529     17.694
REMARK INTER + INTRA:          -7.788
REMARK INTER:                  -7.527
REMARK INTRA:                  -0.261
REMARK UNBOUND:                -0.276
REMARK SMILES O=c1c(O)c(-c2ccc(O)c(O)c2)oc2cc(O)cc(O)c12
REMARK SMILES IDX 5 1 3 2 2 3 1 4 22 5 20 6 19 7 17 8 16 9 15 10 14 11 6 12
REMARK SMILES IDX 7 13 8 14 9 15 13 16 11 17 10 18 12 20 4 22 21 24 18 26
REMARK H PARENT 10 19 12 21 4 23 21 25 18 27
REMARK Flexibility Score: inf
ROOT
ATOM      1  C   UNL     1     -16.711  27.191  51.655  1.00  0.00     0.180 A 
ATOM      2  C   UNL     1     -17.704  28.100  52.056  1.00  0.00     0.208 A 
ATOM      3  C   UNL     1     -18.098  28.129  53.403  1.00  0.00     0.238 A 
ATOM      4  O   UNL     1     -18.949  28.982  53.766  1.00  0.00    -0.285 OA
ATOM      5  C   UNL     1     -17.505  27.238  54.330  1.00  0.00     0.111 A 
ATOM      6  C   UNL     1     -17.855  27.151  55.711  1.00  0.00     0.134 A 
ATOM      7  C   UNL     1     -17.113  26.324  56.562  1.00  0.00     0.093 A 
ATOM      8  C   UNL     1     -16.076  25.532  56.072  1.00  0.00     0.123 A 
ATOM      9  C   UNL     1     -15.763  25.563  54.712  1.00  0.00     0.094 A 
ATOM     10  C   UNL     1     -16.462  26.405  53.844  1.00  0.00     0.146 A 
ATOM     11  O   UNL     1     -16.127  26.412  52.560  1.00  0.00    -0.452 OA
ENDROOT
BRANCH   1  12
ATOM     12  C   UNL     1     -16.260  27.084  50.248  1.00  0.00     0.025 A 
ATOM     13  C   UNL     1     -17.094  26.471  49.300  1.00  0.00     0.016 A 
ATOM     14  C   UNL     1     -16.698  26.378  47.964  1.00  0.00     0.051 A 
ATOM     15  C   UNL     1     -15.471  26.909  47.551  1.00  0.00     0.157 A 
ATOM     16  C   UNL     1     -15.036  27.636  49.828  1.00  0.00     0.062 A 
ATOM     17  C   UNL     1     -14.638  27.545  48.486  1.00  0.00     0.158 A 
BRANCH  15  18
ATOM     18  O   UNL     1     -15.102  26.799  46.211  1.00  0.00    -0.504 OA
ATOM     19  H   UNL     1     -15.780  26.617  45.480  1.00  0.00     0.293 HD
ENDBRANCH  15  18
BRANCH  17  20
ATOM     20  O   UNL     1     -13.421  28.089  48.079  1.00  0.00    -0.504 OA
ATOM     21  H   UNL     1     -13.364  28.748  47.311  1.00  0.00     0.293 HD
ENDBRANCH  17  20
ENDBRANCH   1  12
BRANCH   2  22
ATOM     22  O   UNL     1     -18.260  28.986  51.130  1.00  0.00    -0.502 OA
ATOM     23  H   UNL     1     -19.169  29.413  51.263  1.00  0.00     0.293 HD
ENDBRANCH   2  22
BRANCH   6  24
ATOM     24  O   UNL     1     -18.934  27.831  56.285  1.00  0.00    -0.507 OA
ATOM     25  H   UNL     1     -19.883  27.489  56.306  1.00  0.00     0.293 HD
ENDBRANCH   6  24
BRANCH   8  26
ATOM     26  O   UNL     1     -15.368  24.709  56.945  1.00  0.00    -0.508 OA
ATOM     27  H   UNL     1     -14.355  24.726  56.985  1.00  0.00     0.293 HD
ENDBRANCH   8  26
TORSDOF 6
ENDMDL
