MODEL 1
REMARK VINA RESULT:    -3.589      0.000      0.000
REMARK INTER + INTRA:          -7.626
REMARK INTER:                  -6.107
REMARK INTRA:                  -1.519
REMARK UNBOUND:                -1.519
REMARK SMILES CCCCCCCCCCCCCC(=O)[O-]
REMARK SMILES IDX 8 1 9 2 10 3 11 4 12 5 13 6 14 7 15 8 16 9 7 10 6 11 5 12
REMARK SMILES IDX 4 13 3 14 2 15 1 16
REMARK H PARENT
REMARK Flexibility Score: inf
ROOT
ATOM      1  C   UNL     1     -18.833  44.793  -8.267  1.00  0.00     0.000 C 
ENDROOT
BRANCH   1   2
ATOM      2  C   UNL     1     -18.198  43.857  -7.224  1.00  0.00     0.000 C 
BRANCH   2   3
ATOM      3  C   UNL     1     -16.666  43.975  -7.182  1.00  0.00     0.000 C 
BRANCH   3   4
ATOM      4  C   UNL     1     -16.072  43.466  -5.856  1.00  0.00     0.000 C 
BRANCH   4   5
ATOM      5  C   UNL     1     -17.018  42.508  -5.116  1.00  0.00     0.006 C 
BRANCH   5   6
ATOM      6  C   UNL     1     -17.300  42.950  -3.674  1.00  0.00     0.053 C 
BRANCH   6   7
ATOM      7  C   UNL     1     -18.738  43.332  -3.516  1.00  0.00     0.041 C 
ATOM      8  O   UNL     1     -19.206  44.313  -4.152  1.00  0.00    -0.550 OA
ATOM      9  O   UNL     1     -19.573  42.574  -2.705  1.00  0.00    -0.550 OA
ENDBRANCH   6   7
ENDBRANCH   5   6
ENDBRANCH   4   5
ENDBRANCH   3   4
ENDBRANCH   2   3
ENDBRANCH   1   2
BRANCH   1  10
ATOM     10  C   UNL     1     -19.784  44.060  -9.231  1.00  0.00     0.000 C 
BRANCH  10  11
ATOM     11  C   UNL     1     -19.098  43.136 -10.253  1.00  0.00    -0.000 C 
BRANCH  11  12
ATOM     12  C   UNL     1     -18.032  43.856 -11.091  1.00  0.00    -0.000 C 
BRANCH  12  13
ATOM     13  C   UNL     1     -16.637  43.272 -10.830  1.00  0.00    -0.000 C 
BRANCH  13  14
ATOM     14  C   UNL     1     -15.546  44.352 -10.725  1.00  0.00    -0.000 C 
BRANCH  14  15
ATOM     15  C   UNL     1     -16.104  45.787 -10.630  1.00  0.00    -0.003 C 
ATOM     16  C   UNL     1     -15.479  46.579  -9.480  1.00  0.00     0.004 C 
ENDBRANCH  14  15
ENDBRANCH  13  14
ENDBRANCH  12  13
ENDBRANCH  11  12
ENDBRANCH  10  11
ENDBRANCH   1  10
TORSDOF 12
ENDMDL
MODEL 2
REMARK VINA RESULT:    -3.445      2.660      5.820
REMARK INTER + INTRA:          -7.381
REMARK INTER:                  -5.761
REMARK INTRA:                  -1.620
REMARK UNBOUND:                -1.519
REMARK SMILES CCCCCCCCCCCCCC(=O)[O-]
REMARK SMILES IDX 8 1 9 2 10 3 11 4 12 5 13 6 14 7 15 8 16 9 7 10 6 11 5 12
REMARK SMILES IDX 4 13 3 14 2 15 1 16
REMARK H PARENT
REMARK Flexibility Score: inf
ROOT
ATOM      1  C   UNL     1     -19.579  44.479  -8.601  1.00  0.00     0.000 C 
ENDROOT
BRANCH   1   2
ATOM      2  C   UNL     1     -19.349  43.200  -9.425  1.00  0.00     0.000 C 
BRANCH   2   3
ATOM      3  C   UNL     1     -18.608  43.474 -10.743  1.00  0.00     0.000 C 
BRANCH   3   4
ATOM      4  C   UNL     1     -17.277  42.709 -10.841  1.00  0.00     0.000 C 
BRANCH   4   5
ATOM      5  C   UNL     1     -16.058  43.645 -10.866  1.00  0.00     0.006 C 
BRANCH   5   6
ATOM      6  C   UNL     1     -16.395  45.068 -10.400  1.00  0.00     0.053 C 
BRANCH   6   7
ATOM      7  C   UNL     1     -15.476  45.487  -9.296  1.00  0.00     0.041 C 
ATOM      8  O   UNL     1     -15.715  46.531  -8.634  1.00  0.00    -0.550 OA
ATOM      9  O   UNL     1     -14.382  44.698  -8.966  1.00  0.00    -0.550 OA
ENDBRANCH   6   7
ENDBRANCH   5   6
ENDBRANCH   4   5
ENDBRANCH   3   4
ENDBRANCH   2   3
ENDBRANCH   1   2
BRANCH   1  10
ATOM     10  C   UNL     1     -18.690  44.552  -7.347  1.00  0.00     0.000 C 
BRANCH  10  11
ATOM     11  C   UNL     1     -17.758  43.346  -7.132  1.00  0.00    -0.000 C 
BRANCH  11  12
ATOM     12  C   UNL     1     -16.512  43.691  -6.304  1.00  0.00    -0.000 C 
BRANCH  12  13
ATOM     13  C   UNL     1     -16.668  43.221  -4.851  1.00  0.00    -0.000 C 
BRANCH  13  14
ATOM     14  C   UNL     1     -17.642  42.039  -4.706  1.00  0.00    -0.000 C 
BRANCH  14  15
ATOM     15  C   UNL     1     -18.773  42.290  -3.688  1.00  0.00    -0.003 C 
ATOM     16  C   UNL     1     -18.913  43.770  -3.325  1.00  0.00     0.004 C 
ENDBRANCH  14  15
ENDBRANCH  13  14
ENDBRANCH  12  13
ENDBRANCH  11  12
ENDBRANCH  10  11
ENDBRANCH   1  10
TORSDOF 12
ENDMDL
MODEL 3
REMARK VINA RESULT:    -3.368      2.516      6.119
REMARK INTER + INTRA:          -7.250
REMARK INTER:                  -6.121
REMARK INTRA:                  -1.129
REMARK UNBOUND:                -1.519
REMARK SMILES CCCCCCCCCCCCCC(=O)[O-]
REMARK SMILES IDX 8 1 9 2 10 3 11 4 12 5 13 6 14 7 15 8 16 9 7 10 6 11 5 12
REMARK SMILES IDX 4 13 3 14 2 15 1 16
REMARK H PARENT
REMARK Flexibility Score: inf
ROOT
ATOM      1  C   UNL     1     -15.140  44.911  -8.495  1.00  0.00     0.000 C 
ENDROOT
BRANCH   1   2
ATOM      2  C   UNL     1     -15.825  46.281  -8.636  1.00  0.00     0.000 C 
BRANCH   2   3
ATOM      3  C   UNL     1     -15.574  46.927 -10.008  1.00  0.00     0.000 C 
BRANCH   3   4
ATOM      4  C   UNL     1     -16.416  46.284 -11.124  1.00  0.00     0.000 C 
BRANCH   4   5
ATOM      5  C   UNL     1     -17.821  45.884 -10.648  1.00  0.00     0.006 C 
BRANCH   5   6
ATOM      6  C   UNL     1     -18.126  44.399 -10.885  1.00  0.00     0.053 C 
BRANCH   6   7
ATOM      7  C   UNL     1     -19.516  44.073 -10.437  1.00  0.00     0.041 C 
ATOM      8  O   UNL     1     -20.478  44.819 -10.763  1.00  0.00    -0.550 OA
ATOM      9  O   UNL     1     -19.757  42.920  -9.702  1.00  0.00    -0.550 OA
ENDBRANCH   6   7
ENDBRANCH   5   6
ENDBRANCH   4   5
ENDBRANCH   3   4
ENDBRANCH   2   3
ENDBRANCH   1   2
BRANCH   1  10
ATOM     10  C   UNL     1     -15.756  44.043  -7.382  1.00  0.00     0.000 C 
BRANCH  10  11
ATOM     11  C   UNL     1     -17.294  44.056  -7.317  1.00  0.00    -0.000 C 
BRANCH  11  12
ATOM     12  C   UNL     1     -17.854  43.167  -6.196  1.00  0.00    -0.000 C 
BRANCH  12  13
ATOM     13  C   UNL     1     -16.786  42.884  -5.131  1.00  0.00    -0.000 C 
BRANCH  13  14
ATOM     14  C   UNL     1     -17.171  43.419  -3.741  1.00  0.00    -0.000 C 
BRANCH  14  15
ATOM     15  C   UNL     1     -18.684  43.668  -3.571  1.00  0.00    -0.003 C 
ATOM     16  C   UNL     1     -19.419  42.441  -3.029  1.00  0.00     0.004 C 
ENDBRANCH  14  15
ENDBRANCH  13  14
ENDBRANCH  12  13
ENDBRANCH  11  12
ENDBRANCH  10  11
ENDBRANCH   1  10
TORSDOF 12
ENDMDL
MODEL 4
REMARK VINA RESULT:    -3.330      0.963      2.869
REMARK INTER + INTRA:          -7.185
REMARK INTER:                  -5.536
REMARK INTRA:                  -1.650
REMARK UNBOUND:                -1.519
REMARK SMILES CCCCCCCCCCCCCC(=O)[O-]
REMARK SMILES IDX 8 1 9 2 10 3 11 4 12 5 13 6 14 7 15 8 16 9 7 10 6 11 5 12
REMARK SMILES IDX 4 13 3 14 2 15 1 16
REMARK H PARENT
REMARK Flexibility Score: inf
ROOT
ATOM      1  C   UNL     1     -14.400  44.979  -9.118  1.00  0.00     0.000 C 
ENDROOT
BRANCH   1   2
ATOM      2  C   UNL     1     -15.227  45.131  -7.830  1.00  0.00     0.000 C 
BRANCH   2   3
ATOM      3  C   UNL     1     -15.594  43.776  -7.203  1.00  0.00     0.000 C 
BRANCH   3   4
ATOM      4  C   UNL     1     -16.072  43.912  -5.746  1.00  0.00     0.000 C 
BRANCH   4   5
ATOM      5  C   UNL     1     -17.092  42.830  -5.357  1.00  0.00     0.006 C 
BRANCH   5   6
ATOM      6  C   UNL     1     -17.305  42.734  -3.840  1.00  0.00     0.053 C 
BRANCH   6   7
ATOM      7  C   UNL     1     -18.708  43.111  -3.485  1.00  0.00     0.041 C 
ATOM      8  O   UNL     1     -19.509  42.240  -3.054  1.00  0.00    -0.550 OA
ATOM      9  O   UNL     1     -19.118  44.435  -3.582  1.00  0.00    -0.550 OA
ENDBRANCH   6   7
ENDBRANCH   5   6
ENDBRANCH   4   5
ENDBRANCH   3   4
ENDBRANCH   2   3
ENDBRANCH   1   2
BRANCH   1  10
ATOM     10  C   UNL     1     -15.250  44.556 -10.330  1.00  0.00     0.000 C 
BRANCH  10  11
ATOM     11  C   UNL     1     -16.400  45.514 -10.692  1.00  0.00    -0.000 C 
BRANCH  11  12
ATOM     12  C   UNL     1     -17.746  44.797 -10.866  1.00  0.00    -0.000 C 
BRANCH  12  13
ATOM     13  C   UNL     1     -17.661  43.341 -10.387  1.00  0.00    -0.000 C 
BRANCH  13  14
ATOM     14  C   UNL     1     -18.541  43.064  -9.156  1.00  0.00    -0.000 C 
BRANCH  14  15
ATOM     15  C   UNL     1     -19.531  44.203  -8.834  1.00  0.00    -0.003 C 
ATOM     16  C   UNL     1     -19.222  44.884  -7.500  1.00  0.00     0.004 C 
ENDBRANCH  14  15
ENDBRANCH  13  14
ENDBRANCH  12  13
ENDBRANCH  11  12
ENDBRANCH  10  11
ENDBRANCH   1  10
TORSDOF 12
ENDMDL
MODEL 5
REMARK VINA RESULT:    -3.258      0.884      1.653
REMARK INTER + INTRA:          -7.063
REMARK INTER:                  -5.598
REMARK INTRA:                  -1.465
REMARK UNBOUND:                -1.519
REMARK SMILES CCCCCCCCCCCCCC(=O)[O-]
REMARK SMILES IDX 8 1 9 2 10 3 11 4 12 5 13 6 14 7 15 8 16 9 7 10 6 11 5 12
REMARK SMILES IDX 4 13 3 14 2 15 1 16
REMARK H PARENT
REMARK Flexibility Score: inf
ROOT
ATOM      1  C   UNL     1     -19.231  43.102  -9.242  1.00  0.00     0.000 C 
ENDROOT
BRANCH   1   2
ATOM      2  C   UNL     1     -19.339  44.495  -8.598  1.00  0.00     0.000 C 
BRANCH   2   3
ATOM      3  C   UNL     1     -18.762  44.531  -7.174  1.00  0.00     0.000 C 
BRANCH   3   4
ATOM      4  C   UNL     1     -17.964  43.261  -6.830  1.00  0.00     0.000 C 
BRANCH   4   5
ATOM      5  C   UNL     1     -17.216  43.379  -5.492  1.00  0.00     0.006 C 
BRANCH   5   6
ATOM      6  C   UNL     1     -17.722  42.384  -4.440  1.00  0.00     0.053 C 
BRANCH   6   7
ATOM      7  C   UNL     1     -18.763  43.022  -3.576  1.00  0.00     0.041 C 
ATOM      8  O   UNL     1     -19.034  44.245  -3.709  1.00  0.00    -0.550 OA
ATOM      9  O   UNL     1     -19.470  42.256  -2.658  1.00  0.00    -0.550 OA
ENDBRANCH   6   7
ENDBRANCH   5   6
ENDBRANCH   4   5
ENDBRANCH   3   4
ENDBRANCH   2   3
ENDBRANCH   1   2
BRANCH   1  10
ATOM     10  C   UNL     1     -18.882  43.159 -10.741  1.00  0.00     0.000 C 
BRANCH  10  11
ATOM     11  C   UNL     1     -17.810  44.196 -11.125  1.00  0.00    -0.000 C 
BRANCH  11  12
ATOM     12  C   UNL     1     -16.387  43.621 -11.107  1.00  0.00    -0.000 C 
BRANCH  12  13
ATOM     13  C   UNL     1     -15.411  44.584 -10.418  1.00  0.00    -0.000 C 
BRANCH  13  14
ATOM     14  C   UNL     1     -15.470  44.498  -8.883  1.00  0.00    -0.000 C 
BRANCH  14  15
ATOM     15  C   UNL     1     -15.315  45.863  -8.180  1.00  0.00    -0.003 C 
ATOM     16  C   UNL     1     -14.766  46.941  -9.116  1.00  0.00     0.004 C 
ENDBRANCH  14  15
ENDBRANCH  13  14
ENDBRANCH  12  13
ENDBRANCH  11  12
ENDBRANCH  10  11
ENDBRANCH   1  10
TORSDOF 12
ENDMDL
MODEL 6
REMARK VINA RESULT:    -3.132      2.921      5.815
REMARK INTER + INTRA:          -6.848
REMARK INTER:                  -5.495
REMARK INTRA:                  -1.353
REMARK UNBOUND:                -1.519
REMARK SMILES CCCCCCCCCCCCCC(=O)[O-]
REMARK SMILES IDX 8 1 9 2 10 3 11 4 12 5 13 6 14 7 15 8 16 9 7 10 6 11 5 12
REMARK SMILES IDX 4 13 3 14 2 15 1 16
REMARK H PARENT
REMARK Flexibility Score: inf
ROOT
ATOM      1  C   UNL     1     -17.564  43.355 -10.014  1.00  0.00     0.000 C 
ENDROOT
BRANCH   1   2
ATOM      2  C   UNL     1     -16.782  44.680 -10.011  1.00  0.00     0.000 C 
BRANCH   2   3
ATOM      3  C   UNL     1     -15.263  44.467  -9.912  1.00  0.00     0.000 C 
BRANCH   3   4
ATOM      4  C   UNL     1     -14.682  44.983  -8.583  1.00  0.00     0.000 C 
BRANCH   4   5
ATOM      5  C   UNL     1     -15.381  46.260  -8.089  1.00  0.00     0.006 C 
BRANCH   5   6
ATOM      6  C   UNL     1     -14.757  47.537  -8.667  1.00  0.00     0.053 C 
BRANCH   6   7
ATOM      7  C   UNL     1     -14.756  48.627  -7.641  1.00  0.00     0.041 C 
ATOM      8  O   UNL     1     -14.516  48.360  -6.434  1.00  0.00    -0.550 OA
ATOM      9  O   UNL     1     -14.970  49.944  -8.027  1.00  0.00    -0.550 OA
ENDBRANCH   6   7
ENDBRANCH   5   6
ENDBRANCH   4   5
ENDBRANCH   3   4
ENDBRANCH   2   3
ENDBRANCH   1   2
BRANCH   1  10
ATOM     10  C   UNL     1     -18.660  43.303  -8.934  1.00  0.00     0.000 C 
BRANCH  10  11
ATOM     11  C   UNL     1     -18.790  44.571  -8.071  1.00  0.00    -0.000 C 
BRANCH  11  12
ATOM     12  C   UNL     1     -18.641  44.292  -6.568  1.00  0.00    -0.000 C 
BRANCH  12  13
ATOM     13  C   UNL     1     -17.336  43.539  -6.275  1.00  0.00    -0.000 C 
BRANCH  13  14
ATOM     14  C   UNL     1     -17.195  43.141  -4.795  1.00  0.00    -0.000 C 
BRANCH  14  15
ATOM     15  C   UNL     1     -18.205  42.065  -4.345  1.00  0.00    -0.003 C 
ATOM     16  C   UNL     1     -19.181  42.588  -3.290  1.00  0.00     0.004 C 
ENDBRANCH  14  15
ENDBRANCH  13  14
ENDBRANCH  12  13
ENDBRANCH  11  12
ENDBRANCH  10  11
ENDBRANCH   1  10
TORSDOF 12
ENDMDL
MODEL 7
REMARK VINA RESULT:    -3.115      1.591      2.753
REMARK INTER + INTRA:          -6.819
REMARK INTER:                  -5.693
REMARK INTRA:                  -1.126
REMARK UNBOUND:                -1.519
REMARK SMILES CCCCCCCCCCCCCC(=O)[O-]
REMARK SMILES IDX 8 1 9 2 10 3 11 4 12 5 13 6 14 7 15 8 16 9 7 10 6 11 5 12
REMARK SMILES IDX 4 13 3 14 2 15 1 16
REMARK H PARENT
REMARK Flexibility Score: inf
ROOT
ATOM      1  C   UNL     1     -17.584  45.443  -8.622  1.00  0.00     0.000 C 
ENDROOT
BRANCH   1   2
ATOM      2  C   UNL     1     -17.086  44.051  -8.196  1.00  0.00     0.000 C 
BRANCH   2   3
ATOM      3  C   UNL     1     -15.838  44.120  -7.302  1.00  0.00     0.000 C 
BRANCH   3   4
ATOM      4  C   UNL     1     -16.084  43.532  -5.901  1.00  0.00     0.000 C 
BRANCH   4   5
ATOM      5  C   UNL     1     -17.519  43.011  -5.724  1.00  0.00     0.006 C 
BRANCH   5   6
ATOM      6  C   UNL     1     -17.728  42.292  -4.384  1.00  0.00     0.053 C 
BRANCH   6   7
ATOM      7  C   UNL     1     -18.764  42.998  -3.568  1.00  0.00     0.041 C 
ATOM      8  O   UNL     1     -19.036  44.206  -3.798  1.00  0.00    -0.550 OA
ATOM      9  O   UNL     1     -19.463  42.309  -2.586  1.00  0.00    -0.550 OA
ENDBRANCH   6   7
ENDBRANCH   5   6
ENDBRANCH   4   5
ENDBRANCH   3   4
ENDBRANCH   2   3
ENDBRANCH   1   2
BRANCH   1  10
ATOM     10  C   UNL     1     -17.818  45.558 -10.140  1.00  0.00     0.000 C 
BRANCH  10  11
ATOM     11  C   UNL     1     -16.914  46.569 -10.868  1.00  0.00    -0.000 C 
BRANCH  11  12
ATOM     12  C   UNL     1     -15.524  46.699 -10.230  1.00  0.00    -0.000 C 
BRANCH  12  13
ATOM     13  C   UNL     1     -15.035  48.153 -10.262  1.00  0.00    -0.000 C 
BRANCH  13  14
ATOM     14  C   UNL     1     -14.615  48.673  -8.876  1.00  0.00    -0.000 C 
BRANCH  14  15
ATOM     15  C   UNL     1     -14.966  47.712  -7.722  1.00  0.00    -0.003 C 
ATOM     16  C   UNL     1     -13.876  47.665  -6.650  1.00  0.00     0.004 C 
ENDBRANCH  14  15
ENDBRANCH  13  14
ENDBRANCH  12  13
ENDBRANCH  11  12
ENDBRANCH  10  11
ENDBRANCH   1  10
TORSDOF 12
ENDMDL
MODEL 8
REMARK VINA RESULT:    -3.026      1.510      2.648
REMARK INTER + INTRA:          -6.668
REMARK INTER:                  -5.250
REMARK INTRA:                  -1.418
REMARK UNBOUND:                -1.519
REMARK SMILES CCCCCCCCCCCCCC(=O)[O-]
REMARK SMILES IDX 8 1 9 2 10 3 11 4 12 5 13 6 14 7 15 8 16 9 7 10 6 11 5 12
REMARK SMILES IDX 4 13 3 14 2 15 1 16
REMARK H PARENT
REMARK Flexibility Score: inf
ROOT
ATOM      1  C   UNL     1     -19.040  44.439 -10.965  1.00  0.00     0.000 C 
ENDROOT
BRANCH   1   2
ATOM      2  C   UNL     1     -19.834  43.996  -9.723  1.00  0.00     0.000 C 
BRANCH   2   3
ATOM      3  C   UNL     1     -18.931  43.750  -8.504  1.00  0.00     0.000 C 
BRANCH   3   4
ATOM      4  C   UNL     1     -19.060  44.858  -7.443  1.00  0.00     0.000 C 
BRANCH   4   5
ATOM      5  C   UNL     1     -18.924  44.320  -6.009  1.00  0.00     0.006 C 
BRANCH   5   6
ATOM      6  C   UNL     1     -17.753  43.341  -5.853  1.00  0.00     0.053 C 
BRANCH   6   7
ATOM      7  C   UNL     1     -17.596  42.940  -4.420  1.00  0.00     0.041 C 
ATOM      8  O   UNL     1     -16.587  43.314  -3.764  1.00  0.00    -0.550 OA
ATOM      9  O   UNL     1     -18.587  42.195  -3.794  1.00  0.00    -0.550 OA
ENDBRANCH   6   7
ENDBRANCH   5   6
ENDBRANCH   4   5
ENDBRANCH   3   4
ENDBRANCH   2   3
ENDBRANCH   1   2
BRANCH   1  10
ATOM     10  C   UNL     1     -18.488  45.871 -10.844  1.00  0.00     0.000 C 
BRANCH  10  11
ATOM     11  C   UNL     1     -16.954  45.978 -10.768  1.00  0.00    -0.000 C 
BRANCH  11  12
ATOM     12  C   UNL     1     -16.257  44.610 -10.764  1.00  0.00    -0.000 C 
BRANCH  12  13
ATOM     13  C   UNL     1     -15.072  44.597  -9.788  1.00  0.00    -0.000 C 
BRANCH  13  14
ATOM     14  C   UNL     1     -15.456  45.070  -8.375  1.00  0.00    -0.000 C 
BRANCH  14  15
ATOM     15  C   UNL     1     -14.481  46.109  -7.784  1.00  0.00    -0.003 C 
ATOM     16  C   UNL     1     -15.000  47.541  -7.923  1.00  0.00     0.004 C 
ENDBRANCH  14  15
ENDBRANCH  13  14
ENDBRANCH  12  13
ENDBRANCH  11  12
ENDBRANCH  10  11
ENDBRANCH   1  10
TORSDOF 12
ENDMDL
MODEL 9
REMARK VINA RESULT:    -2.980      1.757      3.595
REMARK INTER + INTRA:          -6.590
REMARK INTER:                  -5.233
REMARK INTRA:                  -1.357
REMARK UNBOUND:                -1.519
REMARK SMILES CCCCCCCCCCCCCC(=O)[O-]
REMARK SMILES IDX 8 1 9 2 10 3 11 4 12 5 13 6 14 7 15 8 16 9 7 10 6 11 5 12
REMARK SMILES IDX 4 13 3 14 2 15 1 16
REMARK H PARENT
REMARK Flexibility Score: inf
ROOT
ATOM      1  C   UNL     1     -17.185  44.390 -10.375  1.00  0.00     0.000 C 
ENDROOT
BRANCH   1   2
ATOM      2  C   UNL     1     -17.867  43.025 -10.178  1.00  0.00     0.000 C 
BRANCH   2   3
ATOM      3  C   UNL     1     -18.882  43.035  -9.024  1.00  0.00     0.000 C 
BRANCH   3   4
ATOM      4  C   UNL     1     -19.159  44.454  -8.495  1.00  0.00     0.000 C 
BRANCH   4   5
ATOM      5  C   UNL     1     -18.869  44.590  -6.992  1.00  0.00     0.006 C 
BRANCH   5   6
ATOM      6  C   UNL     1     -17.800  43.605  -6.503  1.00  0.00     0.053 C 
BRANCH   6   7
ATOM      7  C   UNL     1     -18.009  43.283  -5.057  1.00  0.00     0.041 C 
ATOM      8  O   UNL     1     -17.284  42.424  -4.487  1.00  0.00    -0.550 OA
ATOM      9  O   UNL     1     -18.970  43.967  -4.324  1.00  0.00    -0.550 OA
ENDBRANCH   6   7
ENDBRANCH   5   6
ENDBRANCH   4   5
ENDBRANCH   3   4
ENDBRANCH   2   3
ENDBRANCH   1   2
BRANCH   1  10
ATOM     10  C   UNL     1     -15.649  44.310 -10.303  1.00  0.00     0.000 C 
BRANCH  10  11
ATOM     11  C   UNL     1     -15.022  44.884  -9.020  1.00  0.00    -0.000 C 
BRANCH  11  12
ATOM     12  C   UNL     1     -15.809  46.071  -8.447  1.00  0.00    -0.000 C 
BRANCH  12  13
ATOM     13  C   UNL     1     -14.963  47.352  -8.459  1.00  0.00    -0.000 C 
BRANCH  13  14
ATOM     14  C   UNL     1     -14.993  48.076  -9.816  1.00  0.00    -0.000 C 
BRANCH  14  15
ATOM     15  C   UNL     1     -14.655  49.578  -9.723  1.00  0.00    -0.003 C 
ATOM     16  C   UNL     1     -14.679  50.093  -8.283  1.00  0.00     0.004 C 
ENDBRANCH  14  15
ENDBRANCH  13  14
ENDBRANCH  12  13
ENDBRANCH  11  12
ENDBRANCH  10  11
ENDBRANCH   1  10
TORSDOF 12
ENDMDL
