MODEL 1
REMARK VINA RESULT:    -2.282      0.000      0.000
REMARK INTER + INTRA:          -6.048
REMARK INTER:                  -3.950
REMARK INTRA:                  -2.099
REMARK UNBOUND:                -2.099
REMARK SMILES CCCCCCCCCCCCCCO
REMARK SMILES IDX 8 1 7 2 6 3 5 4 4 5 3 6 2 7 1 8 9 9 10 10 11 11 12 12 13 13
REMARK SMILES IDX 14 14 15 15
REMARK H PARENT 15 16
REMARK Flexibility Score: inf
ROOT
ATOM      1  C   UNL     1     128.345 144.954 140.451  1.00  0.00     0.000 C 
ENDROOT
BRANCH   1   2
ATOM      2  C   UNL     1     128.724 146.232 139.688  1.00  0.00    -0.000 C 
BRANCH   2   3
ATOM      3  C   UNL     1     129.000 145.973 138.199  1.00  0.00    -0.000 C 
BRANCH   3   4
ATOM      4  C   UNL     1     130.404 146.425 137.769  1.00  0.00    -0.000 C 
BRANCH   4   5
ATOM      5  C   UNL     1     131.427 145.295 137.964  1.00  0.00    -0.000 C 
BRANCH   5   6
ATOM      6  C   UNL     1     132.449 145.606 139.069  1.00  0.00    -0.000 C 
BRANCH   6   7
ATOM      7  C   UNL     1     132.371 147.061 139.554  1.00  0.00    -0.003 C 
ATOM      8  C   UNL     1     132.067 147.126 141.048  1.00  0.00     0.004 C 
ENDBRANCH   6   7
ENDBRANCH   5   6
ENDBRANCH   4   5
ENDBRANCH   3   4
ENDBRANCH   2   3
ENDBRANCH   1   2
BRANCH   1   9
ATOM      9  C   UNL     1     129.579 144.317 141.103  1.00  0.00     0.000 C 
BRANCH   9  10
ATOM     10  C   UNL     1     129.933 142.985 140.424  1.00  0.00     0.000 C 
BRANCH  10  11
ATOM     11  C   UNL     1     128.772 142.420 139.590  1.00  0.00     0.000 C 
BRANCH  11  12
ATOM     12  C   UNL     1     129.209 142.004 138.174  1.00  0.00     0.002 C 
BRANCH  12  13
ATOM     13  C   UNL     1     130.720 141.738 138.068  1.00  0.00     0.028 C 
BRANCH  13  14
ATOM     14  C   UNL     1     131.159 141.254 136.681  1.00  0.00     0.156 C 
BRANCH  14  15
ATOM     15  O   UNL     1     131.504 142.344 135.872  1.00  0.00    -0.396 OA
ATOM     16  H   UNL     1     130.743 142.979 135.926  1.00  0.00     0.210 HD
ENDBRANCH  14  15
ENDBRANCH  13  14
ENDBRANCH  12  13
ENDBRANCH  11  12
ENDBRANCH  10  11
ENDBRANCH   9  10
ENDBRANCH   1   9
TORSDOF 13
ENDMDL
MODEL 2
REMARK VINA RESULT:    -2.152      1.461      2.222
REMARK INTER + INTRA:          -5.823
REMARK INTER:                  -4.012
REMARK INTRA:                  -1.811
REMARK UNBOUND:                -2.099
REMARK SMILES CCCCCCCCCCCCCCO
REMARK SMILES IDX 8 1 7 2 6 3 5 4 4 5 3 6 2 7 1 8 9 9 10 10 11 11 12 12 13 13
REMARK SMILES IDX 14 14 15 15
REMARK H PARENT 15 16
REMARK Flexibility Score: inf
ROOT
ATOM      1  C   UNL     1     129.357 144.675 139.583  1.00  0.00     0.000 C 
ENDROOT
BRANCH   1   2
ATOM      2  C   UNL     1     129.682 145.738 138.524  1.00  0.00    -0.000 C 
BRANCH   2   3
ATOM      3  C   UNL     1     131.170 145.757 138.141  1.00  0.00    -0.000 C 
BRANCH   3   4
ATOM      4  C   UNL     1     132.013 146.634 139.079  1.00  0.00    -0.000 C 
BRANCH   4   5
ATOM      5  C   UNL     1     133.151 145.820 139.715  1.00  0.00    -0.000 C 
BRANCH   5   6
ATOM      6  C   UNL     1     133.377 144.470 139.014  1.00  0.00    -0.000 C 
BRANCH   6   7
ATOM      7  C   UNL     1     133.584 143.317 140.005  1.00  0.00    -0.003 C 
ATOM      8  C   UNL     1     132.664 143.461 141.215  1.00  0.00     0.004 C 
ENDBRANCH   6   7
ENDBRANCH   5   6
ENDBRANCH   4   5
ENDBRANCH   3   4
ENDBRANCH   2   3
ENDBRANCH   1   2
BRANCH   1   9
ATOM      9  C   UNL     1     128.189 143.788 139.132  1.00  0.00     0.000 C 
BRANCH   9  10
ATOM     10  C   UNL     1     128.701 142.473 138.524  1.00  0.00     0.000 C 
BRANCH  10  11
ATOM     11  C   UNL     1     130.033 142.016 139.140  1.00  0.00     0.000 C 
BRANCH  11  12
ATOM     12  C   UNL     1     130.843 141.112 138.195  1.00  0.00     0.002 C 
BRANCH  12  13
ATOM     13  C   UNL     1     131.603 141.902 137.116  1.00  0.00     0.028 C 
BRANCH  13  14
ATOM     14  C   UNL     1     131.664 141.184 135.763  1.00  0.00     0.156 C 
BRANCH  14  15
ATOM     15  O   UNL     1     130.430 141.274 135.107  1.00  0.00    -0.396 OA
ATOM     16  H   UNL     1     129.761 141.487 135.809  1.00  0.00     0.210 HD
ENDBRANCH  14  15
ENDBRANCH  13  14
ENDBRANCH  12  13
ENDBRANCH  11  12
ENDBRANCH  10  11
ENDBRANCH   9  10
ENDBRANCH   1   9
TORSDOF 13
ENDMDL
MODEL 3
REMARK VINA RESULT:    -2.098      1.509      3.847
REMARK INTER + INTRA:          -5.731
REMARK INTER:                  -3.818
REMARK INTRA:                  -1.912
REMARK UNBOUND:                -2.099
REMARK SMILES CCCCCCCCCCCCCCO
REMARK SMILES IDX 8 1 7 2 6 3 5 4 4 5 3 6 2 7 1 8 9 9 10 10 11 11 12 12 13 13
REMARK SMILES IDX 14 14 15 15
REMARK H PARENT 15 16
REMARK Flexibility Score: inf
ROOT
ATOM      1  C   UNL     1     130.242 146.087 138.453  1.00  0.00     0.000 C 
ENDROOT
BRANCH   1   2
ATOM      2  C   UNL     1     130.011 145.882 139.957  1.00  0.00    -0.000 C 
BRANCH   2   3
ATOM      3  C   UNL     1     129.056 144.716 140.257  1.00  0.00    -0.000 C 
BRANCH   3   4
ATOM      4  C   UNL     1     128.226 144.300 139.033  1.00  0.00    -0.000 C 
BRANCH   4   5
ATOM      5  C   UNL     1     128.325 142.785 138.794  1.00  0.00    -0.000 C 
BRANCH   5   6
ATOM      6  C   UNL     1     129.763 142.324 138.507  1.00  0.00    -0.000 C 
BRANCH   6   7
ATOM      7  C   UNL     1     130.157 141.081 139.317  1.00  0.00    -0.003 C 
ATOM      8  C   UNL     1     130.833 141.472 140.629  1.00  0.00     0.004 C 
ENDBRANCH   6   7
ENDBRANCH   5   6
ENDBRANCH   4   5
ENDBRANCH   3   4
ENDBRANCH   2   3
ENDBRANCH   1   2
BRANCH   1   9
ATOM      9  C   UNL     1     131.588 145.494 138.017  1.00  0.00     0.000 C 
BRANCH   9  10
ATOM     10  C   UNL     1     132.540 145.355 139.214  1.00  0.00     0.000 C 
BRANCH  10  11
ATOM     11  C   UNL     1     133.162 143.953 139.314  1.00  0.00     0.000 C 
BRANCH  11  12
ATOM     12  C   UNL     1     133.774 143.481 137.984  1.00  0.00     0.002 C 
BRANCH  12  13
ATOM     13  C   UNL     1     133.346 142.054 137.600  1.00  0.00     0.028 C 
BRANCH  13  14
ATOM     14  C   UNL     1     132.962 141.908 136.124  1.00  0.00     0.156 C 
BRANCH  14  15
ATOM     15  O   UNL     1     132.005 142.869 135.773  1.00  0.00    -0.396 OA
ATOM     16  H   UNL     1     131.121 142.455 135.955  1.00  0.00     0.210 HD
ENDBRANCH  14  15
ENDBRANCH  13  14
ENDBRANCH  12  13
ENDBRANCH  11  12
ENDBRANCH  10  11
ENDBRANCH   9  10
ENDBRANCH   1   9
TORSDOF 13
ENDMDL
MODEL 4
REMARK VINA RESULT:    -2.089      2.350      4.567
REMARK INTER + INTRA:          -5.714
REMARK INTER:                  -3.589
REMARK INTRA:                  -2.125
REMARK UNBOUND:                -2.099
REMARK SMILES CCCCCCCCCCCCCCO
REMARK SMILES IDX 8 1 7 2 6 3 5 4 4 5 3 6 2 7 1 8 9 9 10 10 11 11 12 12 13 13
REMARK SMILES IDX 14 14 15 15
REMARK H PARENT 15 16
REMARK Flexibility Score: inf
ROOT
ATOM      1  C   UNL     1     131.284 139.919 139.065  1.00  0.00     0.000 C 
ENDROOT
BRANCH   1   2
ATOM      2  C   UNL     1     132.432 139.790 138.053  1.00  0.00    -0.000 C 
BRANCH   2   3
ATOM      3  C   UNL     1     131.970 140.009 136.603  1.00  0.00    -0.000 C 
BRANCH   3   4
ATOM      4  C   UNL     1     131.345 141.394 136.383  1.00  0.00    -0.000 C 
BRANCH   4   5
ATOM      5  C   UNL     1     132.421 142.491 136.405  1.00  0.00    -0.000 C 
BRANCH   5   6
ATOM      6  C   UNL     1     132.143 143.571 137.463  1.00  0.00    -0.000 C 
BRANCH   6   7
ATOM      7  C   UNL     1     133.321 143.770 138.427  1.00  0.00    -0.003 C 
ATOM      8  C   UNL     1     134.511 142.903 138.027  1.00  0.00     0.004 C 
ENDBRANCH   6   7
ENDBRANCH   5   6
ENDBRANCH   4   5
ENDBRANCH   3   4
ENDBRANCH   2   3
ENDBRANCH   1   2
BRANCH   1   9
ATOM      9  C   UNL     1     131.629 140.935 140.160  1.00  0.00     0.000 C 
BRANCH   9  10
ATOM     10  C   UNL     1     130.518 141.986 140.306  1.00  0.00     0.000 C 
BRANCH  10  11
ATOM     11  C   UNL     1     129.252 141.620 139.515  1.00  0.00     0.000 C 
BRANCH  11  12
ATOM     12  C   UNL     1     128.726 142.790 138.666  1.00  0.00     0.002 C 
BRANCH  12  13
ATOM     13  C   UNL     1     128.662 144.114 139.446  1.00  0.00     0.028 C 
BRANCH  13  14
ATOM     14  C   UNL     1     128.290 145.319 138.575  1.00  0.00     0.156 C 
BRANCH  14  15
ATOM     15  O   UNL     1     129.404 145.753 137.844  1.00  0.00    -0.396 OA
ATOM     16  H   UNL     1     129.772 144.947 137.397  1.00  0.00     0.210 HD
ENDBRANCH  14  15
ENDBRANCH  13  14
ENDBRANCH  12  13
ENDBRANCH  11  12
ENDBRANCH  10  11
ENDBRANCH   9  10
ENDBRANCH   1   9
TORSDOF 13
ENDMDL
MODEL 5
REMARK VINA RESULT:    -2.067      2.588      4.974
REMARK INTER + INTRA:          -5.675
REMARK INTER:                  -3.907
REMARK INTRA:                  -1.768
REMARK UNBOUND:                -2.099
REMARK SMILES CCCCCCCCCCCCCCO
REMARK SMILES IDX 8 1 7 2 6 3 5 4 4 5 3 6 2 7 1 8 9 9 10 10 11 11 12 12 13 13
REMARK SMILES IDX 14 14 15 15
REMARK H PARENT 15 16
REMARK Flexibility Score: inf
ROOT
ATOM      1  C   UNL     1     129.001 145.286 139.374  1.00  0.00     0.000 C 
ENDROOT
BRANCH   1   2
ATOM      2  C   UNL     1     128.162 144.047 139.027  1.00  0.00    -0.000 C 
BRANCH   2   3
ATOM      3  C   UNL     1     129.025 142.807 138.746  1.00  0.00    -0.000 C 
BRANCH   3   4
ATOM      4  C   UNL     1     130.126 142.601 139.797  1.00  0.00    -0.000 C 
BRANCH   4   5
ATOM      5  C   UNL     1     131.426 142.111 139.139  1.00  0.00    -0.000 C 
BRANCH   5   6
ATOM      6  C   UNL     1     131.365 142.155 137.603  1.00  0.00    -0.000 C 
BRANCH   6   7
ATOM      7  C   UNL     1     132.436 143.071 136.995  1.00  0.00    -0.003 C 
ATOM      8  C   UNL     1     133.650 143.181 137.914  1.00  0.00     0.004 C 
ENDBRANCH   6   7
ENDBRANCH   5   6
ENDBRANCH   4   5
ENDBRANCH   3   4
ENDBRANCH   2   3
ENDBRANCH   1   2
BRANCH   1   9
ATOM      9  C   UNL     1     129.311 146.109 138.117  1.00  0.00     0.000 C 
BRANCH   9  10
ATOM     10  C   UNL     1     130.827 146.279 137.931  1.00  0.00     0.000 C 
BRANCH  10  11
ATOM     11  C   UNL     1     131.617 145.977 139.215  1.00  0.00     0.000 C 
BRANCH  11  12
ATOM     12  C   UNL     1     132.751 146.986 139.463  1.00  0.00     0.002 C 
BRANCH  12  13
ATOM     13  C   UNL     1     133.915 146.392 140.273  1.00  0.00     0.028 C 
BRANCH  13  14
ATOM     14  C   UNL     1     133.741 146.539 141.789  1.00  0.00     0.156 C 
BRANCH  14  15
ATOM     15  O   UNL     1     133.090 147.742 142.090  1.00  0.00    -0.396 OA
ATOM     16  H   UNL     1     132.620 147.593 142.951  1.00  0.00     0.210 HD
ENDBRANCH  14  15
ENDBRANCH  13  14
ENDBRANCH  12  13
ENDBRANCH  11  12
ENDBRANCH  10  11
ENDBRANCH   9  10
ENDBRANCH   1   9
TORSDOF 13
ENDMDL
MODEL 6
REMARK VINA RESULT:    -2.060      2.158      4.615
REMARK INTER + INTRA:          -5.665
REMARK INTER:                  -3.670
REMARK INTRA:                  -1.995
REMARK UNBOUND:                -2.099
REMARK SMILES CCCCCCCCCCCCCCO
REMARK SMILES IDX 8 1 7 2 6 3 5 4 4 5 3 6 2 7 1 8 9 9 10 10 11 11 12 12 13 13
REMARK SMILES IDX 14 14 15 15
REMARK H PARENT 15 16
REMARK Flexibility Score: inf
ROOT
ATOM      1  C   UNL     1     131.146 141.211 138.811  1.00  0.00     0.000 C 
ENDROOT
BRANCH   1   2
ATOM      2  C   UNL     1     129.715 141.369 139.345  1.00  0.00    -0.000 C 
BRANCH   2   3
ATOM      3  C   UNL     1     128.801 142.133 138.374  1.00  0.00    -0.000 C 
BRANCH   3   4
ATOM      4  C   UNL     1     128.125 143.347 139.026  1.00  0.00    -0.000 C 
BRANCH   4   5
ATOM      5  C   UNL     1     128.701 143.608 140.427  1.00  0.00    -0.000 C 
BRANCH   5   6
ATOM      6  C   UNL     1     128.839 145.107 140.741  1.00  0.00    -0.000 C 
BRANCH   6   7
ATOM      7  C   UNL     1     129.847 145.384 141.865  1.00  0.00    -0.003 C 
ATOM      8  C   UNL     1     130.821 144.220 142.029  1.00  0.00     0.004 C 
ENDBRANCH   6   7
ENDBRANCH   5   6
ENDBRANCH   4   5
ENDBRANCH   3   4
ENDBRANCH   2   3
ENDBRANCH   1   2
BRANCH   1   9
ATOM      9  C   UNL     1     131.343 142.016 137.520  1.00  0.00     0.000 C 
BRANCH   9  10
ATOM     10  C   UNL     1     132.440 143.077 137.696  1.00  0.00     0.000 C 
BRANCH  10  11
ATOM     11  C   UNL     1     132.019 144.209 138.646  1.00  0.00     0.000 C 
BRANCH  11  12
ATOM     12  C   UNL     1     131.412 145.411 137.902  1.00  0.00     0.002 C 
BRANCH  12  13
ATOM     13  C   UNL     1     131.431 146.704 138.735  1.00  0.00     0.028 C 
BRANCH  13  14
ATOM     14  C   UNL     1     132.616 146.787 139.704  1.00  0.00     0.156 C 
BRANCH  14  15
ATOM     15  O   UNL     1     133.374 147.936 139.448  1.00  0.00    -0.396 OA
ATOM     16  H   UNL     1     134.278 147.757 139.818  1.00  0.00     0.210 HD
ENDBRANCH  14  15
ENDBRANCH  13  14
ENDBRANCH  12  13
ENDBRANCH  11  12
ENDBRANCH  10  11
ENDBRANCH   9  10
ENDBRANCH   1   9
TORSDOF 13
ENDMDL
MODEL 7
REMARK VINA RESULT:    -2.057      1.302      3.914
REMARK INTER + INTRA:          -5.658
REMARK INTER:                  -4.008
REMARK INTRA:                  -1.650
REMARK UNBOUND:                -2.099
REMARK SMILES CCCCCCCCCCCCCCO
REMARK SMILES IDX 8 1 7 2 6 3 5 4 4 5 3 6 2 7 1 8 9 9 10 10 11 11 12 12 13 13
REMARK SMILES IDX 14 14 15 15
REMARK H PARENT 15 16
REMARK Flexibility Score: inf
ROOT
ATOM      1  C   UNL     1     131.958 147.864 140.713  1.00  0.00     0.000 C 
ENDROOT
BRANCH   1   2
ATOM      2  C   UNL     1     131.716 146.913 141.895  1.00  0.00    -0.000 C 
BRANCH   2   3
ATOM      3  C   UNL     1     130.276 146.377 141.938  1.00  0.00    -0.000 C 
BRANCH   3   4
ATOM      4  C   UNL     1     129.278 147.300 141.223  1.00  0.00    -0.000 C 
BRANCH   4   5
ATOM      5  C   UNL     1     128.515 146.538 140.128  1.00  0.00    -0.000 C 
BRANCH   5   6
ATOM      6  C   UNL     1     128.784 145.025 140.163  1.00  0.00    -0.000 C 
BRANCH   6   7
ATOM      7  C   UNL     1     128.501 144.344 138.816  1.00  0.00    -0.003 C 
ATOM      8  C   UNL     1     128.886 142.868 138.856  1.00  0.00     0.004 C 
ENDBRANCH   6   7
ENDBRANCH   5   6
ENDBRANCH   4   5
ENDBRANCH   3   4
ENDBRANCH   2   3
ENDBRANCH   1   2
BRANCH   1   9
ATOM      9  C   UNL     1     132.829 147.198 139.641  1.00  0.00     0.000 C 
BRANCH   9  10
ATOM     10  C   UNL     1     131.978 146.325 138.707  1.00  0.00     0.000 C 
BRANCH  10  11
ATOM     11  C   UNL     1     132.308 144.828 138.834  1.00  0.00     0.000 C 
BRANCH  11  12
ATOM     12  C   UNL     1     132.086 144.060 137.519  1.00  0.00     0.002 C 
BRANCH  12  13
ATOM     13  C   UNL     1     132.905 142.761 137.440  1.00  0.00     0.028 C 
BRANCH  13  14
ATOM     14  C   UNL     1     132.143 141.598 136.793  1.00  0.00     0.156 C 
BRANCH  14  15
ATOM     15  O   UNL     1     131.414 142.050 135.686  1.00  0.00    -0.396 OA
ATOM     16  H   UNL     1     132.082 142.259 134.983  1.00  0.00     0.210 HD
ENDBRANCH  14  15
ENDBRANCH  13  14
ENDBRANCH  12  13
ENDBRANCH  11  12
ENDBRANCH  10  11
ENDBRANCH   9  10
ENDBRANCH   1   9
TORSDOF 13
ENDMDL
MODEL 8
REMARK VINA RESULT:    -2.049      1.711      3.887
REMARK INTER + INTRA:          -5.645
REMARK INTER:                  -3.862
REMARK INTRA:                  -1.783
REMARK UNBOUND:                -2.099
REMARK SMILES CCCCCCCCCCCCCCO
REMARK SMILES IDX 8 1 7 2 6 3 5 4 4 5 3 6 2 7 1 8 9 9 10 10 11 11 12 12 13 13
REMARK SMILES IDX 14 14 15 15
REMARK H PARENT 15 16
REMARK Flexibility Score: inf
ROOT
ATOM      1  C   UNL     1     130.930 140.618 139.039  1.00  0.00     0.000 C 
ENDROOT
BRANCH   1   2
ATOM      2  C   UNL     1     131.216 141.012 137.582  1.00  0.00    -0.000 C 
BRANCH   2   3
ATOM      3  C   UNL     1     132.584 141.691 137.410  1.00  0.00    -0.000 C 
BRANCH   3   4
ATOM      4  C   UNL     1     132.480 143.079 136.760  1.00  0.00    -0.000 C 
BRANCH   4   5
ATOM      5  C   UNL     1     132.014 144.128 137.782  1.00  0.00    -0.000 C 
BRANCH   5   6
ATOM      6  C   UNL     1     133.007 144.307 138.942  1.00  0.00    -0.000 C 
BRANCH   6   7
ATOM      7  C   UNL     1     132.554 145.375 139.948  1.00  0.00    -0.003 C 
ATOM      8  C   UNL     1     132.411 146.737 139.275  1.00  0.00     0.004 C 
ENDBRANCH   6   7
ENDBRANCH   5   6
ENDBRANCH   4   5
ENDBRANCH   3   4
ENDBRANCH   2   3
ENDBRANCH   1   2
BRANCH   1   9
ATOM      9  C   UNL     1     129.833 141.505 139.641  1.00  0.00     0.000 C 
BRANCH   9  10
ATOM     10  C   UNL     1     128.983 142.154 138.539  1.00  0.00     0.000 C 
BRANCH  10  11
ATOM     11  C   UNL     1     128.149 143.338 139.055  1.00  0.00     0.000 C 
BRANCH  11  12
ATOM     12  C   UNL     1     128.957 144.276 139.969  1.00  0.00     0.002 C 
BRANCH  12  13
ATOM     13  C   UNL     1     128.824 145.757 139.575  1.00  0.00     0.028 C 
BRANCH  13  14
ATOM     14  C   UNL     1     128.245 145.965 138.171  1.00  0.00     0.156 C 
BRANCH  14  15
ATOM     15  O   UNL     1     129.263 146.298 137.269  1.00  0.00    -0.396 OA
ATOM     16  H   UNL     1     129.104 145.747 136.459  1.00  0.00     0.210 HD
ENDBRANCH  14  15
ENDBRANCH  13  14
ENDBRANCH  12  13
ENDBRANCH  11  12
ENDBRANCH  10  11
ENDBRANCH   9  10
ENDBRANCH   1   9
TORSDOF 13
ENDMDL
MODEL 9
REMARK VINA RESULT:    -2.036     10.682     12.668
REMARK INTER + INTRA:          -5.623
REMARK INTER:                  -3.594
REMARK INTRA:                  -2.029
REMARK UNBOUND:                -2.099
REMARK SMILES CCCCCCCCCCCCCCO
REMARK SMILES IDX 8 1 7 2 6 3 5 4 4 5 3 6 2 7 1 8 9 9 10 10 11 11 12 12 13 13
REMARK SMILES IDX 14 14 15 15
REMARK H PARENT 15 16
REMARK Flexibility Score: inf
ROOT
ATOM      1  C   UNL     1     143.128 145.807 138.195  1.00  0.00     0.000 C 
ENDROOT
BRANCH   1   2
ATOM      2  C   UNL     1     143.977 146.930 138.808  1.00  0.00    -0.000 C 
BRANCH   2   3
ATOM      3  C   UNL     1     144.996 146.410 139.834  1.00  0.00    -0.000 C 
BRANCH   3   4
ATOM      4  C   UNL     1     145.282 144.909 139.677  1.00  0.00    -0.000 C 
BRANCH   4   5
ATOM      5  C   UNL     1     144.843 144.134 140.929  1.00  0.00    -0.000 C 
BRANCH   5   6
ATOM      6  C   UNL     1     144.367 145.059 142.061  1.00  0.00    -0.000 C 
BRANCH   6   7
ATOM      7  C   UNL     1     142.891 144.841 142.421  1.00  0.00    -0.003 C 
ATOM      8  C   UNL     1     142.135 146.166 142.468  1.00  0.00     0.004 C 
ENDBRANCH   6   7
ENDBRANCH   5   6
ENDBRANCH   4   5
ENDBRANCH   3   4
ENDBRANCH   2   3
ENDBRANCH   1   2
BRANCH   1   9
ATOM      9  C   UNL     1     141.721 145.787 138.804  1.00  0.00     0.000 C 
BRANCH   9  10
ATOM     10  C   UNL     1     141.276 144.350 139.115  1.00  0.00     0.000 C 
BRANCH  10  11
ATOM     11  C   UNL     1     142.225 143.297 138.521  1.00  0.00     0.000 C 
BRANCH  11  12
ATOM     12  C   UNL     1     141.510 142.329 137.562  1.00  0.00     0.002 C 
BRANCH  12  13
ATOM     13  C   UNL     1     140.164 142.875 137.055  1.00  0.00     0.028 C 
BRANCH  13  14
ATOM     14  C   UNL     1     140.222 143.398 135.615  1.00  0.00     0.156 C 
BRANCH  14  15
ATOM     15  O   UNL     1     140.806 144.671 135.582  1.00  0.00    -0.396 OA
ATOM     16  H   UNL     1     140.283 145.196 134.922  1.00  0.00     0.210 HD
ENDBRANCH  14  15
ENDBRANCH  13  14
ENDBRANCH  12  13
ENDBRANCH  11  12
ENDBRANCH  10  11
ENDBRANCH   9  10
ENDBRANCH   1   9
TORSDOF 13
ENDMDL
