MODEL 1
REMARK VINA RESULT:    -4.717      0.000      0.000
REMARK INTER + INTRA:          -4.717
REMARK INTER:                  -4.717
REMARK INTRA:                   0.000
REMARK UNBOUND:                 0.000
REMARK SMILES CC(C)=C1CC[C@H](C)CC1=O
REMARK SMILES IDX 8 1 7 2 6 3 5 4 4 5 2 6 1 7 3 8 10 9 11 10 9 11
REMARK H PARENT
REMARK Flexibility Score: inf
ROOT
ATOM      1  C   UNL     1      18.484  -7.253  11.889  1.00  0.00     0.008 C 
ATOM      2  C   UNL     1      18.058  -7.748  13.280  1.00  0.00    -0.006 C 
ATOM      3  C   UNL     1      16.690  -7.185  13.705  1.00  0.00     0.008 C 
ATOM      4  C   UNL     1      15.529  -7.711  12.846  1.00  0.00     0.039 C 
ATOM      5  C   UNL     1      15.544  -9.226  12.693  1.00  0.00    -0.006 C 
ATOM      6  C   UNL     1      14.385  -9.930  12.527  1.00  0.00    -0.070 C 
ATOM      7  C   UNL     1      13.045  -9.232  12.472  1.00  0.00     0.039 C 
ATOM      8  C   UNL     1      14.377 -11.438  12.429  1.00  0.00     0.039 C 
ATOM      9  C   UNL     1      16.888  -9.870  12.614  1.00  0.00     0.159 C 
ATOM     10  O   UNL     1      17.079 -10.903  11.917  1.00  0.00    -0.295 OA
ATOM     11  C   UNL     1      18.049  -9.282  13.361  1.00  0.00     0.084 C 
ENDROOT
TORSDOF 0
ENDMDL
MODEL 2
REMARK VINA RESULT:    -4.536      1.640      2.605
REMARK INTER + INTRA:          -4.536
REMARK INTER:                  -4.536
REMARK INTRA:                   0.000
REMARK UNBOUND:                 0.000
REMARK SMILES CC(C)=C1CC[C@H](C)CC1=O
REMARK SMILES IDX 8 1 7 2 6 3 5 4 4 5 2 6 1 7 3 8 10 9 11 10 9 11
REMARK H PARENT
REMARK Flexibility Score: inf
ROOT
ATOM      1  C   UNL     1      17.302  -6.974  14.525  1.00  0.00     0.008 C 
ATOM      2  C   UNL     1      17.350  -7.154  13.000  1.00  0.00    -0.006 C 
ATOM      3  C   UNL     1      18.123  -8.419  12.585  1.00  0.00     0.008 C 
ATOM      4  C   UNL     1      17.419  -9.719  13.005  1.00  0.00     0.039 C 
ATOM      5  C   UNL     1      15.947  -9.749  12.615  1.00  0.00    -0.006 C 
ATOM      6  C   UNL     1      15.315 -10.927  12.333  1.00  0.00    -0.070 C 
ATOM      7  C   UNL     1      16.047 -12.248  12.414  1.00  0.00     0.039 C 
ATOM      8  C   UNL     1      13.871 -10.970  11.890  1.00  0.00     0.039 C 
ATOM      9  C   UNL     1      15.220  -8.448  12.677  1.00  0.00     0.159 C 
ATOM     10  O   UNL     1      13.998  -8.395  12.986  1.00  0.00    -0.295 OA
ATOM     11  C   UNL     1      15.943  -7.166  12.383  1.00  0.00     0.084 C 
ENDROOT
TORSDOF 0
ENDMDL
MODEL 3
REMARK VINA RESULT:    -4.378      1.740      2.708
REMARK INTER + INTRA:          -4.378
REMARK INTER:                  -4.378
REMARK INTRA:                   0.000
REMARK UNBOUND:                 0.000
REMARK SMILES CC(C)=C1CC[C@H](C)CC1=O
REMARK SMILES IDX 8 1 7 2 6 3 5 4 4 5 2 6 1 7 3 8 10 9 11 10 9 11
REMARK H PARENT
REMARK Flexibility Score: inf
ROOT
ATOM      1  C   UNL     1      18.078  -9.050  14.016  1.00  0.00     0.008 C 
ATOM      2  C   UNL     1      17.729  -9.178  12.525  1.00  0.00    -0.006 C 
ATOM      3  C   UNL     1      17.346 -10.618  12.138  1.00  0.00     0.008 C 
ATOM      4  C   UNL     1      16.032 -11.086  12.782  1.00  0.00     0.039 C 
ATOM      5  C   UNL     1      14.897 -10.085  12.606  1.00  0.00    -0.006 C 
ATOM      6  C   UNL     1      13.596 -10.498  12.536  1.00  0.00    -0.070 C 
ATOM      7  C   UNL     1      13.231 -11.961  12.648  1.00  0.00     0.039 C 
ATOM      8  C   UNL     1      12.463  -9.525  12.306  1.00  0.00     0.039 C 
ATOM      9  C   UNL     1      15.276  -8.643  12.637  1.00  0.00     0.159 C 
ATOM     10  O   UNL     1      14.495  -7.771  13.106  1.00  0.00    -0.295 OA
ATOM     11  C   UNL     1      16.613  -8.205  12.116  1.00  0.00     0.084 C 
ENDROOT
TORSDOF 0
ENDMDL
MODEL 4
REMARK VINA RESULT:    -4.048      1.929      3.020
REMARK INTER + INTRA:          -4.048
REMARK INTER:                  -4.048
REMARK INTRA:                   0.000
REMARK UNBOUND:                 0.000
REMARK SMILES CC(C)=C1CC[C@H](C)CC1=O
REMARK SMILES IDX 8 1 7 2 6 3 5 4 4 5 2 6 1 7 3 8 10 9 11 10 9 11
REMARK H PARENT
REMARK Flexibility Score: inf
ROOT
ATOM      1  C   UNL     1      18.390  -9.524  14.984  1.00  0.00     0.008 C 
ATOM      2  C   UNL     1      18.459  -9.012  13.537  1.00  0.00    -0.006 C 
ATOM      3  C   UNL     1      17.567  -9.831  12.586  1.00  0.00     0.008 C 
ATOM      4  C   UNL     1      16.067  -9.667  12.877  1.00  0.00     0.039 C 
ATOM      5  C   UNL     1      15.644  -8.209  13.006  1.00  0.00    -0.006 C 
ATOM      6  C   UNL     1      14.384  -7.808  12.665  1.00  0.00    -0.070 C 
ATOM      7  C   UNL     1      13.355  -8.796  12.164  1.00  0.00     0.039 C 
ATOM      8  C   UNL     1      13.964  -6.357  12.734  1.00  0.00     0.039 C 
ATOM      9  C   UNL     1      16.635  -7.286  13.631  1.00  0.00     0.159 C 
ATOM     10  O   UNL     1      16.265  -6.306  14.332  1.00  0.00    -0.295 OA
ATOM     11  C   UNL     1      18.105  -7.520  13.443  1.00  0.00     0.084 C 
ENDROOT
TORSDOF 0
ENDMDL
MODEL 5
REMARK VINA RESULT:    -3.995      2.109      3.624
REMARK INTER + INTRA:          -3.995
REMARK INTER:                  -3.995
REMARK INTRA:                   0.000
REMARK UNBOUND:                 0.000
REMARK SMILES CC(C)=C1CC[C@H](C)CC1=O
REMARK SMILES IDX 8 1 7 2 6 3 5 4 4 5 2 6 1 7 3 8 10 9 11 10 9 11
REMARK H PARENT
REMARK Flexibility Score: inf
ROOT
ATOM      1  C   UNL     1      14.640  -5.301  11.904  1.00  0.00     0.008 C 
ATOM      2  C   UNL     1      14.324  -6.104  13.176  1.00  0.00    -0.006 C 
ATOM      3  C   UNL     1      13.886  -7.546  12.862  1.00  0.00     0.008 C 
ATOM      4  C   UNL     1      15.012  -8.399  12.256  1.00  0.00     0.039 C 
ATOM      5  C   UNL     1      16.310  -8.315  13.049  1.00  0.00    -0.006 C 
ATOM      6  C   UNL     1      17.184  -9.364  13.084  1.00  0.00    -0.070 C 
ATOM      7  C   UNL     1      16.906 -10.642  12.326  1.00  0.00     0.039 C 
ATOM      8  C   UNL     1      18.450  -9.319  13.909  1.00  0.00     0.039 C 
ATOM      9  C   UNL     1      16.621  -6.996  13.672  1.00  0.00     0.159 C 
ATOM     10  O   UNL     1      17.809  -6.594  13.797  1.00  0.00    -0.295 OA
ATOM     11  C   UNL     1      15.509  -6.111  14.154  1.00  0.00     0.084 C 
ENDROOT
TORSDOF 0
ENDMDL
MODEL 6
REMARK VINA RESULT:    -3.809      2.972      4.260
REMARK INTER + INTRA:          -3.809
REMARK INTER:                  -3.809
REMARK INTRA:                   0.000
REMARK UNBOUND:                 0.000
REMARK SMILES CC(C)=C1CC[C@H](C)CC1=O
REMARK SMILES IDX 8 1 7 2 6 3 5 4 4 5 2 6 1 7 3 8 10 9 11 10 9 11
REMARK H PARENT
REMARK Flexibility Score: inf
ROOT
ATOM      1  C   UNL     1      18.710  -6.655  11.904  1.00  0.00     0.008 C 
ATOM      2  C   UNL     1      17.707  -7.727  12.358  1.00  0.00    -0.006 C 
ATOM      3  C   UNL     1      17.910  -8.130  13.829  1.00  0.00     0.008 C 
ATOM      4  C   UNL     1      17.583  -6.996  14.814  1.00  0.00     0.039 C 
ATOM      5  C   UNL     1      16.233  -6.344  14.541  1.00  0.00    -0.006 C 
ATOM      6  C   UNL     1      15.496  -5.797  15.552  1.00  0.00    -0.070 C 
ATOM      7  C   UNL     1      15.997  -5.801  16.978  1.00  0.00     0.039 C 
ATOM      8  C   UNL     1      14.131  -5.196  15.307  1.00  0.00     0.039 C 
ATOM      9  C   UNL     1      15.830  -6.234  13.108  1.00  0.00     0.159 C 
ATOM     10  O   UNL     1      15.141  -5.263  12.695  1.00  0.00    -0.295 OA
ATOM     11  C   UNL     1      16.255  -7.284  12.124  1.00  0.00     0.084 C 
ENDROOT
TORSDOF 0
ENDMDL
MODEL 7
REMARK VINA RESULT:    -3.741      1.483      1.996
REMARK INTER + INTRA:          -3.741
REMARK INTER:                  -3.741
REMARK INTRA:                   0.000
REMARK UNBOUND:                 0.000
REMARK SMILES CC(C)=C1CC[C@H](C)CC1=O
REMARK SMILES IDX 8 1 7 2 6 3 5 4 4 5 2 6 1 7 3 8 10 9 11 10 9 11
REMARK H PARENT
REMARK Flexibility Score: inf
ROOT
ATOM      1  C   UNL     1      16.098  -5.131  12.300  1.00  0.00     0.008 C 
ATOM      2  C   UNL     1      15.990  -5.847  13.655  1.00  0.00    -0.006 C 
ATOM      3  C   UNL     1      14.529  -6.118  14.057  1.00  0.00     0.008 C 
ATOM      4  C   UNL     1      13.831  -7.135  13.140  1.00  0.00     0.039 C 
ATOM      5  C   UNL     1      14.650  -8.401  12.928  1.00  0.00    -0.006 C 
ATOM      6  C   UNL     1      14.044  -9.603  12.696  1.00  0.00    -0.070 C 
ATOM      7  C   UNL     1      12.538  -9.721  12.624  1.00  0.00     0.039 C 
ATOM      8  C   UNL     1      14.839 -10.879  12.539  1.00  0.00     0.039 C 
ATOM      9  C   UNL     1      16.131  -8.229  12.868  1.00  0.00     0.159 C 
ATOM     10  O   UNL     1      16.847  -8.967  12.138  1.00  0.00    -0.295 OA
ATOM     11  C   UNL     1      16.797  -7.154  13.676  1.00  0.00     0.084 C 
ENDROOT
TORSDOF 0
ENDMDL
MODEL 8
REMARK VINA RESULT:    -3.686      1.234      4.326
REMARK INTER + INTRA:          -3.686
REMARK INTER:                  -3.686
REMARK INTRA:                   0.000
REMARK UNBOUND:                 0.000
REMARK SMILES CC(C)=C1CC[C@H](C)CC1=O
REMARK SMILES IDX 8 1 7 2 6 3 5 4 4 5 2 6 1 7 3 8 10 9 11 10 9 11
REMARK H PARENT
REMARK Flexibility Score: inf
ROOT
ATOM      1  C   UNL     1      12.407 -12.104  13.626  1.00  0.00     0.008 C 
ATOM      2  C   UNL     1      12.803 -11.741  12.187  1.00  0.00    -0.006 C 
ATOM      3  C   UNL     1      12.586 -10.249  11.881  1.00  0.00     0.008 C 
ATOM      4  C   UNL     1      13.524  -9.328  12.676  1.00  0.00     0.039 C 
ATOM      5  C   UNL     1      14.983  -9.760  12.600  1.00  0.00    -0.006 C 
ATOM      6  C   UNL     1      15.995  -8.847  12.683  1.00  0.00    -0.070 C 
ATOM      7  C   UNL     1      15.708  -7.374  12.872  1.00  0.00     0.039 C 
ATOM      8  C   UNL     1      17.446  -9.250  12.554  1.00  0.00     0.039 C 
ATOM      9  C   UNL     1      15.236 -11.230  12.552  1.00  0.00     0.159 C 
ATOM     10  O   UNL     1      16.263 -11.735  13.081  1.00  0.00    -0.295 OA
ATOM     11  C   UNL     1      14.253 -12.141  11.876  1.00  0.00     0.084 C 
ENDROOT
TORSDOF 0
ENDMDL
MODEL 9
REMARK VINA RESULT:    -1.761      2.069      3.394
REMARK INTER + INTRA:          -1.761
REMARK INTER:                  -1.761
REMARK INTRA:                   0.000
REMARK UNBOUND:                 0.000
REMARK SMILES CC(C)=C1CC[C@H](C)CC1=O
REMARK SMILES IDX 8 1 7 2 6 3 5 4 4 5 2 6 1 7 3 8 10 9 11 10 9 11
REMARK H PARENT
REMARK Flexibility Score: inf
ROOT
ATOM      1  C   UNL     1      14.844  -5.410  13.853  1.00  0.00     0.008 C 
ATOM      2  C   UNL     1      16.117  -5.460  12.995  1.00  0.00    -0.006 C 
ATOM      3  C   UNL     1      17.379  -5.715  13.839  1.00  0.00     0.008 C 
ATOM      4  C   UNL     1      17.406  -7.114  14.475  1.00  0.00     0.039 C 
ATOM      5  C   UNL     1      17.106  -8.225  13.477  1.00  0.00    -0.006 C 
ATOM      6  C   UNL     1      17.638  -9.474  13.629  1.00  0.00    -0.070 C 
ATOM      7  C   UNL     1      18.532  -9.807  14.801  1.00  0.00     0.039 C 
ATOM      8  C   UNL     1      17.396 -10.571  12.618  1.00  0.00     0.039 C 
ATOM      9  C   UNL     1      16.114  -7.904  12.409  1.00  0.00     0.159 C 
ATOM     10  O   UNL     1      15.343  -8.788  11.945  1.00  0.00    -0.295 OA
ATOM     11  C   UNL     1      16.008  -6.506  11.875  1.00  0.00     0.084 C 
ENDROOT
TORSDOF 0
ENDMDL
