MODEL 1
REMARK VINA RESULT:    -5.015      0.000      0.000
REMARK INTER + INTRA:          -6.635
REMARK INTER:                  -6.481
REMARK INTRA:                  -0.154
REMARK UNBOUND:                -0.154
REMARK SMILES CCCCCCC(=O)[O-]
REMARK SMILES IDX 5 1 6 2 7 3 8 4 9 5 4 6 3 7 2 8 1 9
REMARK H PARENT
REMARK Flexibility Score: inf
ROOT
ATOM      1  C   UNL     1      20.125 -28.963  10.617  1.00  0.00     0.006 C 
ENDROOT
BRANCH   1   2
ATOM      2  C   UNL     1      18.989 -29.351   9.662  1.00  0.00     0.053 C 
BRANCH   2   3
ATOM      3  C   UNL     1      18.660 -28.244   8.707  1.00  0.00     0.041 C 
ATOM      4  O   UNL     1      17.537 -28.209   8.139  1.00  0.00    -0.550 OA
ATOM      5  O   UNL     1      19.584 -27.233   8.469  1.00  0.00    -0.550 OA
ENDBRANCH   2   3
ENDBRANCH   1   2
BRANCH   1   6
ATOM      6  C   UNL     1      19.834 -29.389  12.067  1.00  0.00     0.000 C 
BRANCH   6   7
ATOM      7  C   UNL     1      18.474 -30.091  12.215  1.00  0.00    -0.000 C 
BRANCH   7   8
ATOM      8  C   UNL     1      17.973 -30.110  13.667  1.00  0.00    -0.003 C 
ATOM      9  C   UNL     1      16.768 -31.033  13.819  1.00  0.00     0.004 C 
ENDBRANCH   7   8
ENDBRANCH   6   7
ENDBRANCH   1   6
TORSDOF 5
ENDMDL
MODEL 2
REMARK VINA RESULT:    -4.672      8.759     10.125
REMARK INTER + INTRA:          -6.191
REMARK INTER:                  -5.872
REMARK INTRA:                  -0.319
REMARK UNBOUND:                -0.154
REMARK SMILES CCCCCCC(=O)[O-]
REMARK SMILES IDX 5 1 6 2 7 3 8 4 9 5 4 6 3 7 2 8 1 9
REMARK H PARENT
REMARK Flexibility Score: inf
ROOT
ATOM      1  C   UNL     1       9.276 -25.340  10.698  1.00  0.00     0.006 C 
ENDROOT
BRANCH   1   2
ATOM      2  C   UNL     1      10.496 -25.832  11.489  1.00  0.00     0.053 C 
BRANCH   2   3
ATOM      3  C   UNL     1      10.372 -27.277  11.864  1.00  0.00     0.041 C 
ATOM      4  O   UNL     1       9.911 -27.603  12.989  1.00  0.00    -0.550 OA
ATOM      5  O   UNL     1      10.738 -28.265  10.958  1.00  0.00    -0.550 OA
ENDBRANCH   2   3
ENDBRANCH   1   2
BRANCH   1   6
ATOM      6  C   UNL     1       9.575 -25.206   9.195  1.00  0.00     0.000 C 
BRANCH   6   7
ATOM      7  C   UNL     1       9.067 -26.407   8.381  1.00  0.00    -0.000 C 
BRANCH   7   8
ATOM      8  C   UNL     1      10.004 -26.774   7.220  1.00  0.00    -0.003 C 
ATOM      9  C   UNL     1      11.400 -26.199   7.438  1.00  0.00     0.004 C 
ENDBRANCH   7   8
ENDBRANCH   6   7
ENDBRANCH   1   6
TORSDOF 5
ENDMDL
MODEL 3
REMARK VINA RESULT:    -4.664      8.361      9.144
REMARK INTER + INTRA:          -6.181
REMARK INTER:                  -5.960
REMARK INTRA:                  -0.222
REMARK UNBOUND:                -0.154
REMARK SMILES CCCCCCC(=O)[O-]
REMARK SMILES IDX 5 1 6 2 7 3 8 4 9 5 4 6 3 7 2 8 1 9
REMARK H PARENT
REMARK Flexibility Score: inf
ROOT
ATOM      1  C   UNL     1       9.630 -25.362   9.232  1.00  0.00     0.006 C 
ENDROOT
BRANCH   1   2
ATOM      2  C   UNL     1       9.248 -26.397   8.165  1.00  0.00     0.053 C 
BRANCH   2   3
ATOM      3  C   UNL     1      10.304 -26.527   7.111  1.00  0.00     0.041 C 
ATOM      4  O   UNL     1       9.982 -26.763   5.916  1.00  0.00    -0.550 OA
ATOM      5  O   UNL     1      11.643 -26.357   7.442  1.00  0.00    -0.550 OA
ENDBRANCH   2   3
ENDBRANCH   1   2
BRANCH   1   6
ATOM      6  C   UNL     1       9.623 -25.960  10.649  1.00  0.00     0.000 C 
BRANCH   6   7
ATOM      7  C   UNL     1      10.433 -27.263  10.745  1.00  0.00    -0.000 C 
BRANCH   7   8
ATOM      8  C   UNL     1      10.438 -27.854  12.162  1.00  0.00    -0.003 C 
ATOM      9  C   UNL     1      10.315 -26.756  13.215  1.00  0.00     0.004 C 
ENDBRANCH   7   8
ENDBRANCH   6   7
ENDBRANCH   1   6
TORSDOF 5
ENDMDL
MODEL 4
REMARK VINA RESULT:    -4.507      8.720     10.026
REMARK INTER + INTRA:          -5.979
REMARK INTER:                  -5.734
REMARK INTRA:                  -0.245
REMARK UNBOUND:                -0.154
REMARK SMILES CCCCCCC(=O)[O-]
REMARK SMILES IDX 5 1 6 2 7 3 8 4 9 5 4 6 3 7 2 8 1 9
REMARK H PARENT
REMARK Flexibility Score: inf
ROOT
ATOM      1  C   UNL     1       9.225 -25.609  10.215  1.00  0.00     0.006 C 
ENDROOT
BRANCH   1   2
ATOM      2  C   UNL     1      10.148 -25.453  11.431  1.00  0.00     0.053 C 
BRANCH   2   3
ATOM      3  C   UNL     1      10.431 -26.769  12.088  1.00  0.00     0.041 C 
ATOM      4  O   UNL     1      10.510 -27.819  11.397  1.00  0.00    -0.550 OA
ATOM      5  O   UNL     1      10.639 -26.832  13.461  1.00  0.00    -0.550 OA
ENDBRANCH   2   3
ENDBRANCH   1   2
BRANCH   1   6
ATOM      6  C   UNL     1       9.841 -25.008   8.940  1.00  0.00     0.000 C 
BRANCH   6   7
ATOM      7  C   UNL     1      11.235 -25.579   8.631  1.00  0.00    -0.000 C 
BRANCH   7   8
ATOM      8  C   UNL     1      11.422 -25.913   7.144  1.00  0.00    -0.003 C 
ATOM      9  C   UNL     1      10.221 -26.681   6.599  1.00  0.00     0.004 C 
ENDBRANCH   7   8
ENDBRANCH   6   7
ENDBRANCH   1   6
TORSDOF 5
ENDMDL
MODEL 5
REMARK VINA RESULT:    -4.475      8.300      9.513
REMARK INTER + INTRA:          -5.937
REMARK INTER:                  -5.618
REMARK INTRA:                  -0.319
REMARK UNBOUND:                -0.154
REMARK SMILES CCCCCCC(=O)[O-]
REMARK SMILES IDX 5 1 6 2 7 3 8 4 9 5 4 6 3 7 2 8 1 9
REMARK H PARENT
REMARK Flexibility Score: inf
ROOT
ATOM      1  C   UNL     1      11.081 -25.269  11.261  1.00  0.00     0.006 C 
ENDROOT
BRANCH   1   2
ATOM      2  C   UNL     1       9.966 -26.170  11.808  1.00  0.00     0.053 C 
BRANCH   2   3
ATOM      3  C   UNL     1      10.412 -27.595  11.932  1.00  0.00     0.041 C 
ATOM      4  O   UNL     1      10.786 -28.234  10.913  1.00  0.00    -0.550 OA
ATOM      5  O   UNL     1      10.442 -28.209  13.178  1.00  0.00    -0.550 OA
ENDBRANCH   2   3
ENDBRANCH   1   2
BRANCH   1   6
ATOM      6  C   UNL     1      10.856 -24.899   9.785  1.00  0.00     0.000 C 
BRANCH   6   7
ATOM      7  C   UNL     1      11.920 -25.504   8.854  1.00  0.00    -0.000 C 
BRANCH   7   8
ATOM      8  C   UNL     1      11.351 -25.903   7.485  1.00  0.00    -0.003 C 
ATOM      9  C   UNL     1      10.034 -26.659   7.637  1.00  0.00     0.004 C 
ENDBRANCH   7   8
ENDBRANCH   6   7
ENDBRANCH   1   6
TORSDOF 5
ENDMDL
MODEL 6
REMARK VINA RESULT:    -4.280     19.070     19.615
REMARK INTER + INTRA:          -5.685
REMARK INTER:                  -5.494
REMARK INTRA:                  -0.192
REMARK UNBOUND:                -0.154
REMARK SMILES CCCCCCC(=O)[O-]
REMARK SMILES IDX 5 1 6 2 7 3 8 4 9 5 4 6 3 7 2 8 1 9
REMARK H PARENT
REMARK Flexibility Score: inf
ROOT
ATOM      1  C   UNL     1       1.056 -22.884  14.119  1.00  0.00     0.006 C 
ENDROOT
BRANCH   1   2
ATOM      2  C   UNL     1       0.284 -21.594  13.811  1.00  0.00     0.053 C 
BRANCH   2   3
ATOM      3  C   UNL     1       0.894 -20.404  14.487  1.00  0.00     0.041 C 
ATOM      4  O   UNL     1       1.463 -20.532  15.603  1.00  0.00    -0.550 OA
ATOM      5  O   UNL     1       0.860 -19.160  13.869  1.00  0.00    -0.550 OA
ENDBRANCH   2   3
ENDBRANCH   1   2
BRANCH   1   6
ATOM      6  C   UNL     1       0.189 -24.140  13.919  1.00  0.00     0.000 C 
BRANCH   6   7
ATOM      7  C   UNL     1       0.131 -25.024  15.175  1.00  0.00    -0.000 C 
BRANCH   7   8
ATOM      8  C   UNL     1       1.009 -24.490  16.317  1.00  0.00    -0.003 C 
ATOM      9  C   UNL     1       1.332 -25.592  17.322  1.00  0.00     0.004 C 
ENDBRANCH   7   8
ENDBRANCH   6   7
ENDBRANCH   1   6
TORSDOF 5
ENDMDL
MODEL 7
REMARK VINA RESULT:    -4.138     18.417     20.351
REMARK INTER + INTRA:          -5.501
REMARK INTER:                  -5.351
REMARK INTRA:                  -0.150
REMARK UNBOUND:                -0.154
REMARK SMILES CCCCCCC(=O)[O-]
REMARK SMILES IDX 5 1 6 2 7 3 8 4 9 5 4 6 3 7 2 8 1 9
REMARK H PARENT
REMARK Flexibility Score: inf
ROOT
ATOM      1  C   UNL     1       4.037 -29.427  24.586  1.00  0.00     0.006 C 
ENDROOT
BRANCH   1   2
ATOM      2  C   UNL     1       5.344 -29.479  25.388  1.00  0.00     0.053 C 
BRANCH   2   3
ATOM      3  C   UNL     1       6.486 -29.985  24.561  1.00  0.00     0.041 C 
ATOM      4  O   UNL     1       7.654 -29.562  24.766  1.00  0.00    -0.550 OA
ATOM      5  O   UNL     1       6.264 -30.948  23.584  1.00  0.00    -0.550 OA
ENDBRANCH   2   3
ENDBRANCH   1   2
BRANCH   1   6
ATOM      6  C   UNL     1       2.844 -28.986  25.450  1.00  0.00     0.000 C 
BRANCH   6   7
ATOM      7  C   UNL     1       1.492 -29.224  24.758  1.00  0.00    -0.000 C 
BRANCH   7   8
ATOM      8  C   UNL     1       1.600 -30.176  23.558  1.00  0.00    -0.003 C 
ATOM      9  C   UNL     1       0.240 -30.771  23.205  1.00  0.00     0.004 C 
ENDBRANCH   7   8
ENDBRANCH   6   7
ENDBRANCH   1   6
TORSDOF 5
ENDMDL
MODEL 8
REMARK VINA RESULT:    -3.999     15.554     17.329
REMARK INTER + INTRA:          -5.322
REMARK INTER:                  -4.926
REMARK INTRA:                  -0.395
REMARK UNBOUND:                -0.154
REMARK SMILES CCCCCCC(=O)[O-]
REMARK SMILES IDX 5 1 6 2 7 3 8 4 9 5 4 6 3 7 2 8 1 9
REMARK H PARENT
REMARK Flexibility Score: inf
ROOT
ATOM      1  C   UNL     1       6.257 -30.839  23.500  1.00  0.00     0.006 C 
ENDROOT
BRANCH   1   2
ATOM      2  C   UNL     1       6.993 -31.128  24.815  1.00  0.00     0.053 C 
BRANCH   2   3
ATOM      3  C   UNL     1       7.947 -30.031  25.175  1.00  0.00     0.041 C 
ATOM      4  O   UNL     1       9.164 -30.286  25.366  1.00  0.00    -0.550 OA
ATOM      5  O   UNL     1       7.496 -28.719  25.268  1.00  0.00    -0.550 OA
ENDBRANCH   2   3
ENDBRANCH   1   2
BRANCH   1   6
ATOM      6  C   UNL     1       6.627 -31.844  22.396  1.00  0.00     0.000 C 
BRANCH   6   7
ATOM      7  C   UNL     1       7.868 -31.415  21.596  1.00  0.00    -0.000 C 
BRANCH   7   8
ATOM      8  C   UNL     1       7.942 -29.895  21.387  1.00  0.00    -0.003 C 
ATOM      9  C   UNL     1       9.279 -29.339  21.867  1.00  0.00     0.004 C 
ENDBRANCH   7   8
ENDBRANCH   6   7
ENDBRANCH   1   6
TORSDOF 5
ENDMDL
MODEL 9
REMARK VINA RESULT:    -3.998     13.148     14.610
REMARK INTER + INTRA:          -5.321
REMARK INTER:                  -4.857
REMARK INTRA:                  -0.464
REMARK UNBOUND:                -0.154
REMARK SMILES CCCCCCC(=O)[O-]
REMARK SMILES IDX 5 1 6 2 7 3 8 4 9 5 4 6 3 7 2 8 1 9
REMARK H PARENT
REMARK Flexibility Score: inf
ROOT
ATOM      1  C   UNL     1      10.218 -32.586  21.201  1.00  0.00     0.006 C 
ENDROOT
BRANCH   1   2
ATOM      2  C   UNL     1      11.468 -31.695  21.240  1.00  0.00     0.053 C 
BRANCH   2   3
ATOM      3  C   UNL     1      11.270 -30.495  22.113  1.00  0.00     0.041 C 
ATOM      4  O   UNL     1      11.434 -29.337  21.647  1.00  0.00    -0.550 OA
ATOM      5  O   UNL     1      10.874 -30.654  23.436  1.00  0.00    -0.550 OA
ENDBRANCH   2   3
ENDBRANCH   1   2
BRANCH   1   6
ATOM      6  C   UNL     1       8.999 -31.850  20.619  1.00  0.00     0.000 C 
BRANCH   6   7
ATOM      7  C   UNL     1       7.745 -31.999  21.496  1.00  0.00    -0.000 C 
BRANCH   7   8
ATOM      8  C   UNL     1       7.438 -30.733  22.310  1.00  0.00    -0.003 C 
ATOM      9  C   UNL     1       7.814 -29.475  21.532  1.00  0.00     0.004 C 
ENDBRANCH   7   8
ENDBRANCH   6   7
ENDBRANCH   1   6
TORSDOF 5
ENDMDL
