MODEL 1
REMARK VINA RESULT:     4.351      0.000      0.000
REMARK INTER + INTRA:           7.226
REMARK INTER:                   5.877
REMARK INTRA:                   1.350
REMARK UNBOUND:                 1.350
REMARK SMILES COc1ccc(-c2cc(=O)c3c(OC)c(OC)c(OC)c(OC)c3o2)cc1
REMARK SMILES IDX 7 1 8 2 9 3 10 4 11 5 24 6 25 7 21 8 18 9 15 10 12 11 6 12
REMARK SMILES IDX 3 13 4 14 27 15 5 16 26 17 2 18 1 19 22 20 23 21 13 22 14 23
REMARK SMILES IDX 19 24 20 25 16 26 17 27
REMARK H PARENT
REMARK Flexibility Score: inf
ROOT
ATOM      1  C   UNL     1      14.004   2.827 -20.708  1.00  0.00     0.138 A 
ATOM      2  C   UNL     1      13.622   3.198 -19.413  1.00  0.00     0.100 A 
ATOM      3  C   UNL     1      12.832   2.334 -18.660  1.00  0.00     0.197 A 
ATOM      4  O   UNL     1      12.500   2.684 -17.496  1.00  0.00    -0.289 OA
ATOM      5  C   UNL     1      12.422   1.097 -19.210  1.00  0.00     0.115 A 
ATOM      6  C   UNL     1      12.857   0.786 -20.522  1.00  0.00     0.188 A 
ATOM      7  O   UNL     1      13.615   1.651 -21.191  1.00  0.00    -0.452 OA
ATOM      8  C   UNL     1      12.478  -0.436 -21.122  1.00  0.00     0.209 A 
ATOM      9  C   UNL     1      11.656  -1.331 -20.419  1.00  0.00     0.211 A 
ATOM     10  C   UNL     1      11.180  -1.012 -19.125  1.00  0.00     0.208 A 
ATOM     11  C   UNL     1      11.610   0.181 -18.499  1.00  0.00     0.179 A 
ENDROOT
BRANCH   1  12
ATOM     12  C   UNL     1      14.847   3.709 -21.550  1.00  0.00     0.018 A 
ATOM     13  C   UNL     1      16.455   5.351 -23.189  1.00  0.00     0.118 A 
ATOM     14  C   UNL     1      16.424   3.968 -23.385  1.00  0.00     0.047 A 
ATOM     15  C   UNL     1      15.665   5.918 -22.171  1.00  0.00     0.047 A 
ATOM     16  C   UNL     1      15.629   3.152 -22.575  1.00  0.00     0.016 A 
ATOM     17  C   UNL     1      14.868   5.104 -21.362  1.00  0.00     0.016 A 
BRANCH  13  18
ATOM     18  O   UNL     1      17.272   6.125 -24.024  1.00  0.00    -0.497 OA
ATOM     19  C   UNL     1      17.572   5.804 -25.378  1.00  0.00     0.278 C 
ENDBRANCH  13  18
ENDBRANCH   1  12
BRANCH   8  20
ATOM     20  O   UNL     1      12.860  -0.806 -22.427  1.00  0.00    -0.490 OA
ATOM     21  C   UNL     1      11.998  -1.260 -23.464  1.00  0.00     0.278 C 
ENDBRANCH   8  20
BRANCH  11  22
ATOM     22  O   UNL     1      11.235   0.500 -17.179  1.00  0.00    -0.492 OA
ATOM     23  C   UNL     1      11.890   0.051 -15.997  1.00  0.00     0.278 C 
ENDBRANCH  11  22
BRANCH   9  24
ATOM     24  O   UNL     1      11.307  -2.543 -21.021  1.00  0.00    -0.490 OA
ATOM     25  C   UNL     1      10.065  -2.728 -21.693  1.00  0.00     0.279 C 
ENDBRANCH   9  24
BRANCH  10  26
ATOM     26  O   UNL     1      10.272  -1.832 -18.428  1.00  0.00    -0.490 OA
ATOM     27  C   UNL     1       9.039  -2.352 -18.915  1.00  0.00     0.278 C 
ENDBRANCH  10  26
TORSDOF 6
ENDMDL
