MODEL 1
REMARK VINA RESULT:    -6.068      0.000      0.000
REMARK INTER + INTRA:          -8.231
REMARK INTER:                  -7.842
REMARK INTRA:                  -0.389
REMARK UNBOUND:                -0.389
REMARK SMILES CCO[C@@H]1O[C@@H](CO)[C@@H](O)[C@@H](O)[C@@H]1O
REMARK SMILES IDX 4 1 13 2 11 3 9 4 6 5 5 6 3 7 2 8 1 9 14 10 12 12 7 14 8 15
REMARK SMILES IDX 10 17
REMARK H PARENT 14 11 12 13 8 16 10 18
REMARK Flexibility Score: inf
ROOT
ATOM      1  C   UNL     1      -4.568 -48.144 -16.086  1.00  0.00     0.281 C 
ATOM      2  C   UNL     1      -3.476 -47.199 -15.536  1.00  0.00     0.202 C 
ATOM      3  C   UNL     1      -3.395 -47.301 -14.005  1.00  0.00     0.179 C 
ATOM      4  C   UNL     1      -3.263 -48.776 -13.582  1.00  0.00     0.177 C 
ATOM      5  C   UNL     1      -4.405 -49.587 -14.237  1.00  0.00     0.178 C 
ATOM      6  O   UNL     1      -4.352 -49.482 -15.652  1.00  0.00    -0.341 OA
ENDROOT
BRANCH   1   7
ATOM      7  O   UNL     1      -5.854 -47.675 -15.709  1.00  0.00    -0.350 OA
BRANCH   7   8
ATOM      8  C   UNL     1      -6.801 -47.992 -16.709  1.00  0.00     0.160 C 
ATOM      9  C   UNL     1      -7.843 -48.932 -16.124  1.00  0.00     0.035 C 
ENDBRANCH   7   8
ENDBRANCH   1   7
BRANCH   2  10
ATOM     10  O   UNL     1      -3.753 -45.872 -15.901  1.00  0.00    -0.385 OA
ATOM     11  H   UNL     1      -3.123 -45.298 -15.392  1.00  0.00     0.211 HD
ENDBRANCH   2  10
BRANCH   3  12
ATOM     12  O   UNL     1      -2.299 -46.555 -13.543  1.00  0.00    -0.387 OA
ATOM     13  H   UNL     1      -1.496 -46.912 -14.004  1.00  0.00     0.211 HD
ENDBRANCH   3  12
BRANCH   5  14
ATOM     14  C   UNL     1      -4.358 -51.068 -13.838  1.00  0.00     0.191 C 
BRANCH  14  15
ATOM     15  O   UNL     1      -3.756 -51.835 -14.845  1.00  0.00    -0.394 OA
ATOM     16  H   UNL     1      -4.121 -52.753 -14.748  1.00  0.00     0.210 HD
ENDBRANCH  14  15
ENDBRANCH   5  14
BRANCH   4  17
ATOM     17  O   UNL     1      -2.016 -49.287 -13.984  1.00  0.00    -0.387 OA
ATOM     18  H   UNL     1      -1.680 -49.849 -13.238  1.00  0.00     0.211 HD
ENDBRANCH   4  17
TORSDOF 7
ENDMDL
MODEL 2
REMARK VINA RESULT:    -5.992      1.710      2.366
REMARK INTER + INTRA:          -8.132
REMARK INTER:                  -7.660
REMARK INTRA:                  -0.472
REMARK UNBOUND:                -0.389
REMARK SMILES CCO[C@@H]1O[C@@H](CO)[C@@H](O)[C@@H](O)[C@@H]1O
REMARK SMILES IDX 4 1 13 2 11 3 9 4 6 5 5 6 3 7 2 8 1 9 14 10 12 12 7 14 8 15
REMARK SMILES IDX 10 17
REMARK H PARENT 14 11 12 13 8 16 10 18
REMARK Flexibility Score: inf
ROOT
ATOM      1  C   UNL     1      -6.288 -48.938 -14.898  1.00  0.00     0.281 C 
ATOM      2  C   UNL     1      -5.758 -47.979 -15.986  1.00  0.00     0.202 C 
ATOM      3  C   UNL     1      -4.302 -47.584 -15.695  1.00  0.00     0.179 C 
ATOM      4  C   UNL     1      -3.451 -48.847 -15.459  1.00  0.00     0.177 C 
ATOM      5  C   UNL     1      -4.130 -49.709 -14.371  1.00  0.00     0.178 C 
ATOM      6  O   UNL     1      -5.444 -50.077 -14.764  1.00  0.00    -0.341 OA
ENDROOT
BRANCH   1   7
ATOM      7  O   UNL     1      -6.430 -48.248 -13.666  1.00  0.00    -0.350 OA
BRANCH   7   8
ATOM      8  C   UNL     1      -7.544 -48.745 -12.953  1.00  0.00     0.160 C 
ATOM      9  C   UNL     1      -8.754 -48.764 -13.873  1.00  0.00     0.035 C 
ENDBRANCH   7   8
ENDBRANCH   1   7
BRANCH   2  10
ATOM     10  O   UNL     1      -6.552 -46.822 -16.043  1.00  0.00    -0.385 OA
ATOM     11  H   UNL     1      -5.992 -46.074 -15.708  1.00  0.00     0.211 HD
ENDBRANCH   2  10
BRANCH   3  12
ATOM     12  O   UNL     1      -3.793 -46.840 -16.772  1.00  0.00    -0.387 OA
ATOM     13  H   UNL     1      -3.429 -45.999 -16.391  1.00  0.00     0.211 HD
ENDBRANCH   3  12
BRANCH   5  14
ATOM     14  C   UNL     1      -3.323 -50.976 -14.058  1.00  0.00     0.191 C 
BRANCH  14  15
ATOM     15  O   UNL     1      -3.735 -52.041 -14.872  1.00  0.00    -0.394 OA
ATOM     16  H   UNL     1      -2.914 -52.384 -15.313  1.00  0.00     0.210 HD
ENDBRANCH  14  15
ENDBRANCH   5  14
BRANCH   4  17
ATOM     17  O   UNL     1      -3.331 -49.581 -16.653  1.00  0.00    -0.387 OA
ATOM     18  H   UNL     1      -3.804 -50.442 -16.511  1.00  0.00     0.211 HD
ENDBRANCH   4  17
TORSDOF 7
ENDMDL
MODEL 3
REMARK VINA RESULT:    -5.932      1.574      3.532
REMARK INTER + INTRA:          -8.055
REMARK INTER:                  -7.633
REMARK INTRA:                  -0.422
REMARK UNBOUND:                -0.389
REMARK SMILES CCO[C@@H]1O[C@@H](CO)[C@@H](O)[C@@H](O)[C@@H]1O
REMARK SMILES IDX 4 1 13 2 11 3 9 4 6 5 5 6 3 7 2 8 1 9 14 10 12 12 7 14 8 15
REMARK SMILES IDX 10 17
REMARK H PARENT 14 11 12 13 8 16 10 18
REMARK Flexibility Score: inf
ROOT
ATOM      1  C   UNL     1      -5.126 -49.527 -14.058  1.00  0.00     0.281 C 
ATOM      2  C   UNL     1      -3.738 -49.898 -14.628  1.00  0.00     0.202 C 
ATOM      3  C   UNL     1      -3.312 -48.892 -15.708  1.00  0.00     0.179 C 
ATOM      4  C   UNL     1      -3.440 -47.454 -15.169  1.00  0.00     0.177 C 
ATOM      5  C   UNL     1      -4.868 -47.257 -14.610  1.00  0.00     0.178 C 
ATOM      6  O   UNL     1      -5.139 -48.189 -13.574  1.00  0.00    -0.341 OA
ENDROOT
BRANCH   1   7
ATOM      7  O   UNL     1      -6.128 -49.736 -15.042  1.00  0.00    -0.350 OA
BRANCH   7   8
ATOM      8  C   UNL     1      -7.380 -49.955 -14.424  1.00  0.00     0.160 C 
ATOM      9  C   UNL     1      -8.365 -48.904 -14.911  1.00  0.00     0.035 C 
ENDBRANCH   7   8
ENDBRANCH   1   7
BRANCH   2  10
ATOM     10  O   UNL     1      -3.768 -51.189 -15.179  1.00  0.00    -0.385 OA
ATOM     11  H   UNL     1      -4.246 -51.767 -14.529  1.00  0.00     0.211 HD
ENDBRANCH   2  10
BRANCH   3  12
ATOM     12  O   UNL     1      -1.989 -49.156 -16.100  1.00  0.00    -0.387 OA
ATOM     13  H   UNL     1      -2.039 -49.630 -16.970  1.00  0.00     0.211 HD
ENDBRANCH   3  12
BRANCH   5  14
ATOM     14  C   UNL     1      -5.082 -45.834 -14.078  1.00  0.00     0.191 C 
BRANCH  14  15
ATOM     15  O   UNL     1      -4.107 -44.962 -14.582  1.00  0.00    -0.394 OA
ATOM     16  H   UNL     1      -3.231 -45.381 -14.379  1.00  0.00     0.210 HD
ENDBRANCH  14  15
ENDBRANCH   5  14
BRANCH   4  17
ATOM     17  O   UNL     1      -2.490 -47.230 -14.156  1.00  0.00    -0.387 OA
ATOM     18  H   UNL     1      -2.884 -46.568 -13.531  1.00  0.00     0.211 HD
ENDBRANCH   4  17
TORSDOF 7
ENDMDL
MODEL 4
REMARK VINA RESULT:    -5.657      1.936      3.841
REMARK INTER + INTRA:          -7.700
REMARK INTER:                  -7.263
REMARK INTRA:                  -0.437
REMARK UNBOUND:                -0.389
REMARK SMILES CCO[C@@H]1O[C@@H](CO)[C@@H](O)[C@@H](O)[C@@H]1O
REMARK SMILES IDX 4 1 13 2 11 3 9 4 6 5 5 6 3 7 2 8 1 9 14 10 12 12 7 14 8 15
REMARK SMILES IDX 10 17
REMARK H PARENT 14 11 12 13 8 16 10 18
REMARK Flexibility Score: inf
ROOT
ATOM      1  C   UNL     1      -4.603 -47.682 -13.458  1.00  0.00     0.281 C 
ATOM      2  C   UNL     1      -3.175 -47.910 -14.001  1.00  0.00     0.202 C 
ATOM      3  C   UNL     1      -3.202 -48.853 -15.214  1.00  0.00     0.179 C 
ATOM      4  C   UNL     1      -4.228 -48.351 -16.248  1.00  0.00     0.177 C 
ATOM      5  C   UNL     1      -5.587 -48.145 -15.543  1.00  0.00     0.178 C 
ATOM      6  O   UNL     1      -5.470 -47.207 -14.483  1.00  0.00    -0.341 OA
ENDROOT
BRANCH   1   7
ATOM      7  O   UNL     1      -5.097 -48.875 -12.869  1.00  0.00    -0.350 OA
BRANCH   7   8
ATOM      8  C   UNL     1      -5.976 -48.568 -11.806  1.00  0.00     0.160 C 
ATOM      9  C   UNL     1      -5.207 -48.623 -10.495  1.00  0.00     0.035 C 
ENDBRANCH   7   8
ENDBRANCH   1   7
BRANCH   2  10
ATOM     10  O   UNL     1      -2.356 -48.460 -13.001  1.00  0.00    -0.385 OA
ATOM     11  H   UNL     1      -1.657 -47.785 -12.800  1.00  0.00     0.211 HD
ENDBRANCH   2  10
BRANCH   3  12
ATOM     12  O   UNL     1      -1.920 -48.923 -15.784  1.00  0.00    -0.387 OA
ATOM     13  H   UNL     1      -1.413 -48.142 -15.440  1.00  0.00     0.211 HD
ENDBRANCH   3  12
BRANCH   5  14
ATOM     14  C   UNL     1      -6.672 -47.670 -16.518  1.00  0.00     0.191 C 
BRANCH  14  15
ATOM     15  O   UNL     1      -6.384 -48.088 -17.825  1.00  0.00    -0.394 OA
ATOM     16  H   UNL     1      -6.350 -49.079 -17.796  1.00  0.00     0.210 HD
ENDBRANCH  14  15
ENDBRANCH   5  14
BRANCH   4  17
ATOM     17  O   UNL     1      -3.790 -47.142 -16.817  1.00  0.00    -0.387 OA
ATOM     18  H   UNL     1      -3.443 -46.582 -16.074  1.00  0.00     0.211 HD
ENDBRANCH   4  17
TORSDOF 7
ENDMDL
MODEL 5
REMARK VINA RESULT:    -5.618      2.272      3.099
REMARK INTER + INTRA:          -7.649
REMARK INTER:                  -7.178
REMARK INTRA:                  -0.472
REMARK UNBOUND:                -0.389
REMARK SMILES CCO[C@@H]1O[C@@H](CO)[C@@H](O)[C@@H](O)[C@@H]1O
REMARK SMILES IDX 4 1 13 2 11 3 9 4 6 5 5 6 3 7 2 8 1 9 14 10 12 12 7 14 8 15
REMARK SMILES IDX 10 17
REMARK H PARENT 14 11 12 13 8 16 10 18
REMARK Flexibility Score: inf
ROOT
ATOM      1  C   UNL     1      -5.977 -47.983 -14.004  1.00  0.00     0.281 C 
ATOM      2  C   UNL     1      -5.953 -46.451 -14.203  1.00  0.00     0.202 C 
ATOM      3  C   UNL     1      -4.528 -45.906 -14.022  1.00  0.00     0.179 C 
ATOM      4  C   UNL     1      -3.544 -46.699 -14.904  1.00  0.00     0.177 C 
ATOM      5  C   UNL     1      -3.716 -48.207 -14.608  1.00  0.00     0.178 C 
ATOM      6  O   UNL     1      -5.047 -48.625 -14.870  1.00  0.00    -0.341 OA
ENDROOT
BRANCH   1   7
ATOM      7  O   UNL     1      -5.729 -48.302 -12.644  1.00  0.00    -0.350 OA
BRANCH   7   8
ATOM      8  C   UNL     1      -6.492 -49.428 -12.260  1.00  0.00     0.160 C 
ATOM      9  C   UNL     1      -7.968 -49.115 -12.450  1.00  0.00     0.035 C 
ENDBRANCH   7   8
ENDBRANCH   1   7
BRANCH   2  10
ATOM     10  O   UNL     1      -6.810 -45.827 -13.282  1.00  0.00    -0.385 OA
ATOM     11  H   UNL     1      -7.314 -46.551 -12.826  1.00  0.00     0.211 HD
ENDBRANCH   2  10
BRANCH   3  12
ATOM     12  O   UNL     1      -4.501 -44.542 -14.358  1.00  0.00    -0.387 OA
ATOM     13  H   UNL     1      -3.640 -44.380 -14.824  1.00  0.00     0.211 HD
ENDBRANCH   3  12
BRANCH   5  14
ATOM     14  C   UNL     1      -2.746 -49.065 -15.431  1.00  0.00     0.191 C 
BRANCH  14  15
ATOM     15  O   UNL     1      -3.322 -49.432 -16.655  1.00  0.00    -0.394 OA
ATOM     16  H   UNL     1      -3.306 -48.617 -17.222  1.00  0.00     0.210 HD
ENDBRANCH  14  15
ENDBRANCH   5  14
BRANCH   4  17
ATOM     17  O   UNL     1      -3.795 -46.442 -16.263  1.00  0.00    -0.387 OA
ATOM     18  H   UNL     1      -3.238 -47.076 -16.785  1.00  0.00     0.211 HD
ENDBRANCH   4  17
TORSDOF 7
ENDMDL
MODEL 6
REMARK VINA RESULT:    -5.617      1.746      3.455
REMARK INTER + INTRA:          -7.648
REMARK INTER:                  -7.213
REMARK INTRA:                  -0.434
REMARK UNBOUND:                -0.389
REMARK SMILES CCO[C@@H]1O[C@@H](CO)[C@@H](O)[C@@H](O)[C@@H]1O
REMARK SMILES IDX 4 1 13 2 11 3 9 4 6 5 5 6 3 7 2 8 1 9 14 10 12 12 7 14 8 15
REMARK SMILES IDX 10 17
REMARK H PARENT 14 11 12 13 8 16 10 18
REMARK Flexibility Score: inf
ROOT
ATOM      1  C   UNL     1      -3.809 -48.592 -14.852  1.00  0.00     0.281 C 
ATOM      2  C   UNL     1      -2.853 -49.764 -14.537  1.00  0.00     0.202 C 
ATOM      3  C   UNL     1      -3.373 -50.578 -13.341  1.00  0.00     0.179 C 
ATOM      4  C   UNL     1      -4.844 -50.972 -13.572  1.00  0.00     0.177 C 
ATOM      5  C   UNL     1      -5.655 -49.698 -13.905  1.00  0.00     0.178 C 
ATOM      6  O   UNL     1      -5.138 -49.057 -15.061  1.00  0.00    -0.341 OA
ENDROOT
BRANCH   1   7
ATOM      7  O   UNL     1      -3.753 -47.625 -13.814  1.00  0.00    -0.350 OA
BRANCH   7   8
ATOM      8  C   UNL     1      -3.731 -46.322 -14.361  1.00  0.00     0.160 C 
ATOM      9  C   UNL     1      -5.047 -45.629 -14.046  1.00  0.00     0.035 C 
ENDBRANCH   7   8
ENDBRANCH   1   7
BRANCH   2  10
ATOM     10  O   UNL     1      -1.568 -49.279 -14.247  1.00  0.00    -0.385 OA
ATOM     11  H   UNL     1      -0.923 -49.927 -14.635  1.00  0.00     0.211 HD
ENDBRANCH   2  10
BRANCH   3  12
ATOM     12  O   UNL     1      -2.577 -51.722 -13.171  1.00  0.00    -0.387 OA
ATOM     13  H   UNL     1      -1.820 -51.640 -13.806  1.00  0.00     0.211 HD
ENDBRANCH   3  12
BRANCH   5  14
ATOM     14  C   UNL     1      -7.142 -50.006 -14.121  1.00  0.00     0.191 C 
BRANCH  14  15
ATOM     15  O   UNL     1      -7.399 -50.297 -15.468  1.00  0.00    -0.394 OA
ATOM     16  H   UNL     1      -8.068 -49.629 -15.771  1.00  0.00     0.210 HD
ENDBRANCH  14  15
ENDBRANCH   5  14
BRANCH   4  17
ATOM     17  O   UNL     1      -4.939 -51.895 -14.629  1.00  0.00    -0.387 OA
ATOM     18  H   UNL     1      -4.266 -51.628 -15.307  1.00  0.00     0.211 HD
ENDBRANCH   4  17
TORSDOF 7
ENDMDL
MODEL 7
REMARK VINA RESULT:    -5.494      2.055      3.552
REMARK INTER + INTRA:          -7.489
REMARK INTER:                  -7.269
REMARK INTRA:                  -0.220
REMARK UNBOUND:                -0.389
REMARK SMILES CCO[C@@H]1O[C@@H](CO)[C@@H](O)[C@@H](O)[C@@H]1O
REMARK SMILES IDX 4 1 13 2 11 3 9 4 6 5 5 6 3 7 2 8 1 9 14 10 12 12 7 14 8 15
REMARK SMILES IDX 10 17
REMARK H PARENT 14 11 12 13 8 16 10 18
REMARK Flexibility Score: inf
ROOT
ATOM      1  C   UNL     1      -3.958 -49.305 -14.223  1.00  0.00     0.281 C 
ATOM      2  C   UNL     1      -3.214 -48.500 -15.312  1.00  0.00     0.202 C 
ATOM      3  C   UNL     1      -4.173 -47.523 -16.010  1.00  0.00     0.179 C 
ATOM      4  C   UNL     1      -4.920 -46.678 -14.962  1.00  0.00     0.177 C 
ATOM      5  C   UNL     1      -5.579 -47.627 -13.934  1.00  0.00     0.178 C 
ATOM      6  O   UNL     1      -4.603 -48.438 -13.297  1.00  0.00    -0.341 OA
ENDROOT
BRANCH   1   7
ATOM      7  O   UNL     1      -4.878 -50.203 -14.824  1.00  0.00    -0.350 OA
BRANCH   7   8
ATOM      8  C   UNL     1      -5.087 -51.321 -13.986  1.00  0.00     0.160 C 
ATOM      9  C   UNL     1      -6.570 -51.658 -13.968  1.00  0.00     0.035 C 
ENDBRANCH   7   8
ENDBRANCH   1   7
BRANCH   2  10
ATOM     10  O   UNL     1      -2.658 -49.368 -16.265  1.00  0.00    -0.385 OA
ATOM     11  H   UNL     1      -1.809 -49.710 -15.879  1.00  0.00     0.211 HD
ENDBRANCH   2  10
BRANCH   3  12
ATOM     12  O   UNL     1      -3.447 -46.697 -16.884  1.00  0.00    -0.387 OA
ATOM     13  H   UNL     1      -2.563 -47.128 -17.016  1.00  0.00     0.211 HD
ENDBRANCH   3  12
BRANCH   5  14
ATOM     14  C   UNL     1      -6.370 -46.857 -12.869  1.00  0.00     0.191 C 
BRANCH  14  15
ATOM     15  O   UNL     1      -6.248 -47.474 -11.616  1.00  0.00    -0.394 OA
ATOM     16  H   UNL     1      -5.738 -46.842 -11.045  1.00  0.00     0.210 HD
ENDBRANCH  14  15
ENDBRANCH   5  14
BRANCH   4  17
ATOM     17  O   UNL     1      -4.026 -45.809 -14.312  1.00  0.00    -0.387 OA
ATOM     18  H   UNL     1      -4.405 -44.894 -14.387  1.00  0.00     0.211 HD
ENDBRANCH   4  17
TORSDOF 7
ENDMDL
MODEL 8
REMARK VINA RESULT:    -5.459      2.309      4.434
REMARK INTER + INTRA:          -7.443
REMARK INTER:                  -7.148
REMARK INTRA:                  -0.295
REMARK UNBOUND:                -0.389
REMARK SMILES CCO[C@@H]1O[C@@H](CO)[C@@H](O)[C@@H](O)[C@@H]1O
REMARK SMILES IDX 4 1 13 2 11 3 9 4 6 5 5 6 3 7 2 8 1 9 14 10 12 12 7 14 8 15
REMARK SMILES IDX 10 17
REMARK H PARENT 14 11 12 13 8 16 10 18
REMARK Flexibility Score: inf
ROOT
ATOM      1  C   UNL     1      -7.463 -49.786 -14.926  1.00  0.00     0.281 C 
ATOM      2  C   UNL     1      -8.193 -49.041 -16.066  1.00  0.00     0.202 C 
ATOM      3  C   UNL     1      -7.670 -47.602 -16.191  1.00  0.00     0.179 C 
ATOM      4  C   UNL     1      -6.132 -47.607 -16.288  1.00  0.00     0.177 C 
ATOM      5  C   UNL     1      -5.561 -48.415 -15.100  1.00  0.00     0.178 C 
ATOM      6  O   UNL     1      -6.052 -49.747 -15.112  1.00  0.00    -0.341 OA
ENDROOT
BRANCH   1   7
ATOM      7  O   UNL     1      -7.838 -49.244 -13.670  1.00  0.00    -0.350 OA
BRANCH   7   8
ATOM      8  C   UNL     1      -7.262 -49.997 -12.622  1.00  0.00     0.160 C 
ATOM      9  C   UNL     1      -6.814 -49.050 -11.519  1.00  0.00     0.035 C 
ENDBRANCH   7   8
ENDBRANCH   1   7
BRANCH   2  10
ATOM     10  O   UNL     1      -9.576 -49.014 -15.821  1.00  0.00    -0.385 OA
ATOM     11  H   UNL     1      -9.866 -49.958 -15.718  1.00  0.00     0.211 HD
ENDBRANCH   2  10
BRANCH   3  12
ATOM     12  O   UNL     1      -8.233 -46.995 -17.326  1.00  0.00    -0.387 OA
ATOM     13  H   UNL     1      -8.788 -46.240 -16.999  1.00  0.00     0.211 HD
ENDBRANCH   3  12
BRANCH   5  14
ATOM     14  C   UNL     1      -4.027 -48.442 -15.111  1.00  0.00     0.191 C 
BRANCH  14  15
ATOM     15  O   UNL     1      -3.554 -49.458 -15.952  1.00  0.00    -0.394 OA
ATOM     16  H   UNL     1      -3.792 -50.315 -15.511  1.00  0.00     0.210 HD
ENDBRANCH  14  15
ENDBRANCH   5  14
BRANCH   4  17
ATOM     17  O   UNL     1      -5.725 -48.184 -17.505  1.00  0.00    -0.387 OA
ATOM     18  H   UNL     1      -5.563 -49.147 -17.328  1.00  0.00     0.211 HD
ENDBRANCH   4  17
TORSDOF 7
ENDMDL
MODEL 9
REMARK VINA RESULT:    -5.320      2.720      5.435
REMARK INTER + INTRA:          -7.264
REMARK INTER:                  -6.890
REMARK INTRA:                  -0.374
REMARK UNBOUND:                -0.389
REMARK SMILES CCO[C@@H]1O[C@@H](CO)[C@@H](O)[C@@H](O)[C@@H]1O
REMARK SMILES IDX 4 1 13 2 11 3 9 4 6 5 5 6 3 7 2 8 1 9 14 10 12 12 7 14 8 15
REMARK SMILES IDX 10 17
REMARK H PARENT 14 11 12 13 8 16 10 18
REMARK Flexibility Score: inf
ROOT
ATOM      1  C   UNL     1      -6.426 -49.588 -14.040  1.00  0.00     0.281 C 
ATOM      2  C   UNL     1      -7.824 -49.636 -13.384  1.00  0.00     0.202 C 
ATOM      3  C   UNL     1      -8.642 -48.393 -13.766  1.00  0.00     0.179 C 
ATOM      4  C   UNL     1      -8.639 -48.209 -15.296  1.00  0.00     0.177 C 
ATOM      5  C   UNL     1      -7.175 -48.214 -15.795  1.00  0.00     0.178 C 
ATOM      6  O   UNL     1      -6.528 -49.430 -15.451  1.00  0.00    -0.341 OA
ENDROOT
BRANCH   1   7
ATOM      7  O   UNL     1      -5.648 -48.554 -13.455  1.00  0.00    -0.350 OA
BRANCH   7   8
ATOM      8  C   UNL     1      -4.298 -48.958 -13.351  1.00  0.00     0.160 C 
ATOM      9  C   UNL     1      -4.218 -50.198 -12.475  1.00  0.00     0.035 C 
ENDBRANCH   7   8
ENDBRANCH   1   7
BRANCH   2  10
ATOM     10  O   UNL     1      -7.703 -49.703 -11.987  1.00  0.00    -0.385 OA
ATOM     11  H   UNL     1      -8.583 -49.437 -11.611  1.00  0.00     0.211 HD
ENDBRANCH   2  10
BRANCH   3  12
ATOM     12  O   UNL     1      -9.956 -48.531 -13.289  1.00  0.00    -0.387 OA
ATOM     13  H   UNL     1     -10.528 -47.953 -13.858  1.00  0.00     0.211 HD
ENDBRANCH   3  12
BRANCH   5  14
ATOM     14  C   UNL     1      -7.087 -48.006 -17.312  1.00  0.00     0.191 C 
BRANCH  14  15
ATOM     15  O   UNL     1      -7.902 -46.939 -17.716  1.00  0.00    -0.394 OA
ATOM     16  H   UNL     1      -7.289 -46.182 -17.907  1.00  0.00     0.210 HD
ENDBRANCH  14  15
ENDBRANCH   5  14
BRANCH   4  17
ATOM     17  O   UNL     1      -9.362 -49.247 -15.910  1.00  0.00    -0.387 OA
ATOM     18  H   UNL     1      -9.249 -49.136 -16.890  1.00  0.00     0.211 HD
ENDBRANCH   4  17
TORSDOF 7
ENDMDL
