MODEL 1
REMARK VINA RESULT:    -5.680      0.000      0.000
REMARK INTER + INTRA:          -6.557
REMARK INTER:                  -6.345
REMARK INTRA:                  -0.212
REMARK UNBOUND:                -0.212
REMARK SMILES O=C([O-])c1ccccc1C(=O)[O-]
REMARK SMILES IDX 4 1 9 2 5 3 8 4 6 5 7 6 2 7 1 8 3 9 10 10 11 11 12 12
REMARK H PARENT
REMARK Flexibility Score: inf
ROOT
ATOM      1  C   UNL     1      19.597  36.930  86.162  1.00  0.00     0.006 A 
ATOM      2  C   UNL     1      19.066  37.600  85.025  1.00  0.00     0.006 A 
ATOM      3  C   UNL     1      18.712  36.357  87.094  1.00  0.00     0.010 A 
ATOM      4  C   UNL     1      17.670  37.729  84.896  1.00  0.00     0.010 A 
ATOM      5  C   UNL     1      17.330  36.478  86.935  1.00  0.00     0.001 A 
ATOM      6  C   UNL     1      16.811  37.173  85.845  1.00  0.00     0.001 A 
ENDROOT
BRANCH   1   7
ATOM      7  C   UNL     1      21.049  36.868  86.449  1.00  0.00     0.072 C 
ATOM      8  O   UNL     1      21.727  35.875  86.076  1.00  0.00    -0.545 OA
ATOM      9  O   UNL     1      21.668  37.869  87.187  1.00  0.00    -0.545 OA
ENDBRANCH   1   7
BRANCH   2  10
ATOM     10  C   UNL     1      19.913  38.113  83.923  1.00  0.00     0.072 C 
ATOM     11  O   UNL     1      20.318  37.346  83.010  1.00  0.00    -0.545 OA
ATOM     12  O   UNL     1      20.216  39.468  83.851  1.00  0.00    -0.545 OA
ENDBRANCH   2  10
TORSDOF 2
ENDMDL
MODEL 2
REMARK VINA RESULT:    -5.539      1.891      3.433
REMARK INTER + INTRA:          -6.399
REMARK INTER:                  -6.647
REMARK INTRA:                   0.248
REMARK UNBOUND:                -0.212
REMARK SMILES O=C([O-])c1ccccc1C(=O)[O-]
REMARK SMILES IDX 4 1 9 2 5 3 8 4 6 5 7 6 2 7 1 8 3 9 10 10 11 11 12 12
REMARK H PARENT
REMARK Flexibility Score: inf
ROOT
ATOM      1  C   UNL     1      18.501  37.273  85.293  1.00  0.00     0.006 A 
ATOM      2  C   UNL     1      19.877  37.532  85.038  1.00  0.00     0.006 A 
ATOM      3  C   UNL     1      17.554  37.555  84.290  1.00  0.00     0.010 A 
ATOM      4  C   UNL     1      20.246  38.125  83.817  1.00  0.00     0.010 A 
ATOM      5  C   UNL     1      17.946  38.124  83.077  1.00  0.00     0.001 A 
ATOM      6  C   UNL     1      19.288  38.419  82.846  1.00  0.00     0.001 A 
ENDROOT
BRANCH   1   7
ATOM      7  C   UNL     1      18.008  36.781  86.600  1.00  0.00     0.072 C 
ATOM      8  O   UNL     1      18.638  35.882  87.217  1.00  0.00    -0.545 OA
ATOM      9  O   UNL     1      16.815  37.254  87.130  1.00  0.00    -0.545 OA
ENDBRANCH   1   7
BRANCH   2  10
ATOM     10  C   UNL     1      20.957  37.142  85.974  1.00  0.00     0.072 C 
ATOM     11  O   UNL     1      21.334  37.925  86.885  1.00  0.00    -0.545 OA
ATOM     12  O   UNL     1      21.522  35.875  85.895  1.00  0.00    -0.545 OA
ENDBRANCH   2  10
TORSDOF 2
ENDMDL
MODEL 3
REMARK VINA RESULT:    -5.363      1.853      3.180
REMARK INTER + INTRA:          -6.202
REMARK INTER:                  -6.442
REMARK INTRA:                   0.240
REMARK UNBOUND:                -0.212
REMARK SMILES O=C([O-])c1ccccc1C(=O)[O-]
REMARK SMILES IDX 4 1 9 2 5 3 8 4 6 5 7 6 2 7 1 8 3 9 10 10 11 11 12 12
REMARK H PARENT
REMARK Flexibility Score: inf
ROOT
ATOM      1  C   UNL     1      19.883  37.459  85.053  1.00  0.00     0.006 A 
ATOM      2  C   UNL     1      18.502  37.297  85.354  1.00  0.00     0.006 A 
ATOM      3  C   UNL     1      20.254  37.994  83.805  1.00  0.00     0.010 A 
ATOM      4  C   UNL     1      17.546  37.614  84.371  1.00  0.00     0.010 A 
ATOM      5  C   UNL     1      19.287  38.321  82.853  1.00  0.00     0.001 A 
ATOM      6  C   UNL     1      17.937  38.121  83.131  1.00  0.00     0.001 A 
ENDROOT
BRANCH   1   7
ATOM      7  C   UNL     1      20.959  37.023  85.973  1.00  0.00     0.072 C 
ATOM      8  O   UNL     1      21.464  35.875  85.857  1.00  0.00    -0.545 OA
ATOM      9  O   UNL     1      21.378  37.843  87.013  1.00  0.00    -0.545 OA
ENDBRANCH   1   7
BRANCH   2  10
ATOM     10  C   UNL     1      18.011  36.874  86.686  1.00  0.00     0.072 C 
ATOM     11  O   UNL     1      16.959  37.367  87.172  1.00  0.00    -0.545 OA
ATOM     12  O   UNL     1      18.676  35.875  87.387  1.00  0.00    -0.545 OA
ENDBRANCH   2  10
TORSDOF 2
ENDMDL
MODEL 4
REMARK VINA RESULT:    -4.975      2.504      3.664
REMARK INTER + INTRA:          -5.769
REMARK INTER:                  -5.961
REMARK INTRA:                   0.192
REMARK UNBOUND:                -0.212
REMARK SMILES O=C([O-])c1ccccc1C(=O)[O-]
REMARK SMILES IDX 4 1 9 2 5 3 8 4 6 5 7 6 2 7 1 8 3 9 10 10 11 11 12 12
REMARK H PARENT
REMARK Flexibility Score: inf
ROOT
ATOM      1  C   UNL     1      20.098  37.298  84.960  1.00  0.00     0.006 A 
ATOM      2  C   UNL     1      20.198  38.307  85.959  1.00  0.00     0.006 A 
ATOM      3  C   UNL     1      20.780  36.081  85.146  1.00  0.00     0.010 A 
ATOM      4  C   UNL     1      21.028  38.086  87.073  1.00  0.00     0.010 A 
ATOM      5  C   UNL     1      21.582  35.876  86.270  1.00  0.00     0.001 A 
ATOM      6  C   UNL     1      21.714  36.881  87.226  1.00  0.00     0.001 A 
ENDROOT
BRANCH   1   7
ATOM      7  C   UNL     1      19.360  37.498  83.692  1.00  0.00     0.072 C 
ATOM      8  O   UNL     1      19.893  38.131  82.742  1.00  0.00    -0.545 OA
ATOM      9  O   UNL     1      18.053  37.050  83.555  1.00  0.00    -0.545 OA
ENDBRANCH   1   7
BRANCH   2  10
ATOM     10  C   UNL     1      19.410  39.561  85.919  1.00  0.00     0.072 C 
ATOM     11  O   UNL     1      18.225  39.564  85.494  1.00  0.00    -0.545 OA
ATOM     12  O   UNL     1      19.953  40.740  86.416  1.00  0.00    -0.545 OA
ENDBRANCH   2  10
TORSDOF 2
ENDMDL
MODEL 5
REMARK VINA RESULT:    -4.908      2.509      3.274
REMARK INTER + INTRA:          -5.694
REMARK INTER:                  -5.597
REMARK INTRA:                  -0.098
REMARK UNBOUND:                -0.212
REMARK SMILES O=C([O-])c1ccccc1C(=O)[O-]
REMARK SMILES IDX 4 1 9 2 5 3 8 4 6 5 7 6 2 7 1 8 3 9 10 10 11 11 12 12
REMARK H PARENT
REMARK Flexibility Score: inf
ROOT
ATOM      1  C   UNL     1      20.184  38.266  86.040  1.00  0.00     0.006 A 
ATOM      2  C   UNL     1      20.120  37.343  84.960  1.00  0.00     0.006 A 
ATOM      3  C   UNL     1      21.031  37.988  87.129  1.00  0.00     0.010 A 
ATOM      4  C   UNL     1      20.854  36.145  85.039  1.00  0.00     0.010 A 
ATOM      5  C   UNL     1      21.768  36.803  87.177  1.00  0.00     0.001 A 
ATOM      6  C   UNL     1      21.670  35.879  86.139  1.00  0.00     0.001 A 
ENDROOT
BRANCH   1   7
ATOM      7  C   UNL     1      19.341  39.483  86.105  1.00  0.00     0.072 C 
ATOM      8  O   UNL     1      18.086  39.383  86.132  1.00  0.00    -0.545 OA
ATOM      9  O   UNL     1      19.917  40.746  86.070  1.00  0.00    -0.545 OA
ENDBRANCH   1   7
BRANCH   2  10
ATOM     10  C   UNL     1      19.366  37.612  83.713  1.00  0.00     0.072 C 
ATOM     11  O   UNL     1      19.929  38.148  82.722  1.00  0.00    -0.545 OA
ATOM     12  O   UNL     1      18.040  37.213  83.601  1.00  0.00    -0.545 OA
ENDBRANCH   2  10
TORSDOF 2
ENDMDL
MODEL 6
REMARK VINA RESULT:    -4.210      1.683      2.794
REMARK INTER + INTRA:          -4.914
REMARK INTER:                  -5.095
REMARK INTRA:                   0.181
REMARK UNBOUND:                -0.212
REMARK SMILES O=C([O-])c1ccccc1C(=O)[O-]
REMARK SMILES IDX 4 1 9 2 5 3 8 4 6 5 7 6 2 7 1 8 3 9 10 10 11 11 12 12
REMARK H PARENT
REMARK Flexibility Score: inf
ROOT
ATOM      1  C   UNL     1      19.396  37.314  84.756  1.00  0.00     0.006 A 
ATOM      2  C   UNL     1      18.011  37.611  84.887  1.00  0.00     0.006 A 
ATOM      3  C   UNL     1      20.033  36.560  85.760  1.00  0.00     0.010 A 
ATOM      4  C   UNL     1      17.330  37.200  86.048  1.00  0.00     0.010 A 
ATOM      5  C   UNL     1      19.332  36.144  86.893  1.00  0.00     0.001 A 
ATOM      6  C   UNL     1      17.986  36.473  87.042  1.00  0.00     0.001 A 
ENDROOT
BRANCH   1   7
ATOM      7  C   UNL     1      20.222  37.825  83.638  1.00  0.00     0.072 C 
ATOM      8  O   UNL     1      20.712  37.028  82.795  1.00  0.00    -0.545 OA
ATOM      9  O   UNL     1      20.523  39.178  83.541  1.00  0.00    -0.545 OA
ENDBRANCH   1   7
BRANCH   2  10
ATOM     10  C   UNL     1      17.226  38.277  83.823  1.00  0.00     0.072 C 
ATOM     11  O   UNL     1      16.334  39.119  84.110  1.00  0.00    -0.545 OA
ATOM     12  O   UNL     1      17.512  38.027  82.486  1.00  0.00    -0.545 OA
ENDBRANCH   2  10
TORSDOF 2
ENDMDL
MODEL 7
REMARK VINA RESULT:    -4.096      1.798      3.462
REMARK INTER + INTRA:          -4.788
REMARK INTER:                  -4.953
REMARK INTRA:                   0.166
REMARK UNBOUND:                -0.212
REMARK SMILES O=C([O-])c1ccccc1C(=O)[O-]
REMARK SMILES IDX 4 1 9 2 5 3 8 4 6 5 7 6 2 7 1 8 3 9 10 10 11 11 12 12
REMARK H PARENT
REMARK Flexibility Score: inf
ROOT
ATOM      1  C   UNL     1      18.152  37.615  84.842  1.00  0.00     0.006 A 
ATOM      2  C   UNL     1      19.535  37.368  84.619  1.00  0.00     0.006 A 
ATOM      3  C   UNL     1      17.557  37.155  86.032  1.00  0.00     0.010 A 
ATOM      4  C   UNL     1      20.256  36.613  85.563  1.00  0.00     0.010 A 
ATOM      5  C   UNL     1      18.297  36.426  86.965  1.00  0.00     0.001 A 
ATOM      6  C   UNL     1      19.640  36.146  86.725  1.00  0.00     0.001 A 
ENDROOT
BRANCH   1   7
ATOM      7  C   UNL     1      17.286  38.279  83.840  1.00  0.00     0.072 C 
ATOM      8  O   UNL     1      16.322  38.999  84.213  1.00  0.00    -0.545 OA
ATOM      9  O   UNL     1      17.483  38.066  82.482  1.00  0.00    -0.545 OA
ENDBRANCH   1   7
BRANCH   2  10
ATOM     10  C   UNL     1      20.279  37.929  83.467  1.00  0.00     0.072 C 
ATOM     11  O   UNL     1      20.583  39.150  83.429  1.00  0.00    -0.545 OA
ATOM     12  O   UNL     1      20.708  37.094  82.443  1.00  0.00    -0.545 OA
ENDBRANCH   2  10
TORSDOF 2
ENDMDL
MODEL 8
REMARK VINA RESULT:    -4.051      2.329      3.841
REMARK INTER + INTRA:          -4.736
REMARK INTER:                  -4.602
REMARK INTRA:                  -0.134
REMARK UNBOUND:                -0.212
REMARK SMILES O=C([O-])c1ccccc1C(=O)[O-]
REMARK SMILES IDX 4 1 9 2 5 3 8 4 6 5 7 6 2 7 1 8 3 9 10 10 11 11 12 12
REMARK H PARENT
REMARK Flexibility Score: inf
ROOT
ATOM      1  C   UNL     1      19.890  38.681  85.194  1.00  0.00     0.006 A 
ATOM      2  C   UNL     1      20.096  37.276  85.283  1.00  0.00     0.006 A 
ATOM      3  C   UNL     1      19.836  39.285  83.924  1.00  0.00     0.010 A 
ATOM      4  C   UNL     1      20.304  36.538  84.103  1.00  0.00     0.010 A 
ATOM      5  C   UNL     1      20.024  38.531  82.765  1.00  0.00     0.001 A 
ATOM      6  C   UNL     1      20.269  37.162  82.855  1.00  0.00     0.001 A 
ENDROOT
BRANCH   1   7
ATOM      7  C   UNL     1      19.801  39.554  86.387  1.00  0.00     0.072 C 
ATOM      8  O   UNL     1      18.779  40.265  86.577  1.00  0.00    -0.545 OA
ATOM      9  O   UNL     1      20.865  39.651  87.274  1.00  0.00    -0.545 OA
ENDBRANCH   1   7
BRANCH   2  10
ATOM     10  C   UNL     1      20.032  36.532  86.562  1.00  0.00     0.072 C 
ATOM     11  O   UNL     1      21.079  36.280  87.215  1.00  0.00    -0.545 OA
ATOM     12  O   UNL     1      18.801  36.161  87.091  1.00  0.00    -0.545 OA
ENDBRANCH   2  10
TORSDOF 2
ENDMDL
