MODEL 1
REMARK VINA RESULT:    -3.823      0.000      0.000
REMARK INTER + INTRA:          -5.331
REMARK INTER:                  -5.164
REMARK INTRA:                  -0.168
REMARK UNBOUND:                -0.168
REMARK SMILES CCCCCCCC=O
REMARK SMILES IDX 5 1 4 2 3 3 2 4 1 5 6 6 7 7 8 8 9 9
REMARK H PARENT
REMARK Flexibility Score: inf
ROOT
ATOM      1  C   UNL     1      26.598  58.506  -9.348  1.00  0.00     0.000 C 
ENDROOT
BRANCH   1   2
ATOM      2  C   UNL     1      27.028  59.914  -8.922  1.00  0.00     0.000 C 
BRANCH   2   3
ATOM      3  C   UNL     1      28.166  60.434  -9.808  1.00  0.00    -0.000 C 
BRANCH   3   4
ATOM      4  C   UNL     1      29.457  59.646  -9.563  1.00  0.00    -0.003 C 
ATOM      5  C   UNL     1      30.181  59.350 -10.874  1.00  0.00     0.004 C 
ENDBRANCH   3   4
ENDBRANCH   2   3
ENDBRANCH   1   2
BRANCH   1   6
ATOM      6  C   UNL     1      25.439  57.998  -8.477  1.00  0.00     0.008 C 
BRANCH   6   7
ATOM      7  C   UNL     1      25.080  56.537  -8.785  1.00  0.00     0.072 C 
BRANCH   7   8
ATOM      8  C   UNL     1      25.036  55.686  -7.549  1.00  0.00     0.224 C 
ATOM      9  O   UNL     1      25.876  54.817  -7.378  1.00  0.00    -0.303 OA
ENDBRANCH   7   8
ENDBRANCH   6   7
ENDBRANCH   1   6
TORSDOF 6
ENDMDL
MODEL 2
REMARK VINA RESULT:    -3.814      2.369      5.411
REMARK INTER + INTRA:          -5.320
REMARK INTER:                  -5.190
REMARK INTRA:                  -0.130
REMARK UNBOUND:                -0.168
REMARK SMILES CCCCCCCC=O
REMARK SMILES IDX 5 1 4 2 3 3 2 4 1 5 6 6 7 7 8 8 9 9
REMARK H PARENT
REMARK Flexibility Score: inf
ROOT
ATOM      1  C   UNL     1      26.475  58.426  -9.227  1.00  0.00     0.000 C 
ENDROOT
BRANCH   1   2
ATOM      2  C   UNL     1      25.310  57.845  -8.418  1.00  0.00     0.000 C 
BRANCH   2   3
ATOM      3  C   UNL     1      25.130  56.349  -8.707  1.00  0.00    -0.000 C 
BRANCH   3   4
ATOM      4  C   UNL     1      25.003  55.549  -7.406  1.00  0.00    -0.003 C 
ATOM      5  C   UNL     1      23.545  55.207  -7.109  1.00  0.00     0.004 C 
ENDBRANCH   3   4
ENDBRANCH   2   3
ENDBRANCH   1   2
BRANCH   1   6
ATOM      6  C   UNL     1      26.738  59.889  -8.837  1.00  0.00     0.008 C 
BRANCH   6   7
ATOM      7  C   UNL     1      28.207  60.287  -9.045  1.00  0.00     0.072 C 
BRANCH   7   8
ATOM      8  C   UNL     1      28.831  59.581 -10.214  1.00  0.00     0.224 C 
ATOM      9  O   UNL     1      30.034  59.375 -10.229  1.00  0.00    -0.303 OA
ENDBRANCH   7   8
ENDBRANCH   6   7
ENDBRANCH   1   6
TORSDOF 6
ENDMDL
MODEL 3
REMARK VINA RESULT:    -3.702     18.104     19.508
REMARK INTER + INTRA:          -5.169
REMARK INTER:                  -4.857
REMARK INTRA:                  -0.312
REMARK UNBOUND:                -0.168
REMARK SMILES CCCCCCCC=O
REMARK SMILES IDX 5 1 4 2 3 3 2 4 1 5 6 6 7 7 8 8 9 9
REMARK H PARENT
REMARK Flexibility Score: inf
ROOT
ATOM      1  C   UNL     1      19.385  45.017   0.497  1.00  0.00     0.000 C 
ENDROOT
BRANCH   1   2
ATOM      2  C   UNL     1      18.076  45.588  -0.061  1.00  0.00     0.000 C 
BRANCH   2   3
ATOM      3  C   UNL     1      16.892  44.668   0.263  1.00  0.00    -0.000 C 
BRANCH   3   4
ATOM      4  C   UNL     1      15.624  45.482   0.540  1.00  0.00    -0.003 C 
ATOM      5  C   UNL     1      15.064  45.176   1.927  1.00  0.00     0.004 C 
ENDBRANCH   3   4
ENDBRANCH   2   3
ENDBRANCH   1   2
BRANCH   1   6
ATOM      6  C   UNL     1      19.145  44.297   1.834  1.00  0.00     0.008 C 
BRANCH   6   7
ATOM      7  C   UNL     1      19.701  42.866   1.827  1.00  0.00     0.072 C 
BRANCH   7   8
ATOM      8  C   UNL     1      21.075  42.788   1.227  1.00  0.00     0.224 C 
ATOM      9  O   UNL     1      21.300  42.001   0.321  1.00  0.00    -0.303 OA
ENDBRANCH   7   8
ENDBRANCH   6   7
ENDBRANCH   1   6
TORSDOF 6
ENDMDL
MODEL 4
REMARK VINA RESULT:    -3.581     18.059     19.183
REMARK INTER + INTRA:          -5.005
REMARK INTER:                  -4.720
REMARK INTRA:                  -0.285
REMARK UNBOUND:                -0.168
REMARK SMILES CCCCCCCC=O
REMARK SMILES IDX 5 1 4 2 3 3 2 4 1 5 6 6 7 7 8 8 9 9
REMARK H PARENT
REMARK Flexibility Score: inf
ROOT
ATOM      1  C   UNL     1      18.319  45.759  -0.058  1.00  0.00     0.000 C 
ENDROOT
BRANCH   1   2
ATOM      2  C   UNL     1      19.603  45.032   0.359  1.00  0.00     0.000 C 
BRANCH   2   3
ATOM      3  C   UNL     1      19.494  44.500   1.793  1.00  0.00    -0.000 C 
BRANCH   3   4
ATOM      4  C   UNL     1      19.936  43.035   1.872  1.00  0.00    -0.003 C 
ATOM      5  C   UNL     1      20.855  42.673   0.708  1.00  0.00     0.004 C 
ENDBRANCH   3   4
ENDBRANCH   2   3
ENDBRANCH   1   2
BRANCH   1   6
ATOM      6  C   UNL     1      17.081  44.890   0.217  1.00  0.00     0.008 C 
BRANCH   6   7
ATOM      7  C   UNL     1      15.775  45.617  -0.132  1.00  0.00     0.072 C 
BRANCH   7   8
ATOM      8  C   UNL     1      14.846  45.720   1.044  1.00  0.00     0.224 C 
ATOM      9  O   UNL     1      15.167  45.235   2.117  1.00  0.00    -0.303 OA
ENDBRANCH   7   8
ENDBRANCH   6   7
ENDBRANCH   1   6
TORSDOF 6
ENDMDL
MODEL 5
REMARK VINA RESULT:    -3.548     17.692     19.201
REMARK INTER + INTRA:          -4.961
REMARK INTER:                  -4.601
REMARK INTRA:                  -0.359
REMARK UNBOUND:                -0.168
REMARK SMILES CCCCCCCC=O
REMARK SMILES IDX 5 1 4 2 3 3 2 4 1 5 6 6 7 7 8 8 9 9
REMARK H PARENT
REMARK Flexibility Score: inf
ROOT
ATOM      1  C   UNL     1      16.050  44.644   1.698  1.00  0.00     0.000 C 
ENDROOT
BRANCH   1   2
ATOM      2  C   UNL     1      17.273  44.052   0.987  1.00  0.00     0.000 C 
BRANCH   2   3
ATOM      3  C   UNL     1      18.441  43.867   1.964  1.00  0.00    -0.000 C 
BRANCH   3   4
ATOM      4  C   UNL     1      19.760  44.331   1.336  1.00  0.00    -0.003 C 
ATOM      5  C   UNL     1      19.516  45.345   0.223  1.00  0.00     0.004 C 
ENDBRANCH   3   4
ENDBRANCH   2   3
ENDBRANCH   1   2
BRANCH   1   6
ATOM      6  C   UNL     1      15.167  45.426   0.712  1.00  0.00     0.008 C 
BRANCH   6   7
ATOM      7  C   UNL     1      15.906  45.752  -0.593  1.00  0.00     0.072 C 
BRANCH   7   8
ATOM      8  C   UNL     1      15.038  45.562  -1.804  1.00  0.00     0.224 C 
ATOM      9  O   UNL     1      15.157  46.310  -2.761  1.00  0.00    -0.303 OA
ENDBRANCH   7   8
ENDBRANCH   6   7
ENDBRANCH   1   6
TORSDOF 6
ENDMDL
MODEL 6
REMARK VINA RESULT:    -3.527     18.316     19.962
REMARK INTER + INTRA:          -4.931
REMARK INTER:                  -4.505
REMARK INTRA:                  -0.426
REMARK UNBOUND:                -0.168
REMARK SMILES CCCCCCCC=O
REMARK SMILES IDX 5 1 4 2 3 3 2 4 1 5 6 6 7 7 8 8 9 9
REMARK H PARENT
REMARK Flexibility Score: inf
ROOT
ATOM      1  C   UNL     1      17.933  42.644   1.511  1.00  0.00     0.000 C 
ENDROOT
BRANCH   1   2
ATOM      2  C   UNL     1      16.465  43.037   1.302  1.00  0.00     0.000 C 
BRANCH   2   3
ATOM      3  C   UNL     1      16.242  44.521   1.617  1.00  0.00    -0.000 C 
BRANCH   3   4
ATOM      4  C   UNL     1      15.802  45.288   0.366  1.00  0.00    -0.003 C 
ATOM      5  C   UNL     1      17.007  45.796  -0.422  1.00  0.00     0.004 C 
ENDBRANCH   3   4
ENDBRANCH   2   3
ENDBRANCH   1   2
BRANCH   1   6
ATOM      6  C   UNL     1      18.704  43.763   2.230  1.00  0.00     0.008 C 
BRANCH   6   7
ATOM      7  C   UNL     1      20.180  43.809   1.811  1.00  0.00     0.072 C 
BRANCH   7   8
ATOM      8  C   UNL     1      20.495  42.830   0.716  1.00  0.00     0.224 C 
ATOM      9  O   UNL     1      21.568  42.249   0.710  1.00  0.00    -0.303 OA
ENDBRANCH   7   8
ENDBRANCH   6   7
ENDBRANCH   1   6
TORSDOF 6
ENDMDL
MODEL 7
REMARK VINA RESULT:    -3.457     17.838     20.164
REMARK INTER + INTRA:          -4.838
REMARK INTER:                  -4.232
REMARK INTRA:                  -0.606
REMARK UNBOUND:                -0.168
REMARK SMILES CCCCCCCC=O
REMARK SMILES IDX 5 1 4 2 3 3 2 4 1 5 6 6 7 7 8 8 9 9
REMARK H PARENT
REMARK Flexibility Score: inf
ROOT
ATOM      1  C   UNL     1      18.825  42.418   0.316  1.00  0.00     0.000 C 
ENDROOT
BRANCH   1   2
ATOM      2  C   UNL     1      17.404  41.852   0.416  1.00  0.00     0.000 C 
BRANCH   2   3
ATOM      3  C   UNL     1      16.359  42.923   0.080  1.00  0.00    -0.000 C 
BRANCH   3   4
ATOM      4  C   UNL     1      15.564  43.326   1.326  1.00  0.00    -0.003 C 
ATOM      5  C   UNL     1      15.833  44.780   1.705  1.00  0.00     0.004 C 
ENDBRANCH   3   4
ENDBRANCH   2   3
ENDBRANCH   1   2
BRANCH   1   6
ATOM      6  C   UNL     1      19.307  42.938   1.680  1.00  0.00     0.008 C 
BRANCH   6   7
ATOM      7  C   UNL     1      19.584  44.448   1.658  1.00  0.00     0.072 C 
BRANCH   7   8
ATOM      8  C   UNL     1      19.578  45.010   0.266  1.00  0.00     0.224 C 
ATOM      9  O   UNL     1      18.758  45.860  -0.043  1.00  0.00    -0.303 OA
ENDBRANCH   7   8
ENDBRANCH   6   7
ENDBRANCH   1   6
TORSDOF 6
ENDMDL
MODEL 8
REMARK VINA RESULT:    -3.440     17.678     19.587
REMARK INTER + INTRA:          -4.815
REMARK INTER:                  -4.328
REMARK INTRA:                  -0.487
REMARK UNBOUND:                -0.168
REMARK SMILES CCCCCCCC=O
REMARK SMILES IDX 5 1 4 2 3 3 2 4 1 5 6 6 7 7 8 8 9 9
REMARK H PARENT
REMARK Flexibility Score: inf
ROOT
ATOM      1  C   UNL     1      16.536  43.219   0.945  1.00  0.00     0.000 C 
ENDROOT
BRANCH   1   2
ATOM      2  C   UNL     1      17.895  42.707   1.436  1.00  0.00     0.000 C 
BRANCH   2   3
ATOM      3  C   UNL     1      18.720  43.842   2.055  1.00  0.00    -0.000 C 
BRANCH   3   4
ATOM      4  C   UNL     1      19.875  44.248   1.133  1.00  0.00    -0.003 C 
ATOM      5  C   UNL     1      19.460  45.377   0.193  1.00  0.00     0.004 C 
ENDBRANCH   3   4
ENDBRANCH   2   3
ENDBRANCH   1   2
BRANCH   1   6
ATOM      6  C   UNL     1      16.115  44.482   1.713  1.00  0.00     0.008 C 
BRANCH   6   7
ATOM      7  C   UNL     1      15.229  45.407   0.865  1.00  0.00     0.072 C 
BRANCH   7   8
ATOM      8  C   UNL     1      15.493  45.259  -0.606  1.00  0.00     0.224 C 
ATOM      9  O   UNL     1      16.223  46.054  -1.176  1.00  0.00    -0.303 OA
ENDBRANCH   7   8
ENDBRANCH   6   7
ENDBRANCH   1   6
TORSDOF 6
ENDMDL
MODEL 9
REMARK VINA RESULT:    -3.419     18.294     20.308
REMARK INTER + INTRA:          -4.785
REMARK INTER:                  -4.260
REMARK INTRA:                  -0.526
REMARK UNBOUND:                -0.168
REMARK SMILES CCCCCCCC=O
REMARK SMILES IDX 5 1 4 2 3 3 2 4 1 5 6 6 7 7 8 8 9 9
REMARK H PARENT
REMARK Flexibility Score: inf
ROOT
ATOM      1  C   UNL     1      17.536  41.704   0.347  1.00  0.00     0.000 C 
ENDROOT
BRANCH   1   2
ATOM      2  C   UNL     1      18.875  42.451   0.333  1.00  0.00     0.000 C 
BRANCH   2   3
ATOM      3  C   UNL     1      19.283  42.876   1.749  1.00  0.00    -0.000 C 
BRANCH   3   4
ATOM      4  C   UNL     1      19.719  44.344   1.779  1.00  0.00    -0.003 C 
ATOM      5  C   UNL     1      19.449  45.027   0.441  1.00  0.00     0.004 C 
ENDBRANCH   3   4
ENDBRANCH   2   3
ENDBRANCH   1   2
BRANCH   1   6
ATOM      6  C   UNL     1      16.632  42.217   1.479  1.00  0.00     0.008 C 
BRANCH   6   7
ATOM      7  C   UNL     1      15.666  43.309   0.998  1.00  0.00     0.072 C 
BRANCH   7   8
ATOM      8  C   UNL     1      15.923  44.632   1.659  1.00  0.00     0.224 C 
ATOM      9  O   UNL     1      14.989  45.371   1.926  1.00  0.00    -0.303 OA
ENDBRANCH   7   8
ENDBRANCH   6   7
ENDBRANCH   1   6
TORSDOF 6
ENDMDL
