MODEL 1
REMARK VINA RESULT:    -4.247      0.000      0.000
REMARK INTER + INTRA:          -7.283
REMARK INTER:                  -6.481
REMARK INTRA:                  -0.802
REMARK UNBOUND:                -0.802
REMARK SMILES CCCCCCCCCCC(=O)[O-]
REMARK SMILES IDX 7 1 8 2 9 3 10 4 11 5 12 6 13 7 6 8 5 9 4 10 3 11 2 12 1 13
REMARK H PARENT
REMARK Flexibility Score: inf
ROOT
ATOM      1  C   UNL     1      31.506   6.396  47.488  1.00  0.00     0.000 C 
ENDROOT
BRANCH   1   2
ATOM      2  C   UNL     1      32.437   5.292  48.020  1.00  0.00     0.000 C 
BRANCH   2   3
ATOM      3  C   UNL     1      33.906   5.743  48.105  1.00  0.00     0.006 C 
BRANCH   3   4
ATOM      4  C   UNL     1      34.905   4.755  47.481  1.00  0.00     0.053 C 
BRANCH   4   5
ATOM      5  C   UNL     1      34.988   4.903  45.993  1.00  0.00     0.041 C 
ATOM      6  O   UNL     1      35.478   3.981  45.290  1.00  0.00    -0.550 OA
ATOM      7  O   UNL     1      34.491   6.046  45.380  1.00  0.00    -0.550 OA
ENDBRANCH   4   5
ENDBRANCH   3   4
ENDBRANCH   2   3
ENDBRANCH   1   2
BRANCH   1   8
ATOM      8  C   UNL     1      30.227   6.543  48.325  1.00  0.00     0.000 C 
BRANCH   8   9
ATOM      9  C   UNL     1      30.107   7.925  48.984  1.00  0.00    -0.000 C 
BRANCH   9  10
ATOM     10  C   UNL     1      31.490   8.516  49.277  1.00  0.00    -0.000 C 
BRANCH  10  11
ATOM     11  C   UNL     1      31.662   9.880  48.598  1.00  0.00    -0.000 C 
BRANCH  11  12
ATOM     12  C   UNL     1      33.146  10.226  48.426  1.00  0.00    -0.003 C 
ATOM     13  C   UNL     1      33.729   9.549  47.190  1.00  0.00     0.004 C 
ENDBRANCH  11  12
ENDBRANCH  10  11
ENDBRANCH   9  10
ENDBRANCH   8   9
ENDBRANCH   1   8
TORSDOF 9
ENDMDL
MODEL 2
REMARK VINA RESULT:    -3.961     18.568     19.627
REMARK INTER + INTRA:          -6.848
REMARK INTER:                  -6.372
REMARK INTRA:                  -0.476
REMARK UNBOUND:                -0.802
REMARK SMILES CCCCCCCCCCC(=O)[O-]
REMARK SMILES IDX 7 1 8 2 9 3 10 4 11 5 12 6 13 7 6 8 5 9 4 10 3 11 2 12 1 13
REMARK H PARENT
REMARK Flexibility Score: inf
ROOT
ATOM      1  C   UNL     1      20.990  13.831  33.215  1.00  0.00     0.000 C 
ENDROOT
BRANCH   1   2
ATOM      2  C   UNL     1      21.238  15.195  32.548  1.00  0.00     0.000 C 
BRANCH   2   3
ATOM      3  C   UNL     1      22.196  15.105  31.347  1.00  0.00     0.006 C 
BRANCH   3   4
ATOM      4  C   UNL     1      22.622  16.468  30.777  1.00  0.00     0.053 C 
BRANCH   4   5
ATOM      5  C   UNL     1      24.110  16.635  30.775  1.00  0.00     0.041 C 
ATOM      6  O   UNL     1      24.854  15.694  30.390  1.00  0.00    -0.550 OA
ATOM      7  O   UNL     1      24.676  17.843  31.164  1.00  0.00    -0.550 OA
ENDBRANCH   4   5
ENDBRANCH   3   4
ENDBRANCH   2   3
ENDBRANCH   1   2
BRANCH   1   8
ATOM      8  C   UNL     1      20.470  13.963  34.654  1.00  0.00     0.000 C 
BRANCH   8   9
ATOM      9  C   UNL     1      21.275  13.119  35.653  1.00  0.00    -0.000 C 
BRANCH   9  10
ATOM     10  C   UNL     1      20.643  11.735  35.838  1.00  0.00    -0.000 C 
BRANCH  10  11
ATOM     11  C   UNL     1      21.690  10.625  35.682  1.00  0.00    -0.000 C 
BRANCH  11  12
ATOM     12  C   UNL     1      22.934  11.140  34.950  1.00  0.00    -0.003 C 
ATOM     13  C   UNL     1      24.201  10.857  35.750  1.00  0.00     0.004 C 
ENDBRANCH  11  12
ENDBRANCH  10  11
ENDBRANCH   9  10
ENDBRANCH   8   9
ENDBRANCH   1   8
TORSDOF 9
ENDMDL
MODEL 3
REMARK VINA RESULT:    -3.915      2.166      4.438
REMARK INTER + INTRA:          -6.777
REMARK INTER:                  -5.714
REMARK INTRA:                  -1.062
REMARK UNBOUND:                -0.802
REMARK SMILES CCCCCCCCCCC(=O)[O-]
REMARK SMILES IDX 7 1 8 2 9 3 10 4 11 5 12 6 13 7 6 8 5 9 4 10 3 11 2 12 1 13
REMARK H PARENT
REMARK Flexibility Score: inf
ROOT
ATOM      1  C   UNL     1      31.784   9.998  48.371  1.00  0.00     0.000 C 
ENDROOT
BRANCH   1   2
ATOM      2  C   UNL     1      33.314  10.009  48.207  1.00  0.00     0.000 C 
BRANCH   2   3
ATOM      3  C   UNL     1      33.765   9.582  46.798  1.00  0.00     0.006 C 
BRANCH   3   4
ATOM      4  C   UNL     1      34.773  10.540  46.142  1.00  0.00     0.053 C 
BRANCH   4   5
ATOM      5  C   UNL     1      34.673  10.522  44.648  1.00  0.00     0.041 C 
ATOM      6  O   UNL     1      34.315  11.555  44.024  1.00  0.00    -0.550 OA
ATOM      7  O   UNL     1      35.012   9.374  43.941  1.00  0.00    -0.550 OA
ENDBRANCH   4   5
ENDBRANCH   3   4
ENDBRANCH   2   3
ENDBRANCH   1   2
BRANCH   1   8
ATOM      8  C   UNL     1      31.301   8.898  49.328  1.00  0.00     0.000 C 
BRANCH   8   9
ATOM      9  C   UNL     1      30.513   7.793  48.609  1.00  0.00    -0.000 C 
BRANCH   9  10
ATOM     10  C   UNL     1      31.314   6.486  48.566  1.00  0.00    -0.000 C 
BRANCH  10  11
ATOM     11  C   UNL     1      32.025   6.319  47.218  1.00  0.00    -0.000 C 
BRANCH  11  12
ATOM     12  C   UNL     1      33.494   5.926  47.415  1.00  0.00    -0.003 C 
ATOM     13  C   UNL     1      33.983   6.306  48.809  1.00  0.00     0.004 C 
ENDBRANCH  11  12
ENDBRANCH  10  11
ENDBRANCH   9  10
ENDBRANCH   8   9
ENDBRANCH   1   8
TORSDOF 9
ENDMDL
MODEL 4
REMARK VINA RESULT:    -3.910      1.057      3.008
REMARK INTER + INTRA:          -6.770
REMARK INTER:                  -5.888
REMARK INTRA:                  -0.882
REMARK UNBOUND:                -0.802
REMARK SMILES CCCCCCCCCCC(=O)[O-]
REMARK SMILES IDX 7 1 8 2 9 3 10 4 11 5 12 6 13 7 6 8 5 9 4 10 3 11 2 12 1 13
REMARK H PARENT
REMARK Flexibility Score: inf
ROOT
ATOM      1  C   UNL     1      34.006   8.016  49.431  1.00  0.00     0.000 C 
ENDROOT
BRANCH   1   2
ATOM      2  C   UNL     1      34.597   6.598  49.341  1.00  0.00     0.000 C 
BRANCH   2   3
ATOM      3  C   UNL     1      33.942   5.750  48.235  1.00  0.00     0.006 C 
BRANCH   3   4
ATOM      4  C   UNL     1      34.902   4.770  47.542  1.00  0.00     0.053 C 
BRANCH   4   5
ATOM      5  C   UNL     1      34.927   4.964  46.057  1.00  0.00     0.041 C 
ATOM      6  O   UNL     1      34.446   6.009  45.546  1.00  0.00    -0.550 OA
ATOM      7  O   UNL     1      35.516   4.007  45.240  1.00  0.00    -0.550 OA
ENDBRANCH   4   5
ENDBRANCH   3   4
ENDBRANCH   2   3
ENDBRANCH   1   2
BRANCH   1   8
ATOM      8  C   UNL     1      33.477   8.521  48.081  1.00  0.00     0.000 C 
BRANCH   8   9
ATOM      9  C   UNL     1      32.134   9.256  48.210  1.00  0.00    -0.000 C 
BRANCH   9  10
ATOM     10  C   UNL     1      31.365   8.782  49.448  1.00  0.00    -0.000 C 
BRANCH  10  11
ATOM     11  C   UNL     1      30.082   8.041  49.051  1.00  0.00    -0.000 C 
BRANCH  11  12
ATOM     12  C   UNL     1      30.317   6.528  48.987  1.00  0.00    -0.003 C 
ATOM     13  C   UNL     1      29.092   5.802  48.442  1.00  0.00     0.004 C 
ENDBRANCH  11  12
ENDBRANCH  10  11
ENDBRANCH   9  10
ENDBRANCH   8   9
ENDBRANCH   1   8
TORSDOF 9
ENDMDL
MODEL 5
REMARK VINA RESULT:    -3.889      1.757      3.446
REMARK INTER + INTRA:          -6.737
REMARK INTER:                  -5.884
REMARK INTRA:                  -0.853
REMARK UNBOUND:                -0.802
REMARK SMILES CCCCCCCCCCC(=O)[O-]
REMARK SMILES IDX 7 1 8 2 9 3 10 4 11 5 12 6 13 7 6 8 5 9 4 10 3 11 2 12 1 13
REMARK H PARENT
REMARK Flexibility Score: inf
ROOT
ATOM      1  C   UNL     1      31.570   9.230  48.641  1.00  0.00     0.000 C 
ENDROOT
BRANCH   1   2
ATOM      2  C   UNL     1      30.747   7.964  48.934  1.00  0.00     0.000 C 
BRANCH   2   3
ATOM      3  C   UNL     1      30.858   6.910  47.816  1.00  0.00     0.006 C 
BRANCH   3   4
ATOM      4  C   UNL     1      31.757   5.713  48.165  1.00  0.00     0.053 C 
BRANCH   4   5
ATOM      5  C   UNL     1      33.171   5.924  47.718  1.00  0.00     0.041 C 
ATOM      6  O   UNL     1      34.129   5.582  48.460  1.00  0.00    -0.550 OA
ATOM      7  O   UNL     1      33.431   6.465  46.465  1.00  0.00    -0.550 OA
ENDBRANCH   4   5
ENDBRANCH   3   4
ENDBRANCH   2   3
ENDBRANCH   1   2
BRANCH   1   8
ATOM      8  C   UNL     1      32.922   9.237  49.371  1.00  0.00     0.000 C 
BRANCH   8   9
ATOM      9  C   UNL     1      34.106   9.470  48.421  1.00  0.00    -0.000 C 
BRANCH   9  10
ATOM     10  C   UNL     1      33.620   9.895  47.031  1.00  0.00    -0.000 C 
BRANCH  10  11
ATOM     11  C   UNL     1      34.769  10.479  46.199  1.00  0.00    -0.000 C 
BRANCH  11  12
ATOM     12  C   UNL     1      34.432  10.459  44.704  1.00  0.00    -0.003 C 
ATOM     13  C   UNL     1      34.726   9.094  44.091  1.00  0.00     0.004 C 
ENDBRANCH  11  12
ENDBRANCH  10  11
ENDBRANCH   9  10
ENDBRANCH   8   9
ENDBRANCH   1   8
TORSDOF 9
ENDMDL
MODEL 6
REMARK VINA RESULT:    -3.885      2.732      4.779
REMARK INTER + INTRA:          -6.731
REMARK INTER:                  -5.846
REMARK INTRA:                  -0.885
REMARK UNBOUND:                -0.802
REMARK SMILES CCCCCCCCCCC(=O)[O-]
REMARK SMILES IDX 7 1 8 2 9 3 10 4 11 5 12 6 13 7 6 8 5 9 4 10 3 11 2 12 1 13
REMARK H PARENT
REMARK Flexibility Score: inf
ROOT
ATOM      1  C   UNL     1      29.953   6.678  49.700  1.00  0.00     0.000 C 
ENDROOT
BRANCH   1   2
ATOM      2  C   UNL     1      29.975   8.216  49.665  1.00  0.00     0.000 C 
BRANCH   2   3
ATOM      3  C   UNL     1      31.402   8.792  49.723  1.00  0.00     0.006 C 
BRANCH   3   4
ATOM      4  C   UNL     1      31.753   9.725  48.553  1.00  0.00     0.053 C 
BRANCH   4   5
ATOM      5  C   UNL     1      32.892  10.640  48.886  1.00  0.00     0.041 C 
ATOM      6  O   UNL     1      34.025  10.455  48.371  1.00  0.00    -0.550 OA
ATOM      7  O   UNL     1      32.691  11.718  49.738  1.00  0.00    -0.550 OA
ENDBRANCH   4   5
ENDBRANCH   3   4
ENDBRANCH   2   3
ENDBRANCH   1   2
BRANCH   1   8
ATOM      8  C   UNL     1      29.804   6.059  48.302  1.00  0.00     0.000 C 
BRANCH   8   9
ATOM      9  C   UNL     1      31.081   6.186  47.459  1.00  0.00    -0.000 C 
BRANCH   9  10
ATOM     10  C   UNL     1      32.230   5.381  48.078  1.00  0.00    -0.000 C 
BRANCH  10  11
ATOM     11  C   UNL     1      33.591   5.918  47.617  1.00  0.00    -0.000 C 
BRANCH  11  12
ATOM     12  C   UNL     1      33.419   7.053  46.601  1.00  0.00    -0.003 C 
ATOM     13  C   UNL     1      33.972   6.659  45.236  1.00  0.00     0.004 C 
ENDBRANCH  11  12
ENDBRANCH  10  11
ENDBRANCH   9  10
ENDBRANCH   8   9
ENDBRANCH   1   8
TORSDOF 9
ENDMDL
MODEL 7
REMARK VINA RESULT:    -3.850      1.290      2.571
REMARK INTER + INTRA:          -6.677
REMARK INTER:                  -5.820
REMARK INTRA:                  -0.857
REMARK UNBOUND:                -0.802
REMARK SMILES CCCCCCCCCCC(=O)[O-]
REMARK SMILES IDX 7 1 8 2 9 3 10 4 11 5 12 6 13 7 6 8 5 9 4 10 3 11 2 12 1 13
REMARK H PARENT
REMARK Flexibility Score: inf
ROOT
ATOM      1  C   UNL     1      31.169   7.831  48.791  1.00  0.00     0.000 C 
ENDROOT
BRANCH   1   2
ATOM      2  C   UNL     1      31.324   6.715  47.742  1.00  0.00     0.000 C 
BRANCH   2   3
ATOM      3  C   UNL     1      32.391   5.675  48.134  1.00  0.00     0.006 C 
BRANCH   3   4
ATOM      4  C   UNL     1      33.836   6.125  47.869  1.00  0.00     0.053 C 
BRANCH   4   5
ATOM      5  C   UNL     1      34.373   5.564  46.588  1.00  0.00     0.041 C 
ATOM      6  O   UNL     1      34.290   6.227  45.521  1.00  0.00    -0.550 OA
ATOM      7  O   UNL     1      34.997   4.323  46.579  1.00  0.00    -0.550 OA
ENDBRANCH   4   5
ENDBRANCH   3   4
ENDBRANCH   2   3
ENDBRANCH   1   2
BRANCH   1   8
ATOM      8  C   UNL     1      31.691   9.186  48.291  1.00  0.00     0.000 C 
BRANCH   8   9
ATOM      9  C   UNL     1      33.019   9.587  48.951  1.00  0.00    -0.000 C 
BRANCH   9  10
ATOM     10  C   UNL     1      33.938  10.296  47.950  1.00  0.00    -0.000 C 
BRANCH  10  11
ATOM     11  C   UNL     1      33.831   9.661  46.558  1.00  0.00    -0.000 C 
BRANCH  11  12
ATOM     12  C   UNL     1      34.637  10.459  45.526  1.00  0.00    -0.003 C 
ATOM     13  C   UNL     1      34.629   9.767  44.166  1.00  0.00     0.004 C 
ENDBRANCH  11  12
ENDBRANCH  10  11
ENDBRANCH   9  10
ENDBRANCH   8   9
ENDBRANCH   1   8
TORSDOF 9
ENDMDL
MODEL 8
REMARK VINA RESULT:    -3.846      3.446      4.991
REMARK INTER + INTRA:          -6.672
REMARK INTER:                  -6.119
REMARK INTRA:                  -0.552
REMARK UNBOUND:                -0.802
REMARK SMILES CCCCCCCCCCC(=O)[O-]
REMARK SMILES IDX 7 1 8 2 9 3 10 4 11 5 12 6 13 7 6 8 5 9 4 10 3 11 2 12 1 13
REMARK H PARENT
REMARK Flexibility Score: inf
ROOT
ATOM      1  C   UNL     1      33.409   8.415  47.651  1.00  0.00     0.000 C 
ENDROOT
BRANCH   1   2
ATOM      2  C   UNL     1      32.093   7.860  48.224  1.00  0.00     0.000 C 
BRANCH   2   3
ATOM      3  C   UNL     1      31.589   6.619  47.465  1.00  0.00     0.006 C 
BRANCH   3   4
ATOM      4  C   UNL     1      30.942   5.551  48.362  1.00  0.00     0.053 C 
BRANCH   4   5
ATOM      5  C   UNL     1      29.557   5.936  48.782  1.00  0.00     0.041 C 
ATOM      6  O   UNL     1      29.342   6.355  49.949  1.00  0.00    -0.550 OA
ATOM      7  O   UNL     1      28.509   5.865  47.873  1.00  0.00    -0.550 OA
ENDBRANCH   4   5
ENDBRANCH   3   4
ENDBRANCH   2   3
ENDBRANCH   1   2
BRANCH   1   8
ATOM      8  C   UNL     1      33.305   9.898  47.266  1.00  0.00     0.000 C 
BRANCH   8   9
ATOM      9  C   UNL     1      34.657  10.624  47.341  1.00  0.00    -0.000 C 
BRANCH   9  10
ATOM     10  C   UNL     1      35.316  10.703  45.959  1.00  0.00    -0.000 C 
BRANCH  10  11
ATOM     11  C   UNL     1      34.319  11.189  44.900  1.00  0.00    -0.000 C 
BRANCH  11  12
ATOM     12  C   UNL     1      34.310  10.256  43.683  1.00  0.00    -0.003 C 
ATOM     13  C   UNL     1      34.646   8.824  44.085  1.00  0.00     0.004 C 
ENDBRANCH  11  12
ENDBRANCH  10  11
ENDBRANCH   9  10
ENDBRANCH   8   9
ENDBRANCH   1   8
TORSDOF 9
ENDMDL
MODEL 9
REMARK VINA RESULT:    -3.815     17.697     18.817
REMARK INTER + INTRA:          -6.624
REMARK INTER:                  -5.820
REMARK INTRA:                  -0.803
REMARK UNBOUND:                -0.802
REMARK SMILES CCCCCCCCCCC(=O)[O-]
REMARK SMILES IDX 7 1 8 2 9 3 10 4 11 5 12 6 13 7 6 8 5 9 4 10 3 11 2 12 1 13
REMARK H PARENT
REMARK Flexibility Score: inf
ROOT
ATOM      1  C   UNL     1      19.253  12.427  36.124  1.00  0.00     0.000 C 
ENDROOT
BRANCH   1   2
ATOM      2  C   UNL     1      19.297  13.684  35.237  1.00  0.00     0.000 C 
BRANCH   2   3
ATOM      3  C   UNL     1      20.729  14.069  34.823  1.00  0.00     0.006 C 
BRANCH   3   4
ATOM      4  C   UNL     1      20.824  14.764  33.455  1.00  0.00     0.053 C 
BRANCH   4   5
ATOM      5  C   UNL     1      21.284  13.828  32.380  1.00  0.00     0.041 C 
ATOM      6  O   UNL     1      22.223  14.159  31.610  1.00  0.00    -0.550 OA
ATOM      7  O   UNL     1      20.700  12.574  32.252  1.00  0.00    -0.550 OA
ENDBRANCH   4   5
ENDBRANCH   3   4
ENDBRANCH   2   3
ENDBRANCH   1   2
BRANCH   1   8
ATOM      8  C   UNL     1      19.414  11.130  35.317  1.00  0.00     0.000 C 
BRANCH   8   9
ATOM      9  C   UNL     1      20.060  10.002  36.135  1.00  0.00    -0.000 C 
BRANCH   9  10
ATOM     10  C   UNL     1      21.362   9.525  35.481  1.00  0.00    -0.000 C 
BRANCH  10  11
ATOM     11  C   UNL     1      22.066  10.675  34.751  1.00  0.00    -0.000 C 
BRANCH  11  12
ATOM     12  C   UNL     1      23.005  11.435  35.695  1.00  0.00    -0.003 C 
ATOM     13  C   UNL     1      24.380  10.777  35.751  1.00  0.00     0.004 C 
ENDBRANCH  11  12
ENDBRANCH  10  11
ENDBRANCH   9  10
ENDBRANCH   8   9
ENDBRANCH   1   8
TORSDOF 9
ENDMDL
