MODEL 1
REMARK VINA RESULT:    -3.822      0.000      0.000
REMARK INTER + INTRA:          -5.668
REMARK INTER:                  -5.386
REMARK INTRA:                  -0.282
REMARK UNBOUND:                -0.282
REMARK SMILES CCCCCCCCC(=O)[O-]
REMARK SMILES IDX 6 1 7 2 8 3 9 4 10 5 11 6 5 7 4 8 3 9 2 10 1 11
REMARK H PARENT
REMARK Flexibility Score: inf
ROOT
ATOM      1  C   UNL     1      13.082 -21.231  40.146  1.00  0.00     0.000 C 
ENDROOT
BRANCH   1   2
ATOM      2  C   UNL     1      13.625 -20.822  38.761  1.00  0.00     0.006 C 
BRANCH   2   3
ATOM      3  C   UNL     1      13.748 -21.998  37.778  1.00  0.00     0.053 C 
BRANCH   3   4
ATOM      4  C   UNL     1      14.346 -21.587  36.470  1.00  0.00     0.041 C 
ATOM      5  O   UNL     1      13.602 -21.252  35.511  1.00  0.00    -0.550 OA
ATOM      6  O   UNL     1      15.726 -21.548  36.316  1.00  0.00    -0.550 OA
ENDBRANCH   3   4
ENDBRANCH   2   3
ENDBRANCH   1   2
BRANCH   1   7
ATOM      7  C   UNL     1      12.051 -22.369  40.059  1.00  0.00     0.000 C 
BRANCH   7   8
ATOM      8  C   UNL     1      10.973 -22.276  41.151  1.00  0.00    -0.000 C 
BRANCH   8   9
ATOM      9  C   UNL     1       9.594 -22.749  40.663  1.00  0.00    -0.000 C 
BRANCH   9  10
ATOM     10  C   UNL     1       9.720 -24.022  39.816  1.00  0.00    -0.003 C 
ATOM     11  C   UNL     1       9.136 -25.229  40.543  1.00  0.00     0.004 C 
ENDBRANCH   9  10
ENDBRANCH   8   9
ENDBRANCH   7   8
ENDBRANCH   1   7
TORSDOF 7
ENDMDL
MODEL 2
REMARK VINA RESULT:    -3.717      1.382      2.157
REMARK INTER + INTRA:          -5.520
REMARK INTER:                  -5.141
REMARK INTRA:                  -0.379
REMARK UNBOUND:                -0.282
REMARK SMILES CCCCCCCCC(=O)[O-]
REMARK SMILES IDX 6 1 7 2 8 3 9 4 10 5 11 6 5 7 4 8 3 9 2 10 1 11
REMARK H PARENT
REMARK Flexibility Score: inf
ROOT
ATOM      1  C   UNL     1      11.784 -22.104  40.642  1.00  0.00     0.000 C 
ENDROOT
BRANCH   1   2
ATOM      2  C   UNL     1      12.333 -22.833  39.399  1.00  0.00     0.006 C 
BRANCH   2   3
ATOM      3  C   UNL     1      13.359 -22.007  38.606  1.00  0.00     0.053 C 
BRANCH   3   4
ATOM      4  C   UNL     1      13.956 -22.777  37.471  1.00  0.00     0.041 C 
ATOM      5  O   UNL     1      14.494 -23.897  37.679  1.00  0.00    -0.550 OA
ATOM      6  O   UNL     1      13.897 -22.271  36.178  1.00  0.00    -0.550 OA
ENDBRANCH   3   4
ENDBRANCH   2   3
ENDBRANCH   1   2
BRANCH   1   7
ATOM      7  C   UNL     1      10.370 -22.577  41.023  1.00  0.00     0.000 C 
BRANCH   7   8
ATOM      8  C   UNL     1       9.767 -23.539  39.987  1.00  0.00    -0.000 C 
BRANCH   8   9
ATOM      9  C   UNL     1       9.131 -24.780  40.631  1.00  0.00    -0.000 C 
BRANCH   9  10
ATOM     10  C   UNL     1      10.181 -25.604  41.387  1.00  0.00    -0.003 C 
ATOM     11  C   UNL     1       9.599 -26.929  41.869  1.00  0.00     0.004 C 
ENDBRANCH   9  10
ENDBRANCH   8   9
ENDBRANCH   7   8
ENDBRANCH   1   7
TORSDOF 7
ENDMDL
MODEL 3
REMARK VINA RESULT:    -3.697      2.122      2.641
REMARK INTER + INTRA:          -5.492
REMARK INTER:                  -4.861
REMARK INTRA:                  -0.631
REMARK UNBOUND:                -0.282
REMARK SMILES CCCCCCCCC(=O)[O-]
REMARK SMILES IDX 6 1 7 2 8 3 9 4 10 5 11 6 5 7 4 8 3 9 2 10 1 11
REMARK H PARENT
REMARK Flexibility Score: inf
ROOT
ATOM      1  C   UNL     1      11.999 -21.798  41.028  1.00  0.00     0.000 C 
ENDROOT
BRANCH   1   2
ATOM      2  C   UNL     1      12.650 -22.193  39.687  1.00  0.00     0.006 C 
BRANCH   2   3
ATOM      3  C   UNL     1      13.261 -23.604  39.692  1.00  0.00     0.053 C 
BRANCH   3   4
ATOM      4  C   UNL     1      13.149 -24.279  38.362  1.00  0.00     0.041 C 
ATOM      5  O   UNL     1      13.741 -23.802  37.358  1.00  0.00    -0.550 OA
ATOM      6  O   UNL     1      12.411 -25.449  38.235  1.00  0.00    -0.550 OA
ENDBRANCH   3   4
ENDBRANCH   2   3
ENDBRANCH   1   2
BRANCH   1   7
ATOM      7  C   UNL     1      10.943 -22.816  41.491  1.00  0.00     0.000 C 
BRANCH   7   8
ATOM      8  C   UNL     1       9.681 -22.801  40.614  1.00  0.00    -0.000 C 
BRANCH   8   9
ATOM      9  C   UNL     1       9.495 -24.105  39.822  1.00  0.00    -0.000 C 
BRANCH   9  10
ATOM     10  C   UNL     1       9.754 -25.327  40.712  1.00  0.00    -0.003 C 
ATOM     11  C   UNL     1       8.447 -26.005  41.113  1.00  0.00     0.004 C 
ENDBRANCH   9  10
ENDBRANCH   8   9
ENDBRANCH   7   8
ENDBRANCH   1   7
TORSDOF 7
ENDMDL
MODEL 4
REMARK VINA RESULT:    -3.680      2.199      2.432
REMARK INTER + INTRA:          -5.468
REMARK INTER:                  -4.749
REMARK INTRA:                  -0.719
REMARK UNBOUND:                -0.282
REMARK SMILES CCCCCCCCC(=O)[O-]
REMARK SMILES IDX 6 1 7 2 8 3 9 4 10 5 11 6 5 7 4 8 3 9 2 10 1 11
REMARK H PARENT
REMARK Flexibility Score: inf
ROOT
ATOM      1  C   UNL     1      12.730 -22.363  39.741  1.00  0.00     0.000 C 
ENDROOT
BRANCH   1   2
ATOM      2  C   UNL     1      13.222 -23.806  39.977  1.00  0.00     0.006 C 
BRANCH   2   3
ATOM      3  C   UNL     1      12.870 -24.769  38.831  1.00  0.00     0.053 C 
BRANCH   3   4
ATOM      4  C   UNL     1      13.935 -24.821  37.782  1.00  0.00     0.041 C 
ATOM      5  O   UNL     1      13.699 -25.353  36.665  1.00  0.00    -0.550 OA
ATOM      6  O   UNL     1      15.181 -24.258  38.026  1.00  0.00    -0.550 OA
ENDBRANCH   3   4
ENDBRANCH   2   3
ENDBRANCH   1   2
BRANCH   1   7
ATOM      7  C   UNL     1      12.000 -21.785  40.965  1.00  0.00     0.000 C 
BRANCH   7   8
ATOM      8  C   UNL     1      10.938 -22.742  41.530  1.00  0.00    -0.000 C 
BRANCH   8   9
ATOM      9  C   UNL     1       9.661 -22.779  40.676  1.00  0.00    -0.000 C 
BRANCH   9  10
ATOM     10  C   UNL     1       9.486 -24.152  40.012  1.00  0.00    -0.003 C 
ATOM     11  C   UNL     1       9.825 -25.280  40.982  1.00  0.00     0.004 C 
ENDBRANCH   9  10
ENDBRANCH   8   9
ENDBRANCH   7   8
ENDBRANCH   1   7
TORSDOF 7
ENDMDL
MODEL 5
REMARK VINA RESULT:    -3.653      1.217      1.711
REMARK INTER + INTRA:          -5.431
REMARK INTER:                  -4.782
REMARK INTRA:                  -0.649
REMARK UNBOUND:                -0.282
REMARK SMILES CCCCCCCCC(=O)[O-]
REMARK SMILES IDX 6 1 7 2 8 3 9 4 10 5 11 6 5 7 4 8 3 9 2 10 1 11
REMARK H PARENT
REMARK Flexibility Score: inf
ROOT
ATOM      1  C   UNL     1      13.189 -23.066  40.848  1.00  0.00     0.000 C 
ENDROOT
BRANCH   1   2
ATOM      2  C   UNL     1      13.801 -23.711  39.588  1.00  0.00     0.006 C 
BRANCH   2   3
ATOM      3  C   UNL     1      13.184 -23.201  38.275  1.00  0.00     0.053 C 
BRANCH   3   4
ATOM      4  C   UNL     1      14.214 -22.668  37.330  1.00  0.00     0.041 C 
ATOM      5  O   UNL     1      15.436 -22.728  37.626  1.00  0.00    -0.550 OA
ATOM      6  O   UNL     1      13.827 -22.127  36.110  1.00  0.00    -0.550 OA
ENDBRANCH   3   4
ENDBRANCH   2   3
ENDBRANCH   1   2
BRANCH   1   7
ATOM      7  C   UNL     1      12.031 -22.110  40.514  1.00  0.00     0.000 C 
BRANCH   7   8
ATOM      8  C   UNL     1      10.821 -22.297  41.444  1.00  0.00    -0.000 C 
BRANCH   8   9
ATOM      9  C   UNL     1       9.571 -22.789  40.697  1.00  0.00    -0.000 C 
BRANCH   9  10
ATOM     10  C   UNL     1       9.856 -24.103  39.960  1.00  0.00    -0.003 C 
ATOM     11  C   UNL     1       9.995 -25.266  40.938  1.00  0.00     0.004 C 
ENDBRANCH   9  10
ENDBRANCH   8   9
ENDBRANCH   7   8
ENDBRANCH   1   7
TORSDOF 7
ENDMDL
MODEL 6
REMARK VINA RESULT:    -3.640      2.259      3.538
REMARK INTER + INTRA:          -5.412
REMARK INTER:                  -4.753
REMARK INTRA:                  -0.659
REMARK UNBOUND:                -0.282
REMARK SMILES CCCCCCCCC(=O)[O-]
REMARK SMILES IDX 6 1 7 2 8 3 9 4 10 5 11 6 5 7 4 8 3 9 2 10 1 11
REMARK H PARENT
REMARK Flexibility Score: inf
ROOT
ATOM      1  C   UNL     1      11.594 -25.905  40.542  1.00  0.00     0.000 C 
ENDROOT
BRANCH   1   2
ATOM      2  C   UNL     1      11.953 -25.422  39.121  1.00  0.00     0.006 C 
BRANCH   2   3
ATOM      3  C   UNL     1      13.286 -24.659  39.050  1.00  0.00     0.053 C 
BRANCH   3   4
ATOM      4  C   UNL     1      13.737 -24.429  37.643  1.00  0.00     0.041 C 
ATOM      5  O   UNL     1      13.748 -25.380  36.818  1.00  0.00    -0.550 OA
ATOM      6  O   UNL     1      14.122 -23.158  37.233  1.00  0.00    -0.550 OA
ENDBRANCH   3   4
ENDBRANCH   2   3
ENDBRANCH   1   2
BRANCH   1   7
ATOM      7  C   UNL     1      10.351 -25.197  41.106  1.00  0.00     0.000 C 
BRANCH   7   8
ATOM      8  C   UNL     1       9.744 -24.187  40.119  1.00  0.00    -0.000 C 
BRANCH   8   9
ATOM      9  C   UNL     1       9.730 -22.753  40.671  1.00  0.00    -0.000 C 
BRANCH   9  10
ATOM     10  C   UNL     1      10.824 -22.564  41.729  1.00  0.00    -0.003 C 
ATOM     11  C   UNL     1      11.993 -21.755  41.175  1.00  0.00     0.004 C 
ENDBRANCH   9  10
ENDBRANCH   8   9
ENDBRANCH   7   8
ENDBRANCH   1   7
TORSDOF 7
ENDMDL
MODEL 7
REMARK VINA RESULT:    -3.625      0.859      1.506
REMARK INTER + INTRA:          -5.391
REMARK INTER:                  -4.975
REMARK INTRA:                  -0.417
REMARK UNBOUND:                -0.282
REMARK SMILES CCCCCCCCC(=O)[O-]
REMARK SMILES IDX 6 1 7 2 8 3 9 4 10 5 11 6 5 7 4 8 3 9 2 10 1 11
REMARK H PARENT
REMARK Flexibility Score: inf
ROOT
ATOM      1  C   UNL     1      12.909 -22.284  39.251  1.00  0.00     0.000 C 
ENDROOT
BRANCH   1   2
ATOM      2  C   UNL     1      14.019 -21.257  38.946  1.00  0.00     0.006 C 
BRANCH   2   3
ATOM      3  C   UNL     1      13.792 -20.478  37.640  1.00  0.00     0.053 C 
BRANCH   3   4
ATOM      4  C   UNL     1      14.307 -21.210  36.442  1.00  0.00     0.041 C 
ATOM      5  O   UNL     1      15.366 -21.888  36.520  1.00  0.00    -0.550 OA
ATOM      6  O   UNL     1      13.605 -21.167  35.244  1.00  0.00    -0.550 OA
ENDBRANCH   3   4
ENDBRANCH   2   3
ENDBRANCH   1   2
BRANCH   1   7
ATOM      7  C   UNL     1      13.191 -23.089  40.531  1.00  0.00     0.000 C 
BRANCH   7   8
ATOM      8  C   UNL     1      11.915 -23.398  41.331  1.00  0.00    -0.000 C 
BRANCH   8   9
ATOM      9  C   UNL     1      10.857 -22.290  41.208  1.00  0.00    -0.000 C 
BRANCH   9  10
ATOM     10  C   UNL     1       9.539 -22.851  40.658  1.00  0.00    -0.003 C 
ATOM     11  C   UNL     1       9.716 -24.278  40.150  1.00  0.00     0.004 C 
ENDBRANCH   9  10
ENDBRANCH   8   9
ENDBRANCH   7   8
ENDBRANCH   1   7
TORSDOF 7
ENDMDL
MODEL 8
REMARK VINA RESULT:    -3.610      5.583      7.301
REMARK INTER + INTRA:          -5.370
REMARK INTER:                  -4.863
REMARK INTRA:                  -0.507
REMARK UNBOUND:                -0.282
REMARK SMILES CCCCCCCCC(=O)[O-]
REMARK SMILES IDX 6 1 7 2 8 3 9 4 10 5 11 6 5 7 4 8 3 9 2 10 1 11
REMARK H PARENT
REMARK Flexibility Score: inf
ROOT
ATOM      1  C   UNL     1       8.635 -25.628  41.058  1.00  0.00     0.000 C 
ENDROOT
BRANCH   1   2
ATOM      2  C   UNL     1       9.606 -26.524  41.855  1.00  0.00     0.006 C 
BRANCH   2   3
ATOM      3  C   UNL     1       9.996 -27.815  41.117  1.00  0.00     0.053 C 
BRANCH   3   4
ATOM      4  C   UNL     1       9.273 -29.013  41.643  1.00  0.00     0.041 C 
ATOM      5  O   UNL     1       9.489 -30.151  41.150  1.00  0.00    -0.550 OA
ATOM      6  O   UNL     1       8.377 -28.879  42.696  1.00  0.00    -0.550 OA
ENDBRANCH   3   4
ENDBRANCH   2   3
ENDBRANCH   1   2
BRANCH   1   7
ATOM      7  C   UNL     1       9.137 -25.340  39.633  1.00  0.00     0.000 C 
BRANCH   7   8
ATOM      8  C   UNL     1       9.983 -24.059  39.549  1.00  0.00    -0.000 C 
BRANCH   8   9
ATOM      9  C   UNL     1       9.615 -23.035  40.634  1.00  0.00    -0.000 C 
BRANCH   9  10
ATOM     10  C   UNL     1      10.850 -22.244  41.082  1.00  0.00    -0.003 C 
ATOM     11  C   UNL     1      11.336 -22.709  42.451  1.00  0.00     0.004 C 
ENDBRANCH   9  10
ENDBRANCH   8   9
ENDBRANCH   7   8
ENDBRANCH   1   7
TORSDOF 7
ENDMDL
MODEL 9
REMARK VINA RESULT:    -3.593      2.447      3.844
REMARK INTER + INTRA:          -5.345
REMARK INTER:                  -4.783
REMARK INTRA:                  -0.563
REMARK UNBOUND:                -0.282
REMARK SMILES CCCCCCCCC(=O)[O-]
REMARK SMILES IDX 6 1 7 2 8 3 9 4 10 5 11 6 5 7 4 8 3 9 2 10 1 11
REMARK H PARENT
REMARK Flexibility Score: inf
ROOT
ATOM      1  C   UNL     1       9.889 -22.698  40.633  1.00  0.00     0.000 C 
ENDROOT
BRANCH   1   2
ATOM      2  C   UNL     1      10.833 -22.557  41.846  1.00  0.00     0.006 C 
BRANCH   2   3
ATOM      3  C   UNL     1      12.045 -21.650  41.578  1.00  0.00     0.053 C 
BRANCH   3   4
ATOM      4  C   UNL     1      12.858 -22.115  40.412  1.00  0.00     0.041 C 
ATOM      5  O   UNL     1      13.479 -23.209  40.468  1.00  0.00    -0.550 OA
ATOM      6  O   UNL     1      12.911 -21.353  39.251  1.00  0.00    -0.550 OA
ENDBRANCH   3   4
ENDBRANCH   2   3
ENDBRANCH   1   2
BRANCH   1   7
ATOM      7  C   UNL     1       9.559 -24.165  40.314  1.00  0.00     0.000 C 
BRANCH   7   8
ATOM      8  C   UNL     1      10.483 -25.154  41.043  1.00  0.00    -0.000 C 
BRANCH   8   9
ATOM      9  C   UNL     1       9.710 -26.282  41.743  1.00  0.00    -0.000 C 
BRANCH   9  10
ATOM     10  C   UNL     1       8.240 -26.292  41.305  1.00  0.00    -0.003 C 
ATOM     11  C   UNL     1       7.807 -27.685  40.860  1.00  0.00     0.004 C 
ENDBRANCH   9  10
ENDBRANCH   8   9
ENDBRANCH   7   8
ENDBRANCH   1   7
TORSDOF 7
ENDMDL
