MODEL 1
REMARK VINA RESULT:    -6.673      0.000      0.000
REMARK INTER + INTRA:          -9.531
REMARK INTER:                  -9.209
REMARK INTRA:                  -0.321
REMARK UNBOUND:                -0.321
REMARK SMILES CC[C@H](CC[C@H](C)[C@@H]1CC[C@@H]2[C@H]3CC=C4C[C@@H](O)CC[C@@]4(C)[C@H]3CC[C@]21C)C(C)C
REMARK SMILES IDX 5 1 4 2 3 3 2 4 1 5 28 6 29 7 30 8 6 9 7 10 8 11 9 12 26 13
REMARK SMILES IDX 10 14 11 15 25 16 27 17 12 18 24 19 23 20 13 21 21 22 14 23
REMARK SMILES IDX 15 24 20 25 22 26 16 27 19 28 17 29 18 30
REMARK H PARENT 18 31
REMARK Flexibility Score: inf
ROOT
ATOM      1  C   UNL     1     -23.136 -16.027 -13.196  1.00  0.00     0.004 C 
ENDROOT
BRANCH   1   2
ATOM      2  C   UNL     1     -21.666 -16.481 -13.058  1.00  0.00     0.004 C 
BRANCH   2   3
ATOM      3  C   UNL     1     -20.672 -15.395 -13.544  1.00  0.00    -0.009 C 
BRANCH   3   4
ATOM      4  C   UNL     1     -21.386 -14.020 -13.749  1.00  0.00     0.000 C 
ATOM      5  C   UNL     1     -21.957 -13.875 -15.159  1.00  0.00     0.004 C 
ENDBRANCH   3   4
BRANCH   3   6
ATOM      6  C   UNL     1     -19.422 -15.314 -12.610  1.00  0.00    -0.014 C 
ATOM      7  C   UNL     1     -18.355 -16.354 -12.988  1.00  0.00     0.007 C 
ATOM      8  C   UNL     1     -18.799 -13.909 -12.520  1.00  0.00     0.007 C 
ENDBRANCH   3   6
ENDBRANCH   2   3
ENDBRANCH   1   2
BRANCH   1   9
ATOM      9  C   UNL     1     -23.929 -16.734 -14.331  1.00  0.00    -0.011 C 
ATOM     10  C   UNL     1     -24.715 -15.696 -15.155  1.00  0.00     0.008 C 
BRANCH   9  11
ATOM     11  C   UNL     1     -24.844 -17.893 -13.808  1.00  0.00    -0.002 C 
ATOM     12  C   UNL     1     -25.144 -17.778 -12.295  1.00  0.00     0.005 C 
ATOM     13  C   UNL     1     -24.333 -19.359 -13.971  1.00  0.00    -0.026 C 
ATOM     14  C   UNL     1     -25.342 -19.203 -11.765  1.00  0.00     0.005 C 
ATOM     15  C   UNL     1     -25.277 -20.090 -13.004  1.00  0.00    -0.001 C 
ATOM     16  C   UNL     1     -24.527 -19.962 -15.392  1.00  0.00     0.007 C 
ATOM     17  C   UNL     1     -22.835 -19.470 -13.538  1.00  0.00     0.012 C 
ATOM     18  C   UNL     1     -24.912 -21.584 -12.798  1.00  0.00     0.000 C 
ATOM     19  C   UNL     1     -25.026 -21.433 -15.402  1.00  0.00     0.005 C 
ATOM     20  C   UNL     1     -24.556 -22.290 -14.180  1.00  0.00     0.003 C 
ATOM     21  C   UNL     1     -26.028 -22.298 -11.977  1.00  0.00     0.031 C 
ATOM     22  C   UNL     1     -25.041 -23.796 -14.238  1.00  0.00    -0.008 C 
ATOM     23  C   UNL     1     -26.966 -23.101 -12.824  1.00  0.00    -0.027 C 
ATOM     24  C   UNL     1     -26.508 -23.871 -13.823  1.00  0.00    -0.065 C 
ATOM     25  C   UNL     1     -24.905 -24.414 -15.667  1.00  0.00     0.014 C 
ATOM     26  C   UNL     1     -24.170 -24.646 -13.272  1.00  0.00     0.016 C 
ATOM     27  C   UNL     1     -27.475 -24.717 -14.623  1.00  0.00     0.063 C 
ATOM     28  C   UNL     1     -25.461 -25.848 -15.765  1.00  0.00     0.033 C 
ATOM     29  C   UNL     1     -26.815 -26.045 -15.028  1.00  0.00     0.118 C 
BRANCH  29  30
ATOM     30  O   UNL     1     -27.704 -26.769 -15.836  1.00  0.00    -0.393 OA
ATOM     31  H   UNL     1     -27.158 -27.416 -16.355  1.00  0.00     0.210 HD
ENDBRANCH  29  30
ENDBRANCH   9  11
ENDBRANCH   1   9
TORSDOF 7
ENDMDL
MODEL 2
REMARK VINA RESULT:    -5.996      1.282      2.572
REMARK INTER + INTRA:          -8.596
REMARK INTER:                  -8.019
REMARK INTRA:                  -0.577
REMARK UNBOUND:                -0.321
REMARK SMILES CC[C@H](CC[C@H](C)[C@@H]1CC[C@@H]2[C@H]3CC=C4C[C@@H](O)CC[C@@]4(C)[C@H]3CC[C@]21C)C(C)C
REMARK SMILES IDX 5 1 4 2 3 3 2 4 1 5 28 6 29 7 30 8 6 9 7 10 8 11 9 12 26 13
REMARK SMILES IDX 10 14 11 15 25 16 27 17 12 18 24 19 23 20 13 21 21 22 14 23
REMARK SMILES IDX 15 24 20 25 22 26 16 27 19 28 17 29 18 30
REMARK H PARENT 18 31
REMARK Flexibility Score: inf
ROOT
ATOM      1  C   UNL     1     -23.220 -17.115 -14.123  1.00  0.00     0.004 C 
ENDROOT
BRANCH   1   2
ATOM      2  C   UNL     1     -23.088 -16.124 -15.299  1.00  0.00     0.004 C 
BRANCH   2   3
ATOM      3  C   UNL     1     -23.271 -14.652 -14.845  1.00  0.00    -0.009 C 
BRANCH   3   4
ATOM      4  C   UNL     1     -21.915 -13.876 -14.867  1.00  0.00     0.000 C 
ATOM      5  C   UNL     1     -21.154 -14.014 -13.549  1.00  0.00     0.004 C 
ENDBRANCH   3   4
BRANCH   3   6
ATOM      6  C   UNL     1     -24.405 -13.948 -15.656  1.00  0.00    -0.014 C 
ATOM      7  C   UNL     1     -24.590 -14.576 -17.047  1.00  0.00     0.007 C 
ATOM      8  C   UNL     1     -25.752 -13.875 -14.912  1.00  0.00     0.007 C 
ENDBRANCH   3   6
ENDBRANCH   2   3
ENDBRANCH   1   2
BRANCH   1   9
ATOM      9  C   UNL     1     -24.405 -16.825 -13.160  1.00  0.00    -0.011 C 
ATOM     10  C   UNL     1     -23.876 -16.340 -11.797  1.00  0.00     0.008 C 
BRANCH   9  11
ATOM     11  C   UNL     1     -25.389 -18.037 -13.018  1.00  0.00    -0.002 C 
ATOM     12  C   UNL     1     -26.124 -18.050 -11.657  1.00  0.00     0.005 C 
ATOM     13  C   UNL     1     -24.797 -19.477 -13.131  1.00  0.00    -0.026 C 
ATOM     14  C   UNL     1     -26.414 -19.516 -11.315  1.00  0.00     0.005 C 
ATOM     15  C   UNL     1     -25.954 -20.298 -12.542  1.00  0.00    -0.001 C 
ATOM     16  C   UNL     1     -24.542 -19.965 -14.586  1.00  0.00     0.007 C 
ATOM     17  C   UNL     1     -23.489 -19.601 -12.284  1.00  0.00     0.012 C 
ATOM     18  C   UNL     1     -25.610 -21.799 -12.349  1.00  0.00     0.000 C 
ATOM     19  C   UNL     1     -24.960 -21.437 -14.851  1.00  0.00     0.005 C 
ATOM     20  C   UNL     1     -24.837 -22.384 -13.611  1.00  0.00     0.003 C 
ATOM     21  C   UNL     1     -26.889 -22.593 -11.948  1.00  0.00     0.031 C 
ATOM     22  C   UNL     1     -25.226 -23.886 -13.922  1.00  0.00    -0.008 C 
ATOM     23  C   UNL     1     -27.506 -23.338 -13.091  1.00  0.00    -0.027 C 
ATOM     24  C   UNL     1     -26.746 -24.017 -13.965  1.00  0.00    -0.065 C 
ATOM     25  C   UNL     1     -24.653 -24.384 -15.288  1.00  0.00     0.014 C 
ATOM     26  C   UNL     1     -24.645 -24.800 -12.807  1.00  0.00     0.016 C 
ATOM     27  C   UNL     1     -27.404 -24.809 -15.075  1.00  0.00     0.063 C 
ATOM     28  C   UNL     1     -25.102 -25.814 -15.651  1.00  0.00     0.033 C 
ATOM     29  C   UNL     1     -26.603 -26.089 -15.364  1.00  0.00     0.118 C 
BRANCH  29  30
ATOM     30  O   UNL     1     -27.188 -26.758 -16.450  1.00  0.00    -0.393 OA
ATOM     31  H   UNL     1     -27.438 -26.063 -17.113  1.00  0.00     0.210 HD
ENDBRANCH  29  30
ENDBRANCH   9  11
ENDBRANCH   1   9
TORSDOF 7
ENDMDL
MODEL 3
REMARK VINA RESULT:    -5.075      3.123     10.106
REMARK INTER + INTRA:          -7.324
REMARK INTER:                  -7.261
REMARK INTRA:                  -0.063
REMARK UNBOUND:                -0.321
REMARK SMILES CC[C@H](CC[C@H](C)[C@@H]1CC[C@@H]2[C@H]3CC=C4C[C@@H](O)CC[C@@]4(C)[C@H]3CC[C@]21C)C(C)C
REMARK SMILES IDX 5 1 4 2 3 3 2 4 1 5 28 6 29 7 30 8 6 9 7 10 8 11 9 12 26 13
REMARK SMILES IDX 10 14 11 15 25 16 27 17 12 18 24 19 23 20 13 21 21 22 14 23
REMARK SMILES IDX 15 24 20 25 22 26 16 27 19 28 17 29 18 30
REMARK H PARENT 18 31
REMARK Flexibility Score: inf
ROOT
ATOM      1  C   UNL     1     -26.033 -26.792 -16.520  1.00  0.00     0.004 C 
ENDROOT
BRANCH   1   2
ATOM      2  C   UNL     1     -27.238 -27.374 -17.292  1.00  0.00     0.004 C 
BRANCH   2   3
ATOM      3  C   UNL     1     -27.759 -28.688 -16.654  1.00  0.00    -0.009 C 
BRANCH   3   4
ATOM      4  C   UNL     1     -29.124 -28.466 -15.928  1.00  0.00     0.000 C 
ATOM      5  C   UNL     1     -29.073 -28.902 -14.464  1.00  0.00     0.004 C 
ENDBRANCH   3   4
BRANCH   3   6
ATOM      6  C   UNL     1     -27.789 -29.850 -17.698  1.00  0.00    -0.014 C 
ATOM      7  C   UNL     1     -26.577 -29.804 -18.642  1.00  0.00     0.007 C 
ATOM      8  C   UNL     1     -27.934 -31.249 -17.071  1.00  0.00     0.007 C 
ENDBRANCH   3   6
ENDBRANCH   2   3
ENDBRANCH   1   2
BRANCH   1   9
ATOM      9  C   UNL     1     -26.411 -25.932 -15.281  1.00  0.00    -0.011 C 
ATOM     10  C   UNL     1     -27.754 -25.218 -15.521  1.00  0.00     0.008 C 
BRANCH   9  11
ATOM     11  C   UNL     1     -25.276 -24.938 -14.856  1.00  0.00    -0.002 C 
ATOM     12  C   UNL     1     -24.322 -25.541 -13.799  1.00  0.00     0.005 C 
ATOM     13  C   UNL     1     -25.698 -23.570 -14.235  1.00  0.00    -0.026 C 
ATOM     14  C   UNL     1     -23.800 -24.378 -12.948  1.00  0.00     0.005 C 
ATOM     15  C   UNL     1     -24.365 -23.126 -13.613  1.00  0.00    -0.001 C 
ATOM     16  C   UNL     1     -26.138 -22.492 -15.267  1.00  0.00     0.007 C 
ATOM     17  C   UNL     1     -26.816 -23.775 -13.161  1.00  0.00     0.012 C 
ATOM     18  C   UNL     1     -24.485 -21.845 -12.747  1.00  0.00     0.000 C 
ATOM     19  C   UNL     1     -25.595 -21.067 -14.977  1.00  0.00     0.005 C 
ATOM     20  C   UNL     1     -25.386 -20.744 -13.461  1.00  0.00     0.003 C 
ATOM     21  C   UNL     1     -23.068 -21.349 -12.328  1.00  0.00     0.031 C 
ATOM     22  C   UNL     1     -24.875 -19.270 -13.192  1.00  0.00    -0.008 C 
ATOM     23  C   UNL     1     -22.570 -20.206 -13.159  1.00  0.00    -0.027 C 
ATOM     24  C   UNL     1     -23.381 -19.190 -13.493  1.00  0.00    -0.065 C 
ATOM     25  C   UNL     1     -25.610 -18.211 -14.075  1.00  0.00     0.014 C 
ATOM     26  C   UNL     1     -25.139 -18.906 -11.704  1.00  0.00     0.016 C 
ATOM     27  C   UNL     1     -22.832 -18.021 -14.283  1.00  0.00     0.063 C 
ATOM     28  C   UNL     1     -25.059 -16.782 -13.896  1.00  0.00     0.033 C 
ATOM     29  C   UNL     1     -23.508 -16.713 -13.840  1.00  0.00     0.118 C 
BRANCH  29  30
ATOM     30  O   UNL     1     -23.041 -15.662 -14.645  1.00  0.00    -0.393 OA
ATOM     31  H   UNL     1     -22.082 -15.843 -14.824  1.00  0.00     0.210 HD
ENDBRANCH  29  30
ENDBRANCH   9  11
ENDBRANCH   1   9
TORSDOF 7
ENDMDL
MODEL 4
REMARK VINA RESULT:    -4.883      1.445      2.138
REMARK INTER + INTRA:          -7.060
REMARK INTER:                  -8.735
REMARK INTRA:                   1.675
REMARK UNBOUND:                -0.321
REMARK SMILES CC[C@H](CC[C@H](C)[C@@H]1CC[C@@H]2[C@H]3CC=C4C[C@@H](O)CC[C@@]4(C)[C@H]3CC[C@]21C)C(C)C
REMARK SMILES IDX 5 1 4 2 3 3 2 4 1 5 28 6 29 7 30 8 6 9 7 10 8 11 9 12 26 13
REMARK SMILES IDX 10 14 11 15 25 16 27 17 12 18 24 19 23 20 13 21 21 22 14 23
REMARK SMILES IDX 15 24 20 25 22 26 16 27 19 28 17 29 18 30
REMARK H PARENT 18 31
REMARK Flexibility Score: inf
ROOT
ATOM      1  C   UNL     1     -23.036 -15.895 -12.860  1.00  0.00     0.004 C 
ENDROOT
BRANCH   1   2
ATOM      2  C   UNL     1     -21.620 -16.496 -13.005  1.00  0.00     0.004 C 
BRANCH   2   3
ATOM      3  C   UNL     1     -20.598 -15.457 -13.535  1.00  0.00    -0.009 C 
BRANCH   3   4
ATOM      4  C   UNL     1     -21.270 -14.068 -13.777  1.00  0.00     0.000 C 
ATOM      5  C   UNL     1     -21.681 -13.875 -15.236  1.00  0.00     0.004 C 
ENDBRANCH   3   4
BRANCH   3   6
ATOM      6  C   UNL     1     -19.336 -15.387 -12.616  1.00  0.00    -0.014 C 
ATOM      7  C   UNL     1     -18.301 -16.463 -12.980  1.00  0.00     0.007 C 
ATOM      8  C   UNL     1     -18.676 -13.996 -12.568  1.00  0.00     0.007 C 
ENDBRANCH   3   6
ENDBRANCH   2   3
ENDBRANCH   1   2
BRANCH   1   9
ATOM      9  C   UNL     1     -23.824 -15.762 -14.193  1.00  0.00    -0.011 C 
ATOM     10  C   UNL     1     -24.804 -14.576 -14.114  1.00  0.00     0.008 C 
BRANCH   9  11
ATOM     11  C   UNL     1     -24.534 -17.092 -14.620  1.00  0.00    -0.002 C 
ATOM     12  C   UNL     1     -26.065 -16.928 -14.768  1.00  0.00     0.005 C 
ATOM     13  C   UNL     1     -24.384 -18.333 -13.686  1.00  0.00    -0.026 C 
ATOM     14  C   UNL     1     -26.697 -18.284 -14.434  1.00  0.00     0.005 C 
ATOM     15  C   UNL     1     -25.513 -19.224 -14.227  1.00  0.00    -0.001 C 
ATOM     16  C   UNL     1     -23.041 -19.103 -13.835  1.00  0.00     0.007 C 
ATOM     17  C   UNL     1     -24.611 -17.928 -12.193  1.00  0.00     0.012 C 
ATOM     18  C   UNL     1     -25.751 -20.502 -13.379  1.00  0.00     0.000 C 
ATOM     19  C   UNL     1     -23.184 -20.650 -13.831  1.00  0.00     0.005 C 
ATOM     20  C   UNL     1     -24.376 -21.193 -12.974  1.00  0.00     0.003 C 
ATOM     21  C   UNL     1     -26.759 -21.444 -14.104  1.00  0.00     0.031 C 
ATOM     22  C   UNL     1     -24.471 -22.773 -12.951  1.00  0.00    -0.008 C 
ATOM     23  C   UNL     1     -26.098 -22.579 -14.823  1.00  0.00    -0.027 C 
ATOM     24  C   UNL     1     -25.089 -23.261 -14.258  1.00  0.00    -0.065 C 
ATOM     25  C   UNL     1     -23.074 -23.454 -12.786  1.00  0.00     0.014 C 
ATOM     26  C   UNL     1     -25.353 -23.209 -11.748  1.00  0.00     0.016 C 
ATOM     27  C   UNL     1     -24.482 -24.441 -14.985  1.00  0.00     0.063 C 
ATOM     28  C   UNL     1     -23.137 -24.993 -12.858  1.00  0.00     0.033 C 
ATOM     29  C   UNL     1     -24.064 -25.529 -13.983  1.00  0.00     0.118 C 
BRANCH  29  30
ATOM     30  O   UNL     1     -23.430 -26.571 -14.677  1.00  0.00    -0.393 OA
ATOM     31  H   UNL     1     -23.364 -27.335 -14.047  1.00  0.00     0.210 HD
ENDBRANCH  29  30
ENDBRANCH   9  11
ENDBRANCH   1   9
TORSDOF 7
ENDMDL
MODEL 5
REMARK VINA RESULT:    -4.077      3.080      8.237
REMARK INTER + INTRA:          -5.948
REMARK INTER:                  -5.104
REMARK INTRA:                  -0.844
REMARK UNBOUND:                -0.321
REMARK SMILES CC[C@H](CC[C@H](C)[C@@H]1CC[C@@H]2[C@H]3CC=C4C[C@@H](O)CC[C@@]4(C)[C@H]3CC[C@]21C)C(C)C
REMARK SMILES IDX 5 1 4 2 3 3 2 4 1 5 28 6 29 7 30 8 6 9 7 10 8 11 9 12 26 13
REMARK SMILES IDX 10 14 11 15 25 16 27 17 12 18 24 19 23 20 13 21 21 22 14 23
REMARK SMILES IDX 15 24 20 25 22 26 16 27 19 28 17 29 18 30
REMARK H PARENT 18 31
REMARK Flexibility Score: inf
ROOT
ATOM      1  C   UNL     1     -26.369 -23.018 -14.182  1.00  0.00     0.004 C 
ENDROOT
BRANCH   1   2
ATOM      2  C   UNL     1     -25.019 -23.538 -14.724  1.00  0.00     0.004 C 
BRANCH   2   3
ATOM      3  C   UNL     1     -24.404 -24.627 -13.807  1.00  0.00    -0.009 C 
BRANCH   3   4
ATOM      4  C   UNL     1     -24.201 -25.971 -14.576  1.00  0.00     0.000 C 
ATOM      5  C   UNL     1     -24.941 -25.984 -15.913  1.00  0.00     0.004 C 
ENDBRANCH   3   4
BRANCH   3   6
ATOM      6  C   UNL     1     -23.107 -24.108 -13.106  1.00  0.00    -0.014 C 
ATOM      7  C   UNL     1     -22.722 -22.699 -13.583  1.00  0.00     0.007 C 
ATOM      8  C   UNL     1     -23.164 -24.162 -11.568  1.00  0.00     0.007 C 
ENDBRANCH   3   6
ENDBRANCH   2   3
ENDBRANCH   1   2
BRANCH   1   9
ATOM      9  C   UNL     1     -26.405 -22.784 -12.646  1.00  0.00    -0.011 C 
ATOM     10  C   UNL     1     -27.860 -22.797 -12.141  1.00  0.00     0.008 C 
BRANCH   9  11
ATOM     11  C   UNL     1     -25.635 -21.493 -12.205  1.00  0.00    -0.002 C 
ATOM     12  C   UNL     1     -25.992 -21.049 -10.767  1.00  0.00     0.005 C 
ATOM     13  C   UNL     1     -25.836 -20.197 -13.051  1.00  0.00    -0.026 C 
ATOM     14  C   UNL     1     -25.838 -19.525 -10.714  1.00  0.00     0.005 C 
ATOM     15  C   UNL     1     -25.276 -19.144 -12.081  1.00  0.00    -0.001 C 
ATOM     16  C   UNL     1     -25.004 -20.140 -14.365  1.00  0.00     0.007 C 
ATOM     17  C   UNL     1     -27.351 -19.973 -13.363  1.00  0.00     0.012 C 
ATOM     18  C   UNL     1     -25.491 -17.685 -12.564  1.00  0.00     0.000 C 
ATOM     19  C   UNL     1     -24.353 -18.760 -14.653  1.00  0.00     0.005 C 
ATOM     20  C   UNL     1     -25.159 -17.532 -14.113  1.00  0.00     0.003 C 
ATOM     21  C   UNL     1     -24.720 -16.697 -11.638  1.00  0.00     0.031 C 
ATOM     22  C   UNL     1     -24.496 -16.138 -14.460  1.00  0.00    -0.008 C 
ATOM     23  C   UNL     1     -23.421 -16.230 -12.219  1.00  0.00    -0.027 C 
ATOM     24  C   UNL     1     -23.328 -15.883 -13.512  1.00  0.00    -0.065 C 
ATOM     25  C   UNL     1     -23.958 -16.078 -15.926  1.00  0.00     0.014 C 
ATOM     26  C   UNL     1     -25.562 -15.018 -14.304  1.00  0.00     0.016 C 
ATOM     27  C   UNL     1     -22.016 -15.358 -14.055  1.00  0.00     0.063 C 
ATOM     28  C   UNL     1     -23.224 -14.762 -16.252  1.00  0.00     0.033 C 
ATOM     29  C   UNL     1     -22.272 -14.281 -15.122  1.00  0.00     0.118 C 
BRANCH  29  30
ATOM     30  O   UNL     1     -21.043 -13.875 -15.665  1.00  0.00    -0.393 OA
ATOM     31  H   UNL     1     -20.518 -13.482 -14.921  1.00  0.00     0.210 HD
ENDBRANCH  29  30
ENDBRANCH   9  11
ENDBRANCH   1   9
TORSDOF 7
ENDMDL
