MODEL 1
REMARK VINA RESULT:    -2.021      0.000      0.000
REMARK INTER + INTRA:          -3.906
REMARK INTER:                  -3.084
REMARK INTRA:                  -0.821
REMARK UNBOUND:                -0.821
REMARK SMILES OC[C@@H]1O[C@](CO)(O[C@@H]2O[C@H](CO)[C@H](O)[C@H](O)[C@H]2O)[C@@H](O)[C@H]1O
REMARK SMILES IDX 8 1 9 2 11 3 14 4 10 5 16 6 18 7 12 8 13 9 15 11 17 13 19 15
REMARK SMILES IDX 5 17 20 18 4 19 22 20 3 21 6 22 7 23 21 25 23 27 2 29 1 30
REMARK H PARENT 13 10 15 12 17 14 19 16 7 24 21 26 23 28 1 31
REMARK Flexibility Score: inf
ROOT
ATOM      1  O   UNL     1     -25.165  -6.698  15.937  1.00  0.00    -0.313 OA
ENDROOT
BRANCH   1   2
ATOM      2  C   UNL     1     -24.375  -5.870  15.091  1.00  0.00     0.285 C 
ATOM      3  C   UNL     1     -22.382  -7.220  14.970  1.00  0.00     0.178 C 
ATOM      4  C   UNL     1     -21.540  -6.160  15.720  1.00  0.00     0.177 C 
ATOM      5  O   UNL     1     -23.504  -6.663  14.289  1.00  0.00    -0.341 OA
ATOM      6  C   UNL     1     -22.399  -5.325  16.667  1.00  0.00     0.179 C 
ATOM      7  C   UNL     1     -23.636  -4.779  15.918  1.00  0.00     0.202 C 
BRANCH   3   8
ATOM      8  C   UNL     1     -22.739  -8.475  15.802  1.00  0.00     0.191 C 
BRANCH   8   9
ATOM      9  O   UNL     1     -21.772  -9.474  15.621  1.00  0.00    -0.394 OA
ATOM     10  H   UNL     1     -21.808 -10.054  16.427  1.00  0.00     0.210 HD
ENDBRANCH   8   9
ENDBRANCH   3   8
BRANCH   4  11
ATOM     11  O   UNL     1     -20.481  -6.751  16.432  1.00  0.00    -0.387 OA
ATOM     12  H   UNL     1     -20.588  -7.734  16.339  1.00  0.00     0.211 HD
ENDBRANCH   4  11
BRANCH   6  13
ATOM     13  O   UNL     1     -22.711  -6.060  17.830  1.00  0.00    -0.387 OA
ATOM     14  H   UNL     1     -22.025  -6.756  17.996  1.00  0.00     0.211 HD
ENDBRANCH   6  13
BRANCH   7  15
ATOM     15  O   UNL     1     -23.271  -3.691  15.101  1.00  0.00    -0.385 OA
ATOM     16  H   UNL     1     -23.786  -3.753  14.255  1.00  0.00     0.211 HD
ENDBRANCH   7  15
ENDBRANCH   1   2
BRANCH   1  17
ATOM     17  C   UNL     1     -26.551  -6.788  15.593  1.00  0.00     0.224 C 
ATOM     18  C   UNL     1     -26.918  -8.288  15.654  1.00  0.00     0.208 C 
ATOM     19  O   UNL     1     -26.771  -6.355  14.258  1.00  0.00    -0.337 OA
ATOM     20  C   UNL     1     -26.620  -8.746  14.244  1.00  0.00     0.180 C 
ATOM     21  C   UNL     1     -26.909  -7.490  13.428  1.00  0.00     0.179 C 
BRANCH  17  22
ATOM     22  C   UNL     1     -27.417  -5.953  16.583  1.00  0.00     0.225 C 
BRANCH  22  23
ATOM     23  O   UNL     1     -26.631  -5.274  17.525  1.00  0.00    -0.391 OA
ATOM     24  H   UNL     1     -26.077  -5.956  17.986  1.00  0.00     0.210 HD
ENDBRANCH  22  23
ENDBRANCH  17  22
BRANCH  18  25
ATOM     25  O   UNL     1     -28.262  -8.528  16.007  1.00  0.00    -0.385 OA
ATOM     26  H   UNL     1     -28.821  -7.798  15.633  1.00  0.00     0.211 HD
ENDBRANCH  18  25
BRANCH  20  27
ATOM     27  O   UNL     1     -27.442  -9.814  13.843  1.00  0.00    -0.387 OA
ATOM     28  H   UNL     1     -26.881 -10.395  13.264  1.00  0.00     0.211 HD
ENDBRANCH  20  27
BRANCH  21  29
ATOM     29  C   UNL     1     -25.984  -7.364  12.212  1.00  0.00     0.191 C 
BRANCH  29  30
ATOM     30  O   UNL     1     -26.345  -6.256  11.434  1.00  0.00    -0.394 OA
ATOM     31  H   UNL     1     -26.660  -6.613  10.561  1.00  0.00     0.210 HD
ENDBRANCH  29  30
ENDBRANCH  21  29
ENDBRANCH   1  17
TORSDOF 13
ENDMDL
MODEL 2
REMARK VINA RESULT:    -1.324      1.254      2.772
REMARK INTER + INTRA:          -2.842
REMARK INTER:                  -1.748
REMARK INTRA:                  -1.094
REMARK UNBOUND:                -0.821
REMARK SMILES OC[C@@H]1O[C@](CO)(O[C@@H]2O[C@H](CO)[C@H](O)[C@H](O)[C@H]2O)[C@@H](O)[C@H]1O
REMARK SMILES IDX 8 1 9 2 11 3 14 4 10 5 16 6 18 7 12 8 13 9 15 11 17 13 19 15
REMARK SMILES IDX 5 17 20 18 4 19 22 20 3 21 6 22 7 23 21 25 23 27 2 29 1 30
REMARK H PARENT 13 10 15 12 17 14 19 16 7 24 21 26 23 28 1 31
REMARK Flexibility Score: inf
ROOT
ATOM      1  O   UNL     1     -24.805  -6.965  15.054  1.00  0.00    -0.313 OA
ENDROOT
BRANCH   1   2
ATOM      2  C   UNL     1     -23.814  -6.037  14.628  1.00  0.00     0.285 C 
ATOM      3  C   UNL     1     -21.851  -7.137  15.493  1.00  0.00     0.178 C 
ATOM      4  C   UNL     1     -21.572  -5.993  16.498  1.00  0.00     0.177 C 
ATOM      5  O   UNL     1     -22.588  -6.710  14.350  1.00  0.00    -0.341 OA
ATOM      6  C   UNL     1     -22.858  -5.279  16.909  1.00  0.00     0.179 C 
ATOM      7  C   UNL     1     -23.665  -4.876  15.653  1.00  0.00     0.202 C 
BRANCH   3   8
ATOM      8  C   UNL     1     -22.407  -8.436  16.124  1.00  0.00     0.191 C 
BRANCH   8   9
ATOM      9  O   UNL     1     -22.923  -9.281  15.131  1.00  0.00    -0.394 OA
ATOM     10  H   UNL     1     -22.217  -9.950  14.932  1.00  0.00     0.210 HD
ENDBRANCH   8   9
ENDBRANCH   3   8
BRANCH   4  11
ATOM     11  O   UNL     1     -20.901  -6.462  17.640  1.00  0.00    -0.387 OA
ATOM     12  H   UNL     1     -19.933  -6.303  17.488  1.00  0.00     0.211 HD
ENDBRANCH   4  11
BRANCH   6  13
ATOM     13  O   UNL     1     -23.585  -6.061  17.831  1.00  0.00    -0.387 OA
ATOM     14  H   UNL     1     -23.240  -5.925  18.750  1.00  0.00     0.211 HD
ENDBRANCH   6  13
BRANCH   7  15
ATOM     15  O   UNL     1     -23.090  -3.742  15.047  1.00  0.00    -0.385 OA
ATOM     16  H   UNL     1     -22.231  -3.550  15.503  1.00  0.00     0.211 HD
ENDBRANCH   7  15
ENDBRANCH   1   2
BRANCH   1  17
ATOM     17  C   UNL     1     -25.872  -7.196  14.130  1.00  0.00     0.224 C 
ATOM     18  C   UNL     1     -27.073  -6.365  14.636  1.00  0.00     0.208 C 
ATOM     19  O   UNL     1     -26.269  -8.560  14.144  1.00  0.00    -0.337 OA
ATOM     20  C   UNL     1     -27.768  -7.339  15.560  1.00  0.00     0.180 C 
ATOM     21  C   UNL     1     -27.449  -8.683  14.913  1.00  0.00     0.179 C 
BRANCH  17  22
ATOM     22  C   UNL     1     -25.454  -6.769  12.691  1.00  0.00     0.225 C 
BRANCH  22  23
ATOM     23  O   UNL     1     -26.407  -7.143  11.734  1.00  0.00    -0.391 OA
ATOM     24  H   UNL     1     -26.166  -8.054  11.424  1.00  0.00     0.210 HD
ENDBRANCH  22  23
ENDBRANCH  17  22
BRANCH  18  25
ATOM     25  O   UNL     1     -27.929  -5.922  13.606  1.00  0.00    -0.385 OA
ATOM     26  H   UNL     1     -27.483  -6.085  12.734  1.00  0.00     0.211 HD
ENDBRANCH  18  25
BRANCH  20  27
ATOM     27  O   UNL     1     -29.155  -7.121  15.623  1.00  0.00    -0.387 OA
ATOM     28  H   UNL     1     -29.464  -7.019  14.685  1.00  0.00     0.211 HD
ENDBRANCH  20  27
BRANCH  21  29
ATOM     29  C   UNL     1     -27.284  -9.801  15.949  1.00  0.00     0.191 C 
BRANCH  29  30
ATOM     30  O   UNL     1     -28.162 -10.858  15.672  1.00  0.00    -0.394 OA
ATOM     31  H   UNL     1     -27.700 -11.444  15.014  1.00  0.00     0.210 HD
ENDBRANCH  29  30
ENDBRANCH  21  29
ENDBRANCH   1  17
TORSDOF 13
ENDMDL
MODEL 3
REMARK VINA RESULT:    -0.304      1.369      5.667
REMARK INTER + INTRA:          -1.286
REMARK INTER:                  -0.738
REMARK INTRA:                  -0.548
REMARK UNBOUND:                -0.821
REMARK SMILES OC[C@@H]1O[C@](CO)(O[C@@H]2O[C@H](CO)[C@H](O)[C@H](O)[C@H]2O)[C@@H](O)[C@H]1O
REMARK SMILES IDX 8 1 9 2 11 3 14 4 10 5 16 6 18 7 12 8 13 9 15 11 17 13 19 15
REMARK SMILES IDX 5 17 20 18 4 19 22 20 3 21 6 22 7 23 21 25 23 27 2 29 1 30
REMARK H PARENT 13 10 15 12 17 14 19 16 7 24 21 26 23 28 1 31
REMARK Flexibility Score: inf
ROOT
ATOM      1  O   UNL     1     -23.778  -7.039  15.596  1.00  0.00    -0.313 OA
ENDROOT
BRANCH   1   2
ATOM      2  C   UNL     1     -24.537  -6.435  14.555  1.00  0.00     0.285 C 
ATOM      3  C   UNL     1     -26.526  -5.873  15.796  1.00  0.00     0.178 C 
ATOM      4  C   UNL     1     -27.393  -6.864  14.981  1.00  0.00     0.177 C 
ATOM      5  O   UNL     1     -25.381  -5.415  15.081  1.00  0.00    -0.341 OA
ATOM      6  C   UNL     1     -26.566  -8.036  14.455  1.00  0.00     0.179 C 
ATOM      7  C   UNL     1     -25.304  -7.512  13.734  1.00  0.00     0.202 C 
BRANCH   3   8
ATOM      8  C   UNL     1     -26.199  -6.330  17.238  1.00  0.00     0.191 C 
BRANCH   8   9
ATOM      9  O   UNL     1     -26.300  -5.251  18.128  1.00  0.00    -0.394 OA
ATOM     10  H   UNL     1     -26.137  -4.428  17.597  1.00  0.00     0.210 HD
ENDBRANCH   8   9
ENDBRANCH   3   8
BRANCH   4  11
ATOM     11  O   UNL     1     -28.476  -7.345  15.738  1.00  0.00    -0.387 OA
ATOM     12  H   UNL     1     -29.010  -7.926  15.135  1.00  0.00     0.211 HD
ENDBRANCH   4  11
BRANCH   6  13
ATOM     13  O   UNL     1     -26.295  -8.953  15.492  1.00  0.00    -0.387 OA
ATOM     14  H   UNL     1     -26.785  -9.802  15.342  1.00  0.00     0.211 HD
ENDBRANCH   6  13
BRANCH   7  15
ATOM     15  O   UNL     1     -25.640  -7.023  12.456  1.00  0.00    -0.385 OA
ATOM     16  H   UNL     1     -24.928  -6.394  12.169  1.00  0.00     0.211 HD
ENDBRANCH   7  15
ENDBRANCH   1   2
BRANCH   1  17
ATOM     17  C   UNL     1     -22.473  -6.491  15.805  1.00  0.00     0.224 C 
ATOM     18  C   UNL     1     -22.298  -6.355  17.335  1.00  0.00     0.208 C 
ATOM     19  O   UNL     1     -22.377  -5.185  15.254  1.00  0.00    -0.337 OA
ATOM     20  C   UNL     1     -22.837  -4.967  17.595  1.00  0.00     0.180 C 
ATOM     21  C   UNL     1     -22.499  -4.240  16.298  1.00  0.00     0.179 C 
BRANCH  17  22
ATOM     22  C   UNL     1     -21.383  -7.419  15.191  1.00  0.00     0.225 C 
BRANCH  22  23
ATOM     23  O   UNL     1     -21.559  -8.757  15.568  1.00  0.00    -0.391 OA
ATOM     24  H   UNL     1     -22.506  -8.860  15.844  1.00  0.00     0.210 HD
ENDBRANCH  22  23
ENDBRANCH  17  22
BRANCH  18  25
ATOM     25  O   UNL     1     -20.961  -6.485  17.766  1.00  0.00    -0.385 OA
ATOM     26  H   UNL     1     -20.680  -5.628  18.182  1.00  0.00     0.211 HD
ENDBRANCH  18  25
BRANCH  20  27
ATOM     27  O   UNL     1     -22.220  -4.352  18.699  1.00  0.00    -0.387 OA
ATOM     28  H   UNL     1     -22.345  -3.374  18.579  1.00  0.00     0.211 HD
ENDBRANCH  20  27
BRANCH  21  29
ATOM     29  C   UNL     1     -23.553  -3.188  15.932  1.00  0.00     0.191 C 
BRANCH  29  30
ATOM     30  O   UNL     1     -22.937  -1.980  15.577  1.00  0.00    -0.394 OA
ATOM     31  H   UNL     1     -22.830  -1.460  16.417  1.00  0.00     0.210 HD
ENDBRANCH  29  30
ENDBRANCH  21  29
ENDBRANCH   1  17
TORSDOF 13
ENDMDL
MODEL 4
REMARK VINA RESULT:    -0.120      1.804      5.292
REMARK INTER + INTRA:          -1.004
REMARK INTER:                   0.195
REMARK INTRA:                  -1.200
REMARK UNBOUND:                -0.821
REMARK SMILES OC[C@@H]1O[C@](CO)(O[C@@H]2O[C@H](CO)[C@H](O)[C@H](O)[C@H]2O)[C@@H](O)[C@H]1O
REMARK SMILES IDX 8 1 9 2 11 3 14 4 10 5 16 6 18 7 12 8 13 9 15 11 17 13 19 15
REMARK SMILES IDX 5 17 20 18 4 19 22 20 3 21 6 22 7 23 21 25 23 27 2 29 1 30
REMARK H PARENT 13 10 15 12 17 14 19 16 7 24 21 26 23 28 1 31
REMARK Flexibility Score: inf
ROOT
ATOM      1  O   UNL     1     -24.543  -6.433  16.156  1.00  0.00    -0.313 OA
ENDROOT
BRANCH   1   2
ATOM      2  C   UNL     1     -24.725  -6.413  14.745  1.00  0.00     0.285 C 
ATOM      3  C   UNL     1     -26.817  -7.602  14.604  1.00  0.00     0.178 C 
ATOM      4  C   UNL     1     -26.165  -8.792  13.858  1.00  0.00     0.177 C 
ATOM      5  O   UNL     1     -26.113  -6.376  14.423  1.00  0.00    -0.341 OA
ATOM      6  C   UNL     1     -24.690  -8.946  14.223  1.00  0.00     0.179 C 
ATOM      7  C   UNL     1     -23.963  -7.590  14.071  1.00  0.00     0.202 C 
BRANCH   3   8
ATOM      8  C   UNL     1     -27.180  -7.881  16.082  1.00  0.00     0.191 C 
BRANCH   8   9
ATOM      9  O   UNL     1     -28.304  -8.716  16.161  1.00  0.00    -0.394 OA
ATOM     10  H   UNL     1     -28.741  -8.522  17.032  1.00  0.00     0.210 HD
ENDBRANCH   8   9
ENDBRANCH   3   8
BRANCH   4  11
ATOM     11  O   UNL     1     -26.847  -9.995  14.111  1.00  0.00    -0.387 OA
ATOM     12  H   UNL     1     -26.710 -10.574  13.316  1.00  0.00     0.211 HD
ENDBRANCH   4  11
BRANCH   6  13
ATOM     13  O   UNL     1     -24.555  -9.529  15.500  1.00  0.00    -0.387 OA
ATOM     14  H   UNL     1     -25.424  -9.891  15.811  1.00  0.00     0.211 HD
ENDBRANCH   6  13
BRANCH   7  15
ATOM     15  O   UNL     1     -23.719  -7.317  12.710  1.00  0.00    -0.385 OA
ATOM     16  H   UNL     1     -24.064  -8.077  12.176  1.00  0.00     0.211 HD
ENDBRANCH   7  15
ENDBRANCH   1   2
BRANCH   1  17
ATOM     17  C   UNL     1     -24.276  -5.164  16.762  1.00  0.00     0.224 C 
ATOM     18  C   UNL     1     -23.760  -5.464  18.187  1.00  0.00     0.208 C 
ATOM     19  O   UNL     1     -25.470  -4.406  16.897  1.00  0.00    -0.337 OA
ATOM     20  C   UNL     1     -25.040  -5.490  18.991  1.00  0.00     0.180 C 
ATOM     21  C   UNL     1     -25.917  -4.496  18.235  1.00  0.00     0.179 C 
BRANCH  17  22
ATOM     22  C   UNL     1     -23.222  -4.371  15.933  1.00  0.00     0.225 C 
BRANCH  22  23
ATOM     23  O   UNL     1     -23.502  -2.998  15.902  1.00  0.00    -0.391 OA
ATOM     24  H   UNL     1     -24.443  -2.887  16.195  1.00  0.00     0.210 HD
ENDBRANCH  22  23
ENDBRANCH  17  22
BRANCH  18  25
ATOM     25  O   UNL     1     -22.856  -4.497  18.677  1.00  0.00    -0.385 OA
ATOM     26  H   UNL     1     -23.378  -3.728  19.027  1.00  0.00     0.211 HD
ENDBRANCH  18  25
BRANCH  20  27
ATOM     27  O   UNL     1     -24.844  -5.086  20.323  1.00  0.00    -0.387 OA
ATOM     28  H   UNL     1     -25.072  -4.120  20.358  1.00  0.00     0.211 HD
ENDBRANCH  20  27
BRANCH  21  29
ATOM     29  C   UNL     1     -27.398  -4.890  18.267  1.00  0.00     0.191 C 
BRANCH  29  30
ATOM     30  O   UNL     1     -28.107  -4.059  19.145  1.00  0.00    -0.394 OA
ATOM     31  H   UNL     1     -28.793  -4.630  19.584  1.00  0.00     0.210 HD
ENDBRANCH  29  30
ENDBRANCH  21  29
ENDBRANCH   1  17
TORSDOF 13
ENDMDL
MODEL 5
REMARK VINA RESULT:     0.153      1.629      3.282
REMARK INTER + INTRA:          -0.588
REMARK INTER:                   0.455
REMARK INTRA:                  -1.043
REMARK UNBOUND:                -0.821
REMARK SMILES OC[C@@H]1O[C@](CO)(O[C@@H]2O[C@H](CO)[C@H](O)[C@H](O)[C@H]2O)[C@@H](O)[C@H]1O
REMARK SMILES IDX 8 1 9 2 11 3 14 4 10 5 16 6 18 7 12 8 13 9 15 11 17 13 19 15
REMARK SMILES IDX 5 17 20 18 4 19 22 20 3 21 6 22 7 23 21 25 23 27 2 29 1 30
REMARK H PARENT 13 10 15 12 17 14 19 16 7 24 21 26 23 28 1 31
REMARK Flexibility Score: inf
ROOT
ATOM      1  O   UNL     1     -23.989  -6.941  15.913  1.00  0.00    -0.313 OA
ENDROOT
BRANCH   1   2
ATOM      2  C   UNL     1     -23.489  -5.660  15.546  1.00  0.00     0.285 C 
ATOM      3  C   UNL     1     -21.525  -5.591  16.942  1.00  0.00     0.178 C 
ATOM      4  C   UNL     1     -22.086  -4.420  17.785  1.00  0.00     0.177 C 
ATOM      5  O   UNL     1     -22.066  -5.640  15.624  1.00  0.00    -0.341 OA
ATOM      6  C   UNL     1     -23.613  -4.429  17.817  1.00  0.00     0.179 C 
ATOM      7  C   UNL     1     -24.172  -4.538  16.380  1.00  0.00     0.202 C 
BRANCH   3   8
ATOM      8  C   UNL     1     -21.532  -6.966  17.653  1.00  0.00     0.191 C 
BRANCH   8   9
ATOM      9  O   UNL     1     -20.662  -6.953  18.752  1.00  0.00    -0.394 OA
ATOM     10  H   UNL     1     -19.950  -7.618  18.559  1.00  0.00     0.210 HD
ENDBRANCH   8   9
ENDBRANCH   3   8
BRANCH   4  11
ATOM     11  O   UNL     1     -21.581  -4.440  19.097  1.00  0.00    -0.387 OA
ATOM     12  H   UNL     1     -22.365  -4.418  19.705  1.00  0.00     0.211 HD
ENDBRANCH   4  11
BRANCH   6  13
ATOM     13  O   UNL     1     -24.082  -5.430  18.693  1.00  0.00    -0.387 OA
ATOM     14  H   UNL     1     -23.325  -5.869  19.158  1.00  0.00     0.211 HD
ENDBRANCH   6  13
BRANCH   7  15
ATOM     15  O   UNL     1     -24.076  -3.296  15.723  1.00  0.00    -0.385 OA
ATOM     16  H   UNL     1     -23.222  -2.869  15.992  1.00  0.00     0.211 HD
ENDBRANCH   7  15
ENDBRANCH   1   2
BRANCH   1  17
ATOM     17  C   UNL     1     -24.229  -7.843  14.830  1.00  0.00     0.224 C 
ATOM     18  C   UNL     1     -24.621  -6.971  13.616  1.00  0.00     0.208 C 
ATOM     19  O   UNL     1     -25.334  -8.691  15.112  1.00  0.00    -0.337 OA
ATOM     20  C   UNL     1     -26.123  -6.874  13.765  1.00  0.00     0.180 C 
ATOM     21  C   UNL     1     -26.469  -8.204  14.426  1.00  0.00     0.179 C 
BRANCH  17  22
ATOM     22  C   UNL     1     -22.958  -8.692  14.530  1.00  0.00     0.225 C 
BRANCH  22  23
ATOM     23  O   UNL     1     -23.014  -9.956  15.134  1.00  0.00    -0.391 OA
ATOM     24  H   UNL     1     -23.531  -9.853  15.975  1.00  0.00     0.210 HD
ENDBRANCH  22  23
ENDBRANCH  17  22
BRANCH  18  25
ATOM     25  O   UNL     1     -24.256  -7.532  12.374  1.00  0.00    -0.385 OA
ATOM     26  H   UNL     1     -23.679  -8.322  12.543  1.00  0.00     0.211 HD
ENDBRANCH  18  25
BRANCH  20  27
ATOM     27  O   UNL     1     -26.776  -6.735  12.528  1.00  0.00    -0.387 OA
ATOM     28  H   UNL     1     -27.223  -5.848  12.546  1.00  0.00     0.211 HD
ENDBRANCH  20  27
BRANCH  21  29
ATOM     29  C   UNL     1     -27.652  -8.080  15.393  1.00  0.00     0.191 C 
BRANCH  29  30
ATOM     30  O   UNL     1     -28.165  -6.775  15.374  1.00  0.00    -0.394 OA
ATOM     31  H   UNL     1     -29.143  -6.854  15.537  1.00  0.00     0.210 HD
ENDBRANCH  29  30
ENDBRANCH  21  29
ENDBRANCH   1  17
TORSDOF 13
ENDMDL
MODEL 6
REMARK VINA RESULT:     0.309      1.493      5.360
REMARK INTER + INTRA:          -0.350
REMARK INTER:                   0.467
REMARK INTRA:                  -0.816
REMARK UNBOUND:                -0.821
REMARK SMILES OC[C@@H]1O[C@](CO)(O[C@@H]2O[C@H](CO)[C@H](O)[C@H](O)[C@H]2O)[C@@H](O)[C@H]1O
REMARK SMILES IDX 8 1 9 2 11 3 14 4 10 5 16 6 18 7 12 8 13 9 15 11 17 13 19 15
REMARK SMILES IDX 5 17 20 18 4 19 22 20 3 21 6 22 7 23 21 25 23 27 2 29 1 30
REMARK H PARENT 13 10 15 12 17 14 19 16 7 24 21 26 23 28 1 31
REMARK Flexibility Score: inf
ROOT
ATOM      1  O   UNL     1     -25.627  -5.650  15.604  1.00  0.00    -0.313 OA
ENDROOT
BRANCH   1   2
ATOM      2  C   UNL     1     -25.992  -7.020  15.727  1.00  0.00     0.285 C 
ATOM      3  C   UNL     1     -25.233  -7.821  13.584  1.00  0.00     0.178 C 
ATOM      4  C   UNL     1     -26.675  -8.143  13.120  1.00  0.00     0.177 C 
ATOM      5  O   UNL     1     -25.084  -7.844  15.001  1.00  0.00    -0.341 OA
ATOM      6  C   UNL     1     -27.700  -7.234  13.796  1.00  0.00     0.179 C 
ATOM      7  C   UNL     1     -27.480  -7.235  15.326  1.00  0.00     0.202 C 
BRANCH   3   8
ATOM      8  C   UNL     1     -24.603  -6.569  12.928  1.00  0.00     0.191 C 
BRANCH   8   9
ATOM      9  O   UNL     1     -25.203  -6.313  11.687  1.00  0.00    -0.394 OA
ATOM     10  H   UNL     1     -25.992  -6.912  11.623  1.00  0.00     0.210 HD
ENDBRANCH   8   9
ENDBRANCH   3   8
BRANCH   4  11
ATOM     11  O   UNL     1     -26.801  -8.047  11.723  1.00  0.00    -0.387 OA
ATOM     12  H   UNL     1     -27.422  -8.768  11.442  1.00  0.00     0.211 HD
ENDBRANCH   4  11
BRANCH   6  13
ATOM     13  O   UNL     1     -27.681  -5.949  13.215  1.00  0.00    -0.387 OA
ATOM     14  H   UNL     1     -27.209  -5.968  12.344  1.00  0.00     0.211 HD
ENDBRANCH   6  13
BRANCH   7  15
ATOM     15  O   UNL     1     -27.986  -8.423  15.891  1.00  0.00    -0.385 OA
ATOM     16  H   UNL     1     -28.012  -9.116  15.182  1.00  0.00     0.211 HD
ENDBRANCH   7  15
ENDBRANCH   1   2
BRANCH   1  17
ATOM     17  C   UNL     1     -24.756  -5.150  16.623  1.00  0.00     0.224 C 
ATOM     18  C   UNL     1     -24.089  -3.884  16.040  1.00  0.00     0.208 C 
ATOM     19  O   UNL     1     -23.719  -6.080  16.904  1.00  0.00    -0.337 OA
ATOM     20  C   UNL     1     -22.856  -4.450  15.374  1.00  0.00     0.180 C 
ATOM     21  C   UNL     1     -22.539  -5.656  16.252  1.00  0.00     0.179 C 
BRANCH  17  22
ATOM     22  C   UNL     1     -25.556  -4.824  17.919  1.00  0.00     0.225 C 
BRANCH  22  23
ATOM     23  O   UNL     1     -24.713  -4.491  18.988  1.00  0.00    -0.391 OA
ATOM     24  H   UNL     1     -24.962  -5.077  19.748  1.00  0.00     0.210 HD
ENDBRANCH  22  23
ENDBRANCH  17  22
BRANCH  18  25
ATOM     25  O   UNL     1     -23.757  -2.919  17.015  1.00  0.00    -0.385 OA
ATOM     26  H   UNL     1     -24.345  -3.054  17.804  1.00  0.00     0.211 HD
ENDBRANCH  18  25
BRANCH  20  27
ATOM     27  O   UNL     1     -21.788  -3.537  15.358  1.00  0.00    -0.387 OA
ATOM     28  H   UNL     1     -21.782  -3.098  16.249  1.00  0.00     0.211 HD
ENDBRANCH  20  27
BRANCH  21  29
ATOM     29  C   UNL     1     -21.939  -6.816  15.448  1.00  0.00     0.191 C 
BRANCH  29  30
ATOM     30  O   UNL     1     -20.584  -6.985  15.768  1.00  0.00    -0.394 OA
ATOM     31  H   UNL     1     -20.082  -6.313  15.234  1.00  0.00     0.210 HD
ENDBRANCH  29  30
ENDBRANCH  21  29
ENDBRANCH   1  17
TORSDOF 13
ENDMDL
MODEL 7
REMARK VINA RESULT:     0.502      1.659      2.985
REMARK INTER + INTRA:          -0.056
REMARK INTER:                   0.999
REMARK INTRA:                  -1.055
REMARK UNBOUND:                -0.821
REMARK SMILES OC[C@@H]1O[C@](CO)(O[C@@H]2O[C@H](CO)[C@H](O)[C@H](O)[C@H]2O)[C@@H](O)[C@H]1O
REMARK SMILES IDX 8 1 9 2 11 3 14 4 10 5 16 6 18 7 12 8 13 9 15 11 17 13 19 15
REMARK SMILES IDX 5 17 20 18 4 19 22 20 3 21 6 22 7 23 21 25 23 27 2 29 1 30
REMARK H PARENT 13 10 15 12 17 14 19 16 7 24 21 26 23 28 1 31
REMARK Flexibility Score: inf
ROOT
ATOM      1  O   UNL     1     -24.539  -6.523  15.474  1.00  0.00    -0.313 OA
ENDROOT
BRANCH   1   2
ATOM      2  C   UNL     1     -23.740  -5.364  15.266  1.00  0.00     0.285 C 
ATOM      3  C   UNL     1     -21.695  -6.108  16.305  1.00  0.00     0.178 C 
ATOM      4  C   UNL     1     -21.803  -5.048  17.428  1.00  0.00     0.177 C 
ATOM      5  O   UNL     1     -22.370  -5.726  15.109  1.00  0.00    -0.341 OA
ATOM      6  C   UNL     1     -23.257  -4.674  17.712  1.00  0.00     0.179 C 
ATOM      7  C   UNL     1     -23.979  -4.318  16.392  1.00  0.00     0.202 C 
BRANCH   3   8
ATOM      8  C   UNL     1     -22.014  -7.557  16.746  1.00  0.00     0.191 C 
BRANCH   8   9
ATOM      9  O   UNL     1     -21.580  -8.471  15.776  1.00  0.00    -0.394 OA
ATOM     10  H   UNL     1     -20.727  -8.856  16.109  1.00  0.00     0.210 HD
ENDBRANCH   8   9
ENDBRANCH   3   8
BRANCH   4  11
ATOM     11  O   UNL     1     -21.183  -5.485  18.611  1.00  0.00    -0.387 OA
ATOM     12  H   UNL     1     -20.860  -6.408  18.441  1.00  0.00     0.211 HD
ENDBRANCH   4  11
BRANCH   6  13
ATOM     13  O   UNL     1     -23.892  -5.689  18.457  1.00  0.00    -0.387 OA
ATOM     14  H   UNL     1     -23.494  -6.573  18.251  1.00  0.00     0.211 HD
ENDBRANCH   6  13
BRANCH   7  15
ATOM     15  O   UNL     1     -23.608  -3.027  15.965  1.00  0.00    -0.385 OA
ATOM     16  H   UNL     1     -22.887  -2.699  16.563  1.00  0.00     0.211 HD
ENDBRANCH   7  15
ENDBRANCH   1   2
BRANCH   1  17
ATOM     17  C   UNL     1     -24.825  -7.294  14.303  1.00  0.00     0.224 C 
ATOM     18  C   UNL     1     -26.294  -7.754  14.433  1.00  0.00     0.208 C 
ATOM     19  O   UNL     1     -24.020  -8.464  14.257  1.00  0.00    -0.337 OA
ATOM     20  C   UNL     1     -26.153  -9.068  15.167  1.00  0.00     0.180 C 
ATOM     21  C   UNL     1     -24.796  -9.567  14.679  1.00  0.00     0.179 C 
BRANCH  17  22
ATOM     22  C   UNL     1     -24.611  -6.439  13.018  1.00  0.00     0.225 C 
BRANCH  22  23
ATOM     23  O   UNL     1     -24.084  -7.196  11.964  1.00  0.00    -0.391 OA
ATOM     24  H   UNL     1     -24.718  -7.121  11.205  1.00  0.00     0.210 HD
ENDBRANCH  22  23
ENDBRANCH  17  22
BRANCH  18  25
ATOM     25  O   UNL     1     -26.949  -7.917  13.194  1.00  0.00    -0.385 OA
ATOM     26  H   UNL     1     -27.334  -8.832  13.160  1.00  0.00     0.211 HD
ENDBRANCH  18  25
BRANCH  20  27
ATOM     27  O   UNL     1     -27.176  -9.976  14.842  1.00  0.00    -0.387 OA
ATOM     28  H   UNL     1     -26.739 -10.733  14.373  1.00  0.00     0.211 HD
ENDBRANCH  20  27
BRANCH  21  29
ATOM     29  C   UNL     1     -24.045 -10.353  15.760  1.00  0.00     0.191 C 
BRANCH  29  30
ATOM     30  O   UNL     1     -22.818 -10.816  15.265  1.00  0.00    -0.394 OA
ATOM     31  H   UNL     1     -22.116 -10.231  15.656  1.00  0.00     0.210 HD
ENDBRANCH  29  30
ENDBRANCH  21  29
ENDBRANCH   1  17
TORSDOF 13
ENDMDL
MODEL 8
REMARK VINA RESULT:     0.564      1.416      3.908
REMARK INTER + INTRA:           0.039
REMARK INTER:                  -0.169
REMARK INTRA:                   0.208
REMARK UNBOUND:                -0.821
REMARK SMILES OC[C@@H]1O[C@](CO)(O[C@@H]2O[C@H](CO)[C@H](O)[C@H](O)[C@H]2O)[C@@H](O)[C@H]1O
REMARK SMILES IDX 8 1 9 2 11 3 14 4 10 5 16 6 18 7 12 8 13 9 15 11 17 13 19 15
REMARK SMILES IDX 5 17 20 18 4 19 22 20 3 21 6 22 7 23 21 25 23 27 2 29 1 30
REMARK H PARENT 13 10 15 12 17 14 19 16 7 24 21 26 23 28 1 31
REMARK Flexibility Score: inf
ROOT
ATOM      1  O   UNL     1     -24.377  -6.026  14.047  1.00  0.00    -0.313 OA
ENDROOT
BRANCH   1   2
ATOM      2  C   UNL     1     -23.537  -6.695  14.981  1.00  0.00     0.285 C 
ATOM      3  C   UNL     1     -24.639  -6.055  17.027  1.00  0.00     0.178 C 
ATOM      4  C   UNL     1     -23.421  -5.225  17.500  1.00  0.00     0.177 C 
ATOM      5  O   UNL     1     -24.287  -7.100  16.123  1.00  0.00    -0.341 OA
ATOM      6  C   UNL     1     -22.615  -4.685  16.320  1.00  0.00     0.179 C 
ATOM      7  C   UNL     1     -22.294  -5.827  15.330  1.00  0.00     0.202 C 
BRANCH   3   8
ATOM      8  C   UNL     1     -25.848  -5.217  16.545  1.00  0.00     0.191 C 
BRANCH   8   9
ATOM      9  O   UNL     1     -26.739  -4.989  17.603  1.00  0.00    -0.394 OA
ATOM     10  H   UNL     1     -27.148  -4.098  17.444  1.00  0.00     0.210 HD
ENDBRANCH   8   9
ENDBRANCH   3   8
BRANCH   4  11
ATOM     11  O   UNL     1     -23.812  -4.165  18.337  1.00  0.00    -0.387 OA
ATOM     12  H   UNL     1     -24.763  -4.323  18.572  1.00  0.00     0.211 HD
ENDBRANCH   4  11
BRANCH   6  13
ATOM     13  O   UNL     1     -23.275  -3.585  15.734  1.00  0.00    -0.387 OA
ATOM     14  H   UNL     1     -22.619  -2.952  15.344  1.00  0.00     0.211 HD
ENDBRANCH   6  13
BRANCH   7  15
ATOM     15  O   UNL     1     -21.248  -6.627  15.830  1.00  0.00    -0.385 OA
ATOM     16  H   UNL     1     -21.532  -6.996  16.705  1.00  0.00     0.211 HD
ENDBRANCH   7  15
ENDBRANCH   1   2
BRANCH   1  17
ATOM     17  C   UNL     1     -25.153  -6.874  13.196  1.00  0.00     0.224 C 
ATOM     18  C   UNL     1     -26.365  -6.035  12.734  1.00  0.00     0.208 C 
ATOM     19  O   UNL     1     -25.663  -7.986  13.918  1.00  0.00    -0.337 OA
ATOM     20  C   UNL     1     -27.382  -6.321  13.816  1.00  0.00     0.180 C 
ATOM     21  C   UNL     1     -27.018  -7.742  14.234  1.00  0.00     0.179 C 
BRANCH  17  22
ATOM     22  C   UNL     1     -24.305  -7.359  11.982  1.00  0.00     0.225 C 
BRANCH  22  23
ATOM     23  O   UNL     1     -24.531  -6.581  10.838  1.00  0.00    -0.391 OA
ATOM     24  H   UNL     1     -25.467  -6.255  10.889  1.00  0.00     0.210 HD
ENDBRANCH  22  23
ENDBRANCH  17  22
BRANCH  18  25
ATOM     25  O   UNL     1     -26.848  -6.391  11.457  1.00  0.00    -0.385 OA
ATOM     26  H   UNL     1     -27.839  -6.447  11.500  1.00  0.00     0.211 HD
ENDBRANCH  18  25
BRANCH  20  27
ATOM     27  O   UNL     1     -28.703  -6.252  13.341  1.00  0.00    -0.387 OA
ATOM     28  H   UNL     1     -29.034  -5.343  13.566  1.00  0.00     0.211 HD
ENDBRANCH  20  27
BRANCH  21  29
ATOM     29  C   UNL     1     -27.261  -7.987  15.728  1.00  0.00     0.191 C 
BRANCH  29  30
ATOM     30  O   UNL     1     -28.119  -9.079  15.913  1.00  0.00    -0.394 OA
ATOM     31  H   UNL     1     -29.010  -8.799  15.571  1.00  0.00     0.210 HD
ENDBRANCH  29  30
ENDBRANCH  21  29
ENDBRANCH   1  17
TORSDOF 13
ENDMDL
MODEL 9
REMARK VINA RESULT:     0.604      1.418      3.753
REMARK INTER + INTRA:           0.100
REMARK INTER:                  -0.685
REMARK INTRA:                   0.785
REMARK UNBOUND:                -0.821
REMARK SMILES OC[C@@H]1O[C@](CO)(O[C@@H]2O[C@H](CO)[C@H](O)[C@H](O)[C@H]2O)[C@@H](O)[C@H]1O
REMARK SMILES IDX 8 1 9 2 11 3 14 4 10 5 16 6 18 7 12 8 13 9 15 11 17 13 19 15
REMARK SMILES IDX 5 17 20 18 4 19 22 20 3 21 6 22 7 23 21 25 23 27 2 29 1 30
REMARK H PARENT 13 10 15 12 17 14 19 16 7 24 21 26 23 28 1 31
REMARK Flexibility Score: inf
ROOT
ATOM      1  O   UNL     1     -24.320  -6.775  13.814  1.00  0.00    -0.313 OA
ENDROOT
BRANCH   1   2
ATOM      2  C   UNL     1     -24.055  -7.605  14.940  1.00  0.00     0.285 C 
ATOM      3  C   UNL     1     -23.948  -5.914  16.655  1.00  0.00     0.178 C 
ATOM      4  C   UNL     1     -22.445  -6.178  16.913  1.00  0.00     0.177 C 
ATOM      5  O   UNL     1     -24.630  -7.045  16.118  1.00  0.00    -0.341 OA
ATOM      6  C   UNL     1     -21.742  -6.701  15.662  1.00  0.00     0.179 C 
ATOM      7  C   UNL     1     -22.531  -7.890  15.069  1.00  0.00     0.202 C 
BRANCH   3   8
ATOM      8  C   UNL     1     -24.257  -4.602  15.895  1.00  0.00     0.191 C 
BRANCH   8   9
ATOM      9  O   UNL     1     -23.305  -3.620  16.207  1.00  0.00    -0.394 OA
ATOM     10  H   UNL     1     -23.266  -3.567  17.198  1.00  0.00     0.210 HD
ENDBRANCH   8   9
ENDBRANCH   3   8
BRANCH   4  11
ATOM     11  O   UNL     1     -21.791  -5.025  17.381  1.00  0.00    -0.387 OA
ATOM     12  H   UNL     1     -21.872  -5.032  18.371  1.00  0.00     0.211 HD
ENDBRANCH   4  11
BRANCH   6  13
ATOM     13  O   UNL     1     -21.514  -5.651  14.749  1.00  0.00    -0.387 OA
ATOM     14  H   UNL     1     -21.978  -4.827  15.042  1.00  0.00     0.211 HD
ENDBRANCH   6  13
BRANCH   7  15
ATOM     15  O   UNL     1     -22.301  -9.055  15.828  1.00  0.00    -0.385 OA
ATOM     16  H   UNL     1     -21.344  -9.299  15.738  1.00  0.00     0.211 HD
ENDBRANCH   7  15
ENDBRANCH   1   2
BRANCH   1  17
ATOM     17  C   UNL     1     -25.533  -7.060  13.110  1.00  0.00     0.224 C 
ATOM     18  C   UNL     1     -26.634  -6.205  13.777  1.00  0.00     0.208 C 
ATOM     19  O   UNL     1     -25.904  -8.423  13.271  1.00  0.00    -0.337 OA
ATOM     20  C   UNL     1     -27.140  -7.128  14.863  1.00  0.00     0.180 C 
ATOM     21  C   UNL     1     -26.925  -8.505  14.244  1.00  0.00     0.179 C 
BRANCH  17  22
ATOM     22  C   UNL     1     -25.385  -6.714  11.599  1.00  0.00     0.225 C 
BRANCH  22  23
ATOM     23  O   UNL     1     -26.293  -7.427  10.804  1.00  0.00    -0.391 OA
ATOM     24  H   UNL     1     -25.759  -8.003  10.198  1.00  0.00     0.210 HD
ENDBRANCH  22  23
ENDBRANCH  17  22
BRANCH  18  25
ATOM     25  O   UNL     1     -27.667  -5.823  12.895  1.00  0.00    -0.385 OA
ATOM     26  H   UNL     1     -27.338  -5.073  12.332  1.00  0.00     0.211 HD
ENDBRANCH  18  25
BRANCH  20  27
ATOM     27  O   UNL     1     -28.496  -6.910  15.162  1.00  0.00    -0.387 OA
ATOM     28  H   UNL     1     -28.609  -5.926  15.247  1.00  0.00     0.211 HD
ENDBRANCH  20  27
BRANCH  21  29
ATOM     29  C   UNL     1     -26.564  -9.562  15.294  1.00  0.00     0.191 C 
BRANCH  29  30
ATOM     30  O   UNL     1     -27.663  -9.824  16.124  1.00  0.00    -0.394 OA
ATOM     31  H   UNL     1     -28.252  -9.025  16.074  1.00  0.00     0.210 HD
ENDBRANCH  29  30
ENDBRANCH  21  29
ENDBRANCH   1  17
TORSDOF 13
ENDMDL
