MODEL 1
REMARK VINA RESULT:    -3.818      0.000      0.000
REMARK INTER + INTRA:          -5.446
REMARK INTER:                  -5.157
REMARK INTRA:                  -0.290
REMARK UNBOUND:                -0.290
REMARK SMILES CCCCCCCC(=O)[O-]
REMARK SMILES IDX 5 1 6 2 7 3 8 4 9 5 10 6 4 7 3 8 2 9 1 10
REMARK H PARENT
REMARK Flexibility Score: inf
ROOT
ATOM      1  C   UNL     1      17.579 -44.445  25.670  1.00  0.00     0.000 C 
ENDROOT
BRANCH   1   2
ATOM      2  C   UNL     1      17.036 -44.276  27.093  1.00  0.00     0.006 C 
BRANCH   2   3
ATOM      3  C   UNL     1      17.315 -45.521  27.940  1.00  0.00     0.053 C 
BRANCH   3   4
ATOM      4  C   UNL     1      17.308 -45.177  29.396  1.00  0.00     0.041 C 
ATOM      5  O   UNL     1      18.383 -44.887  29.984  1.00  0.00    -0.550 OA
ATOM      6  O   UNL     1      16.121 -45.225  30.116  1.00  0.00    -0.550 OA
ENDBRANCH   3   4
ENDBRANCH   2   3
ENDBRANCH   1   2
BRANCH   1   7
ATOM      7  C   UNL     1      18.502 -43.277  25.290  1.00  0.00     0.000 C 
BRANCH   7   8
ATOM      8  C   UNL     1      18.512 -42.155  26.344  1.00  0.00    -0.000 C 
BRANCH   8   9
ATOM      9  C   UNL     1      18.336 -40.734  25.779  1.00  0.00    -0.003 C 
ATOM     10  C   UNL     1      18.213 -40.708  24.256  1.00  0.00     0.004 C 
ENDBRANCH   8   9
ENDBRANCH   7   8
ENDBRANCH   1   7
TORSDOF 6
ENDMDL
MODEL 2
REMARK VINA RESULT:    -3.755      0.956      1.323
REMARK INTER + INTRA:          -5.362
REMARK INTER:                  -5.114
REMARK INTRA:                  -0.248
REMARK UNBOUND:                -0.290
REMARK SMILES CCCCCCCC(=O)[O-]
REMARK SMILES IDX 5 1 6 2 7 3 8 4 9 5 10 6 4 7 3 8 2 9 1 10
REMARK H PARENT
REMARK Flexibility Score: inf
ROOT
ATOM      1  C   UNL     1      17.133 -44.097  26.865  1.00  0.00     0.000 C 
ENDROOT
BRANCH   1   2
ATOM      2  C   UNL     1      17.157 -45.490  27.506  1.00  0.00     0.006 C 
BRANCH   2   3
ATOM      3  C   UNL     1      17.496 -45.404  28.996  1.00  0.00     0.053 C 
BRANCH   3   4
ATOM      4  C   UNL     1      16.264 -45.130  29.800  1.00  0.00     0.041 C 
ATOM      5  O   UNL     1      16.354 -44.595  30.936  1.00  0.00    -0.550 OA
ATOM      6  O   UNL     1      15.020 -45.513  29.315  1.00  0.00    -0.550 OA
ENDBRANCH   3   4
ENDBRANCH   2   3
ENDBRANCH   1   2
BRANCH   1   7
ATOM      7  C   UNL     1      17.864 -44.100  25.515  1.00  0.00     0.000 C 
BRANCH   7   8
ATOM      8  C   UNL     1      18.774 -42.873  25.324  1.00  0.00    -0.000 C 
BRANCH   8   9
ATOM      9  C   UNL     1      18.328 -41.611  26.085  1.00  0.00    -0.003 C 
ATOM     10  C   UNL     1      18.295 -40.363  25.203  1.00  0.00     0.004 C 
ENDBRANCH   8   9
ENDBRANCH   7   8
ENDBRANCH   1   7
TORSDOF 6
ENDMDL
MODEL 3
REMARK VINA RESULT:    -3.710      3.461      5.534
REMARK INTER + INTRA:          -5.300
REMARK INTER:                  -5.084
REMARK INTRA:                  -0.217
REMARK UNBOUND:                -0.290
REMARK SMILES CCCCCCCC(=O)[O-]
REMARK SMILES IDX 5 1 6 2 7 3 8 4 9 5 10 6 4 7 3 8 2 9 1 10
REMARK H PARENT
REMARK Flexibility Score: inf
ROOT
ATOM      1  C   UNL     1      18.150 -42.915  26.082  1.00  0.00     0.000 C 
ENDROOT
BRANCH   1   2
ATOM      2  C   UNL     1      18.767 -42.107  24.934  1.00  0.00     0.006 C 
BRANCH   2   3
ATOM      3  C   UNL     1      17.880 -40.916  24.562  1.00  0.00     0.053 C 
BRANCH   3   4
ATOM      4  C   UNL     1      18.482 -39.639  25.059  1.00  0.00     0.041 C 
ATOM      5  O   UNL     1      18.803 -38.731  24.248  1.00  0.00    -0.550 OA
ATOM      6  O   UNL     1      18.734 -39.472  26.415  1.00  0.00    -0.550 OA
ENDBRANCH   3   4
ENDBRANCH   2   3
ENDBRANCH   1   2
BRANCH   1   7
ATOM      7  C   UNL     1      17.857 -44.358  25.644  1.00  0.00     0.000 C 
BRANCH   7   8
ATOM      8  C   UNL     1      17.192 -45.197  26.750  1.00  0.00    -0.000 C 
BRANCH   8   9
ATOM      9  C   UNL     1      17.172 -44.535  28.140  1.00  0.00    -0.003 C 
ATOM     10  C   UNL     1      17.555 -45.496  29.264  1.00  0.00     0.004 C 
ENDBRANCH   8   9
ENDBRANCH   7   8
ENDBRANCH   1   7
TORSDOF 6
ENDMDL
MODEL 4
REMARK VINA RESULT:    -3.665      3.394      5.264
REMARK INTER + INTRA:          -5.240
REMARK INTER:                  -4.782
REMARK INTRA:                  -0.459
REMARK UNBOUND:                -0.290
REMARK SMILES CCCCCCCC(=O)[O-]
REMARK SMILES IDX 5 1 6 2 7 3 8 4 9 5 10 6 4 7 3 8 2 9 1 10
REMARK H PARENT
REMARK Flexibility Score: inf
ROOT
ATOM      1  C   UNL     1      18.537 -41.954  26.383  1.00  0.00     0.000 C 
ENDROOT
BRANCH   1   2
ATOM      2  C   UNL     1      18.325 -40.558  25.786  1.00  0.00     0.006 C 
BRANCH   2   3
ATOM      3  C   UNL     1      17.650 -40.643  24.414  1.00  0.00     0.053 C 
BRANCH   3   4
ATOM      4  C   UNL     1      16.163 -40.549  24.554  1.00  0.00     0.041 C 
ATOM      5  O   UNL     1      15.447 -41.576  24.425  1.00  0.00    -0.550 OA
ATOM      6  O   UNL     1      15.564 -39.315  24.778  1.00  0.00    -0.550 OA
ENDBRANCH   3   4
ENDBRANCH   2   3
ENDBRANCH   1   2
BRANCH   1   7
ATOM      7  C   UNL     1      18.748 -42.998  25.277  1.00  0.00     0.000 C 
BRANCH   7   8
ATOM      8  C   UNL     1      17.921 -44.278  25.497  1.00  0.00    -0.000 C 
BRANCH   8   9
ATOM      9  C   UNL     1      16.971 -44.235  26.708  1.00  0.00    -0.003 C 
ATOM     10  C   UNL     1      17.174 -45.407  27.667  1.00  0.00     0.004 C 
ENDBRANCH   8   9
ENDBRANCH   7   8
ENDBRANCH   1   7
TORSDOF 6
ENDMDL
MODEL 5
REMARK VINA RESULT:    -3.654      1.644      2.658
REMARK INTER + INTRA:          -5.225
REMARK INTER:                  -4.826
REMARK INTRA:                  -0.400
REMARK UNBOUND:                -0.290
REMARK SMILES CCCCCCCC(=O)[O-]
REMARK SMILES IDX 5 1 6 2 7 3 8 4 9 5 10 6 4 7 3 8 2 9 1 10
REMARK H PARENT
REMARK Flexibility Score: inf
ROOT
ATOM      1  C   UNL     1      17.252 -45.542  27.759  1.00  0.00     0.000 C 
ENDROOT
BRANCH   1   2
ATOM      2  C   UNL     1      17.272 -45.079  29.220  1.00  0.00     0.006 C 
BRANCH   2   3
ATOM      3  C   UNL     1      16.047 -44.218  29.541  1.00  0.00     0.053 C 
BRANCH   3   4
ATOM      4  C   UNL     1      14.940 -45.064  30.089  1.00  0.00     0.041 C 
ATOM      5  O   UNL     1      13.994 -45.430  29.344  1.00  0.00    -0.550 OA
ATOM      6  O   UNL     1      14.929 -45.405  31.435  1.00  0.00    -0.550 OA
ENDBRANCH   3   4
ENDBRANCH   2   3
ENDBRANCH   1   2
BRANCH   1   7
ATOM      7  C   UNL     1      16.899 -44.380  26.819  1.00  0.00     0.000 C 
BRANCH   7   8
ATOM      8  C   UNL     1      17.793 -44.330  25.567  1.00  0.00    -0.000 C 
BRANCH   8   9
ATOM      9  C   UNL     1      18.580 -43.019  25.385  1.00  0.00    -0.003 C 
ATOM     10  C   UNL     1      18.429 -42.063  26.567  1.00  0.00     0.004 C 
ENDBRANCH   8   9
ENDBRANCH   7   8
ENDBRANCH   1   7
TORSDOF 6
ENDMDL
MODEL 6
REMARK VINA RESULT:    -3.613      4.197      6.076
REMARK INTER + INTRA:          -5.170
REMARK INTER:                  -4.988
REMARK INTRA:                  -0.182
REMARK UNBOUND:                -0.290
REMARK SMILES CCCCCCCC(=O)[O-]
REMARK SMILES IDX 5 1 6 2 7 3 8 4 9 5 10 6 4 7 3 8 2 9 1 10
REMARK H PARENT
REMARK Flexibility Score: inf
ROOT
ATOM      1  C   UNL     1      18.393 -41.254  24.289  1.00  0.00     0.000 C 
ENDROOT
BRANCH   1   2
ATOM      2  C   UNL     1      18.376 -40.073  25.266  1.00  0.00     0.006 C 
BRANCH   2   3
ATOM      3  C   UNL     1      18.235 -38.744  24.520  1.00  0.00     0.053 C 
BRANCH   3   4
ATOM      4  C   UNL     1      16.874 -38.161  24.740  1.00  0.00     0.041 C 
ATOM      5  O   UNL     1      16.541 -37.092  24.164  1.00  0.00    -0.550 OA
ATOM      6  O   UNL     1      15.990 -38.773  25.620  1.00  0.00    -0.550 OA
ENDBRANCH   3   4
ENDBRANCH   2   3
ENDBRANCH   1   2
BRANCH   1   7
ATOM      7  C   UNL     1      19.047 -42.488  24.928  1.00  0.00     0.000 C 
BRANCH   7   8
ATOM      8  C   UNL     1      18.252 -43.034  26.128  1.00  0.00    -0.000 C 
BRANCH   8   9
ATOM      9  C   UNL     1      17.403 -44.283  25.828  1.00  0.00    -0.003 C 
ATOM     10  C   UNL     1      17.200 -45.174  27.053  1.00  0.00     0.004 C 
ENDBRANCH   8   9
ENDBRANCH   7   8
ENDBRANCH   1   7
TORSDOF 6
ENDMDL
MODEL 7
REMARK VINA RESULT:    -3.602      1.824      2.767
REMARK INTER + INTRA:          -5.154
REMARK INTER:                  -4.896
REMARK INTRA:                  -0.258
REMARK UNBOUND:                -0.290
REMARK SMILES CCCCCCCC(=O)[O-]
REMARK SMILES IDX 5 1 6 2 7 3 8 4 9 5 10 6 4 7 3 8 2 9 1 10
REMARK H PARENT
REMARK Flexibility Score: inf
ROOT
ATOM      1  C   UNL     1      17.244 -44.587  28.246  1.00  0.00     0.000 C 
ENDROOT
BRANCH   1   2
ATOM      2  C   UNL     1      17.583 -45.440  29.474  1.00  0.00     0.006 C 
BRANCH   2   3
ATOM      3  C   UNL     1      17.634 -44.582  30.742  1.00  0.00     0.053 C 
BRANCH   3   4
ATOM      4  C   UNL     1      18.909 -43.801  30.796  1.00  0.00     0.041 C 
ATOM      5  O   UNL     1      20.018 -44.393  30.744  1.00  0.00    -0.550 OA
ATOM      6  O   UNL     1      18.871 -42.421  30.954  1.00  0.00    -0.550 OA
ENDBRANCH   3   4
ENDBRANCH   2   3
ENDBRANCH   1   2
BRANCH   1   7
ATOM      7  C   UNL     1      17.231 -45.442  26.970  1.00  0.00     0.000 C 
BRANCH   7   8
ATOM      8  C   UNL     1      17.565 -44.632  25.704  1.00  0.00    -0.000 C 
BRANCH   8   9
ATOM      9  C   UNL     1      17.707 -43.115  25.923  1.00  0.00    -0.003 C 
ATOM     10  C   UNL     1      18.964 -42.534  25.280  1.00  0.00     0.004 C 
ENDBRANCH   8   9
ENDBRANCH   7   8
ENDBRANCH   1   7
TORSDOF 6
ENDMDL
MODEL 8
REMARK VINA RESULT:    -3.550      1.883      3.254
REMARK INTER + INTRA:          -5.085
REMARK INTER:                  -4.876
REMARK INTRA:                  -0.209
REMARK UNBOUND:                -0.290
REMARK SMILES CCCCCCCC(=O)[O-]
REMARK SMILES IDX 5 1 6 2 7 3 8 4 9 5 10 6 4 7 3 8 2 9 1 10
REMARK H PARENT
REMARK Flexibility Score: inf
ROOT
ATOM      1  C   UNL     1      17.500 -45.492  29.228  1.00  0.00     0.000 C 
ENDROOT
BRANCH   1   2
ATOM      2  C   UNL     1      16.666 -44.439  29.967  1.00  0.00     0.006 C 
BRANCH   2   3
ATOM      3  C   UNL     1      15.393 -45.056  30.551  1.00  0.00     0.053 C 
BRANCH   3   4
ATOM      4  C   UNL     1      15.350 -44.867  32.035  1.00  0.00     0.041 C 
ATOM      5  O   UNL     1      16.150 -45.494  32.777  1.00  0.00    -0.550 OA
ATOM      6  O   UNL     1      14.393 -44.034  32.601  1.00  0.00    -0.550 OA
ENDBRANCH   3   4
ENDBRANCH   2   3
ENDBRANCH   1   2
BRANCH   1   7
ATOM      7  C   UNL     1      17.110 -45.561  27.745  1.00  0.00     0.000 C 
BRANCH   7   8
ATOM      8  C   UNL     1      17.170 -44.192  27.045  1.00  0.00    -0.000 C 
BRANCH   8   9
ATOM      9  C   UNL     1      17.807 -44.208  25.643  1.00  0.00    -0.003 C 
ATOM     10  C   UNL     1      18.613 -42.946  25.339  1.00  0.00     0.004 C 
ENDBRANCH   8   9
ENDBRANCH   7   8
ENDBRANCH   1   7
TORSDOF 6
ENDMDL
MODEL 9
REMARK VINA RESULT:    -3.403      4.051      5.118
REMARK INTER + INTRA:          -4.886
REMARK INTER:                  -4.295
REMARK INTRA:                  -0.591
REMARK UNBOUND:                -0.290
REMARK SMILES CCCCCCCC(=O)[O-]
REMARK SMILES IDX 5 1 6 2 7 3 8 4 9 5 10 6 4 7 3 8 2 9 1 10
REMARK H PARENT
REMARK Flexibility Score: inf
ROOT
ATOM      1  C   UNL     1      18.226 -44.599  30.096  1.00  0.00     0.000 C 
ENDROOT
BRANCH   1   2
ATOM      2  C   UNL     1      17.455 -43.830  31.175  1.00  0.00     0.006 C 
BRANCH   2   3
ATOM      3  C   UNL     1      17.328 -44.659  32.457  1.00  0.00     0.053 C 
BRANCH   3   4
ATOM      4  C   UNL     1      15.896 -44.758  32.878  1.00  0.00     0.041 C 
ATOM      5  O   UNL     1      15.272 -43.730  33.251  1.00  0.00    -0.550 OA
ATOM      6  O   UNL     1      15.265 -45.995  32.906  1.00  0.00    -0.550 OA
ENDBRANCH   3   4
ENDBRANCH   2   3
ENDBRANCH   1   2
BRANCH   1   7
ATOM      7  C   UNL     1      17.283 -45.498  29.282  1.00  0.00     0.000 C 
BRANCH   7   8
ATOM      8  C   UNL     1      15.977 -44.789  28.881  1.00  0.00    -0.000 C 
BRANCH   8   9
ATOM      9  C   UNL     1      14.688 -45.520  29.299  1.00  0.00    -0.003 C 
ATOM     10  C   UNL     1      13.642 -44.586  29.904  1.00  0.00     0.004 C 
ENDBRANCH   8   9
ENDBRANCH   7   8
ENDBRANCH   1   7
TORSDOF 6
ENDMDL
