MODEL 1
REMARK VINA RESULT:    -0.131      0.000      0.000
REMARK INTER + INTRA:          -0.850
REMARK INTER:                  -0.180
REMARK INTRA:                  -0.669
REMARK UNBOUND:                -0.669
REMARK SMILES O=C([O-])[C@H]1O[C@H](Oc2cc3oc(-c4ccccc4)cc(=O)c3c(O)c2O)[C@@H](O)[C@H](O)[C@H]1O
REMARK SMILES IDX 7 1 6 2 4 3 31 4 5 5 29 6 27 7 2 8 1 9 3 10 32 11 30 13
REMARK SMILES IDX 28 15 8 17 25 18 9 19 23 20 10 21 22 22 11 23 20 24 12 25
REMARK SMILES IDX 19 26 21 27 26 28 24 30 13 32 14 33 18 34 15 35 17 36 16 37
REMARK H PARENT 32 12 30 14 28 16 26 29 24 31
REMARK Flexibility Score: inf
ROOT
ATOM      1  O   UNL     1      41.089 -32.004  11.279  1.00  0.00    -0.458 OA
ENDROOT
BRANCH   1   2
ATOM      2  C   UNL     1      41.965 -31.527  12.311  1.00  0.00     0.339 C 
ATOM      3  C   UNL     1      43.655 -33.044  11.714  1.00  0.00     0.199 C 
ATOM      4  C   UNL     1      44.636 -31.942  11.260  1.00  0.00     0.180 C 
ATOM      5  O   UNL     1      42.812 -32.576  12.756  1.00  0.00    -0.328 OA
ATOM      6  C   UNL     1      43.844 -30.707  10.795  1.00  0.00     0.181 C 
ATOM      7  C   UNL     1      42.794 -30.302  11.851  1.00  0.00     0.214 C 
BRANCH   3   8
ATOM      8  C   UNL     1      44.406 -34.255  12.188  1.00  0.00     0.073 C 
ATOM      9  O   UNL     1      43.807 -35.180  12.799  1.00  0.00    -0.547 OA
ATOM     10  O   UNL     1      45.779 -34.336  12.000  1.00  0.00    -0.547 OA
ENDBRANCH   3   8
BRANCH   4  11
ATOM     11  O   UNL     1      45.488 -31.574  12.317  1.00  0.00    -0.387 OA
ATOM     12  H   UNL     1      45.113 -30.748  12.722  1.00  0.00     0.211 HD
ENDBRANCH   4  11
BRANCH   6  13
ATOM     13  O   UNL     1      43.197 -30.974   9.576  1.00  0.00    -0.387 OA
ATOM     14  H   UNL     1      43.775 -31.607   9.075  1.00  0.00     0.211 HD
ENDBRANCH   6  13
BRANCH   7  15
ATOM     15  O   UNL     1      43.427 -29.738  12.972  1.00  0.00    -0.384 OA
ATOM     16  H   UNL     1      43.421 -30.429  13.686  1.00  0.00     0.211 HD
ENDBRANCH   7  15
ENDBRANCH   1   2
BRANCH   1  17
ATOM     17  C   UNL     1      39.884 -31.428  10.835  1.00  0.00     0.172 A 
ATOM     18  C   UNL     1      39.807 -30.351   9.920  1.00  0.00     0.201 A 
ATOM     19  C   UNL     1      38.710 -31.962  11.367  1.00  0.00     0.098 A 
ATOM     20  C   UNL     1      38.536 -29.881   9.491  1.00  0.00     0.176 A 
ATOM     21  C   UNL     1      37.461 -31.482  10.988  1.00  0.00     0.146 A 
ATOM     22  C   UNL     1      37.358 -30.439  10.043  1.00  0.00     0.111 A 
ATOM     23  O   UNL     1      36.372 -32.025  11.523  1.00  0.00    -0.456 OA
ATOM     24  C   UNL     1      36.059 -30.012   9.686  1.00  0.00     0.197 A 
ATOM     25  C   UNL     1      35.136 -31.637  11.219  1.00  0.00     0.138 A 
ATOM     26  C   UNL     1      34.947 -30.615  10.277  1.00  0.00     0.100 A 
ATOM     27  O   UNL     1      35.876 -29.094   8.842  1.00  0.00    -0.289 OA
BRANCH  18  28
ATOM     28  O   UNL     1      40.984 -29.744   9.481  1.00  0.00    -0.502 OA
ATOM     29  H   UNL     1      41.732 -30.222   9.002  1.00  0.00     0.293 HD
ENDBRANCH  18  28
BRANCH  20  30
ATOM     30  O   UNL     1      38.423 -28.878   8.522  1.00  0.00    -0.504 OA
ATOM     31  H   UNL     1      37.793 -28.091   8.583  1.00  0.00     0.293 HD
ENDBRANCH  20  30
BRANCH  25  32
ATOM     32  C   UNL     1      33.992 -32.316  11.880  1.00  0.00     0.017 A 
ATOM     33  C   UNL     1      33.859 -33.719  11.875  1.00  0.00     0.012 A 
ATOM     34  C   UNL     1      32.995 -31.542  12.503  1.00  0.00     0.012 A 
ATOM     35  C   UNL     1      32.765 -34.328  12.499  1.00  0.00     0.001 A 
ATOM     36  C   UNL     1      31.904 -32.157  13.125  1.00  0.00     0.001 A 
ATOM     37  C   UNL     1      31.790 -33.549  13.125  1.00  0.00     0.000 A 
ENDBRANCH  25  32
ENDBRANCH   1  17
TORSDOF 9
ENDMDL
MODEL 2
REMARK VINA RESULT:     0.848      1.952      8.552
REMARK INTER + INTRA:           0.501
REMARK INTER:                  -0.339
REMARK INTRA:                   0.840
REMARK UNBOUND:                -0.669
REMARK SMILES O=C([O-])[C@H]1O[C@H](Oc2cc3oc(-c4ccccc4)cc(=O)c3c(O)c2O)[C@@H](O)[C@H](O)[C@H]1O
REMARK SMILES IDX 7 1 6 2 4 3 31 4 5 5 29 6 27 7 2 8 1 9 3 10 32 11 30 13
REMARK SMILES IDX 28 15 8 17 25 18 9 19 23 20 10 21 22 22 11 23 20 24 12 25
REMARK SMILES IDX 19 26 21 27 26 28 24 30 13 32 14 33 18 34 15 35 17 36 16 37
REMARK H PARENT 32 12 30 14 28 16 26 29 24 31
REMARK Flexibility Score: inf
ROOT
ATOM      1  O   UNL     1      37.249 -31.246  12.462  1.00  0.00    -0.458 OA
ENDROOT
BRANCH   1   2
ATOM      2  C   UNL     1      36.107 -30.382  12.372  1.00  0.00     0.339 C 
ATOM      3  C   UNL     1      35.550 -31.180  10.235  1.00  0.00     0.199 C 
ATOM      4  C   UNL     1      34.225 -31.821  10.700  1.00  0.00     0.180 C 
ATOM      5  O   UNL     1      35.863 -30.037  11.016  1.00  0.00    -0.328 OA
ATOM      6  C   UNL     1      34.330 -32.201  12.188  1.00  0.00     0.181 C 
ATOM      7  C   UNL     1      34.849 -31.009  13.021  1.00  0.00     0.214 C 
BRANCH   3   8
ATOM      8  C   UNL     1      35.466 -30.787   8.789  1.00  0.00     0.073 C 
ATOM      9  O   UNL     1      36.274 -29.949   8.305  1.00  0.00    -0.547 OA
ATOM     10  O   UNL     1      34.458 -31.306   7.987  1.00  0.00    -0.547 OA
ENDBRANCH   3   8
BRANCH   4  11
ATOM     11  O   UNL     1      33.156 -30.923  10.526  1.00  0.00    -0.387 OA
ATOM     12  H   UNL     1      32.920 -30.571  11.424  1.00  0.00     0.211 HD
ENDBRANCH   4  11
BRANCH   6  13
ATOM     13  O   UNL     1      35.199 -33.293  12.351  1.00  0.00    -0.387 OA
ATOM     14  H   UNL     1      34.644 -34.062  12.647  1.00  0.00     0.211 HD
ENDBRANCH   6  13
BRANCH   7  15
ATOM     15  O   UNL     1      33.853 -30.021  13.123  1.00  0.00    -0.384 OA
ATOM     16  H   UNL     1      33.673 -29.892  14.092  1.00  0.00     0.211 HD
ENDBRANCH   7  15
ENDBRANCH   1   2
BRANCH   1  17
ATOM     17  C   UNL     1      38.513 -31.072  11.867  1.00  0.00     0.172 A 
ATOM     18  C   UNL     1      38.814 -30.066  10.918  1.00  0.00     0.201 A 
ATOM     19  C   UNL     1      39.503 -31.980  12.242  1.00  0.00     0.098 A 
ATOM     20  C   UNL     1      40.139 -29.940  10.420  1.00  0.00     0.176 A 
ATOM     21  C   UNL     1      40.794 -31.894  11.730  1.00  0.00     0.146 A 
ATOM     22  C   UNL     1      41.129 -30.871  10.817  1.00  0.00     0.111 A 
ATOM     23  O   UNL     1      41.703 -32.782  12.119  1.00  0.00    -0.456 OA
ATOM     24  C   UNL     1      42.462 -30.829  10.350  1.00  0.00     0.197 A 
ATOM     25  C   UNL     1      42.962 -32.778  11.689  1.00  0.00     0.138 A 
ATOM     26  C   UNL     1      43.378 -31.785  10.790  1.00  0.00     0.100 A 
ATOM     27  O   UNL     1      42.849 -29.943   9.542  1.00  0.00    -0.289 OA
BRANCH  18  28
ATOM     28  O   UNL     1      37.791 -29.235  10.458  1.00  0.00    -0.502 OA
ATOM     29  H   UNL     1      36.815 -29.490  10.425  1.00  0.00     0.293 HD
ENDBRANCH  18  28
BRANCH  20  30
ATOM     30  O   UNL     1      40.492 -28.904   9.549  1.00  0.00    -0.504 OA
ATOM     31  H   UNL     1      40.836 -28.001   9.843  1.00  0.00     0.293 HD
ENDBRANCH  20  30
BRANCH  25  32
ATOM     32  C   UNL     1      43.892 -33.821  12.192  1.00  0.00     0.017 A 
ATOM     33  C   UNL     1      45.272 -33.577  12.335  1.00  0.00     0.012 A 
ATOM     34  C   UNL     1      43.393 -35.098  12.508  1.00  0.00     0.012 A 
ATOM     35  C   UNL     1      46.125 -34.583  12.803  1.00  0.00     0.001 A 
ATOM     36  C   UNL     1      44.250 -36.100  12.975  1.00  0.00     0.001 A 
ATOM     37  C   UNL     1      45.614 -35.841  13.125  1.00  0.00     0.000 A 
ENDBRANCH  25  32
ENDBRANCH   1  17
TORSDOF 9
ENDMDL
MODEL 3
REMARK VINA RESULT:     2.351      1.987      3.125
REMARK INTER + INTRA:           2.575
REMARK INTER:                   2.919
REMARK INTRA:                  -0.344
REMARK UNBOUND:                -0.669
REMARK SMILES O=C([O-])[C@H]1O[C@H](Oc2cc3oc(-c4ccccc4)cc(=O)c3c(O)c2O)[C@@H](O)[C@H](O)[C@H]1O
REMARK SMILES IDX 7 1 6 2 4 3 31 4 5 5 29 6 27 7 2 8 1 9 3 10 32 11 30 13
REMARK SMILES IDX 28 15 8 17 25 18 9 19 23 20 10 21 22 22 11 23 20 24 12 25
REMARK SMILES IDX 19 26 21 27 26 28 24 30 13 32 14 33 18 34 15 35 17 36 16 37
REMARK H PARENT 32 12 30 14 28 16 26 29 24 31
REMARK Flexibility Score: inf
ROOT
ATOM      1  O   UNL     1      40.976 -32.976  11.734  1.00  0.00    -0.458 OA
ENDROOT
BRANCH   1   2
ATOM      2  C   UNL     1      41.820 -32.834  10.582  1.00  0.00     0.339 C 
ATOM      3  C   UNL     1      43.290 -31.394  11.713  1.00  0.00     0.199 C 
ATOM      4  C   UNL     1      44.473 -32.384  11.661  1.00  0.00     0.180 C 
ATOM      5  O   UNL     1      42.441 -31.558  10.586  1.00  0.00    -0.328 OA
ATOM      6  C   UNL     1      43.937 -33.826  11.598  1.00  0.00     0.181 C 
ATOM      7  C   UNL     1      42.874 -33.965  10.488  1.00  0.00     0.214 C 
BRANCH   3   8
ATOM      8  C   UNL     1      43.788 -29.979  11.759  1.00  0.00     0.073 C 
ATOM      9  O   UNL     1      43.579 -29.259  12.772  1.00  0.00    -0.547 OA
ATOM     10  O   UNL     1      44.439 -29.437  10.658  1.00  0.00    -0.547 OA
ENDBRANCH   3   8
BRANCH   4  11
ATOM     11  O   UNL     1      45.272 -32.138  10.531  1.00  0.00    -0.387 OA
ATOM     12  H   UNL     1      46.214 -32.087  10.843  1.00  0.00     0.211 HD
ENDBRANCH   4  11
BRANCH   6  13
ATOM     13  O   UNL     1      43.370 -34.188  12.832  1.00  0.00    -0.387 OA
ATOM     14  H   UNL     1      44.121 -34.309  13.471  1.00  0.00     0.211 HD
ENDBRANCH   6  13
BRANCH   7  15
ATOM     15  O   UNL     1      43.485 -33.910   9.224  1.00  0.00    -0.384 OA
ATOM     16  H   UNL     1      43.158 -34.695   8.710  1.00  0.00     0.211 HD
ENDBRANCH   7  15
ENDBRANCH   1   2
BRANCH   1  17
ATOM     17  C   UNL     1      39.807 -32.254  12.042  1.00  0.00     0.172 A 
ATOM     18  C   UNL     1      39.791 -30.893  12.430  1.00  0.00     0.201 A 
ATOM     19  C   UNL     1      38.607 -32.962  11.971  1.00  0.00     0.098 A 
ATOM     20  C   UNL     1      38.550 -30.241  12.663  1.00  0.00     0.176 A 
ATOM     21  C   UNL     1      37.388 -32.346  12.238  1.00  0.00     0.146 A 
ATOM     22  C   UNL     1      37.344 -30.979  12.583  1.00  0.00     0.111 A 
ATOM     23  O   UNL     1      36.272 -33.064  12.157  1.00  0.00    -0.456 OA
ATOM     24  C   UNL     1      36.072 -30.410  12.823  1.00  0.00     0.197 A 
ATOM     25  C   UNL     1      35.061 -32.563  12.388  1.00  0.00     0.138 A 
ATOM     26  C   UNL     1      34.931 -31.206  12.723  1.00  0.00     0.100 A 
ATOM     27  O   UNL     1      35.941 -29.194  13.125  1.00  0.00    -0.289 OA
BRANCH  18  28
ATOM     28  O   UNL     1      41.001 -30.222  12.613  1.00  0.00    -0.502 OA
ATOM     29  H   UNL     1      41.907 -30.666  12.628  1.00  0.00     0.293 HD
ENDBRANCH  18  28
BRANCH  20  30
ATOM     30  O   UNL     1      38.492 -28.875  12.962  1.00  0.00    -0.504 OA
ATOM     31  H   UNL     1      38.566 -28.489  13.892  1.00  0.00     0.293 HD
ENDBRANCH  20  30
BRANCH  25  32
ATOM     32  C   UNL     1      33.883 -33.458  12.268  1.00  0.00     0.017 A 
ATOM     33  C   UNL     1      32.652 -33.150  12.880  1.00  0.00     0.012 A 
ATOM     34  C   UNL     1      34.001 -34.663  11.549  1.00  0.00     0.012 A 
ATOM     35  C   UNL     1      31.562 -34.019  12.756  1.00  0.00     0.001 A 
ATOM     36  C   UNL     1      32.908 -35.527  11.429  1.00  0.00     0.001 A 
ATOM     37  C   UNL     1      31.689 -35.204  12.029  1.00  0.00     0.000 A 
ENDBRANCH  25  32
ENDBRANCH   1  17
TORSDOF 9
ENDMDL
