MODEL 1
REMARK VINA RESULT:    -4.173      0.000      0.000
REMARK INTER + INTRA:          -7.068
REMARK INTER:                  -6.369
REMARK INTRA:                  -0.699
REMARK UNBOUND:                -0.699
REMARK SMILES CCCCCCCCCCC(=O)[O-]
REMARK SMILES IDX 7 1 8 2 9 3 10 4 11 5 12 6 13 7 6 8 5 9 4 10 3 11 2 12 1 13
REMARK H PARENT
REMARK Flexibility Score: inf
ROOT
ATOM      1  C   UNL     1      16.901 -44.337  26.683  1.00  0.00     0.000 C 
ENDROOT
BRANCH   1   2
ATOM      2  C   UNL     1      17.174 -45.512  27.635  1.00  0.00     0.000 C 
BRANCH   2   3
ATOM      3  C   UNL     1      16.825 -45.185  29.095  1.00  0.00     0.006 C 
BRANCH   3   4
ATOM      4  C   UNL     1      17.977 -44.495  29.837  1.00  0.00     0.053 C 
BRANCH   4   5
ATOM      5  C   UNL     1      17.462 -43.348  30.649  1.00  0.00     0.041 C 
ATOM      6  O   UNL     1      16.474 -42.680  30.246  1.00  0.00    -0.550 OA
ATOM      7  O   UNL     1      18.106 -42.985  31.825  1.00  0.00    -0.550 OA
ENDBRANCH   4   5
ENDBRANCH   3   4
ENDBRANCH   2   3
ENDBRANCH   1   2
BRANCH   1   8
ATOM      8  C   UNL     1      17.919 -44.316  25.533  1.00  0.00     0.000 C 
BRANCH   8   9
ATOM      9  C   UNL     1      18.596 -42.946  25.364  1.00  0.00    -0.000 C 
BRANCH   9  10
ATOM     10  C   UNL     1      18.537 -42.094  26.640  1.00  0.00    -0.000 C 
BRANCH  10  11
ATOM     11  C   UNL     1      18.332 -40.610  26.300  1.00  0.00    -0.000 C 
BRANCH  11  12
ATOM     12  C   UNL     1      18.243 -40.356  24.788  1.00  0.00    -0.003 C 
ATOM     13  C   UNL     1      18.617 -38.924  24.406  1.00  0.00     0.004 C 
ENDBRANCH  11  12
ENDBRANCH  10  11
ENDBRANCH   9  10
ENDBRANCH   8   9
ENDBRANCH   1   8
TORSDOF 9
ENDMDL
MODEL 2
REMARK VINA RESULT:    -4.172      1.549      2.803
REMARK INTER + INTRA:          -7.065
REMARK INTER:                  -5.936
REMARK INTRA:                  -1.129
REMARK UNBOUND:                -0.699
REMARK SMILES CCCCCCCCCCC(=O)[O-]
REMARK SMILES IDX 7 1 8 2 9 3 10 4 11 5 12 6 13 7 6 8 5 9 4 10 3 11 2 12 1 13
REMARK H PARENT
REMARK Flexibility Score: inf
ROOT
ATOM      1  C   UNL     1      18.113 -43.939  25.350  1.00  0.00     0.000 C 
ENDROOT
BRANCH   1   2
ATOM      2  C   UNL     1      16.658 -43.654  25.752  1.00  0.00     0.000 C 
BRANCH   2   3
ATOM      3  C   UNL     1      16.401 -43.882  27.250  1.00  0.00     0.006 C 
BRANCH   3   4
ATOM      4  C   UNL     1      17.055 -45.168  27.772  1.00  0.00     0.053 C 
BRANCH   4   5
ATOM      5  C   UNL     1      17.125 -45.149  29.267  1.00  0.00     0.041 C 
ATOM      6  O   UNL     1      18.235 -45.023  29.847  1.00  0.00    -0.550 OA
ATOM      7  O   UNL     1      15.970 -45.322  30.018  1.00  0.00    -0.550 OA
ENDBRANCH   4   5
ENDBRANCH   3   4
ENDBRANCH   2   3
ENDBRANCH   1   2
BRANCH   1   8
ATOM      8  C   UNL     1      18.969 -42.667  25.449  1.00  0.00     0.000 C 
BRANCH   8   9
ATOM      9  C   UNL     1      18.265 -41.431  24.866  1.00  0.00    -0.000 C 
BRANCH   9  10
ATOM     10  C   UNL     1      18.441 -40.181  25.741  1.00  0.00    -0.000 C 
BRANCH  10  11
ATOM     11  C   UNL     1      17.734 -40.354  27.094  1.00  0.00    -0.000 C 
BRANCH  11  12
ATOM     12  C   UNL     1      18.709 -40.313  28.280  1.00  0.00    -0.003 C 
ATOM     13  C   UNL     1      18.762 -41.635  29.047  1.00  0.00     0.004 C 
ENDBRANCH  11  12
ENDBRANCH  10  11
ENDBRANCH   9  10
ENDBRANCH   8   9
ENDBRANCH   1   8
TORSDOF 9
ENDMDL
MODEL 3
REMARK VINA RESULT:    -4.151      1.347      1.525
REMARK INTER + INTRA:          -7.034
REMARK INTER:                  -6.430
REMARK INTRA:                  -0.604
REMARK UNBOUND:                -0.699
REMARK SMILES CCCCCCCCCCC(=O)[O-]
REMARK SMILES IDX 7 1 8 2 9 3 10 4 11 5 12 6 13 7 6 8 5 9 4 10 3 11 2 12 1 13
REMARK H PARENT
REMARK Flexibility Score: inf
ROOT
ATOM      1  C   UNL     1      16.208 -44.087  27.564  1.00  0.00     0.000 C 
ENDROOT
BRANCH   1   2
ATOM      2  C   UNL     1      17.122 -45.306  27.761  1.00  0.00     0.000 C 
BRANCH   2   3
ATOM      3  C   UNL     1      17.510 -45.523  29.232  1.00  0.00     0.006 C 
BRANCH   3   4
ATOM      4  C   UNL     1      18.254 -44.323  29.830  1.00  0.00     0.053 C 
BRANCH   4   5
ATOM      5  C   UNL     1      18.626 -44.596  31.254  1.00  0.00     0.041 C 
ATOM      6  O   UNL     1      17.865 -45.279  31.988  1.00  0.00    -0.550 OA
ATOM      7  O   UNL     1      19.790 -44.053  31.784  1.00  0.00    -0.550 OA
ENDBRANCH   4   5
ENDBRANCH   3   4
ENDBRANCH   2   3
ENDBRANCH   1   2
BRANCH   1   8
ATOM      8  C   UNL     1      16.589 -43.317  26.290  1.00  0.00     0.000 C 
BRANCH   8   9
ATOM      9  C   UNL     1      17.815 -43.913  25.579  1.00  0.00    -0.000 C 
BRANCH   9  10
ATOM     10  C   UNL     1      18.890 -42.860  25.269  1.00  0.00    -0.000 C 
BRANCH  10  11
ATOM     11  C   UNL     1      18.368 -41.443  25.550  1.00  0.00    -0.000 C 
BRANCH  11  12
ATOM     12  C   UNL     1      18.252 -40.592  24.276  1.00  0.00    -0.003 C 
ATOM     13  C   UNL     1      18.433 -39.099  24.545  1.00  0.00     0.004 C 
ENDBRANCH  11  12
ENDBRANCH  10  11
ENDBRANCH   9  10
ENDBRANCH   8   9
ENDBRANCH   1   8
TORSDOF 9
ENDMDL
MODEL 4
REMARK VINA RESULT:    -4.143      1.571      2.364
REMARK INTER + INTRA:          -7.021
REMARK INTER:                  -6.116
REMARK INTRA:                  -0.906
REMARK UNBOUND:                -0.699
REMARK SMILES CCCCCCCCCCC(=O)[O-]
REMARK SMILES IDX 7 1 8 2 9 3 10 4 11 5 12 6 13 7 6 8 5 9 4 10 3 11 2 12 1 13
REMARK H PARENT
REMARK Flexibility Score: inf
ROOT
ATOM      1  C   UNL     1      17.885 -44.248  25.435  1.00  0.00     0.000 C 
ENDROOT
BRANCH   1   2
ATOM      2  C   UNL     1      16.940 -44.217  26.646  1.00  0.00     0.000 C 
BRANCH   2   3
ATOM      3  C   UNL     1      17.080 -45.459  27.540  1.00  0.00     0.006 C 
BRANCH   3   4
ATOM      4  C   UNL     1      17.424 -45.105  28.992  1.00  0.00     0.053 C 
BRANCH   4   5
ATOM      5  C   UNL     1      16.190 -45.117  29.839  1.00  0.00     0.041 C 
ATOM      6  O   UNL     1      16.262 -44.850  31.067  1.00  0.00    -0.550 OA
ATOM      7  O   UNL     1      14.969 -45.474  29.282  1.00  0.00    -0.550 OA
ENDBRANCH   4   5
ENDBRANCH   3   4
ENDBRANCH   2   3
ENDBRANCH   1   2
BRANCH   1   8
ATOM      8  C   UNL     1      18.668 -42.932  25.317  1.00  0.00     0.000 C 
BRANCH   8   9
ATOM      9  C   UNL     1      18.532 -42.045  26.564  1.00  0.00    -0.000 C 
BRANCH   9  10
ATOM     10  C   UNL     1      18.415 -40.553  26.221  1.00  0.00    -0.000 C 
BRANCH  10  11
ATOM     11  C   UNL     1      17.658 -40.352  24.899  1.00  0.00    -0.000 C 
BRANCH  11  12
ATOM     12  C   UNL     1      16.134 -40.308  25.090  1.00  0.00    -0.003 C 
ATOM     13  C   UNL     1      15.389 -41.206  24.103  1.00  0.00     0.004 C 
ENDBRANCH  11  12
ENDBRANCH  10  11
ENDBRANCH   9  10
ENDBRANCH   8   9
ENDBRANCH   1   8
TORSDOF 9
ENDMDL
MODEL 5
REMARK VINA RESULT:    -4.042      1.486      4.404
REMARK INTER + INTRA:          -6.867
REMARK INTER:                  -5.739
REMARK INTRA:                  -1.128
REMARK UNBOUND:                -0.699
REMARK SMILES CCCCCCCCCCC(=O)[O-]
REMARK SMILES IDX 7 1 8 2 9 3 10 4 11 5 12 6 13 7 6 8 5 9 4 10 3 11 2 12 1 13
REMARK H PARENT
REMARK Flexibility Score: inf
ROOT
ATOM      1  C   UNL     1      17.722 -41.160  25.381  1.00  0.00     0.000 C 
ENDROOT
BRANCH   1   2
ATOM      2  C   UNL     1      18.450 -39.893  25.855  1.00  0.00     0.000 C 
BRANCH   2   3
ATOM      3  C   UNL     1      18.643 -39.856  27.379  1.00  0.00     0.006 C 
BRANCH   3   4
ATOM      4  C   UNL     1      17.530 -40.593  28.134  1.00  0.00     0.053 C 
BRANCH   4   5
ATOM      5  C   UNL     1      18.114 -41.487  29.183  1.00  0.00     0.041 C 
ATOM      6  O   UNL     1      18.978 -42.348  28.871  1.00  0.00    -0.550 OA
ATOM      7  O   UNL     1      17.667 -41.403  30.495  1.00  0.00    -0.550 OA
ENDBRANCH   4   5
ENDBRANCH   3   4
ENDBRANCH   2   3
ENDBRANCH   1   2
BRANCH   1   8
ATOM      8  C   UNL     1      18.708 -42.324  25.199  1.00  0.00     0.000 C 
BRANCH   8   9
ATOM      9  C   UNL     1      18.117 -43.677  25.629  1.00  0.00    -0.000 C 
BRANCH   9  10
ATOM     10  C   UNL     1      16.615 -43.596  25.938  1.00  0.00    -0.000 C 
BRANCH  10  11
ATOM     11  C   UNL     1      16.305 -44.205  27.314  1.00  0.00    -0.000 C 
BRANCH  11  12
ATOM     12  C   UNL     1      17.217 -45.393  27.655  1.00  0.00    -0.003 C 
ATOM     13  C   UNL     1      17.519 -45.497  29.150  1.00  0.00     0.004 C 
ENDBRANCH  11  12
ENDBRANCH  10  11
ENDBRANCH   9  10
ENDBRANCH   8   9
ENDBRANCH   1   8
TORSDOF 9
ENDMDL
MODEL 6
REMARK VINA RESULT:    -4.034      3.014      6.054
REMARK INTER + INTRA:          -6.855
REMARK INTER:                  -6.147
REMARK INTRA:                  -0.709
REMARK UNBOUND:                -0.699
REMARK SMILES CCCCCCCCCCC(=O)[O-]
REMARK SMILES IDX 7 1 8 2 9 3 10 4 11 5 12 6 13 7 6 8 5 9 4 10 3 11 2 12 1 13
REMARK H PARENT
REMARK Flexibility Score: inf
ROOT
ATOM      1  C   UNL     1      18.610 -42.056  26.697  1.00  0.00     0.000 C 
ENDROOT
BRANCH   1   2
ATOM      2  C   UNL     1      18.400 -40.559  26.426  1.00  0.00     0.000 C 
BRANCH   2   3
ATOM      3  C   UNL     1      17.975 -40.273  24.977  1.00  0.00     0.006 C 
BRANCH   3   4
ATOM      4  C   UNL     1      18.099 -38.789  24.608  1.00  0.00     0.053 C 
BRANCH   4   5
ATOM      5  C   UNL     1      16.752 -38.138  24.605  1.00  0.00     0.041 C 
ATOM      6  O   UNL     1      16.621 -36.956  24.193  1.00  0.00    -0.550 OA
ATOM      7  O   UNL     1      15.650 -38.819  25.106  1.00  0.00    -0.550 OA
ENDBRANCH   4   5
ENDBRANCH   3   4
ENDBRANCH   2   3
ENDBRANCH   1   2
BRANCH   1   8
ATOM      8  C   UNL     1      18.663 -42.849  25.382  1.00  0.00     0.000 C 
BRANCH   8   9
ATOM      9  C   UNL     1      17.918 -44.191  25.467  1.00  0.00    -0.000 C 
BRANCH   9  10
ATOM     10  C   UNL     1      16.947 -44.256  26.655  1.00  0.00    -0.000 C 
BRANCH  10  11
ATOM     11  C   UNL     1      17.169 -45.535  27.477  1.00  0.00    -0.000 C 
BRANCH  11  12
ATOM     12  C   UNL     1      17.526 -45.242  28.942  1.00  0.00    -0.003 C 
ATOM     13  C   UNL     1      16.759 -44.048  29.510  1.00  0.00     0.004 C 
ENDBRANCH  11  12
ENDBRANCH  10  11
ENDBRANCH   9  10
ENDBRANCH   8   9
ENDBRANCH   1   8
TORSDOF 9
ENDMDL
MODEL 7
REMARK VINA RESULT:    -4.019      2.811      5.094
REMARK INTER + INTRA:          -6.832
REMARK INTER:                  -5.942
REMARK INTRA:                  -0.890
REMARK UNBOUND:                -0.699
REMARK SMILES CCCCCCCCCCC(=O)[O-]
REMARK SMILES IDX 7 1 8 2 9 3 10 4 11 5 12 6 13 7 6 8 5 9 4 10 3 11 2 12 1 13
REMARK H PARENT
REMARK Flexibility Score: inf
ROOT
ATOM      1  C   UNL     1      17.645 -44.469  25.718  1.00  0.00     0.000 C 
ENDROOT
BRANCH   1   2
ATOM      2  C   UNL     1      18.593 -43.312  25.372  1.00  0.00     0.000 C 
BRANCH   2   3
ATOM      3  C   UNL     1      18.085 -41.955  25.886  1.00  0.00     0.006 C 
BRANCH   3   4
ATOM      4  C   UNL     1      17.870 -40.939  24.757  1.00  0.00     0.053 C 
BRANCH   4   5
ATOM      5  C   UNL     1      18.431 -39.606  25.141  1.00  0.00     0.041 C 
ATOM      6  O   UNL     1      18.689 -38.749  24.256  1.00  0.00    -0.550 OA
ATOM      7  O   UNL     1      18.714 -39.329  26.472  1.00  0.00    -0.550 OA
ENDBRANCH   4   5
ENDBRANCH   3   4
ENDBRANCH   2   3
ENDBRANCH   1   2
BRANCH   1   8
ATOM      8  C   UNL     1      16.961 -44.231  27.074  1.00  0.00     0.000 C 
BRANCH   8   9
ATOM      9  C   UNL     1      17.127 -45.416  28.039  1.00  0.00    -0.000 C 
BRANCH   9  10
ATOM     10  C   UNL     1      17.659 -44.989  29.415  1.00  0.00    -0.000 C 
BRANCH  10  11
ATOM     11  C   UNL     1      17.656 -43.459  29.554  1.00  0.00    -0.000 C 
BRANCH  11  12
ATOM     12  C   UNL     1      19.050 -42.889  29.856  1.00  0.00    -0.003 C 
ATOM     13  C   UNL     1      19.204 -41.435  29.410  1.00  0.00     0.004 C 
ENDBRANCH  11  12
ENDBRANCH  10  11
ENDBRANCH   9  10
ENDBRANCH   8   9
ENDBRANCH   1   8
TORSDOF 9
ENDMDL
MODEL 8
REMARK VINA RESULT:    -3.960      2.158      3.330
REMARK INTER + INTRA:          -6.743
REMARK INTER:                  -6.006
REMARK INTRA:                  -0.736
REMARK UNBOUND:                -0.699
REMARK SMILES CCCCCCCCCCC(=O)[O-]
REMARK SMILES IDX 7 1 8 2 9 3 10 4 11 5 12 6 13 7 6 8 5 9 4 10 3 11 2 12 1 13
REMARK H PARENT
REMARK Flexibility Score: inf
ROOT
ATOM      1  C   UNL     1      18.743 -42.534  25.900  1.00  0.00     0.000 C 
ENDROOT
BRANCH   1   2
ATOM      2  C   UNL     1      17.897 -43.786  25.625  1.00  0.00     0.000 C 
BRANCH   2   3
ATOM      3  C   UNL     1      16.495 -43.702  26.249  1.00  0.00     0.006 C 
BRANCH   3   4
ATOM      4  C   UNL     1      16.535 -43.589  27.778  1.00  0.00     0.053 C 
BRANCH   4   5
ATOM      5  C   UNL     1      16.481 -44.947  28.403  1.00  0.00     0.041 C 
ATOM      6  O   UNL     1      17.545 -45.551  28.699  1.00  0.00    -0.550 OA
ATOM      7  O   UNL     1      15.256 -45.568  28.613  1.00  0.00    -0.550 OA
ENDBRANCH   4   5
ENDBRANCH   3   4
ENDBRANCH   2   3
ENDBRANCH   1   2
BRANCH   1   8
ATOM      8  C   UNL     1      18.529 -41.476  24.807  1.00  0.00     0.000 C 
BRANCH   8   9
ATOM      9  C   UNL     1      18.239 -40.079  25.381  1.00  0.00    -0.000 C 
BRANCH   9  10
ATOM     10  C   UNL     1      17.708 -40.129  26.821  1.00  0.00    -0.000 C 
BRANCH  10  11
ATOM     11  C   UNL     1      18.111 -38.866  27.598  1.00  0.00    -0.000 C 
BRANCH  11  12
ATOM     12  C   UNL     1      19.190 -39.141  28.656  1.00  0.00    -0.003 C 
ATOM     13  C   UNL     1      20.221 -38.018  28.755  1.00  0.00     0.004 C 
ENDBRANCH  11  12
ENDBRANCH  10  11
ENDBRANCH   9  10
ENDBRANCH   8   9
ENDBRANCH   1   8
TORSDOF 9
ENDMDL
MODEL 9
REMARK VINA RESULT:    -3.929      1.587      3.654
REMARK INTER + INTRA:          -6.694
REMARK INTER:                  -5.335
REMARK INTRA:                  -1.359
REMARK UNBOUND:                -0.699
REMARK SMILES CCCCCCCCCCC(=O)[O-]
REMARK SMILES IDX 7 1 8 2 9 3 10 4 11 5 12 6 13 7 6 8 5 9 4 10 3 11 2 12 1 13
REMARK H PARENT
REMARK Flexibility Score: inf
ROOT
ATOM      1  C   UNL     1      17.796 -39.637  26.511  1.00  0.00     0.000 C 
ENDROOT
BRANCH   1   2
ATOM      2  C   UNL     1      18.631 -39.881  27.777  1.00  0.00     0.000 C 
BRANCH   2   3
ATOM      3  C   UNL     1      18.052 -40.996  28.663  1.00  0.00     0.006 C 
BRANCH   3   4
ATOM      4  C   UNL     1      19.063 -42.118  28.935  1.00  0.00     0.053 C 
BRANCH   4   5
ATOM      5  C   UNL     1      18.543 -43.045  29.988  1.00  0.00     0.041 C 
ATOM      6  O   UNL     1      18.292 -44.245  29.707  1.00  0.00    -0.550 OA
ATOM      7  O   UNL     1      18.289 -42.569  31.268  1.00  0.00    -0.550 OA
ENDBRANCH   4   5
ENDBRANCH   3   4
ENDBRANCH   2   3
ENDBRANCH   1   2
BRANCH   1   8
ATOM      8  C   UNL     1      18.599 -39.987  25.249  1.00  0.00     0.000 C 
BRANCH   8   9
ATOM      9  C   UNL     1      18.148 -41.308  24.605  1.00  0.00    -0.000 C 
BRANCH   9  10
ATOM     10  C   UNL     1      18.922 -42.522  25.138  1.00  0.00    -0.000 C 
BRANCH  10  11
ATOM     11  C   UNL     1      17.961 -43.588  25.686  1.00  0.00    -0.000 C 
BRANCH  11  12
ATOM     12  C   UNL     1      16.505 -43.101  25.740  1.00  0.00    -0.003 C 
ATOM     13  C   UNL     1      15.811 -43.460  27.054  1.00  0.00     0.004 C 
ENDBRANCH  11  12
ENDBRANCH  10  11
ENDBRANCH   9  10
ENDBRANCH   8   9
ENDBRANCH   1   8
TORSDOF 9
ENDMDL
