MODEL 1
REMARK VINA RESULT:    -7.058      0.000      0.000
REMARK INTER + INTRA:          -8.564
REMARK INTER:                  -8.296
REMARK INTRA:                  -0.268
REMARK UNBOUND:                -0.268
REMARK SMILES O=c1cc(-c2ccc(O)c(O)c2)oc2cc(O)cc(O)c12
REMARK SMILES IDX 4 1 3 2 2 3 1 4 21 5 19 6 18 7 16 8 15 9 14 10 13 11 5 12
REMARK SMILES IDX 6 13 7 14 8 15 12 16 10 17 9 18 11 20 20 22 17 24
REMARK H PARENT 9 19 11 21 20 23 17 25
REMARK Flexibility Score: inf
ROOT
ATOM      1  C   UNL     1     117.458 122.485 116.310  1.00  0.00     0.138 A 
ATOM      2  C   UNL     1     118.423 122.239 115.320  1.00  0.00     0.100 A 
ATOM      3  C   UNL     1     118.016 122.044 113.999  1.00  0.00     0.197 A 
ATOM      4  O   UNL     1     118.890 121.825 113.117  1.00  0.00    -0.289 OA
ATOM      5  C   UNL     1     116.646 122.100 113.677  1.00  0.00     0.107 A 
ATOM      6  C   UNL     1     116.149 121.911 112.365  1.00  0.00     0.134 A 
ATOM      7  C   UNL     1     114.769 121.987 112.127  1.00  0.00     0.093 A 
ATOM      8  C   UNL     1     113.878 122.248 113.171  1.00  0.00     0.123 A 
ATOM      9  C   UNL     1     114.364 122.434 114.470  1.00  0.00     0.094 A 
ATOM     10  C   UNL     1     115.735 122.362 114.729  1.00  0.00     0.146 A 
ATOM     11  O   UNL     1     116.172 122.541 115.971  1.00  0.00    -0.456 OA
ENDROOT
BRANCH   1  12
ATOM     12  C   UNL     1     117.831 122.703 117.731  1.00  0.00     0.021 A 
ATOM     13  C   UNL     1     117.285 121.922 118.766  1.00  0.00     0.016 A 
ATOM     14  C   UNL     1     117.646 122.156 120.096  1.00  0.00     0.051 A 
ATOM     15  C   UNL     1     118.553 123.176 120.414  1.00  0.00     0.157 A 
ATOM     16  C   UNL     1     118.729 123.733 118.061  1.00  0.00     0.062 A 
ATOM     17  C   UNL     1     119.094 123.969 119.391  1.00  0.00     0.158 A 
BRANCH  15  18
ATOM     18  O   UNL     1     118.912 123.404 121.742  1.00  0.00    -0.504 OA
ATOM     19  H   UNL     1     119.788 123.065 122.121  1.00  0.00     0.293 HD
ENDBRANCH  15  18
BRANCH  17  20
ATOM     20  O   UNL     1     119.996 124.994 119.675  1.00  0.00    -0.504 OA
ATOM     21  H   UNL     1     119.771 125.747 120.314  1.00  0.00     0.293 HD
ENDBRANCH  17  20
ENDBRANCH   1  12
BRANCH   6  22
ATOM     22  O   UNL     1     117.014 121.650 111.301  1.00  0.00    -0.507 OA
ATOM     23  H   UNL     1     117.824 121.051 111.408  1.00  0.00     0.293 HD
ENDBRANCH   6  22
BRANCH   8  24
ATOM     24  O   UNL     1     112.512 122.318 112.907  1.00  0.00    -0.508 OA
ATOM     25  H   UNL     1     111.935 123.053 113.298  1.00  0.00     0.293 HD
ENDBRANCH   8  24
TORSDOF 5
ENDMDL
MODEL 2
REMARK VINA RESULT:    -7.026      5.564      6.227
REMARK INTER + INTRA:          -8.526
REMARK INTER:                  -8.259
REMARK INTRA:                  -0.268
REMARK UNBOUND:                -0.268
REMARK SMILES O=c1cc(-c2ccc(O)c(O)c2)oc2cc(O)cc(O)c12
REMARK SMILES IDX 4 1 3 2 2 3 1 4 21 5 19 6 18 7 16 8 15 9 14 10 13 11 5 12
REMARK SMILES IDX 6 13 7 14 8 15 12 16 10 17 9 18 11 20 20 22 17 24
REMARK H PARENT 9 19 11 21 20 23 17 25
REMARK Flexibility Score: inf
ROOT
ATOM      1  C   UNL     1     116.560 117.517 116.326  1.00  0.00     0.138 A 
ATOM      2  C   UNL     1     116.809 118.481 115.335  1.00  0.00     0.100 A 
ATOM      3  C   UNL     1     117.001 118.075 114.014  1.00  0.00     0.197 A 
ATOM      4  O   UNL     1     117.223 118.949 113.132  1.00  0.00    -0.289 OA
ATOM      5  C   UNL     1     116.942 116.704 113.692  1.00  0.00     0.107 A 
ATOM      6  C   UNL     1     117.128 116.208 112.379  1.00  0.00     0.134 A 
ATOM      7  C   UNL     1     117.047 114.828 112.140  1.00  0.00     0.093 A 
ATOM      8  C   UNL     1     116.784 113.938 113.185  1.00  0.00     0.123 A 
ATOM      9  C   UNL     1     116.601 114.423 114.483  1.00  0.00     0.094 A 
ATOM     10  C   UNL     1     116.677 115.794 114.743  1.00  0.00     0.146 A 
ATOM     11  O   UNL     1     116.500 116.231 115.986  1.00  0.00    -0.456 OA
ENDROOT
BRANCH   1  12
ATOM     12  C   UNL     1     116.345 117.890 117.746  1.00  0.00     0.021 A 
ATOM     13  C   UNL     1     117.136 117.353 118.780  1.00  0.00     0.016 A 
ATOM     14  C   UNL     1     116.904 117.714 120.110  1.00  0.00     0.051 A 
ATOM     15  C   UNL     1     115.876 118.610 120.431  1.00  0.00     0.157 A 
ATOM     16  C   UNL     1     115.307 118.778 118.080  1.00  0.00     0.062 A 
ATOM     17  C   UNL     1     115.073 119.142 119.410  1.00  0.00     0.158 A 
BRANCH  15  18
ATOM     18  O   UNL     1     115.649 118.969 121.759  1.00  0.00    -0.504 OA
ATOM     19  H   UNL     1     116.361 119.430 122.314  1.00  0.00     0.293 HD
ENDBRANCH  15  18
BRANCH  17  20
ATOM     20  O   UNL     1     114.040 120.034 119.697  1.00  0.00    -0.504 OA
ATOM     21  H   UNL     1     113.985 120.950 119.268  1.00  0.00     0.293 HD
ENDBRANCH  17  20
ENDBRANCH   1  12
BRANCH   6  22
ATOM     22  O   UNL     1     117.391 117.072 111.316  1.00  0.00    -0.507 OA
ATOM     23  H   UNL     1     117.765 116.737 110.436  1.00  0.00     0.293 HD
ENDBRANCH   6  22
BRANCH   8  24
ATOM     24  O   UNL     1     116.710 112.572 112.919  1.00  0.00    -0.508 OA
ATOM     25  H   UNL     1     117.418 111.929 113.253  1.00  0.00     0.293 HD
ENDBRANCH   8  24
TORSDOF 5
ENDMDL
MODEL 3
REMARK VINA RESULT:    -7.026      5.628      6.295
REMARK INTER + INTRA:          -8.526
REMARK INTER:                  -8.258
REMARK INTRA:                  -0.268
REMARK UNBOUND:                -0.268
REMARK SMILES O=c1cc(-c2ccc(O)c(O)c2)oc2cc(O)cc(O)c12
REMARK SMILES IDX 4 1 3 2 2 3 1 4 21 5 19 6 18 7 16 8 15 9 14 10 13 11 5 12
REMARK SMILES IDX 6 13 7 14 8 15 12 16 10 17 9 18 11 20 20 22 17 24
REMARK H PARENT 9 19 11 21 20 23 17 25
REMARK Flexibility Score: inf
ROOT
ATOM      1  C   UNL     1     122.496 121.520 116.302  1.00  0.00     0.138 A 
ATOM      2  C   UNL     1     122.245 120.557 115.310  1.00  0.00     0.100 A 
ATOM      3  C   UNL     1     122.046 120.967 113.991  1.00  0.00     0.197 A 
ATOM      4  O   UNL     1     121.822 120.094 113.108  1.00  0.00    -0.289 OA
ATOM      5  C   UNL     1     122.102 122.338 113.672  1.00  0.00     0.107 A 
ATOM      6  C   UNL     1     121.909 122.837 112.361  1.00  0.00     0.134 A 
ATOM      7  C   UNL     1     121.986 124.218 112.125  1.00  0.00     0.093 A 
ATOM      8  C   UNL     1     122.252 125.106 113.170  1.00  0.00     0.123 A 
ATOM      9  C   UNL     1     122.442 124.618 114.467  1.00  0.00     0.094 A 
ATOM     10  C   UNL     1     122.369 123.246 114.724  1.00  0.00     0.146 A 
ATOM     11  O   UNL     1     122.552 122.807 115.965  1.00  0.00    -0.456 OA
ENDROOT
BRANCH   1  12
ATOM     12  C   UNL     1     122.718 121.144 117.721  1.00  0.00     0.021 A 
ATOM     13  C   UNL     1     121.941 121.688 118.760  1.00  0.00     0.016 A 
ATOM     14  C   UNL     1     122.179 121.323 120.088  1.00  0.00     0.051 A 
ATOM     15  C   UNL     1     123.201 120.417 120.401  1.00  0.00     0.157 A 
ATOM     16  C   UNL     1     123.751 120.245 118.046  1.00  0.00     0.062 A 
ATOM     17  C   UNL     1     123.991 119.878 119.374  1.00  0.00     0.158 A 
BRANCH  15  18
ATOM     18  O   UNL     1     123.434 120.055 121.728  1.00  0.00    -0.504 OA
ATOM     19  H   UNL     1     122.701 120.099 122.427  1.00  0.00     0.293 HD
ENDBRANCH  15  18
BRANCH  17  20
ATOM     20  O   UNL     1     125.017 118.976 119.653  1.00  0.00    -0.504 OA
ATOM     21  H   UNL     1     125.042 118.437 120.510  1.00  0.00     0.293 HD
ENDBRANCH  17  20
ENDBRANCH   1  12
BRANCH   6  22
ATOM     22  O   UNL     1     121.643 121.975 111.297  1.00  0.00    -0.507 OA
ATOM     23  H   UNL     1     122.370 121.410 110.874  1.00  0.00     0.293 HD
ENDBRANCH   6  22
BRANCH   8  24
ATOM     24  O   UNL     1     122.323 126.472 112.908  1.00  0.00    -0.508 OA
ATOM     25  H   UNL     1     123.203 126.924 112.689  1.00  0.00     0.293 HD
ENDBRANCH   8  24
TORSDOF 5
ENDMDL
MODEL 4
REMARK VINA RESULT:    -7.022      7.385      8.981
REMARK INTER + INTRA:          -8.521
REMARK INTER:                  -8.254
REMARK INTRA:                  -0.268
REMARK UNBOUND:                -0.268
REMARK SMILES O=c1cc(-c2ccc(O)c(O)c2)oc2cc(O)cc(O)c12
REMARK SMILES IDX 4 1 3 2 2 3 1 4 21 5 19 6 18 7 16 8 15 9 14 10 13 11 5 12
REMARK SMILES IDX 6 13 7 14 8 15 12 16 10 17 9 18 11 20 20 22 17 24
REMARK H PARENT 9 19 11 21 20 23 17 25
REMARK Flexibility Score: inf
ROOT
ATOM      1  C   UNL     1     121.742 116.560 116.200  1.00  0.00     0.138 A 
ATOM      2  C   UNL     1     120.790 116.822 115.200  1.00  0.00     0.100 A 
ATOM      3  C   UNL     1     121.213 117.016 113.884  1.00  0.00     0.197 A 
ATOM      4  O   UNL     1     120.350 117.250 112.994  1.00  0.00    -0.289 OA
ATOM      5  C   UNL     1     122.586 116.943 113.576  1.00  0.00     0.107 A 
ATOM      6  C   UNL     1     123.097 117.130 112.269  1.00  0.00     0.134 A 
ATOM      7  C   UNL     1     124.479 117.036 112.045  1.00  0.00     0.093 A 
ATOM      8  C   UNL     1     125.356 116.760 113.097  1.00  0.00     0.123 A 
ATOM      9  C   UNL     1     124.855 116.576 114.390  1.00  0.00     0.094 A 
ATOM     10  C   UNL     1     123.482 116.666 114.636  1.00  0.00     0.146 A 
ATOM     11  O   UNL     1     123.031 116.489 115.873  1.00  0.00    -0.456 OA
ENDROOT
BRANCH   1  12
ATOM     12  C   UNL     1     121.351 116.343 117.616  1.00  0.00     0.021 A 
ATOM     13  C   UNL     1     121.888 117.123 118.658  1.00  0.00     0.016 A 
ATOM     14  C   UNL     1     121.510 116.890 119.983  1.00  0.00     0.051 A 
ATOM     15  C   UNL     1     120.598 115.871 120.291  1.00  0.00     0.157 A 
ATOM     16  C   UNL     1     120.448 115.314 117.935  1.00  0.00     0.062 A 
ATOM     17  C   UNL     1     120.066 115.080 119.261  1.00  0.00     0.158 A 
BRANCH  15  18
ATOM     18  O   UNL     1     120.223 115.643 121.614  1.00  0.00    -0.504 OA
ATOM     19  H   UNL     1     119.248 115.602 121.890  1.00  0.00     0.293 HD
ENDBRANCH  15  18
BRANCH  17  20
ATOM     20  O   UNL     1     119.159 114.056 119.534  1.00  0.00    -0.504 OA
ATOM     21  H   UNL     1     119.133 113.202 118.991  1.00  0.00     0.293 HD
ENDBRANCH  17  20
ENDBRANCH   1  12
BRANCH   6  22
ATOM     22  O   UNL     1     122.247 117.405 111.198  1.00  0.00    -0.507 OA
ATOM     23  H   UNL     1     122.035 118.356 110.917  1.00  0.00     0.293 HD
ENDBRANCH   6  22
BRANCH   8  24
ATOM     24  O   UNL     1     126.723 116.672 112.846  1.00  0.00    -0.508 OA
ATOM     25  H   UNL     1     127.099 116.800 111.913  1.00  0.00     0.293 HD
ENDBRANCH   8  24
TORSDOF 5
ENDMDL
MODEL 5
REMARK VINA RESULT:    -6.709      1.734      6.908
REMARK INTER + INTRA:          -8.153
REMARK INTER:                  -7.836
REMARK INTRA:                  -0.318
REMARK UNBOUND:                -0.268
REMARK SMILES O=c1cc(-c2ccc(O)c(O)c2)oc2cc(O)cc(O)c12
REMARK SMILES IDX 4 1 3 2 2 3 1 4 21 5 19 6 18 7 16 8 15 9 14 10 13 11 5 12
REMARK SMILES IDX 6 13 7 14 8 15 12 16 10 17 9 18 11 20 20 22 17 24
REMARK H PARENT 9 19 11 21 20 23 17 25
REMARK Flexibility Score: inf
ROOT
ATOM      1  C   UNL     1     118.029 122.386 115.967  1.00  0.00     0.138 A 
ATOM      2  C   UNL     1     119.396 122.310 115.653  1.00  0.00     0.100 A 
ATOM      3  C   UNL     1     120.341 122.398 116.677  1.00  0.00     0.197 A 
ATOM      4  O   UNL     1     121.566 122.328 116.384  1.00  0.00    -0.289 OA
ATOM      5  C   UNL     1     119.911 122.558 118.008  1.00  0.00     0.107 A 
ATOM      6  C   UNL     1     120.803 122.658 119.104  1.00  0.00     0.134 A 
ATOM      7  C   UNL     1     120.294 122.811 120.402  1.00  0.00     0.093 A 
ATOM      8  C   UNL     1     118.916 122.866 120.626  1.00  0.00     0.123 A 
ATOM      9  C   UNL     1     118.031 122.768 119.547  1.00  0.00     0.094 A 
ATOM     10  C   UNL     1     118.517 122.616 118.246  1.00  0.00     0.146 A 
ATOM     11  O   UNL     1     117.656 122.527 117.237  1.00  0.00    -0.456 OA
ENDROOT
BRANCH   1  12
ATOM     12  C   UNL     1     116.979 122.296 114.921  1.00  0.00     0.021 A 
ATOM     13  C   UNL     1     117.293 121.987 113.584  1.00  0.00     0.016 A 
ATOM     14  C   UNL     1     116.285 121.919 112.618  1.00  0.00     0.051 A 
ATOM     15  C   UNL     1     114.951 122.166 112.968  1.00  0.00     0.157 A 
ATOM     16  C   UNL     1     115.639 122.555 115.260  1.00  0.00     0.062 A 
ATOM     17  C   UNL     1     114.628 122.487 114.296  1.00  0.00     0.158 A 
BRANCH  15  18
ATOM     18  O   UNL     1     113.948 122.096 112.001  1.00  0.00    -0.504 OA
ATOM     19  H   UNL     1     113.111 122.663 112.062  1.00  0.00     0.293 HD
ENDBRANCH  15  18
BRANCH  17  20
ATOM     20  O   UNL     1     113.311 122.741 114.676  1.00  0.00    -0.504 OA
ATOM     21  H   UNL     1     113.084 123.261 115.515  1.00  0.00     0.293 HD
ENDBRANCH  17  20
ENDBRANCH   1  12
BRANCH   6  22
ATOM     22  O   UNL     1     122.184 122.606 118.912  1.00  0.00    -0.507 OA
ATOM     23  H   UNL     1     122.810 123.261 119.364  1.00  0.00     0.293 HD
ENDBRANCH   6  22
BRANCH   8  24
ATOM     24  O   UNL     1     118.438 123.018 121.925  1.00  0.00    -0.508 OA
ATOM     25  H   UNL     1     117.544 123.459 122.112  1.00  0.00     0.293 HD
ENDBRANCH   8  24
TORSDOF 5
ENDMDL
MODEL 6
REMARK VINA RESULT:    -6.685      4.968      8.142
REMARK INTER + INTRA:          -8.126
REMARK INTER:                  -7.808
REMARK INTRA:                  -0.318
REMARK UNBOUND:                -0.268
REMARK SMILES O=c1cc(-c2ccc(O)c(O)c2)oc2cc(O)cc(O)c12
REMARK SMILES IDX 4 1 3 2 2 3 1 4 21 5 19 6 18 7 16 8 15 9 14 10 13 11 5 12
REMARK SMILES IDX 6 13 7 14 8 15 12 16 10 17 9 18 11 20 20 22 17 24
REMARK H PARENT 9 19 11 21 20 23 17 25
REMARK Flexibility Score: inf
ROOT
ATOM      1  C   UNL     1     116.657 118.139 116.031  1.00  0.00     0.138 A 
ATOM      2  C   UNL     1     116.688 119.511 115.732  1.00  0.00     0.100 A 
ATOM      3  C   UNL     1     116.558 120.441 116.764  1.00  0.00     0.197 A 
ATOM      4  O   UNL     1     116.588 121.671 116.485  1.00  0.00    -0.289 OA
ATOM      5  C   UNL     1     116.400 119.992 118.090  1.00  0.00     0.107 A 
ATOM      6  C   UNL     1     116.260 120.869 119.193  1.00  0.00     0.134 A 
ATOM      7  C   UNL     1     116.113 120.341 120.484  1.00  0.00     0.093 A 
ATOM      8  C   UNL     1     116.104 118.959 120.694  1.00  0.00     0.123 A 
ATOM      9  C   UNL     1     116.242 118.090 119.607  1.00  0.00     0.094 A 
ATOM     10  C   UNL     1     116.389 118.594 118.312  1.00  0.00     0.146 A 
ATOM     11  O   UNL     1     116.517 117.748 117.296  1.00  0.00    -0.456 OA
ENDROOT
BRANCH   1  12
ATOM     12  C   UNL     1     116.794 117.104 114.975  1.00  0.00     0.021 A 
ATOM     13  C   UNL     1     117.083 117.443 113.640  1.00  0.00     0.016 A 
ATOM     14  C   UNL     1     117.195 116.448 112.665  1.00  0.00     0.051 A 
ATOM     15  C   UNL     1     117.013 115.101 113.003  1.00  0.00     0.157 A 
ATOM     16  C   UNL     1     116.599 115.750 115.303  1.00  0.00     0.062 A 
ATOM     17  C   UNL     1     116.712 114.752 114.329  1.00  0.00     0.158 A 
BRANCH  15  18
ATOM     18  O   UNL     1     117.128 114.112 112.027  1.00  0.00    -0.504 OA
ATOM     19  H   UNL     1     117.242 113.135 112.272  1.00  0.00     0.293 HD
ENDBRANCH  15  18
BRANCH  17  20
ATOM     20  O   UNL     1     116.522 113.421 114.698  1.00  0.00    -0.504 OA
ATOM     21  H   UNL     1     116.026 112.764 114.108  1.00  0.00     0.293 HD
ENDBRANCH  17  20
ENDBRANCH   1  12
BRANCH   6  22
ATOM     22  O   UNL     1     116.265 122.252 119.016  1.00  0.00    -0.507 OA
ATOM     23  H   UNL     1     115.580 122.717 118.431  1.00  0.00     0.293 HD
ENDBRANCH   6  22
BRANCH   8  24
ATOM     24  O   UNL     1     115.956 118.462 121.987  1.00  0.00    -0.508 OA
ATOM     25  H   UNL     1     115.915 119.080 122.789  1.00  0.00     0.293 HD
ENDBRANCH   8  24
TORSDOF 5
ENDMDL
MODEL 7
REMARK VINA RESULT:    -6.681      7.033      9.589
REMARK INTER + INTRA:          -8.121
REMARK INTER:                  -7.803
REMARK INTRA:                  -0.318
REMARK UNBOUND:                -0.268
REMARK SMILES O=c1cc(-c2ccc(O)c(O)c2)oc2cc(O)cc(O)c12
REMARK SMILES IDX 4 1 3 2 2 3 1 4 21 5 19 6 18 7 16 8 15 9 14 10 13 11 5 12
REMARK SMILES IDX 6 13 7 14 8 15 12 16 10 17 9 18 11 20 20 22 17 24
REMARK H PARENT 9 19 11 21 20 23 17 25
REMARK Flexibility Score: inf
ROOT
ATOM      1  C   UNL     1     121.070 116.652 115.976  1.00  0.00     0.138 A 
ATOM      2  C   UNL     1     119.701 116.701 115.664  1.00  0.00     0.100 A 
ATOM      3  C   UNL     1     118.759 116.587 116.688  1.00  0.00     0.197 A 
ATOM      4  O   UNL     1     117.533 116.632 116.398  1.00  0.00    -0.289 OA
ATOM      5  C   UNL     1     119.194 116.427 118.019  1.00  0.00     0.107 A 
ATOM      6  C   UNL     1     118.306 116.302 119.114  1.00  0.00     0.134 A 
ATOM      7  C   UNL     1     118.819 116.151 120.411  1.00  0.00     0.093 A 
ATOM      8  C   UNL     1     120.199 116.125 120.633  1.00  0.00     0.123 A 
ATOM      9  C   UNL     1     121.080 116.247 119.554  1.00  0.00     0.094 A 
ATOM     10  C   UNL     1     120.589 116.397 118.254  1.00  0.00     0.146 A 
ATOM     11  O   UNL     1     121.447 116.511 117.245  1.00  0.00    -0.456 OA
ENDROOT
BRANCH   1  12
ATOM     12  C   UNL     1     122.116 116.771 114.930  1.00  0.00     0.021 A 
ATOM     13  C   UNL     1     121.796 117.086 113.596  1.00  0.00     0.016 A 
ATOM     14  C   UNL     1     122.801 117.182 112.630  1.00  0.00     0.051 A 
ATOM     15  C   UNL     1     124.139 116.956 112.976  1.00  0.00     0.157 A 
ATOM     16  C   UNL     1     123.461 116.533 115.265  1.00  0.00     0.062 A 
ATOM     17  C   UNL     1     124.470 116.629 114.300  1.00  0.00     0.158 A 
BRANCH  15  18
ATOM     18  O   UNL     1     125.139 117.054 112.008  1.00  0.00    -0.504 OA
ATOM     19  H   UNL     1     126.121 117.046 112.257  1.00  0.00     0.293 HD
ENDBRANCH  15  18
BRANCH  17  20
ATOM     20  O   UNL     1     125.792 116.395 114.676  1.00  0.00    -0.504 OA
ATOM     21  H   UNL     1     126.440 115.893 114.081  1.00  0.00     0.293 HD
ENDBRANCH  17  20
ENDBRANCH   1  12
BRANCH   6  22
ATOM     22  O   UNL     1     116.924 116.325 118.924  1.00  0.00    -0.507 OA
ATOM     23  H   UNL     1     116.466 117.084 118.433  1.00  0.00     0.293 HD
ENDBRANCH   6  22
BRANCH   8  24
ATOM     24  O   UNL     1     120.682 115.974 121.931  1.00  0.00    -0.508 OA
ATOM     25  H   UNL     1     120.855 116.775 122.527  1.00  0.00     0.293 HD
ENDBRANCH   8  24
TORSDOF 5
ENDMDL
MODEL 8
REMARK VINA RESULT:    -6.681      5.950      8.462
REMARK INTER + INTRA:          -8.120
REMARK INTER:                  -7.803
REMARK INTRA:                  -0.317
REMARK UNBOUND:                -0.268
REMARK SMILES O=c1cc(-c2ccc(O)c(O)c2)oc2cc(O)cc(O)c12
REMARK SMILES IDX 4 1 3 2 2 3 1 4 21 5 19 6 18 7 16 8 15 9 14 10 13 11 5 12
REMARK SMILES IDX 6 13 7 14 8 15 12 16 10 17 9 18 11 20 20 22 17 24
REMARK H PARENT 9 19 11 21 20 23 17 25
REMARK Flexibility Score: inf
ROOT
ATOM      1  C   UNL     1     122.394 121.118 115.964  1.00  0.00     0.138 A 
ATOM      2  C   UNL     1     122.324 119.751 115.646  1.00  0.00     0.100 A 
ATOM      3  C   UNL     1     122.410 118.804 116.667  1.00  0.00     0.197 A 
ATOM      4  O   UNL     1     122.345 117.579 116.371  1.00  0.00    -0.289 OA
ATOM      5  C   UNL     1     122.563 119.230 118.001  1.00  0.00     0.107 A 
ATOM      6  C   UNL     1     122.659 118.335 119.094  1.00  0.00     0.134 A 
ATOM      7  C   UNL     1     122.805 118.842 120.395  1.00  0.00     0.093 A 
ATOM      8  C   UNL     1     122.855 120.219 120.623  1.00  0.00     0.123 A 
ATOM      9  C   UNL     1     122.760 121.107 119.546  1.00  0.00     0.094 A 
ATOM     10  C   UNL     1     122.615 120.624 118.243  1.00  0.00     0.146 A 
ATOM     11  O   UNL     1     122.529 121.487 117.236  1.00  0.00    -0.456 OA
ENDROOT
BRANCH   1  12
ATOM     12  C   UNL     1     122.307 122.170 114.921  1.00  0.00     0.021 A 
ATOM     13  C   UNL     1     121.980 121.863 113.587  1.00  0.00     0.016 A 
ATOM     14  C   UNL     1     121.914 122.873 112.623  1.00  0.00     0.051 A 
ATOM     15  C   UNL     1     122.181 124.203 112.972  1.00  0.00     0.157 A 
ATOM     16  C   UNL     1     122.587 123.506 115.259  1.00  0.00     0.062 A 
ATOM     17  C   UNL     1     122.521 124.520 114.297  1.00  0.00     0.158 A 
BRANCH  15  18
ATOM     18  O   UNL     1     122.114 125.208 112.007  1.00  0.00    -0.504 OA
ATOM     19  H   UNL     1     122.141 124.996 111.017  1.00  0.00     0.293 HD
ENDBRANCH  15  18
BRANCH  17  20
ATOM     20  O   UNL     1     122.796 125.833 114.676  1.00  0.00    -0.504 OA
ATOM     21  H   UNL     1     123.557 126.363 114.268  1.00  0.00     0.293 HD
ENDBRANCH  17  20
ENDBRANCH   1  12
BRANCH   6  22
ATOM     22  O   UNL     1     122.612 116.955 118.898  1.00  0.00    -0.507 OA
ATOM     23  H   UNL     1     123.176 116.319 119.450  1.00  0.00     0.293 HD
ENDBRANCH   6  22
BRANCH   8  24
ATOM     24  O   UNL     1     123.000 120.694 121.924  1.00  0.00    -0.508 OA
ATOM     25  H   UNL     1     122.878 120.086 122.726  1.00  0.00     0.293 HD
ENDBRANCH   8  24
TORSDOF 5
ENDMDL
MODEL 9
REMARK VINA RESULT:    -6.635      6.115      7.978
REMARK INTER + INTRA:          -8.067
REMARK INTER:                  -7.783
REMARK INTRA:                  -0.284
REMARK UNBOUND:                -0.268
REMARK SMILES O=c1cc(-c2ccc(O)c(O)c2)oc2cc(O)cc(O)c12
REMARK SMILES IDX 4 1 3 2 2 3 1 4 21 5 19 6 18 7 16 8 15 9 14 10 13 11 5 12
REMARK SMILES IDX 6 13 7 14 8 15 12 16 10 17 9 18 11 20 20 22 17 24
REMARK H PARENT 9 19 11 21 20 23 17 25
REMARK Flexibility Score: inf
ROOT
ATOM      1  C   UNL     1     122.200 120.495 115.964  1.00  0.00     0.138 A 
ATOM      2  C   UNL     1     123.078 120.526 117.060  1.00  0.00     0.100 A 
ATOM      3  C   UNL     1     123.067 119.474 117.978  1.00  0.00     0.197 A 
ATOM      4  O   UNL     1     123.860 119.511 118.958  1.00  0.00    -0.289 OA
ATOM      5  C   UNL     1     122.179 118.397 117.792  1.00  0.00     0.107 A 
ATOM      6  C   UNL     1     122.103 117.294 118.676  1.00  0.00     0.134 A 
ATOM      7  C   UNL     1     121.194 116.257 118.416  1.00  0.00     0.093 A 
ATOM      8  C   UNL     1     120.363 116.302 117.293  1.00  0.00     0.123 A 
ATOM      9  C   UNL     1     120.435 117.390 116.417  1.00  0.00     0.094 A 
ATOM     10  C   UNL     1     121.332 118.433 116.658  1.00  0.00     0.146 A 
ATOM     11  O   UNL     1     121.380 119.457 115.812  1.00  0.00    -0.456 OA
ENDROOT
BRANCH   1  12
ATOM     12  C   UNL     1     122.169 121.583 114.955  1.00  0.00     0.021 A 
ATOM     13  C   UNL     1     121.904 121.324 113.597  1.00  0.00     0.016 A 
ATOM     14  C   UNL     1     121.891 122.367 112.666  1.00  0.00     0.051 A 
ATOM     15  C   UNL     1     122.149 123.682 113.074  1.00  0.00     0.157 A 
ATOM     16  C   UNL     1     122.441 122.905 115.352  1.00  0.00     0.062 A 
ATOM     17  C   UNL     1     122.427 123.951 114.423  1.00  0.00     0.158 A 
BRANCH  15  18
ATOM     18  O   UNL     1     122.134 124.720 112.142  1.00  0.00    -0.504 OA
ATOM     19  H   UNL     1     121.436 125.454 112.176  1.00  0.00     0.293 HD
ENDBRANCH  15  18
BRANCH  17  20
ATOM     20  O   UNL     1     122.691 125.248 114.860  1.00  0.00    -0.504 OA
ATOM     21  H   UNL     1     123.628 125.634 114.866  1.00  0.00     0.293 HD
ENDBRANCH  17  20
ENDBRANCH   1  12
BRANCH   6  22
ATOM     22  O   UNL     1     122.919 117.221 119.804  1.00  0.00    -0.507 OA
ATOM     23  H   UNL     1     122.597 117.523 120.716  1.00  0.00     0.293 HD
ENDBRANCH   6  22
BRANCH   8  24
ATOM     24  O   UNL     1     119.470 115.259 117.059  1.00  0.00    -0.508 OA
ATOM     25  H   UNL     1     118.948 115.193 116.193  1.00  0.00     0.293 HD
ENDBRANCH   8  24
TORSDOF 5
ENDMDL
