MODEL 1
REMARK VINA RESULT:     4.529      0.000      0.000
REMARK INTER + INTRA:          19.248
REMARK INTER:                  11.413
REMARK INTRA:                   7.835
REMARK UNBOUND:                 7.835
REMARK SMILES CCCCCCCCCCCCCCCCCCCCCCCCCCCC(=O)[O-]
REMARK SMILES IDX 15 1 16 2 17 3 18 4 19 5 20 6 21 7 22 8 23 9 24 10 25 11
REMARK SMILES IDX 26 12 27 13 28 14 29 15 30 16 14 17 13 18 12 19 11 20 10 21
REMARK SMILES IDX 9 22 8 23 7 24 6 25 5 26 4 27 3 28 2 29 1 30
REMARK H PARENT
REMARK Flexibility Score: inf
ROOT
ATOM      1  C   UNL     1       6.721   6.899   4.624  1.00  0.00     0.000 C 
ENDROOT
BRANCH   1   2
ATOM      2  C   UNL     1       6.128   5.554   4.154  1.00  0.00     0.000 C 
BRANCH   2   3
ATOM      3  C   UNL     1       4.615   5.406   4.406  1.00  0.00     0.000 C 
BRANCH   3   4
ATOM      4  C   UNL     1       3.808   5.295   3.103  1.00  0.00     0.000 C 
BRANCH   4   5
ATOM      5  C   UNL     1       4.738   5.241   1.885  1.00  0.00     0.000 C 
BRANCH   5   6
ATOM      6  C   UNL     1       6.004   4.427   2.193  1.00  0.00     0.000 C 
BRANCH   6   7
ATOM      7  C   UNL     1       5.696   3.021   2.736  1.00  0.00     0.000 C 
BRANCH   7   8
ATOM      8  C   UNL     1       6.543   1.885   2.126  1.00  0.00     0.000 C 
BRANCH   8   9
ATOM      9  C   UNL     1       7.584   1.268   3.076  1.00  0.00     0.000 C 
BRANCH   9  10
ATOM     10  C   UNL     1       8.975   1.131   2.433  1.00  0.00     0.000 C 
BRANCH  10  11
ATOM     11  C   UNL     1       9.221  -0.288   1.875  1.00  0.00     0.000 C 
BRANCH  11  12
ATOM     12  C   UNL     1      10.656  -0.791   2.100  1.00  0.00     0.006 C 
BRANCH  12  13
ATOM     13  C   UNL     1      11.681   0.347   2.170  1.00  0.00     0.053 C 
BRANCH  13  14
ATOM     14  C   UNL     1      13.011  -0.171   2.620  1.00  0.00     0.041 C 
ATOM     15  O   UNL     1      14.067   0.439   2.307  1.00  0.00    -0.550 OA
ATOM     16  O   UNL     1      13.082  -1.310   3.411  1.00  0.00    -0.550 OA
ENDBRANCH  13  14
ENDBRANCH  12  13
ENDBRANCH  11  12
ENDBRANCH  10  11
ENDBRANCH   9  10
ENDBRANCH   8   9
ENDBRANCH   7   8
ENDBRANCH   6   7
ENDBRANCH   5   6
ENDBRANCH   4   5
ENDBRANCH   3   4
ENDBRANCH   2   3
ENDBRANCH   1   2
BRANCH   1  17
ATOM     17  C   UNL     1       5.662   7.943   5.029  1.00  0.00     0.000 C 
BRANCH  17  18
ATOM     18  C   UNL     1       5.784   9.248   4.221  1.00  0.00     0.000 C 
BRANCH  18  19
ATOM     19  C   UNL     1       4.433   9.978   4.078  1.00  0.00     0.000 C 
BRANCH  19  20
ATOM     20  C   UNL     1       3.396   9.218   3.221  1.00  0.00     0.000 C 
BRANCH  20  21
ATOM     21  C   UNL     1       2.214  10.079   2.733  1.00  0.00     0.000 C 
BRANCH  21  22
ATOM     22  C   UNL     1       0.950   9.896   3.586  1.00  0.00    -0.000 C 
BRANCH  22  23
ATOM     23  C   UNL     1       0.227   8.590   3.219  1.00  0.00    -0.000 C 
BRANCH  23  24
ATOM     24  C   UNL     1       0.886   7.353   3.852  1.00  0.00    -0.000 C 
BRANCH  24  25
ATOM     25  C   UNL     1       1.042   6.194   2.857  1.00  0.00    -0.000 C 
BRANCH  25  26
ATOM     26  C   UNL     1      -0.297   5.860   2.188  1.00  0.00    -0.000 C 
BRANCH  26  27
ATOM     27  C   UNL     1      -1.125   4.905   3.060  1.00  0.00    -0.000 C 
BRANCH  27  28
ATOM     28  C   UNL     1      -0.712   4.936   4.543  1.00  0.00    -0.000 C 
BRANCH  28  29
ATOM     29  C   UNL     1       0.562   4.140   4.878  1.00  0.00    -0.003 C 
ATOM     30  C   UNL     1       1.794   4.634   4.123  1.00  0.00     0.004 C 
ENDBRANCH  28  29
ENDBRANCH  27  28
ENDBRANCH  26  27
ENDBRANCH  25  26
ENDBRANCH  24  25
ENDBRANCH  23  24
ENDBRANCH  22  23
ENDBRANCH  21  22
ENDBRANCH  20  21
ENDBRANCH  19  20
ENDBRANCH  18  19
ENDBRANCH  17  18
ENDBRANCH   1  17
TORSDOF 26
ENDMDL
MODEL 2
REMARK VINA RESULT:     5.084      1.677      2.315
REMARK INTER + INTRA:          20.647
REMARK INTER:                  19.110
REMARK INTRA:                   1.536
REMARK UNBOUND:                 7.835
REMARK SMILES CCCCCCCCCCCCCCCCCCCCCCCCCCCC(=O)[O-]
REMARK SMILES IDX 15 1 16 2 17 3 18 4 19 5 20 6 21 7 22 8 23 9 24 10 25 11
REMARK SMILES IDX 26 12 27 13 28 14 29 15 30 16 14 17 13 18 12 19 11 20 10 21
REMARK SMILES IDX 9 22 8 23 7 24 6 25 5 26 4 27 3 28 2 29 1 30
REMARK H PARENT
REMARK Flexibility Score: inf
ROOT
ATOM      1  C   UNL     1       6.604   6.935   4.489  1.00  0.00     0.000 C 
ENDROOT
BRANCH   1   2
ATOM      2  C   UNL     1       6.061   5.566   4.027  1.00  0.00     0.000 C 
BRANCH   2   3
ATOM      3  C   UNL     1       4.587   5.313   4.394  1.00  0.00     0.000 C 
BRANCH   3   4
ATOM      4  C   UNL     1       3.730   4.944   3.173  1.00  0.00     0.000 C 
BRANCH   4   5
ATOM      5  C   UNL     1       4.534   5.086   1.875  1.00  0.00     0.000 C 
BRANCH   5   6
ATOM      6  C   UNL     1       5.896   4.384   1.990  1.00  0.00     0.000 C 
BRANCH   6   7
ATOM      7  C   UNL     1       5.808   3.015   2.687  1.00  0.00     0.000 C 
BRANCH   7   8
ATOM      8  C   UNL     1       6.687   1.910   2.067  1.00  0.00     0.000 C 
BRANCH   8   9
ATOM      9  C   UNL     1       7.721   1.289   3.023  1.00  0.00     0.000 C 
BRANCH   9  10
ATOM     10  C   UNL     1       9.102   1.099   2.371  1.00  0.00     0.000 C 
BRANCH  10  11
ATOM     11  C   UNL     1       9.375  -0.376   2.008  1.00  0.00     0.000 C 
BRANCH  11  12
ATOM     12  C   UNL     1      10.453  -1.031   2.887  1.00  0.00     0.006 C 
BRANCH  12  13
ATOM     13  C   UNL     1      11.877  -0.746   2.393  1.00  0.00     0.053 C 
BRANCH  13  14
ATOM     14  C   UNL     1      12.833  -0.704   3.543  1.00  0.00     0.041 C 
ATOM     15  O   UNL     1      12.476  -1.113   4.678  1.00  0.00    -0.550 OA
ATOM     16  O   UNL     1      14.130  -0.244   3.353  1.00  0.00    -0.550 OA
ENDBRANCH  13  14
ENDBRANCH  12  13
ENDBRANCH  11  12
ENDBRANCH  10  11
ENDBRANCH   9  10
ENDBRANCH   8   9
ENDBRANCH   7   8
ENDBRANCH   6   7
ENDBRANCH   5   6
ENDBRANCH   4   5
ENDBRANCH   3   4
ENDBRANCH   2   3
ENDBRANCH   1   2
BRANCH   1  17
ATOM     17  C   UNL     1       5.511   7.996   4.725  1.00  0.00     0.000 C 
BRANCH  17  18
ATOM     18  C   UNL     1       5.735   9.267   3.887  1.00  0.00     0.000 C 
BRANCH  18  19
ATOM     19  C   UNL     1       4.414   9.983   3.542  1.00  0.00     0.000 C 
BRANCH  19  20
ATOM     20  C   UNL     1       3.479   9.168   2.621  1.00  0.00     0.000 C 
BRANCH  20  21
ATOM     21  C   UNL     1       2.270   9.953   2.078  1.00  0.00     0.000 C 
BRANCH  21  22
ATOM     22  C   UNL     1       0.951   9.573   2.768  1.00  0.00    -0.000 C 
BRANCH  22  23
ATOM     23  C   UNL     1       0.366   8.289   2.160  1.00  0.00    -0.000 C 
BRANCH  23  24
ATOM     24  C   UNL     1       0.861   7.020   2.874  1.00  0.00    -0.000 C 
BRANCH  24  25
ATOM     25  C   UNL     1       0.477   6.993   4.361  1.00  0.00    -0.000 C 
BRANCH  25  26
ATOM     26  C   UNL     1       0.562   8.395   4.976  1.00  0.00    -0.000 C 
BRANCH  26  27
ATOM     27  C   UNL     1       1.883   8.583   5.736  1.00  0.00    -0.000 C 
BRANCH  27  28
ATOM     28  C   UNL     1       1.679   9.049   7.189  1.00  0.00    -0.000 C 
BRANCH  28  29
ATOM     29  C   UNL     1       1.190   7.958   8.158  1.00  0.00    -0.003 C 
ATOM     30  C   UNL     1       2.146   7.718   9.325  1.00  0.00     0.004 C 
ENDBRANCH  28  29
ENDBRANCH  27  28
ENDBRANCH  26  27
ENDBRANCH  25  26
ENDBRANCH  24  25
ENDBRANCH  23  24
ENDBRANCH  22  23
ENDBRANCH  21  22
ENDBRANCH  20  21
ENDBRANCH  19  20
ENDBRANCH  18  19
ENDBRANCH  17  18
ENDBRANCH   1  17
TORSDOF 26
ENDMDL
MODEL 3
REMARK VINA RESULT:     7.117      4.608      8.636
REMARK INTER + INTRA:          25.769
REMARK INTER:                  10.904
REMARK INTRA:                  14.865
REMARK UNBOUND:                 7.835
REMARK SMILES CCCCCCCCCCCCCCCCCCCCCCCCCCCC(=O)[O-]
REMARK SMILES IDX 15 1 16 2 17 3 18 4 19 5 20 6 21 7 22 8 23 9 24 10 25 11
REMARK SMILES IDX 26 12 27 13 28 14 29 15 30 16 14 17 13 18 12 19 11 20 10 21
REMARK SMILES IDX 9 22 8 23 7 24 6 25 5 26 4 27 3 28 2 29 1 30
REMARK H PARENT
REMARK Flexibility Score: inf
ROOT
ATOM      1  C   UNL     1       5.743   7.268   4.203  1.00  0.00     0.000 C 
ENDROOT
BRANCH   1   2
ATOM      2  C   UNL     1       4.549   7.911   4.941  1.00  0.00     0.000 C 
BRANCH   2   3
ATOM      3  C   UNL     1       4.713   9.417   5.219  1.00  0.00     0.000 C 
BRANCH   3   4
ATOM      4  C   UNL     1       3.473  10.032   5.886  1.00  0.00     0.000 C 
BRANCH   4   5
ATOM      5  C   UNL     1       2.283   9.068   5.825  1.00  0.00     0.000 C 
BRANCH   5   6
ATOM      6  C   UNL     1       0.956   9.817   6.025  1.00  0.00     0.000 C 
BRANCH   6   7
ATOM      7  C   UNL     1       0.189  10.040   4.710  1.00  0.00     0.000 C 
BRANCH   7   8
ATOM      8  C   UNL     1       1.027   9.866   3.427  1.00  0.00     0.000 C 
BRANCH   8   9
ATOM      9  C   UNL     1       0.236   9.980   2.113  1.00  0.00     0.000 C 
BRANCH   9  10
ATOM     10  C   UNL     1      -0.853   8.903   1.973  1.00  0.00     0.000 C 
BRANCH  10  11
ATOM     11  C   UNL     1      -1.045   8.097   3.276  1.00  0.00     0.000 C 
BRANCH  11  12
ATOM     12  C   UNL     1      -0.693   6.607   3.129  1.00  0.00     0.006 C 
BRANCH  12  13
ATOM     13  C   UNL     1      -1.022   5.793   4.387  1.00  0.00     0.053 C 
BRANCH  13  14
ATOM     14  C   UNL     1      -0.302   4.481   4.365  1.00  0.00     0.041 C 
ATOM     15  O   UNL     1      -0.411   3.716   3.371  1.00  0.00    -0.550 OA
ATOM     16  O   UNL     1       0.515   4.118   5.427  1.00  0.00    -0.550 OA
ENDBRANCH  13  14
ENDBRANCH  12  13
ENDBRANCH  11  12
ENDBRANCH  10  11
ENDBRANCH   9  10
ENDBRANCH   8   9
ENDBRANCH   7   8
ENDBRANCH   6   7
ENDBRANCH   5   6
ENDBRANCH   4   5
ENDBRANCH   3   4
ENDBRANCH   2   3
ENDBRANCH   1   2
BRANCH   1  17
ATOM     17  C   UNL     1       6.460   6.168   5.009  1.00  0.00     0.000 C 
BRANCH  17  18
ATOM     18  C   UNL     1       5.981   4.755   4.631  1.00  0.00     0.000 C 
BRANCH  18  19
ATOM     19  C   UNL     1       4.499   4.731   4.209  1.00  0.00     0.000 C 
BRANCH  19  20
ATOM     20  C   UNL     1       4.005   3.348   3.730  1.00  0.00     0.000 C 
BRANCH  20  21
ATOM     21  C   UNL     1       4.831   2.733   2.584  1.00  0.00     0.000 C 
BRANCH  21  22
ATOM     22  C   UNL     1       5.899   3.692   2.036  1.00  0.00    -0.000 C 
BRANCH  22  23
ATOM     23  C   UNL     1       5.329   5.111   1.877  1.00  0.00    -0.000 C 
BRANCH  23  24
ATOM     24  C   UNL     1       4.065   5.336   2.722  1.00  0.00    -0.000 C 
BRANCH  24  25
ATOM     25  C   UNL     1       2.862   5.779   1.875  1.00  0.00    -0.000 C 
BRANCH  25  26
ATOM     26  C   UNL     1       1.914   6.668   2.690  1.00  0.00    -0.000 C 
BRANCH  26  27
ATOM     27  C   UNL     1       2.600   7.981   3.090  1.00  0.00    -0.000 C 
BRANCH  27  28
ATOM     28  C   UNL     1       3.029   8.829   1.879  1.00  0.00    -0.000 C 
BRANCH  28  29
ATOM     29  C   UNL     1       3.897  10.053   2.219  1.00  0.00    -0.003 C 
ATOM     30  C   UNL     1       5.395   9.766   2.152  1.00  0.00     0.004 C 
ENDBRANCH  28  29
ENDBRANCH  27  28
ENDBRANCH  26  27
ENDBRANCH  25  26
ENDBRANCH  24  25
ENDBRANCH  23  24
ENDBRANCH  22  23
ENDBRANCH  21  22
ENDBRANCH  20  21
ENDBRANCH  19  20
ENDBRANCH  18  19
ENDBRANCH  17  18
ENDBRANCH   1  17
TORSDOF 26
ENDMDL
MODEL 4
REMARK VINA RESULT:     7.500      4.432     10.937
REMARK INTER + INTRA:          26.736
REMARK INTER:                  22.762
REMARK INTRA:                   3.974
REMARK UNBOUND:                 7.835
REMARK SMILES CCCCCCCCCCCCCCCCCCCCCCCCCCCC(=O)[O-]
REMARK SMILES IDX 15 1 16 2 17 3 18 4 19 5 20 6 21 7 22 8 23 9 24 10 25 11
REMARK SMILES IDX 26 12 27 13 28 14 29 15 30 16 14 17 13 18 12 19 11 20 10 21
REMARK SMILES IDX 9 22 8 23 7 24 6 25 5 26 4 27 3 28 2 29 1 30
REMARK H PARENT
REMARK Flexibility Score: inf
ROOT
ATOM      1  C   UNL     1       4.500   4.250   3.927  1.00  0.00     0.000 C 
ENDROOT
BRANCH   1   2
ATOM      2  C   UNL     1       3.658   5.206   3.056  1.00  0.00     0.000 C 
BRANCH   2   3
ATOM      3  C   UNL     1       2.207   5.391   3.540  1.00  0.00     0.000 C 
BRANCH   3   4
ATOM      4  C   UNL     1       1.205   5.488   2.378  1.00  0.00     0.000 C 
BRANCH   4   5
ATOM      5  C   UNL     1       0.199   6.621   2.615  1.00  0.00     0.000 C 
BRANCH   5   6
ATOM      6  C   UNL     1       0.875   7.995   2.487  1.00  0.00     0.000 C 
BRANCH   6   7
ATOM      7  C   UNL     1       2.358   7.975   2.896  1.00  0.00     0.000 C 
BRANCH   7   8
ATOM      8  C   UNL     1       3.325   8.608   1.875  1.00  0.00     0.000 C 
BRANCH   8   9
ATOM      9  C   UNL     1       4.774   8.097   1.949  1.00  0.00     0.000 C 
BRANCH   9  10
ATOM     10  C   UNL     1       5.114   7.451   3.304  1.00  0.00     0.000 C 
BRANCH  10  11
ATOM     11  C   UNL     1       4.241   8.008   4.449  1.00  0.00     0.000 C 
BRANCH  11  12
ATOM     12  C   UNL     1       4.204   9.544   4.494  1.00  0.00     0.006 C 
BRANCH  12  13
ATOM     13  C   UNL     1       3.781  10.088   5.865  1.00  0.00     0.053 C 
BRANCH  13  14
ATOM     14  C   UNL     1       2.361   9.719   6.161  1.00  0.00     0.041 C 
ATOM     15  O   UNL     1       1.484   9.809   5.262  1.00  0.00    -0.550 OA
ATOM     16  O   UNL     1       2.013   9.245   7.419  1.00  0.00    -0.550 OA
ENDBRANCH  13  14
ENDBRANCH  12  13
ENDBRANCH  11  12
ENDBRANCH  10  11
ENDBRANCH   9  10
ENDBRANCH   8   9
ENDBRANCH   7   8
ENDBRANCH   6   7
ENDBRANCH   5   6
ENDBRANCH   4   5
ENDBRANCH   3   4
ENDBRANCH   2   3
ENDBRANCH   1   2
BRANCH   1  17
ATOM     17  C   UNL     1       4.196   2.757   3.693  1.00  0.00     0.000 C 
BRANCH  17  18
ATOM     18  C   UNL     1       4.539   2.305   2.262  1.00  0.00     0.000 C 
BRANCH  18  19
ATOM     19  C   UNL     1       5.897   1.578   2.186  1.00  0.00     0.000 C 
BRANCH  19  20
ATOM     20  C   UNL     1       7.011   2.238   3.029  1.00  0.00     0.000 C 
BRANCH  20  21
ATOM     21  C   UNL     1       8.437   2.035   2.479  1.00  0.00     0.000 C 
BRANCH  21  22
ATOM     22  C   UNL     1       8.651   0.638   1.877  1.00  0.00    -0.000 C 
BRANCH  22  23
ATOM     23  C   UNL     1      10.136   0.245   1.926  1.00  0.00    -0.000 C 
BRANCH  23  24
ATOM     24  C   UNL     1      10.473  -0.638   3.138  1.00  0.00    -0.000 C 
BRANCH  24  25
ATOM     25  C   UNL     1      11.906  -1.189   3.086  1.00  0.00    -0.000 C 
BRANCH  25  26
ATOM     26  C   UNL     1      12.848  -0.203   2.382  1.00  0.00    -0.000 C 
BRANCH  26  27
ATOM     27  C   UNL     1      13.971   0.253   3.325  1.00  0.00    -0.000 C 
BRANCH  27  28
ATOM     28  C   UNL     1      15.192   0.818   2.576  1.00  0.00    -0.000 C 
BRANCH  28  29
ATOM     29  C   UNL     1      14.955   2.167   1.875  1.00  0.00    -0.003 C 
ATOM     30  C   UNL     1      16.082   3.171   2.108  1.00  0.00     0.004 C 
ENDBRANCH  28  29
ENDBRANCH  27  28
ENDBRANCH  26  27
ENDBRANCH  25  26
ENDBRANCH  24  25
ENDBRANCH  23  24
ENDBRANCH  22  23
ENDBRANCH  21  22
ENDBRANCH  20  21
ENDBRANCH  19  20
ENDBRANCH  18  19
ENDBRANCH  17  18
ENDBRANCH   1  17
TORSDOF 26
ENDMDL
MODEL 5
REMARK VINA RESULT:     7.503      3.782      9.833
REMARK INTER + INTRA:          26.741
REMARK INTER:                  26.115
REMARK INTRA:                   0.625
REMARK UNBOUND:                 7.835
REMARK SMILES CCCCCCCCCCCCCCCCCCCCCCCCCCCC(=O)[O-]
REMARK SMILES IDX 15 1 16 2 17 3 18 4 19 5 20 6 21 7 22 8 23 9 24 10 25 11
REMARK SMILES IDX 26 12 27 13 28 14 29 15 30 16 14 17 13 18 12 19 11 20 10 21
REMARK SMILES IDX 9 22 8 23 7 24 6 25 5 26 4 27 3 28 2 29 1 30
REMARK H PARENT
REMARK Flexibility Score: inf
ROOT
ATOM      1  C   UNL     1       5.743   7.235   4.227  1.00  0.00     0.000 C 
ENDROOT
BRANCH   1   2
ATOM      2  C   UNL     1       4.507   7.847   4.920  1.00  0.00     0.000 C 
BRANCH   2   3
ATOM      3  C   UNL     1       4.607   9.364   5.171  1.00  0.00     0.000 C 
BRANCH   3   4
ATOM      4  C   UNL     1       3.332   9.943   5.803  1.00  0.00     0.000 C 
BRANCH   4   5
ATOM      5  C   UNL     1       2.176   8.938   5.724  1.00  0.00     0.000 C 
BRANCH   5   6
ATOM      6  C   UNL     1       0.827   9.628   5.980  1.00  0.00     0.000 C 
BRANCH   6   7
ATOM      7  C   UNL     1       0.047   9.921   4.687  1.00  0.00     0.000 C 
BRANCH   7   8
ATOM      8  C   UNL     1       0.873   9.819   3.389  1.00  0.00     0.000 C 
BRANCH   8   9
ATOM      9  C   UNL     1       0.065   9.978   2.090  1.00  0.00     0.000 C 
BRANCH   9  10
ATOM     10  C   UNL     1      -0.955   8.845   1.875  1.00  0.00     0.000 C 
BRANCH  10  11
ATOM     11  C   UNL     1      -1.069   7.924   3.109  1.00  0.00     0.000 C 
BRANCH  11  12
ATOM     12  C   UNL     1      -0.571   6.493   2.849  1.00  0.00     0.006 C 
BRANCH  12  13
ATOM     13  C   UNL     1      -1.036   5.498   3.921  1.00  0.00     0.053 C 
BRANCH  13  14
ATOM     14  C   UNL     1       0.087   4.593   4.319  1.00  0.00     0.041 C 
ATOM     15  O   UNL     1       0.442   3.654   3.559  1.00  0.00    -0.550 OA
ATOM     16  O   UNL     1       0.762   4.806   5.514  1.00  0.00    -0.550 OA
ENDBRANCH  13  14
ENDBRANCH  12  13
ENDBRANCH  11  12
ENDBRANCH  10  11
ENDBRANCH   9  10
ENDBRANCH   8   9
ENDBRANCH   7   8
ENDBRANCH   6   7
ENDBRANCH   5   6
ENDBRANCH   4   5
ENDBRANCH   3   4
ENDBRANCH   2   3
ENDBRANCH   1   2
BRANCH   1  17
ATOM     17  C   UNL     1       6.483   6.185   5.078  1.00  0.00     0.000 C 
BRANCH  17  18
ATOM     18  C   UNL     1       6.090   4.744   4.707  1.00  0.00     0.000 C 
BRANCH  18  19
ATOM     19  C   UNL     1       4.612   4.629   4.285  1.00  0.00     0.000 C 
BRANCH  19  20
ATOM     20  C   UNL     1       4.337   3.507   3.260  1.00  0.00     0.000 C 
BRANCH  20  21
ATOM     21  C   UNL     1       5.230   3.552   2.005  1.00  0.00     0.000 C 
BRANCH  21  22
ATOM     22  C   UNL     1       6.362   4.584   2.114  1.00  0.00    -0.000 C 
BRANCH  22  23
ATOM     23  C   UNL     1       7.715   3.889   2.339  1.00  0.00    -0.000 C 
BRANCH  23  24
ATOM     24  C   UNL     1       7.708   2.423   1.877  1.00  0.00    -0.000 C 
BRANCH  24  25
ATOM     25  C   UNL     1       7.466   1.442   3.034  1.00  0.00    -0.000 C 
BRANCH  25  26
ATOM     26  C   UNL     1       8.261   0.146   2.832  1.00  0.00    -0.000 C 
BRANCH  26  27
ATOM     27  C   UNL     1       9.761   0.438   2.691  1.00  0.00    -0.000 C 
BRANCH  27  28
ATOM     28  C   UNL     1      10.647  -0.736   3.148  1.00  0.00    -0.000 C 
BRANCH  28  29
ATOM     29  C   UNL     1      12.122  -0.375   3.400  1.00  0.00    -0.003 C 
ATOM     30  C   UNL     1      13.064  -0.918   2.328  1.00  0.00     0.004 C 
ENDBRANCH  28  29
ENDBRANCH  27  28
ENDBRANCH  26  27
ENDBRANCH  25  26
ENDBRANCH  24  25
ENDBRANCH  23  24
ENDBRANCH  22  23
ENDBRANCH  21  22
ENDBRANCH  20  21
ENDBRANCH  19  20
ENDBRANCH  18  19
ENDBRANCH  17  18
ENDBRANCH   1  17
TORSDOF 26
ENDMDL
