MODEL 1
REMARK VINA RESULT:    -3.999      0.000      0.000
REMARK INTER + INTRA:          -9.842
REMARK INTER:                  -7.272
REMARK INTRA:                  -2.571
REMARK UNBOUND:                -2.571
REMARK SMILES CCCCCC=CCC=CCCCCCCCC(=O)[O-]
REMARK SMILES IDX 11 1 12 2 13 3 14 4 15 5 16 6 17 7 18 8 19 9 20 10 10 11
REMARK SMILES IDX 9 12 8 13 7 14 6 15 5 16 4 17 3 18 2 19 1 20
REMARK H PARENT
REMARK Flexibility Score: inf
ROOT
ATOM      1  C   UNL     1     214.288 205.723 191.000  1.00  0.00     0.027 C 
ENDROOT
BRANCH   1   2
ATOM      2  C   UNL     1     213.502 204.405 191.085  1.00  0.00     0.004 C 
BRANCH   2   3
ATOM      3  C   UNL     1     212.128 204.580 191.750  1.00  0.00     0.000 C 
BRANCH   3   4
ATOM      4  C   UNL     1     212.144 204.215 193.242  1.00  0.00     0.000 C 
BRANCH   4   5
ATOM      5  C   UNL     1     212.222 205.476 194.115  1.00  0.00     0.000 C 
BRANCH   5   6
ATOM      6  C   UNL     1     213.242 205.347 195.257  1.00  0.00     0.006 C 
BRANCH   6   7
ATOM      7  C   UNL     1     213.607 203.890 195.565  1.00  0.00     0.053 C 
BRANCH   7   8
ATOM      8  C   UNL     1     212.916 203.430 196.810  1.00  0.00     0.041 C 
ATOM      9  O   UNL     1     212.109 204.191 197.406  1.00  0.00    -0.550 OA
ATOM     10  O   UNL     1     213.136 202.146 197.290  1.00  0.00    -0.550 OA
ENDBRANCH   7   8
ENDBRANCH   6   7
ENDBRANCH   5   6
ENDBRANCH   4   5
ENDBRANCH   3   4
ENDBRANCH   2   3
ENDBRANCH   1   2
BRANCH   1  11
ATOM     11  C   UNL     1     215.434 205.738 191.973  1.00  0.00    -0.031 C 
ATOM     12  C   UNL     1     215.889 204.611 192.542  1.00  0.00    -0.027 C 
BRANCH  12  13
ATOM     13  C   UNL     1     217.010 204.631 193.543  1.00  0.00     0.054 C 
BRANCH  13  14
ATOM     14  C   UNL     1     217.040 205.949 194.264  1.00  0.00    -0.027 C 
ATOM     15  C   UNL     1     216.678 206.052 195.552  1.00  0.00    -0.031 C 
BRANCH  15  16
ATOM     16  C   UNL     1     216.793 207.351 196.302  1.00  0.00     0.027 C 
BRANCH  16  17
ATOM     17  C   UNL     1     216.220 208.534 195.507  1.00  0.00     0.004 C 
BRANCH  17  18
ATOM     18  C   UNL     1     215.194 209.337 196.325  1.00  0.00     0.000 C 
BRANCH  18  19
ATOM     19  C   UNL     1     214.255 208.436 197.142  1.00  0.00    -0.003 C 
ATOM     20  C   UNL     1     212.780 208.780 196.938  1.00  0.00     0.004 C 
ENDBRANCH  18  19
ENDBRANCH  17  18
ENDBRANCH  16  17
ENDBRANCH  15  16
ENDBRANCH  13  14
ENDBRANCH  12  13
ENDBRANCH   1  11
TORSDOF 14
ENDMDL
MODEL 2
REMARK VINA RESULT:    -3.919     10.213     12.657
REMARK INTER + INTRA:          -9.696
REMARK INTER:                  -8.131
REMARK INTRA:                  -1.565
REMARK UNBOUND:                -2.571
REMARK SMILES CCCCCC=CCC=CCCCCCCCC(=O)[O-]
REMARK SMILES IDX 11 1 12 2 13 3 14 4 15 5 16 6 17 7 18 8 19 9 20 10 10 11
REMARK SMILES IDX 9 12 8 13 7 14 6 15 5 16 4 17 3 18 2 19 1 20
REMARK H PARENT
REMARK Flexibility Score: inf
ROOT
ATOM      1  C   UNL     1     199.477 205.337 192.437  1.00  0.00     0.027 C 
ENDROOT
BRANCH   1   2
ATOM      2  C   UNL     1     198.819 205.704 191.097  1.00  0.00     0.004 C 
BRANCH   2   3
ATOM      3  C   UNL     1     199.633 206.739 190.304  1.00  0.00     0.000 C 
BRANCH   3   4
ATOM      4  C   UNL     1     200.163 206.179 188.975  1.00  0.00     0.000 C 
BRANCH   4   5
ATOM      5  C   UNL     1     201.220 205.092 189.220  1.00  0.00     0.000 C 
BRANCH   5   6
ATOM      6  C   UNL     1     202.655 205.639 189.191  1.00  0.00     0.006 C 
BRANCH   6   7
ATOM      7  C   UNL     1     203.294 205.708 190.583  1.00  0.00     0.053 C 
BRANCH   7   8
ATOM      8  C   UNL     1     203.877 207.064 190.824  1.00  0.00     0.041 C 
ATOM      9  O   UNL     1     203.145 208.089 190.770  1.00  0.00    -0.550 OA
ATOM     10  O   UNL     1     205.221 207.193 191.147  1.00  0.00    -0.550 OA
ENDBRANCH   7   8
ENDBRANCH   6   7
ENDBRANCH   5   6
ENDBRANCH   4   5
ENDBRANCH   3   4
ENDBRANCH   2   3
ENDBRANCH   1   2
BRANCH   1  11
ATOM     11  C   UNL     1     199.949 206.564 193.166  1.00  0.00    -0.031 C 
ATOM     12  C   UNL     1     201.253 206.786 193.399  1.00  0.00    -0.027 C 
BRANCH  12  13
ATOM     13  C   UNL     1     201.721 207.994 194.160  1.00  0.00     0.054 C 
BRANCH  13  14
ATOM     14  C   UNL     1     202.854 207.626 195.075  1.00  0.00    -0.027 C 
ATOM     15  C   UNL     1     204.111 207.506 194.622  1.00  0.00    -0.031 C 
BRANCH  15  16
ATOM     16  C   UNL     1     205.261 207.228 195.551  1.00  0.00     0.027 C 
BRANCH  16  17
ATOM     17  C   UNL     1     205.600 205.731 195.623  1.00  0.00     0.004 C 
BRANCH  17  18
ATOM     18  C   UNL     1     206.147 205.328 197.003  1.00  0.00     0.000 C 
BRANCH  18  19
ATOM     19  C   UNL     1     205.387 204.143 197.617  1.00  0.00    -0.003 C 
ATOM     20  C   UNL     1     205.346 202.925 196.694  1.00  0.00     0.004 C 
ENDBRANCH  18  19
ENDBRANCH  17  18
ENDBRANCH  16  17
ENDBRANCH  15  16
ENDBRANCH  13  14
ENDBRANCH  12  13
ENDBRANCH   1  11
TORSDOF 14
ENDMDL
MODEL 3
REMARK VINA RESULT:    -3.802      9.925     12.132
REMARK INTER + INTRA:          -9.485
REMARK INTER:                  -8.117
REMARK INTRA:                  -1.368
REMARK UNBOUND:                -2.571
REMARK SMILES CCCCCC=CCC=CCCCCCCCC(=O)[O-]
REMARK SMILES IDX 11 1 12 2 13 3 14 4 15 5 16 6 17 7 18 8 19 9 20 10 10 11
REMARK SMILES IDX 9 12 8 13 7 14 6 15 5 16 4 17 3 18 2 19 1 20
REMARK H PARENT
REMARK Flexibility Score: inf
ROOT
ATOM      1  C   UNL     1     204.710 206.796 190.203  1.00  0.00     0.027 C 
ENDROOT
BRANCH   1   2
ATOM      2  C   UNL     1     203.728 206.167 189.202  1.00  0.00     0.004 C 
BRANCH   2   3
ATOM      3  C   UNL     1     202.698 205.251 189.882  1.00  0.00     0.000 C 
BRANCH   3   4
ATOM      4  C   UNL     1     201.293 205.393 189.278  1.00  0.00     0.000 C 
BRANCH   4   5
ATOM      5  C   UNL     1     200.235 205.554 190.381  1.00  0.00     0.000 C 
BRANCH   5   6
ATOM      6  C   UNL     1     200.819 205.394 191.793  1.00  0.00     0.006 C 
BRANCH   6   7
ATOM      7  C   UNL     1     199.800 205.708 192.895  1.00  0.00     0.053 C 
BRANCH   7   8
ATOM      8  C   UNL     1     199.384 207.144 192.829  1.00  0.00     0.041 C 
ATOM      9  O   UNL     1     198.168 207.447 192.701  1.00  0.00    -0.550 OA
ATOM     10  O   UNL     1     200.336 208.148 192.947  1.00  0.00    -0.550 OA
ENDBRANCH   7   8
ENDBRANCH   6   7
ENDBRANCH   5   6
ENDBRANCH   4   5
ENDBRANCH   3   4
ENDBRANCH   2   3
ENDBRANCH   1   2
BRANCH   1  11
ATOM     11  C   UNL     1     204.005 207.236 191.456  1.00  0.00    -0.031 C 
ATOM     12  C   UNL     1     204.683 207.688 192.523  1.00  0.00    -0.027 C 
BRANCH  12  13
ATOM     13  C   UNL     1     203.980 208.093 193.787  1.00  0.00     0.054 C 
BRANCH  13  14
ATOM     14  C   UNL     1     204.733 207.592 194.986  1.00  0.00    -0.027 C 
ATOM     15  C   UNL     1     205.172 206.326 195.060  1.00  0.00    -0.031 C 
BRANCH  15  16
ATOM     16  C   UNL     1     206.005 205.847 196.218  1.00  0.00     0.027 C 
BRANCH  16  17
ATOM     17  C   UNL     1     205.142 205.373 197.397  1.00  0.00     0.004 C 
BRANCH  17  18
ATOM     18  C   UNL     1     205.666 204.061 198.006  1.00  0.00     0.000 C 
BRANCH  18  19
ATOM     19  C   UNL     1     204.787 202.853 197.651  1.00  0.00    -0.003 C 
ATOM     20  C   UNL     1     205.069 202.308 196.252  1.00  0.00     0.004 C 
ENDBRANCH  18  19
ENDBRANCH  17  18
ENDBRANCH  16  17
ENDBRANCH  15  16
ENDBRANCH  13  14
ENDBRANCH  12  13
ENDBRANCH   1  11
TORSDOF 14
ENDMDL
MODEL 4
REMARK VINA RESULT:    -3.783      1.659      2.186
REMARK INTER + INTRA:          -9.450
REMARK INTER:                  -6.838
REMARK INTRA:                  -2.613
REMARK UNBOUND:                -2.571
REMARK SMILES CCCCCC=CCC=CCCCCCCCC(=O)[O-]
REMARK SMILES IDX 11 1 12 2 13 3 14 4 15 5 16 6 17 7 18 8 19 9 20 10 10 11
REMARK SMILES IDX 9 12 8 13 7 14 6 15 5 16 4 17 3 18 2 19 1 20
REMARK H PARENT
REMARK Flexibility Score: inf
ROOT
ATOM      1  C   UNL     1     213.556 204.878 190.972  1.00  0.00     0.027 C 
ENDROOT
BRANCH   1   2
ATOM      2  C   UNL     1     212.199 205.111 191.654  1.00  0.00     0.004 C 
BRANCH   2   3
ATOM      3  C   UNL     1     211.942 204.128 192.807  1.00  0.00     0.000 C 
BRANCH   3   4
ATOM      4  C   UNL     1     211.790 204.835 194.163  1.00  0.00     0.000 C 
BRANCH   4   5
ATOM      5  C   UNL     1     212.839 204.332 195.165  1.00  0.00     0.000 C 
BRANCH   5   6
ATOM      6  C   UNL     1     212.318 204.307 196.610  1.00  0.00     0.006 C 
BRANCH   6   7
ATOM      7  C   UNL     1     211.241 205.366 196.871  1.00  0.00     0.053 C 
BRANCH   7   8
ATOM      8  C   UNL     1     211.319 205.853 198.284  1.00  0.00     0.041 C 
ATOM      9  O   UNL     1     211.419 205.032 199.234  1.00  0.00    -0.550 OA
ATOM     10  O   UNL     1     211.319 207.217 198.548  1.00  0.00    -0.550 OA
ENDBRANCH   7   8
ENDBRANCH   6   7
ENDBRANCH   5   6
ENDBRANCH   4   5
ENDBRANCH   3   4
ENDBRANCH   2   3
ENDBRANCH   1   2
BRANCH   1  11
ATOM     11  C   UNL     1     214.585 204.395 191.955  1.00  0.00    -0.031 C 
ATOM     12  C   UNL     1     215.827 204.902 191.981  1.00  0.00    -0.027 C 
BRANCH  12  13
ATOM     13  C   UNL     1     216.866 204.394 192.940  1.00  0.00     0.054 C 
BRANCH  13  14
ATOM     14  C   UNL     1     216.585 204.898 194.327  1.00  0.00    -0.027 C 
ATOM     15  C   UNL     1     216.929 206.139 194.705  1.00  0.00    -0.031 C 
BRANCH  15  16
ATOM     16  C   UNL     1     216.568 206.677 196.063  1.00  0.00     0.027 C 
BRANCH  16  17
ATOM     17  C   UNL     1     215.708 207.947 195.974  1.00  0.00     0.004 C 
BRANCH  17  18
ATOM     18  C   UNL     1     214.236 207.674 196.328  1.00  0.00     0.000 C 
BRANCH  18  19
ATOM     19  C   UNL     1     213.274 208.061 195.195  1.00  0.00    -0.003 C 
ATOM     20  C   UNL     1     213.881 207.853 193.807  1.00  0.00     0.004 C 
ENDBRANCH  18  19
ENDBRANCH  17  18
ENDBRANCH  16  17
ENDBRANCH  15  16
ENDBRANCH  13  14
ENDBRANCH  12  13
ENDBRANCH   1  11
TORSDOF 14
ENDMDL
MODEL 5
REMARK VINA RESULT:    -3.766     10.840     13.458
REMARK INTER + INTRA:          -9.419
REMARK INTER:                  -7.789
REMARK INTRA:                  -1.630
REMARK UNBOUND:                -2.571
REMARK SMILES CCCCCC=CCC=CCCCCCCCC(=O)[O-]
REMARK SMILES IDX 11 1 12 2 13 3 14 4 15 5 16 6 17 7 18 8 19 9 20 10 10 11
REMARK SMILES IDX 9 12 8 13 7 14 6 15 5 16 4 17 3 18 2 19 1 20
REMARK H PARENT
REMARK Flexibility Score: inf
ROOT
ATOM      1  C   UNL     1     203.339 206.917 192.958  1.00  0.00     0.027 C 
ENDROOT
BRANCH   1   2
ATOM      2  C   UNL     1     202.598 207.635 194.097  1.00  0.00     0.004 C 
BRANCH   2   3
ATOM      3  C   UNL     1     203.382 207.610 195.419  1.00  0.00     0.000 C 
BRANCH   3   4
ATOM      4  C   UNL     1     204.742 206.908 195.285  1.00  0.00     0.000 C 
BRANCH   4   5
ATOM      5  C   UNL     1     205.195 206.327 196.632  1.00  0.00     0.000 C 
BRANCH   5   6
ATOM      6  C   UNL     1     205.800 204.921 196.501  1.00  0.00     0.006 C 
BRANCH   6   7
ATOM      7  C   UNL     1     205.399 203.992 197.652  1.00  0.00     0.053 C 
BRANCH   7   8
ATOM      8  C   UNL     1     204.921 202.678 197.120  1.00  0.00     0.041 C 
ATOM      9  O   UNL     1     205.202 202.329 195.943  1.00  0.00    -0.550 OA
ATOM     10  O   UNL     1     204.197 201.821 197.939  1.00  0.00    -0.550 OA
ENDBRANCH   7   8
ENDBRANCH   6   7
ENDBRANCH   5   6
ENDBRANCH   4   5
ENDBRANCH   3   4
ENDBRANCH   2   3
ENDBRANCH   1   2
BRANCH   1  11
ATOM     11  C   UNL     1     202.423 205.988 192.211  1.00  0.00    -0.031 C 
ATOM     12  C   UNL     1     202.005 206.263 190.966  1.00  0.00    -0.027 C 
BRANCH  12  13
ATOM     13  C   UNL     1     201.060 205.353 190.233  1.00  0.00     0.054 C 
BRANCH  13  14
ATOM     14  C   UNL     1     199.652 205.863 190.347  1.00  0.00    -0.027 C 
ATOM     15  C   UNL     1     198.820 205.421 191.303  1.00  0.00    -0.031 C 
BRANCH  15  16
ATOM     16  C   UNL     1     197.440 205.996 191.475  1.00  0.00     0.027 C 
BRANCH  16  17
ATOM     17  C   UNL     1     197.473 207.504 191.770  1.00  0.00     0.004 C 
BRANCH  17  18
ATOM     18  C   UNL     1     197.696 207.795 193.264  1.00  0.00     0.000 C 
BRANCH  18  19
ATOM     19  C   UNL     1     199.051 208.461 193.540  1.00  0.00    -0.003 C 
ATOM     20  C   UNL     1     199.687 209.051 192.281  1.00  0.00     0.004 C 
ENDBRANCH  18  19
ENDBRANCH  17  18
ENDBRANCH  16  17
ENDBRANCH  15  16
ENDBRANCH  13  14
ENDBRANCH  12  13
ENDBRANCH   1  11
TORSDOF 14
ENDMDL
MODEL 6
REMARK VINA RESULT:    -3.754      9.961     12.628
REMARK INTER + INTRA:          -9.397
REMARK INTER:                  -7.559
REMARK INTRA:                  -1.838
REMARK UNBOUND:                -2.571
REMARK SMILES CCCCCC=CCC=CCCCCCCCC(=O)[O-]
REMARK SMILES IDX 11 1 12 2 13 3 14 4 15 5 16 6 17 7 18 8 19 9 20 10 10 11
REMARK SMILES IDX 9 12 8 13 7 14 6 15 5 16 4 17 3 18 2 19 1 20
REMARK H PARENT
REMARK Flexibility Score: inf
ROOT
ATOM      1  C   UNL     1     203.826 207.756 191.072  1.00  0.00     0.027 C 
ENDROOT
BRANCH   1   2
ATOM      2  C   UNL     1     203.913 207.090 192.454  1.00  0.00     0.004 C 
BRANCH   2   3
ATOM      3  C   UNL     1     205.262 207.341 193.146  1.00  0.00     0.000 C 
BRANCH   3   4
ATOM      4  C   UNL     1     205.222 207.029 194.649  1.00  0.00     0.000 C 
BRANCH   4   5
ATOM      5  C   UNL     1     206.635 207.037 195.250  1.00  0.00     0.000 C 
BRANCH   5   6
ATOM      6  C   UNL     1     206.934 205.781 196.083  1.00  0.00     0.006 C 
BRANCH   6   7
ATOM      7  C   UNL     1     205.734 204.832 196.178  1.00  0.00     0.053 C 
BRANCH   7   8
ATOM      8  C   UNL     1     205.618 204.273 197.561  1.00  0.00     0.041 C 
ATOM      9  O   UNL     1     204.972 203.211 197.765  1.00  0.00    -0.550 OA
ATOM     10  O   UNL     1     206.255 204.907 198.621  1.00  0.00    -0.550 OA
ENDBRANCH   7   8
ENDBRANCH   6   7
ENDBRANCH   5   6
ENDBRANCH   4   5
ENDBRANCH   3   4
ENDBRANCH   2   3
ENDBRANCH   1   2
BRANCH   1  11
ATOM     11  C   UNL     1     202.719 207.160 190.248  1.00  0.00    -0.031 C 
ATOM     12  C   UNL     1     202.483 205.838 190.238  1.00  0.00    -0.027 C 
BRANCH  12  13
ATOM     13  C   UNL     1     201.400 205.239 189.386  1.00  0.00     0.054 C 
BRANCH  13  14
ATOM     14  C   UNL     1     200.052 205.719 189.844  1.00  0.00    -0.027 C 
ATOM     15  C   UNL     1     199.571 205.407 191.058  1.00  0.00    -0.031 C 
BRANCH  15  16
ATOM     16  C   UNL     1     198.263 205.960 191.554  1.00  0.00     0.027 C 
BRANCH  16  17
ATOM     17  C   UNL     1     198.456 206.965 192.700  1.00  0.00     0.004 C 
BRANCH  17  18
ATOM     18  C   UNL     1     199.819 206.797 193.393  1.00  0.00     0.000 C 
BRANCH  18  19
ATOM     19  C   UNL     1     200.599 208.116 193.488  1.00  0.00    -0.003 C 
ATOM     20  C   UNL     1     200.293 209.069 192.333  1.00  0.00     0.004 C 
ENDBRANCH  18  19
ENDBRANCH  17  18
ENDBRANCH  16  17
ENDBRANCH  15  16
ENDBRANCH  13  14
ENDBRANCH  12  13
ENDBRANCH   1  11
TORSDOF 14
ENDMDL
MODEL 7
REMARK VINA RESULT:    -3.664      1.781      4.992
REMARK INTER + INTRA:          -9.233
REMARK INTER:                  -6.799
REMARK INTRA:                  -2.434
REMARK UNBOUND:                -2.571
REMARK SMILES CCCCCC=CCC=CCCCCCCCC(=O)[O-]
REMARK SMILES IDX 11 1 12 2 13 3 14 4 15 5 16 6 17 7 18 8 19 9 20 10 10 11
REMARK SMILES IDX 9 12 8 13 7 14 6 15 5 16 4 17 3 18 2 19 1 20
REMARK H PARENT
REMARK Flexibility Score: inf
ROOT
ATOM      1  C   UNL     1     217.125 205.988 196.221  1.00  0.00     0.027 C 
ENDROOT
BRANCH   1   2
ATOM      2  C   UNL     1     216.938 207.502 196.038  1.00  0.00     0.004 C 
BRANCH   2   3
ATOM      3  C   UNL     1     215.499 207.958 196.328  1.00  0.00     0.000 C 
BRANCH   3   4
ATOM      4  C   UNL     1     214.710 208.270 195.048  1.00  0.00     0.000 C 
BRANCH   4   5
ATOM      5  C   UNL     1     213.494 207.341 194.911  1.00  0.00     0.000 C 
BRANCH   5   6
ATOM      6  C   UNL     1     212.998 206.807 196.264  1.00  0.00     0.006 C 
BRANCH   6   7
ATOM      7  C   UNL     1     212.520 205.353 196.190  1.00  0.00     0.053 C 
BRANCH   7   8
ATOM      8  C   UNL     1     211.037 205.299 196.001  1.00  0.00     0.041 C 
ATOM      9  O   UNL     1     210.295 206.149 196.562  1.00  0.00    -0.550 OA
ATOM     10  O   UNL     1     210.477 204.333 195.176  1.00  0.00    -0.550 OA
ENDBRANCH   7   8
ENDBRANCH   6   7
ENDBRANCH   5   6
ENDBRANCH   4   5
ENDBRANCH   3   4
ENDBRANCH   2   3
ENDBRANCH   1   2
BRANCH   1  11
ATOM     11  C   UNL     1     216.641 205.229 195.018  1.00  0.00    -0.031 C 
ATOM     12  C   UNL     1     215.687 204.289 195.115  1.00  0.00    -0.027 C 
BRANCH  12  13
ATOM     13  C   UNL     1     215.229 203.505 193.918  1.00  0.00     0.054 C 
BRANCH  13  14
ATOM     14  C   UNL     1     214.556 204.413 192.928  1.00  0.00    -0.027 C 
ATOM     15  C   UNL     1     213.239 204.331 192.684  1.00  0.00    -0.031 C 
BRANCH  15  16
ATOM     16  C   UNL     1     212.546 205.298 191.762  1.00  0.00     0.027 C 
BRANCH  16  17
ATOM     17  C   UNL     1     213.255 205.412 190.403  1.00  0.00     0.004 C 
BRANCH  17  18
ATOM     18  C   UNL     1     213.788 206.832 190.147  1.00  0.00     0.000 C 
BRANCH  18  19
ATOM     19  C   UNL     1     215.272 206.980 190.513  1.00  0.00    -0.003 C 
ATOM     20  C   UNL     1     216.031 207.892 189.549  1.00  0.00     0.004 C 
ENDBRANCH  18  19
ENDBRANCH  17  18
ENDBRANCH  16  17
ENDBRANCH  15  16
ENDBRANCH  13  14
ENDBRANCH  12  13
ENDBRANCH   1  11
TORSDOF 14
ENDMDL
MODEL 8
REMARK VINA RESULT:    -3.659      3.242      5.519
REMARK INTER + INTRA:          -9.224
REMARK INTER:                  -6.059
REMARK INTRA:                  -3.165
REMARK UNBOUND:                -2.571
REMARK SMILES CCCCCC=CCC=CCCCCCCCC(=O)[O-]
REMARK SMILES IDX 11 1 12 2 13 3 14 4 15 5 16 6 17 7 18 8 19 9 20 10 10 11
REMARK SMILES IDX 9 12 8 13 7 14 6 15 5 16 4 17 3 18 2 19 1 20
REMARK H PARENT
REMARK Flexibility Score: inf
ROOT
ATOM      1  C   UNL     1     216.739 204.385 192.937  1.00  0.00     0.027 C 
ENDROOT
BRANCH   1   2
ATOM      2  C   UNL     1     217.094 205.012 194.294  1.00  0.00     0.004 C 
BRANCH   2   3
ATOM      3  C   UNL     1     215.886 205.679 194.971  1.00  0.00     0.000 C 
BRANCH   3   4
ATOM      4  C   UNL     1     215.871 207.203 194.780  1.00  0.00     0.000 C 
BRANCH   4   5
ATOM      5  C   UNL     1     214.609 207.650 194.026  1.00  0.00     0.000 C 
BRANCH   5   6
ATOM      6  C   UNL     1     214.888 208.008 192.559  1.00  0.00     0.006 C 
BRANCH   6   7
ATOM      7  C   UNL     1     213.606 208.203 191.741  1.00  0.00     0.053 C 
BRANCH   7   8
ATOM      8  C   UNL     1     213.915 208.212 190.277  1.00  0.00     0.041 C 
ATOM      9  O   UNL     1     213.255 208.944 189.493  1.00  0.00    -0.550 OA
ATOM     10  O   UNL     1     214.959 207.440 189.784  1.00  0.00    -0.550 OA
ENDBRANCH   7   8
ENDBRANCH   6   7
ENDBRANCH   5   6
ENDBRANCH   4   5
ENDBRANCH   3   4
ENDBRANCH   2   3
ENDBRANCH   1   2
BRANCH   1  11
ATOM     11  C   UNL     1     215.252 204.228 192.781  1.00  0.00    -0.031 C 
ATOM     12  C   UNL     1     214.631 204.512 191.626  1.00  0.00    -0.027 C 
BRANCH  12  13
ATOM     13  C   UNL     1     213.140 204.388 191.482  1.00  0.00     0.054 C 
BRANCH  13  14
ATOM     14  C   UNL     1     212.483 204.419 192.833  1.00  0.00    -0.027 C 
ATOM     15  C   UNL     1     211.615 205.386 193.169  1.00  0.00    -0.031 C 
BRANCH  15  16
ATOM     16  C   UNL     1     210.887 205.369 194.485  1.00  0.00     0.027 C 
BRANCH  16  17
ATOM     17  C   UNL     1     211.446 206.407 195.471  1.00  0.00     0.004 C 
BRANCH  17  18
ATOM     18  C   UNL     1     212.489 205.797 196.422  1.00  0.00     0.000 C 
BRANCH  18  19
ATOM     19  C   UNL     1     212.210 204.320 196.737  1.00  0.00    -0.003 C 
ATOM     20  C   UNL     1     213.379 203.406 196.370  1.00  0.00     0.004 C 
ENDBRANCH  18  19
ENDBRANCH  17  18
ENDBRANCH  16  17
ENDBRANCH  15  16
ENDBRANCH  13  14
ENDBRANCH  12  13
ENDBRANCH   1  11
TORSDOF 14
ENDMDL
MODEL 9
REMARK VINA RESULT:    -3.646      2.048      4.624
REMARK INTER + INTRA:          -9.201
REMARK INTER:                  -6.359
REMARK INTRA:                  -2.842
REMARK UNBOUND:                -2.571
REMARK SMILES CCCCCC=CCC=CCCCCCCCC(=O)[O-]
REMARK SMILES IDX 11 1 12 2 13 3 14 4 15 5 16 6 17 7 18 8 19 9 20 10 10 11
REMARK SMILES IDX 9 12 8 13 7 14 6 15 5 16 4 17 3 18 2 19 1 20
REMARK H PARENT
REMARK Flexibility Score: inf
ROOT
ATOM      1  C   UNL     1     215.989 204.020 193.176  1.00  0.00     0.027 C 
ENDROOT
BRANCH   1   2
ATOM      2  C   UNL     1     217.048 205.020 193.668  1.00  0.00     0.004 C 
BRANCH   2   3
ATOM      3  C   UNL     1     216.458 206.411 193.951  1.00  0.00     0.000 C 
BRANCH   3   4
ATOM      4  C   UNL     1     215.552 206.425 195.191  1.00  0.00     0.000 C 
BRANCH   4   5
ATOM      5  C   UNL     1     214.333 207.334 194.969  1.00  0.00     0.000 C 
BRANCH   5   6
ATOM      6  C   UNL     1     213.003 206.566 195.005  1.00  0.00     0.006 C 
BRANCH   6   7
ATOM      7  C   UNL     1     213.164 205.123 195.498  1.00  0.00     0.053 C 
BRANCH   7   8
ATOM      8  C   UNL     1     211.973 204.710 196.303  1.00  0.00     0.041 C 
ATOM      9  O   UNL     1     211.876 205.047 197.513  1.00  0.00    -0.550 OA
ATOM     10  O   UNL     1     210.950 203.984 195.706  1.00  0.00    -0.550 OA
ENDBRANCH   7   8
ENDBRANCH   6   7
ENDBRANCH   5   6
ENDBRANCH   4   5
ENDBRANCH   3   4
ENDBRANCH   2   3
ENDBRANCH   1   2
BRANCH   1  11
ATOM     11  C   UNL     1     215.206 204.578 192.020  1.00  0.00    -0.031 C 
ATOM     12  C   UNL     1     213.876 204.423 191.930  1.00  0.00    -0.027 C 
BRANCH  12  13
ATOM     13  C   UNL     1     213.100 204.950 190.757  1.00  0.00     0.054 C 
BRANCH  13  14
ATOM     14  C   UNL     1     213.456 206.386 190.500  1.00  0.00    -0.027 C 
ATOM     15  C   UNL     1     213.172 207.350 191.390  1.00  0.00    -0.031 C 
BRANCH  15  16
ATOM     16  C   UNL     1     213.608 208.774 191.177  1.00  0.00     0.027 C 
BRANCH  16  17
ATOM     17  C   UNL     1     215.137 208.908 191.108  1.00  0.00     0.004 C 
BRANCH  17  18
ATOM     18  C   UNL     1     215.632 209.150 189.671  1.00  0.00     0.000 C 
BRANCH  18  19
ATOM     19  C   UNL     1     216.713 208.146 189.243  1.00  0.00    -0.003 C 
ATOM     20  C   UNL     1     217.121 207.199 190.371  1.00  0.00     0.004 C 
ENDBRANCH  18  19
ENDBRANCH  17  18
ENDBRANCH  16  17
ENDBRANCH  15  16
ENDBRANCH  13  14
ENDBRANCH  12  13
ENDBRANCH   1  11
TORSDOF 14
ENDMDL
