MODEL 1
REMARK VINA RESULT:    -5.068      0.000      0.000
REMARK INTER + INTRA:          -9.506
REMARK INTER:                  -8.771
REMARK INTRA:                  -0.734
REMARK UNBOUND:                -0.734
REMARK SMILES CCCCCCCCCCCCCCO
REMARK SMILES IDX 8 1 7 2 6 3 5 4 4 5 3 6 2 7 1 8 9 9 10 10 11 11 12 12 13 13
REMARK SMILES IDX 14 14 15 15
REMARK H PARENT 15 16
REMARK Flexibility Score: inf
ROOT
ATOM      1  C   UNL     1       9.270   7.119  -4.541  1.00  0.00     0.000 C 
ENDROOT
BRANCH   1   2
ATOM      2  C   UNL     1       9.956   6.507  -5.781  1.00  0.00    -0.000 C 
BRANCH   2   3
ATOM      3  C   UNL     1       9.309   6.925  -7.113  1.00  0.00    -0.000 C 
BRANCH   3   4
ATOM      4  C   UNL     1       9.164   5.754  -8.099  1.00  0.00    -0.000 C 
BRANCH   4   5
ATOM      5  C   UNL     1       8.999   4.401  -7.388  1.00  0.00    -0.000 C 
BRANCH   5   6
ATOM      6  C   UNL     1       8.660   3.260  -8.364  1.00  0.00    -0.000 C 
BRANCH   6   7
ATOM      7  C   UNL     1       9.055   3.590  -9.813  1.00  0.00    -0.003 C 
ATOM      8  C   UNL     1       7.984   3.185 -10.825  1.00  0.00     0.004 C 
ENDBRANCH   6   7
ENDBRANCH   5   6
ENDBRANCH   4   5
ENDBRANCH   3   4
ENDBRANCH   2   3
ENDBRANCH   1   2
BRANCH   1   9
ATOM      9  C   UNL     1       7.769   6.783  -4.484  1.00  0.00     0.000 C 
BRANCH   9  10
ATOM     10  C   UNL     1       7.357   6.113  -3.164  1.00  0.00     0.000 C 
BRANCH  10  11
ATOM     11  C   UNL     1       6.849   4.674  -3.364  1.00  0.00     0.000 C 
BRANCH  11  12
ATOM     12  C   UNL     1       6.640   3.924  -2.037  1.00  0.00     0.002 C 
BRANCH  12  13
ATOM     13  C   UNL     1       6.530   4.819  -0.788  1.00  0.00     0.028 C 
BRANCH  13  14
ATOM     14  C   UNL     1       6.294   4.044   0.516  1.00  0.00     0.156 C 
BRANCH  14  15
ATOM     15  O   UNL     1       6.850   4.720   1.612  1.00  0.00    -0.396 OA
ATOM     16  H   UNL     1       6.476   4.293   2.427  1.00  0.00     0.210 HD
ENDBRANCH  14  15
ENDBRANCH  13  14
ENDBRANCH  12  13
ENDBRANCH  11  12
ENDBRANCH  10  11
ENDBRANCH   9  10
ENDBRANCH   1   9
TORSDOF 13
ENDMDL
MODEL 2
REMARK VINA RESULT:    -5.022      2.988      6.764
REMARK INTER + INTRA:          -9.426
REMARK INTER:                  -8.465
REMARK INTRA:                  -0.961
REMARK UNBOUND:                -0.734
REMARK SMILES CCCCCCCCCCCCCCO
REMARK SMILES IDX 8 1 7 2 6 3 5 4 4 5 3 6 2 7 1 8 9 9 10 10 11 11 12 12 13 13
REMARK SMILES IDX 14 14 15 15
REMARK H PARENT 15 16
REMARK Flexibility Score: inf
ROOT
ATOM      1  C   UNL     1       7.959   7.094  -3.797  1.00  0.00     0.000 C 
ENDROOT
BRANCH   1   2
ATOM      2  C   UNL     1       7.396   8.385  -3.168  1.00  0.00    -0.000 C 
BRANCH   2   3
ATOM      3  C   UNL     1       7.129   8.270  -1.657  1.00  0.00    -0.000 C 
BRANCH   3   4
ATOM      4  C   UNL     1       6.129   7.154  -1.311  1.00  0.00    -0.000 C 
BRANCH   4   5
ATOM      5  C   UNL     1       6.700   6.140  -0.305  1.00  0.00    -0.000 C 
BRANCH   5   6
ATOM      6  C   UNL     1       6.365   4.686  -0.682  1.00  0.00    -0.000 C 
BRANCH   6   7
ATOM      7  C   UNL     1       7.120   4.215  -1.935  1.00  0.00    -0.003 C 
ATOM      8  C   UNL     1       6.191   3.932  -3.116  1.00  0.00     0.004 C 
ENDBRANCH   6   7
ENDBRANCH   5   6
ENDBRANCH   4   5
ENDBRANCH   3   4
ENDBRANCH   2   3
ENDBRANCH   1   2
BRANCH   1   9
ATOM      9  C   UNL     1       9.479   7.176  -4.027  1.00  0.00     0.000 C 
BRANCH   9  10
ATOM     10  C   UNL     1       9.889   6.787  -5.456  1.00  0.00     0.000 C 
BRANCH  10  11
ATOM     11  C   UNL     1       8.684   6.400  -6.331  1.00  0.00     0.000 C 
BRANCH  11  12
ATOM     12  C   UNL     1       9.076   5.534  -7.542  1.00  0.00     0.002 C 
BRANCH  12  13
ATOM     13  C   UNL     1       8.885   4.017  -7.352  1.00  0.00     0.028 C 
BRANCH  13  14
ATOM     14  C   UNL     1       8.646   3.250  -8.660  1.00  0.00     0.156 C 
BRANCH  14  15
ATOM     15  O   UNL     1       8.272   1.922  -8.406  1.00  0.00    -0.396 OA
ATOM     16  H   UNL     1       8.924   1.566  -7.748  1.00  0.00     0.210 HD
ENDBRANCH  14  15
ENDBRANCH  13  14
ENDBRANCH  12  13
ENDBRANCH  11  12
ENDBRANCH  10  11
ENDBRANCH   9  10
ENDBRANCH   1   9
TORSDOF 13
ENDMDL
MODEL 3
REMARK VINA RESULT:    -5.008      3.177      7.347
REMARK INTER + INTRA:          -9.402
REMARK INTER:                  -8.879
REMARK INTRA:                  -0.524
REMARK UNBOUND:                -0.734
REMARK SMILES CCCCCCCCCCCCCCO
REMARK SMILES IDX 8 1 7 2 6 3 5 4 4 5 3 6 2 7 1 8 9 9 10 10 11 11 12 12 13 13
REMARK SMILES IDX 14 14 15 15
REMARK H PARENT 15 16
REMARK Flexibility Score: inf
ROOT
ATOM      1  C   UNL     1       9.944   6.397  -5.955  1.00  0.00     0.000 C 
ENDROOT
BRANCH   1   2
ATOM      2  C   UNL     1       9.302   6.926  -4.655  1.00  0.00    -0.000 C 
BRANCH   2   3
ATOM      3  C   UNL     1       7.805   6.596  -4.527  1.00  0.00    -0.000 C 
BRANCH   3   4
ATOM      4  C   UNL     1       7.443   5.990  -3.160  1.00  0.00    -0.000 C 
BRANCH   4   5
ATOM      5  C   UNL     1       6.667   4.668  -3.288  1.00  0.00    -0.000 C 
BRANCH   5   6
ATOM      6  C   UNL     1       6.741   3.817  -2.008  1.00  0.00    -0.000 C 
BRANCH   6   7
ATOM      7  C   UNL     1       6.599   4.662  -0.731  1.00  0.00    -0.003 C 
ATOM      8  C   UNL     1       6.335   3.814   0.514  1.00  0.00     0.004 C 
ENDBRANCH   6   7
ENDBRANCH   5   6
ENDBRANCH   4   5
ENDBRANCH   3   4
ENDBRANCH   2   3
ENDBRANCH   1   2
BRANCH   1   9
ATOM      9  C   UNL     1       8.888   6.021  -7.011  1.00  0.00     0.000 C 
BRANCH   9  10
ATOM     10  C   UNL     1       8.911   4.528  -7.372  1.00  0.00     0.000 C 
BRANCH  10  11
ATOM     11  C   UNL     1       8.905   4.287  -8.892  1.00  0.00     0.000 C 
BRANCH  11  12
ATOM     12  C   UNL     1       9.331   2.858  -9.273  1.00  0.00     0.002 C 
BRANCH  12  13
ATOM     13  C   UNL     1       8.179   1.915  -9.673  1.00  0.00     0.028 C 
BRANCH  13  14
ATOM     14  C   UNL     1       8.620   0.469  -9.938  1.00  0.00     0.156 C 
BRANCH  14  15
ATOM     15  O   UNL     1       9.076  -0.144  -8.762  1.00  0.00    -0.396 OA
ATOM     16  H   UNL     1      10.014   0.156  -8.633  1.00  0.00     0.210 HD
ENDBRANCH  14  15
ENDBRANCH  13  14
ENDBRANCH  12  13
ENDBRANCH  11  12
ENDBRANCH  10  11
ENDBRANCH   9  10
ENDBRANCH   1   9
TORSDOF 13
ENDMDL
MODEL 4
REMARK VINA RESULT:    -4.929      2.657      7.327
REMARK INTER + INTRA:          -9.265
REMARK INTER:                  -8.667
REMARK INTRA:                  -0.598
REMARK UNBOUND:                -0.734
REMARK SMILES CCCCCCCCCCCCCCO
REMARK SMILES IDX 8 1 7 2 6 3 5 4 4 5 3 6 2 7 1 8 9 9 10 10 11 11 12 12 13 13
REMARK SMILES IDX 14 14 15 15
REMARK H PARENT 15 16
REMARK Flexibility Score: inf
ROOT
ATOM      1  C   UNL     1       9.210   7.401  -4.380  1.00  0.00     0.000 C 
ENDROOT
BRANCH   1   2
ATOM      2  C   UNL     1       7.867   6.643  -4.415  1.00  0.00    -0.000 C 
BRANCH   2   3
ATOM      3  C   UNL     1       7.469   6.028  -3.062  1.00  0.00    -0.000 C 
BRANCH   3   4
ATOM      4  C   UNL     1       6.770   4.666  -3.208  1.00  0.00    -0.000 C 
BRANCH   4   5
ATOM      5  C   UNL     1       6.251   4.122  -1.866  1.00  0.00    -0.000 C 
BRANCH   5   6
ATOM      6  C   UNL     1       6.349   5.160  -0.734  1.00  0.00    -0.000 C 
BRANCH   6   7
ATOM      7  C   UNL     1       7.113   4.625   0.489  1.00  0.00    -0.003 C 
ATOM      8  C   UNL     1       6.339   3.548   1.247  1.00  0.00     0.004 C 
ENDBRANCH   6   7
ENDBRANCH   5   6
ENDBRANCH   4   5
ENDBRANCH   3   4
ENDBRANCH   2   3
ENDBRANCH   1   2
BRANCH   1   9
ATOM      9  C   UNL     1      10.063   7.128  -5.633  1.00  0.00     0.000 C 
BRANCH   9  10
ATOM     10  C   UNL     1       9.420   7.668  -6.920  1.00  0.00     0.000 C 
BRANCH  10  11
ATOM     11  C   UNL     1       9.714   6.783  -8.144  1.00  0.00     0.000 C 
BRANCH  11  12
ATOM     12  C   UNL     1       9.205   5.340  -7.975  1.00  0.00     0.002 C 
BRANCH  12  13
ATOM     13  C   UNL     1       8.975   4.568  -9.289  1.00  0.00     0.028 C 
BRANCH  13  14
ATOM     14  C   UNL     1       8.929   3.044  -9.116  1.00  0.00     0.156 C 
BRANCH  14  15
ATOM     15  O   UNL     1       8.330   2.691  -7.898  1.00  0.00    -0.396 OA
ATOM     16  H   UNL     1       9.068   2.574  -7.243  1.00  0.00     0.210 HD
ENDBRANCH  14  15
ENDBRANCH  13  14
ENDBRANCH  12  13
ENDBRANCH  11  12
ENDBRANCH  10  11
ENDBRANCH   9  10
ENDBRANCH   1   9
TORSDOF 13
ENDMDL
MODEL 5
REMARK VINA RESULT:    -4.873      1.112      1.651
REMARK INTER + INTRA:          -9.167
REMARK INTER:                  -8.473
REMARK INTRA:                  -0.694
REMARK UNBOUND:                -0.734
REMARK SMILES CCCCCCCCCCCCCCO
REMARK SMILES IDX 8 1 7 2 6 3 5 4 4 5 3 6 2 7 1 8 9 9 10 10 11 11 12 12 13 13
REMARK SMILES IDX 14 14 15 15
REMARK H PARENT 15 16
REMARK Flexibility Score: inf
ROOT
ATOM      1  C   UNL     1       8.653   8.196  -3.622  1.00  0.00     0.000 C 
ENDROOT
BRANCH   1   2
ATOM      2  C   UNL     1       9.474   7.129  -4.377  1.00  0.00    -0.000 C 
BRANCH   2   3
ATOM      3  C   UNL     1       8.692   6.434  -5.506  1.00  0.00    -0.000 C 
BRANCH   3   4
ATOM      4  C   UNL     1       9.080   6.947  -6.903  1.00  0.00    -0.000 C 
BRANCH   4   5
ATOM      5  C   UNL     1       9.220   5.811  -7.931  1.00  0.00    -0.000 C 
BRANCH   5   6
ATOM      6  C   UNL     1       8.864   4.436  -7.340  1.00  0.00    -0.000 C 
BRANCH   6   7
ATOM      7  C   UNL     1       8.697   3.356  -8.421  1.00  0.00    -0.003 C 
ATOM      8  C   UNL     1       8.856   3.907  -9.838  1.00  0.00     0.004 C 
ENDBRANCH   6   7
ENDBRANCH   5   6
ENDBRANCH   4   5
ENDBRANCH   3   4
ENDBRANCH   2   3
ENDBRANCH   1   2
BRANCH   1   9
ATOM      9  C   UNL     1       7.244   7.692  -3.258  1.00  0.00     0.000 C 
BRANCH   9  10
ATOM     10  C   UNL     1       6.888   7.931  -1.783  1.00  0.00     0.000 C 
BRANCH  10  11
ATOM     11  C   UNL     1       6.508   6.632  -1.049  1.00  0.00     0.000 C 
BRANCH  11  12
ATOM     12  C   UNL     1       6.734   5.373  -1.905  1.00  0.00     0.002 C 
BRANCH  12  13
ATOM     13  C   UNL     1       6.915   4.065  -1.111  1.00  0.00     0.028 C 
BRANCH  13  14
ATOM     14  C   UNL     1       6.242   4.074   0.269  1.00  0.00     0.156 C 
BRANCH  14  15
ATOM     15  O   UNL     1       7.161   4.402   1.277  1.00  0.00    -0.396 OA
ATOM     16  H   UNL     1       7.816   3.657   1.316  1.00  0.00     0.210 HD
ENDBRANCH  14  15
ENDBRANCH  13  14
ENDBRANCH  12  13
ENDBRANCH  11  12
ENDBRANCH  10  11
ENDBRANCH   9  10
ENDBRANCH   1   9
TORSDOF 13
ENDMDL
MODEL 6
REMARK VINA RESULT:    -4.666      3.333      7.608
REMARK INTER + INTRA:          -8.809
REMARK INTER:                  -8.283
REMARK INTRA:                  -0.526
REMARK UNBOUND:                -0.734
REMARK SMILES CCCCCCCCCCCCCCO
REMARK SMILES IDX 8 1 7 2 6 3 5 4 4 5 3 6 2 7 1 8 9 9 10 10 11 11 12 12 13 13
REMARK SMILES IDX 14 14 15 15
REMARK H PARENT 15 16
REMARK Flexibility Score: inf
ROOT
ATOM      1  C   UNL     1       9.170   5.636  -7.657  1.00  0.00     0.000 C 
ENDROOT
BRANCH   1   2
ATOM      2  C   UNL     1       9.721   6.348  -6.404  1.00  0.00    -0.000 C 
BRANCH   2   3
ATOM      3  C   UNL     1       8.630   6.999  -5.536  1.00  0.00    -0.000 C 
BRANCH   3   4
ATOM      4  C   UNL     1       8.670   6.525  -4.073  1.00  0.00    -0.000 C 
BRANCH   4   5
ATOM      5  C   UNL     1       7.278   6.509  -3.419  1.00  0.00    -0.000 C 
BRANCH   5   6
ATOM      6  C   UNL     1       6.967   5.169  -2.730  1.00  0.00    -0.000 C 
BRANCH   6   7
ATOM      7  C   UNL     1       6.904   5.296  -1.199  1.00  0.00    -0.003 C 
ATOM      8  C   UNL     1       6.219   4.102  -0.534  1.00  0.00     0.004 C 
ENDBRANCH   6   7
ENDBRANCH   5   6
ENDBRANCH   4   5
ENDBRANCH   3   4
ENDBRANCH   2   3
ENDBRANCH   1   2
BRANCH   1   9
ATOM      9  C   UNL     1       8.964   4.128  -7.423  1.00  0.00     0.000 C 
BRANCH   9  10
ATOM     10  C   UNL     1       8.364   3.412  -8.643  1.00  0.00     0.000 C 
BRANCH  10  11
ATOM     11  C   UNL     1       9.148   3.692  -9.938  1.00  0.00     0.000 C 
BRANCH  11  12
ATOM     12  C   UNL     1       9.416   2.420 -10.762  1.00  0.00     0.002 C 
BRANCH  12  13
ATOM     13  C   UNL     1      10.364   1.400 -10.103  1.00  0.00     0.028 C 
BRANCH  13  14
ATOM     14  C   UNL     1       9.795  -0.023 -10.030  1.00  0.00     0.156 C 
BRANCH  14  15
ATOM     15  O   UNL     1       9.095  -0.226  -8.831  1.00  0.00    -0.396 OA
ATOM     16  H   UNL     1       9.123   0.635  -8.338  1.00  0.00     0.210 HD
ENDBRANCH  14  15
ENDBRANCH  13  14
ENDBRANCH  12  13
ENDBRANCH  11  12
ENDBRANCH  10  11
ENDBRANCH   9  10
ENDBRANCH   1   9
TORSDOF 13
ENDMDL
MODEL 7
REMARK VINA RESULT:    -4.361      1.115      1.929
REMARK INTER + INTRA:          -8.282
REMARK INTER:                  -7.600
REMARK INTRA:                  -0.682
REMARK UNBOUND:                -0.734
REMARK SMILES CCCCCCCCCCCCCCO
REMARK SMILES IDX 8 1 7 2 6 3 5 4 4 5 3 6 2 7 1 8 9 9 10 10 11 11 12 12 13 13
REMARK SMILES IDX 14 14 15 15
REMARK H PARENT 15 16
REMARK Flexibility Score: inf
ROOT
ATOM      1  C   UNL     1       8.844   6.377  -6.435  1.00  0.00     0.000 C 
ENDROOT
BRANCH   1   2
ATOM      2  C   UNL     1       9.842   6.498  -7.606  1.00  0.00    -0.000 C 
BRANCH   2   3
ATOM      3  C   UNL     1       9.206   7.015  -8.908  1.00  0.00    -0.000 C 
BRANCH   3   4
ATOM      4  C   UNL     1       9.584   6.166 -10.134  1.00  0.00    -0.000 C 
BRANCH   4   5
ATOM      5  C   UNL     1       8.586   5.024 -10.391  1.00  0.00    -0.000 C 
BRANCH   5   6
ATOM      6  C   UNL     1       9.281   3.724 -10.834  1.00  0.00    -0.000 C 
BRANCH   6   7
ATOM      7  C   UNL     1       9.178   2.612  -9.776  1.00  0.00    -0.003 C 
ATOM      8  C   UNL     1       8.614   3.111  -8.446  1.00  0.00     0.004 C 
ENDBRANCH   6   7
ENDBRANCH   5   6
ENDBRANCH   4   5
ENDBRANCH   3   4
ENDBRANCH   2   3
ENDBRANCH   1   2
BRANCH   1   9
ATOM      9  C   UNL     1       9.432   6.910  -5.116  1.00  0.00     0.000 C 
BRANCH   9  10
ATOM     10  C   UNL     1       8.356   7.198  -4.057  1.00  0.00     0.000 C 
BRANCH  10  11
ATOM     11  C   UNL     1       7.422   5.998  -3.822  1.00  0.00     0.000 C 
BRANCH  11  12
ATOM     12  C   UNL     1       6.986   5.858  -2.353  1.00  0.00     0.002 C 
BRANCH  12  13
ATOM     13  C   UNL     1       6.575   4.435  -1.924  1.00  0.00     0.028 C 
BRANCH  13  14
ATOM     14  C   UNL     1       6.558   4.223  -0.404  1.00  0.00     0.156 C 
BRANCH  14  15
ATOM     15  O   UNL     1       7.315   5.205   0.252  1.00  0.00    -0.396 OA
ATOM     16  H   UNL     1       8.257   5.072  -0.031  1.00  0.00     0.210 HD
ENDBRANCH  14  15
ENDBRANCH  13  14
ENDBRANCH  12  13
ENDBRANCH  11  12
ENDBRANCH  10  11
ENDBRANCH   9  10
ENDBRANCH   1   9
TORSDOF 13
ENDMDL
MODEL 8
REMARK VINA RESULT:    -4.348      3.874      7.969
REMARK INTER + INTRA:          -8.259
REMARK INTER:                  -7.694
REMARK INTRA:                  -0.566
REMARK UNBOUND:                -0.734
REMARK SMILES CCCCCCCCCCCCCCO
REMARK SMILES IDX 8 1 7 2 6 3 5 4 4 5 3 6 2 7 1 8 9 9 10 10 11 11 12 12 13 13
REMARK SMILES IDX 14 14 15 15
REMARK H PARENT 15 16
REMARK Flexibility Score: inf
ROOT
ATOM      1  C   UNL     1       9.130   4.374  -9.866  1.00  0.00     0.000 C 
ENDROOT
BRANCH   1   2
ATOM      2  C   UNL     1       8.505   3.678  -8.638  1.00  0.00    -0.000 C 
BRANCH   2   3
ATOM      3  C   UNL     1       8.869   4.345  -7.300  1.00  0.00    -0.000 C 
BRANCH   3   4
ATOM      4  C   UNL     1       9.145   5.851  -7.440  1.00  0.00    -0.000 C 
BRANCH   4   5
ATOM      5  C   UNL     1       9.863   6.435  -6.211  1.00  0.00    -0.000 C 
BRANCH   5   6
ATOM      6  C   UNL     1       8.949   7.350  -5.376  1.00  0.00    -0.000 C 
BRANCH   6   7
ATOM      7  C   UNL     1       8.162   6.575  -4.306  1.00  0.00    -0.003 C 
ATOM      8  C   UNL     1       7.537   7.490  -3.252  1.00  0.00     0.004 C 
ENDBRANCH   6   7
ENDBRANCH   5   6
ENDBRANCH   4   5
ENDBRANCH   3   4
ENDBRANCH   2   3
ENDBRANCH   1   2
BRANCH   1   9
ATOM      9  C   UNL     1       9.284   3.414 -11.060  1.00  0.00     0.000 C 
BRANCH   9  10
ATOM     10  C   UNL     1       9.244   1.935 -10.645  1.00  0.00     0.000 C 
BRANCH  10  11
ATOM     11  C   UNL     1      10.631   1.390 -10.264  1.00  0.00     0.000 C 
BRANCH  11  12
ATOM     12  C   UNL     1      10.983   0.083 -10.997  1.00  0.00     0.002 C 
BRANCH  12  13
ATOM     13  C   UNL     1      10.297  -1.183 -10.446  1.00  0.00     0.028 C 
BRANCH  13  14
ATOM     14  C   UNL     1      10.630  -1.485  -8.979  1.00  0.00     0.156 C 
BRANCH  14  15
ATOM     15  O   UNL     1       9.496  -1.348  -8.165  1.00  0.00    -0.396 OA
ATOM     16  H   UNL     1       9.453  -0.393  -7.898  1.00  0.00     0.210 HD
ENDBRANCH  14  15
ENDBRANCH  13  14
ENDBRANCH  12  13
ENDBRANCH  11  12
ENDBRANCH  10  11
ENDBRANCH   9  10
ENDBRANCH   1   9
TORSDOF 13
ENDMDL
MODEL 9
REMARK VINA RESULT:    -4.326      1.644      2.786
REMARK INTER + INTRA:          -8.222
REMARK INTER:                  -7.738
REMARK INTRA:                  -0.483
REMARK UNBOUND:                -0.734
REMARK SMILES CCCCCCCCCCCCCCO
REMARK SMILES IDX 8 1 7 2 6 3 5 4 4 5 3 6 2 7 1 8 9 9 10 10 11 11 12 12 13 13
REMARK SMILES IDX 14 14 15 15
REMARK H PARENT 15 16
REMARK Flexibility Score: inf
ROOT
ATOM      1  C   UNL     1       8.908   5.991  -7.157  1.00  0.00     0.000 C 
ENDROOT
BRANCH   1   2
ATOM      2  C   UNL     1       8.872   4.462  -7.363  1.00  0.00    -0.000 C 
BRANCH   2   3
ATOM      3  C   UNL     1       9.109   4.031  -8.821  1.00  0.00    -0.000 C 
BRANCH   3   4
ATOM      4  C   UNL     1       7.944   3.207  -9.395  1.00  0.00    -0.000 C 
BRANCH   4   5
ATOM      5  C   UNL     1       8.425   2.003 -10.223  1.00  0.00    -0.000 C 
BRANCH   5   6
ATOM      6  C   UNL     1       9.773   2.266 -10.917  1.00  0.00    -0.000 C 
BRANCH   6   7
ATOM      7  C   UNL     1      10.677   1.023 -10.937  1.00  0.00    -0.003 C 
ATOM      8  C   UNL     1      10.306   0.004  -9.860  1.00  0.00     0.004 C 
ENDBRANCH   6   7
ENDBRANCH   5   6
ENDBRANCH   4   5
ENDBRANCH   3   4
ENDBRANCH   2   3
ENDBRANCH   1   2
BRANCH   1   9
ATOM      9  C   UNL     1       9.689   6.387  -5.890  1.00  0.00     0.000 C 
BRANCH   9  10
ATOM     10  C   UNL     1       8.785   6.956  -4.786  1.00  0.00     0.000 C 
BRANCH  10  11
ATOM     11  C   UNL     1       7.650   5.993  -4.395  1.00  0.00     0.000 C 
BRANCH  11  12
ATOM     12  C   UNL     1       7.335   6.019  -2.889  1.00  0.00     0.002 C 
BRANCH  12  13
ATOM     13  C   UNL     1       6.651   4.751  -2.341  1.00  0.00     0.028 C 
BRANCH  13  14
ATOM     14  C   UNL     1       6.987   4.446  -0.875  1.00  0.00     0.156 C 
BRANCH  14  15
ATOM     15  O   UNL     1       7.380   5.607  -0.194  1.00  0.00    -0.396 OA
ATOM     16  H   UNL     1       7.982   5.315   0.539  1.00  0.00     0.210 HD
ENDBRANCH  14  15
ENDBRANCH  13  14
ENDBRANCH  12  13
ENDBRANCH  11  12
ENDBRANCH  10  11
ENDBRANCH   9  10
ENDBRANCH   1   9
TORSDOF 13
ENDMDL
