MODEL 1
REMARK VINA RESULT:    -4.255      0.000      0.000
REMARK INTER + INTRA:          -4.755
REMARK INTER:                  -4.629
REMARK INTRA:                  -0.127
REMARK UNBOUND:                -0.127
REMARK SMILES Cc1ccc(C(C)C)cc1O
REMARK SMILES IDX 1 1 2 2 10 3 9 4 5 5 4 6 3 7 11 8 6 10 7 11 8 12
REMARK H PARENT 11 9
REMARK Flexibility Score: inf
ROOT
ATOM      1  C   UNL     1     162.982 166.136 164.884  1.00  0.00     0.048 C 
ATOM      2  C   UNL     1     162.954 165.696 166.320  1.00  0.00    -0.009 A 
ATOM      3  C   UNL     1     161.861 164.963 166.815  1.00  0.00     0.118 A 
ATOM      4  C   UNL     1     161.842 164.556 168.156  1.00  0.00     0.050 A 
ATOM      5  C   UNL     1     162.905 164.873 169.019  1.00  0.00    -0.042 A 
ATOM      6  C   UNL     1     163.994 165.607 168.514  1.00  0.00     0.004 A 
ATOM      7  C   UNL     1     164.016 166.015 167.179  1.00  0.00     0.007 A 
ENDROOT
BRANCH   3   8
ATOM      8  O   UNL     1     160.798 164.640 165.972  1.00  0.00    -0.508 OA
ATOM      9  H   UNL     1     160.909 164.597 164.966  1.00  0.00     0.293 HD
ENDBRANCH   3   8
BRANCH   5  10
ATOM     10  C   UNL     1     162.867 164.423 170.468  1.00  0.00     0.013 C 
ATOM     11  C   UNL     1     164.273 164.409 171.079  1.00  0.00     0.012 C 
ATOM     12  C   UNL     1     162.193 163.053 170.604  1.00  0.00     0.012 C 
ENDBRANCH   5  10
TORSDOF 2
ENDMDL
MODEL 2
REMARK VINA RESULT:    -4.201      5.304      6.354
REMARK INTER + INTRA:          -4.696
REMARK INTER:                  -4.569
REMARK INTRA:                  -0.127
REMARK UNBOUND:                -0.127
REMARK SMILES Cc1ccc(C(C)C)cc1O
REMARK SMILES IDX 1 1 2 2 10 3 9 4 5 5 4 6 3 7 11 8 6 10 7 11 8 12
REMARK H PARENT 11 9
REMARK Flexibility Score: inf
ROOT
ATOM      1  C   UNL     1     168.341 165.215 164.876  1.00  0.00     0.048 C 
ATOM      2  C   UNL     1     168.317 165.598 166.329  1.00  0.00    -0.009 A 
ATOM      3  C   UNL     1     169.386 166.318 166.889  1.00  0.00     0.118 A 
ATOM      4  C   UNL     1     169.357 166.672 168.246  1.00  0.00     0.050 A 
ATOM      5  C   UNL     1     168.267 166.314 169.058  1.00  0.00    -0.042 A 
ATOM      6  C   UNL     1     167.202 165.593 168.488  1.00  0.00     0.004 A 
ATOM      7  C   UNL     1     167.228 165.239 167.137  1.00  0.00     0.007 A 
ENDROOT
BRANCH   3   8
ATOM      8  O   UNL     1     170.476 166.681 166.097  1.00  0.00    -0.508 OA
ATOM      9  H   UNL     1     171.419 166.387 166.322  1.00  0.00     0.293 HD
ENDBRANCH   3   8
BRANCH   5  10
ATOM     10  C   UNL     1     168.253 166.706 170.524  1.00  0.00     0.013 C 
ATOM     11  C   UNL     1     166.824 166.704 171.082  1.00  0.00     0.012 C 
ATOM     12  C   UNL     1     168.927 168.066 170.739  1.00  0.00     0.012 C 
ENDBRANCH   5  10
TORSDOF 2
ENDMDL
MODEL 3
REMARK VINA RESULT:    -4.094      1.360      3.905
REMARK INTER + INTRA:          -4.580
REMARK INTER:                  -4.456
REMARK INTRA:                  -0.123
REMARK UNBOUND:                -0.127
REMARK SMILES Cc1ccc(C(C)C)cc1O
REMARK SMILES IDX 1 1 2 2 10 3 9 4 5 5 4 6 3 7 11 8 6 10 7 11 8 12
REMARK H PARENT 11 9
REMARK Flexibility Score: inf
ROOT
ATOM      1  C   UNL     1     160.327 162.675 170.845  1.00  0.00     0.048 C 
ATOM      2  C   UNL     1     161.399 163.523 170.222  1.00  0.00    -0.009 A 
ATOM      3  C   UNL     1     161.216 164.067 168.939  1.00  0.00     0.118 A 
ATOM      4  C   UNL     1     162.221 164.858 168.364  1.00  0.00     0.050 A 
ATOM      5  C   UNL     1     163.417 165.116 169.058  1.00  0.00    -0.042 A 
ATOM      6  C   UNL     1     163.591 164.567 170.341  1.00  0.00     0.004 A 
ATOM      7  C   UNL     1     162.592 163.778 170.916  1.00  0.00     0.007 A 
ENDROOT
BRANCH   3   8
ATOM      8  O   UNL     1     160.036 163.822 168.238  1.00  0.00    -0.508 OA
ATOM      9  H   UNL     1     159.913 162.986 167.679  1.00  0.00     0.293 HD
ENDBRANCH   3   8
BRANCH   5  10
ATOM     10  C   UNL     1     164.494 165.975 168.420  1.00  0.00     0.013 C 
ATOM     11  C   UNL     1     164.226 166.174 166.923  1.00  0.00     0.012 C 
ATOM     12  C   UNL     1     165.888 165.380 168.656  1.00  0.00     0.012 C 
ENDBRANCH   5  10
TORSDOF 2
ENDMDL
MODEL 4
REMARK VINA RESULT:    -4.039      5.976      7.165
REMARK INTER + INTRA:          -4.520
REMARK INTER:                  -4.410
REMARK INTRA:                  -0.110
REMARK UNBOUND:                -0.127
REMARK SMILES Cc1ccc(C(C)C)cc1O
REMARK SMILES IDX 1 1 2 2 10 3 9 4 5 5 4 6 3 7 11 8 6 10 7 11 8 12
REMARK H PARENT 11 9
REMARK Flexibility Score: inf
ROOT
ATOM      1  C   UNL     1     171.630 168.756 169.677  1.00  0.00     0.048 C 
ATOM      2  C   UNL     1     170.348 167.973 169.666  1.00  0.00    -0.009 A 
ATOM      3  C   UNL     1     170.032 167.148 168.573  1.00  0.00     0.118 A 
ATOM      4  C   UNL     1     168.834 166.419 168.569  1.00  0.00     0.050 A 
ATOM      5  C   UNL     1     167.939 166.503 169.650  1.00  0.00    -0.042 A 
ATOM      6  C   UNL     1     168.264 167.332 170.739  1.00  0.00     0.004 A 
ATOM      7  C   UNL     1     169.456 168.059 170.746  1.00  0.00     0.007 A 
ENDROOT
BRANCH   3   8
ATOM      8  O   UNL     1     170.909 167.053 167.493  1.00  0.00    -0.508 OA
ATOM      9  H   UNL     1     171.814 166.604 167.579  1.00  0.00     0.293 HD
ENDBRANCH   3   8
BRANCH   5  10
ATOM     10  C   UNL     1     166.647 165.707 169.629  1.00  0.00     0.013 C 
ATOM     11  C   UNL     1     166.728 164.498 170.569  1.00  0.00     0.012 C 
ATOM     12  C   UNL     1     166.288 165.273 168.202  1.00  0.00     0.012 C 
ENDBRANCH   5  10
TORSDOF 2
ENDMDL
MODEL 5
REMARK VINA RESULT:    -3.995      8.228      8.968
REMARK INTER + INTRA:          -4.471
REMARK INTER:                  -4.352
REMARK INTRA:                  -0.119
REMARK UNBOUND:                -0.127
REMARK SMILES Cc1ccc(C(C)C)cc1O
REMARK SMILES IDX 1 1 2 2 10 3 9 4 5 5 4 6 3 7 11 8 6 10 7 11 8 12
REMARK H PARENT 11 9
REMARK Flexibility Score: inf
ROOT
ATOM      1  C   UNL     1     163.337 175.830 164.876  1.00  0.00     0.048 C 
ATOM      2  C   UNL     1     162.947 174.963 166.039  1.00  0.00    -0.009 A 
ATOM      3  C   UNL     1     163.725 173.843 166.379  1.00  0.00     0.118 A 
ATOM      4  C   UNL     1     163.355 173.038 167.466  1.00  0.00     0.050 A 
ATOM      5  C   UNL     1     162.211 173.338 168.225  1.00  0.00    -0.042 A 
ATOM      6  C   UNL     1     161.440 174.461 167.877  1.00  0.00     0.004 A 
ATOM      7  C   UNL     1     161.804 175.264 166.795  1.00  0.00     0.007 A 
ENDROOT
BRANCH   3   8
ATOM      8  O   UNL     1     164.863 173.531 165.635  1.00  0.00    -0.508 OA
ATOM      9  H   UNL     1     165.068 173.991 164.756  1.00  0.00     0.293 HD
ENDBRANCH   3   8
BRANCH   5  10
ATOM     10  C   UNL     1     161.827 172.455 169.399  1.00  0.00     0.013 C 
ATOM     11  C   UNL     1     162.795 171.275 169.542  1.00  0.00     0.012 C 
ATOM     12  C   UNL     1     160.378 171.969 169.274  1.00  0.00     0.012 C 
ENDBRANCH   5  10
TORSDOF 2
ENDMDL
MODEL 6
REMARK VINA RESULT:    -3.743      4.402      5.821
REMARK INTER + INTRA:          -4.198
REMARK INTER:                  -4.071
REMARK INTRA:                  -0.126
REMARK UNBOUND:                -0.127
REMARK SMILES Cc1ccc(C(C)C)cc1O
REMARK SMILES IDX 1 1 2 2 10 3 9 4 5 5 4 6 3 7 11 8 6 10 7 11 8 12
REMARK H PARENT 11 9
REMARK Flexibility Score: inf
ROOT
ATOM      1  C   UNL     1     163.720 165.112 169.499  1.00  0.00     0.048 C 
ATOM      2  C   UNL     1     165.148 165.577 169.533  1.00  0.00    -0.009 A 
ATOM      3  C   UNL     1     165.630 166.306 170.635  1.00  0.00     0.118 A 
ATOM      4  C   UNL     1     166.964 166.737 170.660  1.00  0.00     0.050 A 
ATOM      5  C   UNL     1     167.832 166.450 169.592  1.00  0.00    -0.042 A 
ATOM      6  C   UNL     1     167.340 165.721 168.494  1.00  0.00     0.004 A 
ATOM      7  C   UNL     1     166.012 165.290 168.466  1.00  0.00     0.007 A 
ENDROOT
BRANCH   3   8
ATOM      8  O   UNL     1     164.782 166.599 171.703  1.00  0.00    -0.508 OA
ATOM      9  H   UNL     1     164.762 166.028 172.539  1.00  0.00     0.293 HD
ENDBRANCH   3   8
BRANCH   5  10
ATOM     10  C   UNL     1     169.272 166.925 169.636  1.00  0.00     0.013 C 
ATOM     11  C   UNL     1     169.390 168.263 170.376  1.00  0.00     0.012 C 
ATOM     12  C   UNL     1     169.867 167.020 168.226  1.00  0.00     0.012 C 
ENDBRANCH   5  10
TORSDOF 2
ENDMDL
MODEL 7
REMARK VINA RESULT:    -3.674      2.599      4.061
REMARK INTER + INTRA:          -4.123
REMARK INTER:                  -3.996
REMARK INTRA:                  -0.127
REMARK UNBOUND:                -0.127
REMARK SMILES Cc1ccc(C(C)C)cc1O
REMARK SMILES IDX 1 1 2 2 10 3 9 4 5 5 4 6 3 7 11 8 6 10 7 11 8 12
REMARK H PARENT 11 9
REMARK Flexibility Score: inf
ROOT
ATOM      1  C   UNL     1     166.816 165.962 170.100  1.00  0.00     0.048 C 
ATOM      2  C   UNL     1     165.423 165.561 169.706  1.00  0.00    -0.009 A 
ATOM      3  C   UNL     1     164.613 164.841 170.601  1.00  0.00     0.118 A 
ATOM      4  C   UNL     1     163.314 164.470 170.227  1.00  0.00     0.050 A 
ATOM      5  C   UNL     1     162.806 164.811 168.961  1.00  0.00    -0.042 A 
ATOM      6  C   UNL     1     163.624 165.532 168.072  1.00  0.00     0.004 A 
ATOM      7  C   UNL     1     164.919 165.902 168.442  1.00  0.00     0.007 A 
ENDROOT
BRANCH   3   8
ATOM      8  O   UNL     1     165.101 164.495 171.861  1.00  0.00    -0.508 OA
ATOM      9  H   UNL     1     165.316 163.535 172.104  1.00  0.00     0.293 HD
ENDBRANCH   3   8
BRANCH   5  10
ATOM     10  C   UNL     1     161.397 164.401 168.573  1.00  0.00     0.013 C 
ATOM     11  C   UNL     1     161.062 163.003 169.106  1.00  0.00     0.012 C 
ATOM     12  C   UNL     1     161.198 164.475 167.054  1.00  0.00     0.012 C 
ENDBRANCH   5  10
TORSDOF 2
ENDMDL
MODEL 8
REMARK VINA RESULT:    -3.649      6.422      7.608
REMARK INTER + INTRA:          -4.096
REMARK INTER:                  -3.969
REMARK INTRA:                  -0.127
REMARK UNBOUND:                -0.127
REMARK SMILES Cc1ccc(C(C)C)cc1O
REMARK SMILES IDX 1 1 2 2 10 3 9 4 5 5 4 6 3 7 11 8 6 10 7 11 8 12
REMARK H PARENT 11 9
REMARK Flexibility Score: inf
ROOT
ATOM      1  C   UNL     1     171.929 168.879 169.764  1.00  0.00     0.048 C 
ATOM      2  C   UNL     1     170.658 168.084 169.678  1.00  0.00    -0.009 A 
ATOM      3  C   UNL     1     169.799 167.999 170.788  1.00  0.00     0.118 A 
ATOM      4  C   UNL     1     168.614 167.255 170.700  1.00  0.00     0.050 A 
ATOM      5  C   UNL     1     168.270 166.588 169.511  1.00  0.00    -0.042 A 
ATOM      6  C   UNL     1     169.136 166.679 168.406  1.00  0.00     0.004 A 
ATOM      7  C   UNL     1     170.317 167.419 168.490  1.00  0.00     0.007 A 
ENDROOT
BRANCH   3   8
ATOM      8  O   UNL     1     170.125 168.654 171.975  1.00  0.00    -0.508 OA
ATOM      9  H   UNL     1     169.942 168.238 172.881  1.00  0.00     0.293 HD
ENDBRANCH   3   8
BRANCH   5  10
ATOM     10  C   UNL     1     166.983 165.788 169.434  1.00  0.00     0.013 C 
ATOM     11  C   UNL     1     166.888 164.783 170.589  1.00  0.00     0.012 C 
ATOM     12  C   UNL     1     166.849 165.084 168.079  1.00  0.00     0.012 C 
ENDBRANCH   5  10
TORSDOF 2
ENDMDL
MODEL 9
REMARK VINA RESULT:    -3.646      8.372      9.180
REMARK INTER + INTRA:          -4.092
REMARK INTER:                  -3.966
REMARK INTRA:                  -0.126
REMARK UNBOUND:                -0.127
REMARK SMILES Cc1ccc(C(C)C)cc1O
REMARK SMILES IDX 1 1 2 2 10 3 9 4 5 5 4 6 3 7 11 8 6 10 7 11 8 12
REMARK H PARENT 11 9
REMARK Flexibility Score: inf
ROOT
ATOM      1  C   UNL     1     168.793 155.875 166.107  1.00  0.00     0.048 C 
ATOM      2  C   UNL     1     168.855 156.948 167.156  1.00  0.00    -0.009 A 
ATOM      3  C   UNL     1     167.855 157.934 167.221  1.00  0.00     0.118 A 
ATOM      4  C   UNL     1     167.919 158.933 168.203  1.00  0.00     0.050 A 
ATOM      5  C   UNL     1     168.977 158.963 169.129  1.00  0.00    -0.042 A 
ATOM      6  C   UNL     1     169.973 157.972 169.056  1.00  0.00     0.004 A 
ATOM      7  C   UNL     1     169.912 156.976 168.078  1.00  0.00     0.007 A 
ENDROOT
BRANCH   3   8
ATOM      8  O   UNL     1     166.799 157.919 166.310  1.00  0.00    -0.508 OA
ATOM      9  H   UNL     1     165.863 158.201 166.576  1.00  0.00     0.293 HD
ENDBRANCH   3   8
BRANCH   5  10
ATOM     10  C   UNL     1     169.030 160.051 170.186  1.00  0.00     0.013 C 
ATOM     11  C   UNL     1     170.366 160.026 170.937  1.00  0.00     0.012 C 
ATOM     12  C   UNL     1     167.849 159.936 171.157  1.00  0.00     0.012 C 
ENDBRANCH   5  10
TORSDOF 2
ENDMDL
