MODEL 1
REMARK VINA RESULT:    -3.372      0.000      0.000
REMARK INTER + INTRA:          -4.240
REMARK INTER:                  -4.160
REMARK INTRA:                  -0.079
REMARK UNBOUND:                -0.079
REMARK SMILES CCCCCC(=O)[O-]
REMARK SMILES IDX 4 1 5 2 6 3 7 4 8 5 3 6 2 7 1 8
REMARK H PARENT
REMARK Flexibility Score: inf
ROOT
ATOM      1  C   UNL     1      -5.839  35.829  22.298  1.00  0.00     0.006 C 
ENDROOT
BRANCH   1   2
ATOM      2  C   UNL     1      -6.124  35.370  20.862  1.00  0.00     0.053 C 
BRANCH   2   3
ATOM      3  C   UNL     1      -5.233  36.059  19.873  1.00  0.00     0.041 C 
ATOM      4  O   UNL     1      -5.188  37.316  19.829  1.00  0.00    -0.550 OA
ATOM      5  O   UNL     1      -4.478  35.311  18.979  1.00  0.00    -0.550 OA
ENDBRANCH   2   3
ENDBRANCH   1   2
BRANCH   1   6
ATOM      6  C   UNL     1      -5.731  34.648  23.275  1.00  0.00     0.000 C 
BRANCH   6   7
ATOM      7  C   UNL     1      -6.118  35.074  24.696  1.00  0.00    -0.003 C 
ATOM      8  C   UNL     1      -5.725  36.524  24.963  1.00  0.00     0.004 C 
ENDBRANCH   6   7
ENDBRANCH   1   6
TORSDOF 4
ENDMDL
MODEL 2
REMARK VINA RESULT:    -3.001      2.664      4.550
REMARK INTER + INTRA:          -3.781
REMARK INTER:                  -3.679
REMARK INTRA:                  -0.102
REMARK UNBOUND:                -0.079
REMARK SMILES CCCCCC(=O)[O-]
REMARK SMILES IDX 4 1 5 2 6 3 7 4 8 5 3 6 2 7 1 8
REMARK H PARENT
REMARK Flexibility Score: inf
ROOT
ATOM      1  C   UNL     1      -5.725  36.748  21.348  1.00  0.00     0.006 C 
ENDROOT
BRANCH   1   2
ATOM      2  C   UNL     1      -6.122  35.361  21.870  1.00  0.00     0.053 C 
BRANCH   2   3
ATOM      3  C   UNL     1      -6.073  35.296  23.366  1.00  0.00     0.041 C 
ATOM      4  O   UNL     1      -6.016  34.182  23.951  1.00  0.00    -0.550 OA
ATOM      5  O   UNL     1      -6.124  36.464  24.114  1.00  0.00    -0.550 OA
ENDBRANCH   2   3
ENDBRANCH   1   2
BRANCH   1   6
ATOM      6  C   UNL     1      -5.235  36.703  19.893  1.00  0.00     0.000 C 
BRANCH   6   7
ATOM      7  C   UNL     1      -4.588  35.351  19.573  1.00  0.00    -0.003 C 
ATOM      8  C   UNL     1      -5.267  34.682  18.381  1.00  0.00     0.004 C 
ENDBRANCH   6   7
ENDBRANCH   1   6
TORSDOF 4
ENDMDL
MODEL 3
REMARK VINA RESULT:    -2.970      1.488      2.041
REMARK INTER + INTRA:          -3.744
REMARK INTER:                  -3.671
REMARK INTRA:                  -0.073
REMARK UNBOUND:                -0.079
REMARK SMILES CCCCCC(=O)[O-]
REMARK SMILES IDX 4 1 5 2 6 3 7 4 8 5 3 6 2 7 1 8
REMARK H PARENT
REMARK Flexibility Score: inf
ROOT
ATOM      1  C   UNL     1      -4.887  35.582  20.920  1.00  0.00     0.006 C 
ENDROOT
BRANCH   1   2
ATOM      2  C   UNL     1      -5.155  36.026  19.476  1.00  0.00     0.053 C 
BRANCH   2   3
ATOM      3  C   UNL     1      -5.139  34.866  18.527  1.00  0.00     0.041 C 
ATOM      4  O   UNL     1      -4.251  34.785  17.639  1.00  0.00    -0.550 OA
ATOM      5  O   UNL     1      -6.125  33.891  18.606  1.00  0.00    -0.550 OA
ENDBRANCH   2   3
ENDBRANCH   1   2
BRANCH   1   6
ATOM      6  C   UNL     1      -6.099  35.819  21.835  1.00  0.00     0.000 C 
BRANCH   6   7
ATOM      7  C   UNL     1      -5.979  35.001  23.126  1.00  0.00    -0.003 C 
ATOM      8  C   UNL     1      -6.122  35.891  24.357  1.00  0.00     0.004 C 
ENDBRANCH   6   7
ENDBRANCH   1   6
TORSDOF 4
ENDMDL
MODEL 4
REMARK VINA RESULT:    -2.633      2.646      4.248
REMARK INTER + INTRA:          -3.328
REMARK INTER:                  -3.169
REMARK INTRA:                  -0.159
REMARK UNBOUND:                -0.079
REMARK SMILES CCCCCC(=O)[O-]
REMARK SMILES IDX 4 1 5 2 6 3 7 4 8 5 3 6 2 7 1 8
REMARK H PARENT
REMARK Flexibility Score: inf
ROOT
ATOM      1  C   UNL     1      -4.995  35.105  21.971  1.00  0.00     0.006 C 
ENDROOT
BRANCH   1   2
ATOM      2  C   UNL     1      -5.983  34.829  23.112  1.00  0.00     0.053 C 
BRANCH   2   3
ATOM      3  C   UNL     1      -6.075  35.987  24.059  1.00  0.00     0.041 C 
ATOM      4  O   UNL     1      -6.125  37.165  23.617  1.00  0.00    -0.550 OA
ATOM      5  O   UNL     1      -6.072  35.765  25.429  1.00  0.00    -0.550 OA
ENDBRANCH   2   3
ENDBRANCH   1   2
BRANCH   1   6
ATOM      6  C   UNL     1      -5.708  35.359  20.634  1.00  0.00     0.000 C 
BRANCH   6   7
ATOM      7  C   UNL     1      -4.923  36.358  19.775  1.00  0.00    -0.003 C 
ATOM      8  C   UNL     1      -5.268  37.796  20.147  1.00  0.00     0.004 C 
ENDBRANCH   6   7
ENDBRANCH   1   6
TORSDOF 4
ENDMDL
MODEL 5
REMARK VINA RESULT:    -2.257      3.272      4.766
REMARK INTER + INTRA:          -2.864
REMARK INTER:                  -2.786
REMARK INTRA:                  -0.079
REMARK UNBOUND:                -0.079
REMARK SMILES CCCCCC(=O)[O-]
REMARK SMILES IDX 4 1 5 2 6 3 7 4 8 5 3 6 2 7 1 8
REMARK H PARENT
REMARK Flexibility Score: inf
ROOT
ATOM      1  C   UNL     1      -5.825  35.097  22.810  1.00  0.00     0.006 C 
ENDROOT
BRANCH   1   2
ATOM      2  C   UNL     1      -6.125  36.419  23.531  1.00  0.00     0.053 C 
BRANCH   2   3
ATOM      3  C   UNL     1      -5.870  36.317  25.004  1.00  0.00     0.041 C 
ATOM      4  O   UNL     1      -6.124  35.248  25.619  1.00  0.00    -0.550 OA
ATOM      5  O   UNL     1      -5.385  37.414  25.702  1.00  0.00    -0.550 OA
ENDBRANCH   2   3
ENDBRANCH   1   2
BRANCH   1   6
ATOM      6  C   UNL     1      -4.837  35.281  21.647  1.00  0.00     0.000 C 
BRANCH   6   7
ATOM      7  C   UNL     1      -5.513  35.974  20.458  1.00  0.00    -0.003 C 
ATOM      8  C   UNL     1      -5.867  34.972  19.364  1.00  0.00     0.004 C 
ENDBRANCH   6   7
ENDBRANCH   1   6
TORSDOF 4
ENDMDL
MODEL 6
REMARK VINA RESULT:    -2.212      2.988      3.451
REMARK INTER + INTRA:          -2.809
REMARK INTER:                  -2.768
REMARK INTRA:                  -0.041
REMARK UNBOUND:                -0.079
REMARK SMILES CCCCCC(=O)[O-]
REMARK SMILES IDX 4 1 5 2 6 3 7 4 8 5 3 6 2 7 1 8
REMARK H PARENT
REMARK Flexibility Score: inf
ROOT
ATOM      1  C   UNL     1      -5.130  36.948  19.693  1.00  0.00     0.006 C 
ENDROOT
BRANCH   1   2
ATOM      2  C   UNL     1      -4.948  35.430  19.825  1.00  0.00     0.053 C 
BRANCH   2   3
ATOM      3  C   UNL     1      -5.074  34.739  18.501  1.00  0.00     0.041 C 
ATOM      4  O   UNL     1      -4.248  34.977  17.581  1.00  0.00    -0.550 OA
ATOM      5  O   UNL     1      -6.122  33.858  18.274  1.00  0.00    -0.550 OA
ENDBRANCH   2   3
ENDBRANCH   1   2
BRANCH   1   6
ATOM      6  C   UNL     1      -5.461  37.613  21.038  1.00  0.00     0.000 C 
BRANCH   6   7
ATOM      7  C   UNL     1      -5.937  39.056  20.834  1.00  0.00    -0.003 C 
ATOM      8  C   UNL     1      -5.812  39.865  22.122  1.00  0.00     0.004 C 
ENDBRANCH   6   7
ENDBRANCH   1   6
TORSDOF 4
ENDMDL
MODEL 7
REMARK VINA RESULT:    -1.981      2.137      2.593
REMARK INTER + INTRA:          -2.524
REMARK INTER:                  -2.409
REMARK INTRA:                  -0.115
REMARK UNBOUND:                -0.079
REMARK SMILES CCCCCC(=O)[O-]
REMARK SMILES IDX 4 1 5 2 6 3 7 4 8 5 3 6 2 7 1 8
REMARK H PARENT
REMARK Flexibility Score: inf
ROOT
ATOM      1  C   UNL     1      -4.920  36.349  21.183  1.00  0.00     0.006 C 
ENDROOT
BRANCH   1   2
ATOM      2  C   UNL     1      -5.584  37.395  20.279  1.00  0.00     0.053 C 
BRANCH   2   3
ATOM      3  C   UNL     1      -5.825  38.683  21.006  1.00  0.00     0.041 C 
ATOM      4  O   UNL     1      -6.125  39.725  20.366  1.00  0.00    -0.550 OA
ATOM      5  O   UNL     1      -5.686  38.738  22.386  1.00  0.00    -0.550 OA
ENDBRANCH   2   3
ENDBRANCH   1   2
BRANCH   1   6
ATOM      6  C   UNL     1      -5.937  35.359  21.772  1.00  0.00     0.000 C 
BRANCH   6   7
ATOM      7  C   UNL     1      -5.550  34.959  23.200  1.00  0.00    -0.003 C 
ATOM      8  C   UNL     1      -6.096  35.954  24.219  1.00  0.00     0.004 C 
ENDBRANCH   6   7
ENDBRANCH   1   6
TORSDOF 4
ENDMDL
MODEL 8
REMARK VINA RESULT:    -0.712     12.719     13.895
REMARK INTER + INTRA:          -0.958
REMARK INTER:                  -0.834
REMARK INTRA:                  -0.124
REMARK UNBOUND:                -0.079
REMARK SMILES CCCCCC(=O)[O-]
REMARK SMILES IDX 4 1 5 2 6 3 7 4 8 5 3 6 2 7 1 8
REMARK H PARENT
REMARK Flexibility Score: inf
ROOT
ATOM      1  C   UNL     1      -4.886  24.334  29.612  1.00  0.00     0.006 C 
ENDROOT
BRANCH   1   2
ATOM      2  C   UNL     1      -5.742  25.530  29.172  1.00  0.00     0.053 C 
BRANCH   2   3
ATOM      3  C   UNL     1      -5.320  26.795  29.856  1.00  0.00     0.041 C 
ATOM      4  O   UNL     1      -5.981  27.854  29.694  1.00  0.00    -0.550 OA
ATOM      5  O   UNL     1      -4.179  26.810  30.646  1.00  0.00    -0.550 OA
ENDBRANCH   2   3
ENDBRANCH   1   2
BRANCH   1   6
ATOM      6  C   UNL     1      -5.697  23.301  30.410  1.00  0.00     0.000 C 
BRANCH   6   7
ATOM      7  C   UNL     1      -5.372  21.875  29.949  1.00  0.00    -0.003 C 
ATOM      8  C   UNL     1      -4.737  21.875  28.562  1.00  0.00     0.004 C 
ENDBRANCH   6   7
ENDBRANCH   1   6
TORSDOF 4
ENDMDL
