MODEL 1
REMARK VINA RESULT:    -3.247      0.000      0.000
REMARK INTER + INTRA:          -3.637
REMARK INTER:                  -3.626
REMARK INTRA:                  -0.011
REMARK UNBOUND:                -0.011
REMARK SMILES CCCC(=O)[O-]
REMARK SMILES IDX 3 1 4 2 5 3 6 4 2 5 1 6
REMARK H PARENT
REMARK Flexibility Score: inf
ROOT
ATOM      1  C   UNL     1      -8.122  14.806 -13.512  1.00  0.00     0.052 C 
ENDROOT
BRANCH   1   2
ATOM      2  C   UNL     1      -7.540  15.172 -12.181  1.00  0.00     0.041 C 
ATOM      3  O   UNL     1      -7.309  16.378 -11.901  1.00  0.00    -0.550 OA
ATOM      4  O   UNL     1      -7.222  14.179 -11.263  1.00  0.00    -0.550 OA
ENDBRANCH   1   2
BRANCH   1   5
ATOM      5  C   UNL     1      -7.724  13.386 -13.935  1.00  0.00     0.003 C 
ATOM      6  C   UNL     1      -8.631  12.830 -15.033  1.00  0.00     0.004 C 
ENDBRANCH   1   5
TORSDOF 2
ENDMDL
MODEL 2
REMARK VINA RESULT:    -3.173      0.314      1.342
REMARK INTER + INTRA:          -3.554
REMARK INTER:                  -3.540
REMARK INTRA:                  -0.014
REMARK UNBOUND:                -0.011
REMARK SMILES CCCC(=O)[O-]
REMARK SMILES IDX 3 1 4 2 5 3 6 4 2 5 1 6
REMARK H PARENT
REMARK Flexibility Score: inf
ROOT
ATOM      1  C   UNL     1      -8.033  14.891 -13.484  1.00  0.00     0.052 C 
ENDROOT
BRANCH   1   2
ATOM      2  C   UNL     1      -7.663  15.312 -12.095  1.00  0.00     0.041 C 
ATOM      3  O   UNL     1      -7.243  14.462 -11.266  1.00  0.00    -0.550 OA
ATOM      4  O   UNL     1      -7.815  16.637 -11.706  1.00  0.00    -0.550 OA
ENDBRANCH   1   2
BRANCH   1   5
ATOM      5  C   UNL     1      -7.639  13.434 -13.760  1.00  0.00     0.003 C 
ATOM      6  C   UNL     1      -8.455  12.816 -14.895  1.00  0.00     0.004 C 
ENDBRANCH   1   5
TORSDOF 2
ENDMDL
MODEL 3
REMARK VINA RESULT:    -3.133      1.862      2.295
REMARK INTER + INTRA:          -3.510
REMARK INTER:                  -3.500
REMARK INTRA:                  -0.010
REMARK UNBOUND:                -0.011
REMARK SMILES CCCC(=O)[O-]
REMARK SMILES IDX 3 1 4 2 5 3 6 4 2 5 1 6
REMARK H PARENT
REMARK Flexibility Score: inf
ROOT
ATOM      1  C   UNL     1      -7.885  15.317 -12.383  1.00  0.00     0.052 C 
ENDROOT
BRANCH   1   2
ATOM      2  C   UNL     1      -8.760  16.533 -12.357  1.00  0.00     0.041 C 
ATOM      3  O   UNL     1      -9.881  16.520 -12.930  1.00  0.00    -0.550 OA
ATOM      4  O   UNL     1      -8.322  17.692 -11.727  1.00  0.00    -0.550 OA
ENDBRANCH   1   2
BRANCH   1   5
ATOM      5  C   UNL     1      -8.035  14.539 -13.697  1.00  0.00     0.003 C 
ATOM      6  C   UNL     1      -7.341  13.178 -13.649  1.00  0.00     0.004 C 
ENDBRANCH   1   5
TORSDOF 2
ENDMDL
MODEL 4
REMARK VINA RESULT:    -3.048      1.130      1.373
REMARK INTER + INTRA:          -3.415
REMARK INTER:                  -3.405
REMARK INTRA:                  -0.011
REMARK UNBOUND:                -0.011
REMARK SMILES CCCC(=O)[O-]
REMARK SMILES IDX 3 1 4 2 5 3 6 4 2 5 1 6
REMARK H PARENT
REMARK Flexibility Score: inf
ROOT
ATOM      1  C   UNL     1      -7.959  15.193 -14.137  1.00  0.00     0.052 C 
ENDROOT
BRANCH   1   2
ATOM      2  C   UNL     1      -8.312  15.894 -12.861  1.00  0.00     0.041 C 
ATOM      3  O   UNL     1      -9.458  16.392 -12.707  1.00  0.00    -0.550 OA
ATOM      4  O   UNL     1      -7.364  16.025 -11.854  1.00  0.00    -0.550 OA
ENDBRANCH   1   2
BRANCH   1   5
ATOM      5  C   UNL     1      -7.885  13.672 -13.947  1.00  0.00     0.003 C 
ATOM      6  C   UNL     1      -8.682  12.914 -15.008  1.00  0.00     0.004 C 
ENDBRANCH   1   5
TORSDOF 2
ENDMDL
MODEL 5
REMARK VINA RESULT:    -2.963      2.172      3.200
REMARK INTER + INTRA:          -3.320
REMARK INTER:                  -3.283
REMARK INTRA:                  -0.037
REMARK UNBOUND:                -0.011
REMARK SMILES CCCC(=O)[O-]
REMARK SMILES IDX 3 1 4 2 5 3 6 4 2 5 1 6
REMARK H PARENT
REMARK Flexibility Score: inf
ROOT
ATOM      1  C   UNL     1      -8.738  16.228 -12.153  1.00  0.00     0.052 C 
ENDROOT
BRANCH   1   2
ATOM      2  C   UNL     1      -7.545  15.323 -12.158  1.00  0.00     0.041 C 
ATOM      3  O   UNL     1      -6.793  15.270 -13.167  1.00  0.00    -0.550 OA
ATOM      4  O   UNL     1      -7.281  14.513 -11.060  1.00  0.00    -0.550 OA
ENDBRANCH   1   2
BRANCH   1   5
ATOM      5  C   UNL     1      -8.718  17.200 -13.340  1.00  0.00     0.003 C 
ATOM      6  C   UNL     1      -8.328  18.619 -12.925  1.00  0.00     0.004 C 
ENDBRANCH   1   5
TORSDOF 2
ENDMDL
MODEL 6
REMARK VINA RESULT:    -2.846      2.419      2.970
REMARK INTER + INTRA:          -3.189
REMARK INTER:                  -3.139
REMARK INTRA:                  -0.050
REMARK UNBOUND:                -0.011
REMARK SMILES CCCC(=O)[O-]
REMARK SMILES IDX 3 1 4 2 5 3 6 4 2 5 1 6
REMARK H PARENT
REMARK Flexibility Score: inf
ROOT
ATOM      1  C   UNL     1      -8.799  16.329 -12.314  1.00  0.00     0.052 C 
ENDROOT
BRANCH   1   2
ATOM      2  C   UNL     1      -8.250  17.111 -13.467  1.00  0.00     0.041 C 
ATOM      3  O   UNL     1      -7.384  18.004 -13.273  1.00  0.00    -0.550 OA
ATOM      4  O   UNL     1      -8.719  16.875 -14.754  1.00  0.00    -0.550 OA
ENDBRANCH   1   2
BRANCH   1   5
ATOM      5  C   UNL     1      -7.791  15.294 -11.798  1.00  0.00     0.003 C 
ATOM      6  C   UNL     1      -7.373  14.299 -12.880  1.00  0.00     0.004 C 
ENDBRANCH   1   5
TORSDOF 2
ENDMDL
MODEL 7
REMARK VINA RESULT:    -2.668      3.288      4.526
REMARK INTER + INTRA:          -2.991
REMARK INTER:                  -2.980
REMARK INTRA:                  -0.010
REMARK UNBOUND:                -0.011
REMARK SMILES CCCC(=O)[O-]
REMARK SMILES IDX 3 1 4 2 5 3 6 4 2 5 1 6
REMARK H PARENT
REMARK Flexibility Score: inf
ROOT
ATOM      1  C   UNL     1      -7.771  17.916 -13.693  1.00  0.00     0.052 C 
ENDROOT
BRANCH   1   2
ATOM      2  C   UNL     1      -8.179  16.828 -12.748  1.00  0.00     0.041 C 
ATOM      3  O   UNL     1      -7.318  16.258 -12.028  1.00  0.00    -0.550 OA
ATOM      4  O   UNL     1      -9.506  16.421 -12.688  1.00  0.00    -0.550 OA
ENDBRANCH   1   2
BRANCH   1   5
ATOM      5  C   UNL     1      -8.080  19.307 -13.125  1.00  0.00     0.003 C 
ATOM      6  C   UNL     1      -6.918  20.283 -13.310  1.00  0.00     0.004 C 
ENDBRANCH   1   5
TORSDOF 2
ENDMDL
MODEL 8
REMARK VINA RESULT:    -2.603      1.729      2.535
REMARK INTER + INTRA:          -2.918
REMARK INTER:                  -2.848
REMARK INTRA:                  -0.069
REMARK UNBOUND:                -0.011
REMARK SMILES CCCC(=O)[O-]
REMARK SMILES IDX 3 1 4 2 5 3 6 4 2 5 1 6
REMARK H PARENT
REMARK Flexibility Score: inf
ROOT
ATOM      1  C   UNL     1      -7.859  14.913 -13.750  1.00  0.00     0.052 C 
ENDROOT
BRANCH   1   2
ATOM      2  C   UNL     1      -8.212  15.796 -12.593  1.00  0.00     0.041 C 
ATOM      3  O   UNL     1      -7.402  15.946 -11.640  1.00  0.00    -0.550 OA
ATOM      4  O   UNL     1      -9.448  16.428 -12.551  1.00  0.00    -0.550 OA
ENDBRANCH   1   2
BRANCH   1   5
ATOM      5  C   UNL     1      -7.852  15.687 -15.074  1.00  0.00     0.003 C 
ATOM      6  C   UNL     1      -6.749  16.744 -15.125  1.00  0.00     0.004 C 
ENDBRANCH   1   5
TORSDOF 2
ENDMDL
MODEL 9
REMARK VINA RESULT:    -2.510      1.893      2.937
REMARK INTER + INTRA:          -2.814
REMARK INTER:                  -2.772
REMARK INTRA:                  -0.042
REMARK UNBOUND:                -0.011
REMARK SMILES CCCC(=O)[O-]
REMARK SMILES IDX 3 1 4 2 5 3 6 4 2 5 1 6
REMARK H PARENT
REMARK Flexibility Score: inf
ROOT
ATOM      1  C   UNL     1      -8.183  15.068 -14.038  1.00  0.00     0.052 C 
ENDROOT
BRANCH   1   2
ATOM      2  C   UNL     1      -6.948  14.558 -13.360  1.00  0.00     0.041 C 
ATOM      3  O   UNL     1      -7.022  14.038 -12.215  1.00  0.00    -0.550 OA
ATOM      4  O   UNL     1      -5.711  14.686 -13.979  1.00  0.00    -0.550 OA
ENDBRANCH   1   2
BRANCH   1   5
ATOM      5  C   UNL     1      -8.351  16.581 -13.849  1.00  0.00     0.003 C 
ATOM      6  C   UNL     1      -9.107  16.927 -12.566  1.00  0.00     0.004 C 
ENDBRANCH   1   5
TORSDOF 2
ENDMDL
