MODEL 1
REMARK VINA RESULT:    -7.439      0.000      0.000
REMARK INTER + INTRA:          -8.981
REMARK INTER:                  -8.526
REMARK INTRA:                  -0.455
REMARK UNBOUND:                -0.455
REMARK SMILES C=C(C)[C@H]1CC[C@]2(C(=O)[O-])CC[C@]3(C)[C@H](CC[C@@H]4[C@@]5(C)CC[C@@H](O)C(C)(C)[C@H]5CC[C@]43C)[C@H]12
REMARK SMILES IDX 7 1 6 2 33 3 11 4 5 5 15 6 4 7 12 8 16 9 13 10 17 11 31 12
REMARK SMILES IDX 14 13 18 14 30 15 32 16 19 17 29 18 21 19 20 20 28 21 22 22
REMARK SMILES IDX 25 23 23 24 26 25 27 26 8 27 9 28 10 29 2 30 3 31 1 32 24 33
REMARK H PARENT 24 34
REMARK Flexibility Score: inf
ROOT
ATOM      1  C   UNL     1     100.864  90.317  80.224  1.00  0.00     0.014 C 
ATOM      2  C   UNL     1     101.059  91.527  81.158  1.00  0.00     0.014 C 
ATOM      3  C   UNL     1     101.892  89.244  80.714  1.00  0.00     0.012 C 
ATOM      4  C   UNL     1      99.399  89.797  80.250  1.00  0.00     0.014 C 
ATOM      5  C   UNL     1     102.489  91.447  81.684  1.00  0.00     0.009 C 
ATOM      6  C   UNL     1     101.215  87.936  81.268  1.00  0.00     0.000 C 
ATOM      7  C   UNL     1     102.870  89.961  81.689  1.00  0.00     0.018 C 
ATOM      8  C   UNL     1      98.948  89.157  81.574  1.00  0.00     0.008 C 
ATOM      9  C   UNL     1     102.243  86.937  81.841  1.00  0.00     0.005 C 
ATOM     10  C   UNL     1      99.953  88.118  82.206  1.00  0.00    -0.024 C 
ATOM     11  C   UNL     1     101.627  85.571  82.174  1.00  0.00     0.005 C 
ATOM     12  C   UNL     1      99.265  86.656  82.393  1.00  0.00    -0.024 C 
ATOM     13  C   UNL     1     100.399  88.745  83.579  1.00  0.00     0.012 C 
ATOM     14  C   UNL     1     100.334  85.673  83.047  1.00  0.00     0.002 C 
ATOM     15  C   UNL     1      97.993  86.736  83.307  1.00  0.00     0.008 C 
ATOM     16  C   UNL     1      98.777  86.121  80.991  1.00  0.00     0.012 C 
ATOM     17  C   UNL     1      99.786  84.280  83.589  1.00  0.00    -0.026 C 
ATOM     18  C   UNL     1      97.468  85.392  83.848  1.00  0.00     0.005 C 
ATOM     19  C   UNL     1     100.878  83.479  84.371  1.00  0.00     0.010 C 
ATOM     20  C   UNL     1      99.392  83.335  82.410  1.00  0.00     0.012 C 
ATOM     21  C   UNL     1      98.529  84.488  84.532  1.00  0.00     0.003 C 
ATOM     22  C   UNL     1     101.209  84.064  85.737  1.00  0.00     0.033 C 
ATOM     23  C   UNL     1      98.781  84.805  86.084  1.00  0.00    -0.006 C 
ATOM     24  C   UNL     1      99.984  83.969  86.636  1.00  0.00     0.120 C 
ATOM     25  C   UNL     1      97.533  84.367  86.903  1.00  0.00     0.014 C 
ATOM     26  C   UNL     1      98.996  86.312  86.392  1.00  0.00     0.014 C 
ENDROOT
BRANCH   1  27
ATOM     27  C   UNL     1     101.162  90.780  78.798  1.00  0.00     0.048 C 
ATOM     28  O   UNL     1     102.250  90.495  78.233  1.00  0.00    -0.550 OA
ATOM     29  O   UNL     1     100.274  91.625  78.138  1.00  0.00    -0.550 OA
ENDBRANCH   1  27
BRANCH   7  30
ATOM     30  C   UNL     1     104.351  89.707  81.383  1.00  0.00    -0.077 C 
ATOM     31  C   UNL     1     105.115  90.653  80.486  1.00  0.00     0.039 C 
ATOM     32  C   UNL     1     105.011  88.642  81.875  1.00  0.00     0.008 C 
ENDBRANCH   7  30
BRANCH  24  33
ATOM     33  O   UNL     1     100.353  84.377  87.932  1.00  0.00    -0.393 OA
ATOM     34  H   UNL     1     100.505  85.359  87.906  1.00  0.00     0.210 HD
ENDBRANCH  24  33
TORSDOF 3
ENDMDL
MODEL 2
REMARK VINA RESULT:    -7.272      4.507      8.004
REMARK INTER + INTRA:          -8.790
REMARK INTER:                  -8.340
REMARK INTRA:                  -0.450
REMARK UNBOUND:                -0.455
REMARK SMILES C=C(C)[C@H]1CC[C@]2(C(=O)[O-])CC[C@]3(C)[C@H](CC[C@@H]4[C@@]5(C)CC[C@@H](O)C(C)(C)[C@H]5CC[C@]43C)[C@H]12
REMARK SMILES IDX 7 1 6 2 33 3 11 4 5 5 15 6 4 7 12 8 16 9 13 10 17 11 31 12
REMARK SMILES IDX 14 13 18 14 30 15 32 16 19 17 29 18 21 19 20 20 28 21 22 22
REMARK SMILES IDX 25 23 23 24 26 25 27 26 8 27 9 28 10 29 2 30 3 31 1 32 24 33
REMARK H PARENT 24 34
REMARK Flexibility Score: inf
ROOT
ATOM      1  C   UNL     1      93.323  84.791  79.515  1.00  0.00     0.014 C 
ATOM      2  C   UNL     1      93.298  83.251  79.520  1.00  0.00     0.014 C 
ATOM      3  C   UNL     1      93.332  85.213  81.022  1.00  0.00     0.012 C 
ATOM      4  C   UNL     1      94.546  85.347  78.731  1.00  0.00     0.014 C 
ATOM      5  C   UNL     1      92.670  82.829  80.845  1.00  0.00     0.009 C 
ATOM      6  C   UNL     1      94.643  85.969  81.452  1.00  0.00     0.000 C 
ATOM      7  C   UNL     1      92.984  83.943  81.852  1.00  0.00     0.018 C 
ATOM      8  C   UNL     1      95.918  85.083  79.374  1.00  0.00     0.008 C 
ATOM      9  C   UNL     1      94.676  86.282  82.963  1.00  0.00     0.005 C 
ATOM     10  C   UNL     1      96.018  85.393  80.918  1.00  0.00    -0.024 C 
ATOM     11  C   UNL     1      95.830  87.212  83.356  1.00  0.00     0.005 C 
ATOM     12  C   UNL     1      97.169  86.496  81.235  1.00  0.00    -0.024 C 
ATOM     13  C   UNL     1      96.315  84.009  81.608  1.00  0.00     0.012 C 
ATOM     14  C   UNL     1      97.217  86.742  82.808  1.00  0.00     0.002 C 
ATOM     15  C   UNL     1      98.575  86.016  80.733  1.00  0.00     0.008 C 
ATOM     16  C   UNL     1      96.848  87.831  80.456  1.00  0.00     0.012 C 
ATOM     17  C   UNL     1      98.465  87.559  83.367  1.00  0.00    -0.026 C 
ATOM     18  C   UNL     1      99.787  86.792  81.283  1.00  0.00     0.005 C 
ATOM     19  C   UNL     1      98.505  87.580  84.930  1.00  0.00     0.010 C 
ATOM     20  C   UNL     1      98.374  89.065  82.967  1.00  0.00     0.012 C 
ATOM     21  C   UNL     1      99.829  86.958  82.826  1.00  0.00     0.003 C 
ATOM     22  C   UNL     1      98.893  86.246  85.553  1.00  0.00     0.033 C 
ATOM     23  C   UNL     1     100.489  85.728  83.617  1.00  0.00    -0.006 C 
ATOM     24  C   UNL     1     100.326  85.906  85.164  1.00  0.00     0.120 C 
ATOM     25  C   UNL     1     102.020  85.707  83.340  1.00  0.00     0.014 C 
ATOM     26  C   UNL     1      99.950  84.338  83.182  1.00  0.00     0.014 C 
ENDROOT
BRANCH   1  27
ATOM     27  C   UNL     1      92.062  85.273  78.798  1.00  0.00     0.048 C 
ATOM     28  O   UNL     1      92.101  85.665  77.602  1.00  0.00    -0.550 OA
ATOM     29  O   UNL     1      90.863  85.394  79.496  1.00  0.00    -0.550 OA
ENDBRANCH   1  27
BRANCH   7  30
ATOM     30  C   UNL     1      91.877  84.163  82.889  1.00  0.00    -0.077 C 
ATOM     31  C   UNL     1      92.230  84.424  84.335  1.00  0.00     0.039 C 
ATOM     32  C   UNL     1      90.572  84.115  82.563  1.00  0.00     0.008 C 
ENDBRANCH   7  30
BRANCH  24  33
ATOM     33  O   UNL     1     100.713  84.750  85.867  1.00  0.00    -0.393 OA
ATOM     34  H   UNL     1      99.960  84.498  86.467  1.00  0.00     0.210 HD
ENDBRANCH  24  33
TORSDOF 3
ENDMDL
MODEL 3
REMARK VINA RESULT:    -7.205      5.148      8.684
REMARK INTER + INTRA:          -8.713
REMARK INTER:                  -8.217
REMARK INTRA:                  -0.496
REMARK UNBOUND:                -0.455
REMARK SMILES C=C(C)[C@H]1CC[C@]2(C(=O)[O-])CC[C@]3(C)[C@H](CC[C@@H]4[C@@]5(C)CC[C@@H](O)C(C)(C)[C@H]5CC[C@]43C)[C@H]12
REMARK SMILES IDX 7 1 6 2 33 3 11 4 5 5 15 6 4 7 12 8 16 9 13 10 17 11 31 12
REMARK SMILES IDX 14 13 18 14 30 15 32 16 19 17 29 18 21 19 20 20 28 21 22 22
REMARK SMILES IDX 25 23 23 24 26 25 27 26 8 27 9 28 10 29 2 30 3 31 1 32 24 33
REMARK H PARENT 24 34
REMARK Flexibility Score: inf
ROOT
ATOM      1  C   UNL     1      91.933  84.769  79.991  1.00  0.00     0.014 C 
ATOM      2  C   UNL     1      91.605  83.264  79.971  1.00  0.00     0.014 C 
ATOM      3  C   UNL     1      92.312  85.094  81.474  1.00  0.00     0.012 C 
ATOM      4  C   UNL     1      93.072  85.125  78.992  1.00  0.00     0.014 C 
ATOM      5  C   UNL     1      91.169  82.894  81.386  1.00  0.00     0.009 C 
ATOM      6  C   UNL     1      93.805  85.560  81.652  1.00  0.00     0.000 C 
ATOM      7  C   UNL     1      91.883  83.867  82.332  1.00  0.00     0.018 C 
ATOM      8  C   UNL     1      94.460  84.568  79.347  1.00  0.00     0.008 C 
ATOM      9  C   UNL     1      94.184  85.773  83.132  1.00  0.00     0.005 C 
ATOM     10  C   UNL     1      94.911  84.764  80.846  1.00  0.00    -0.024 C 
ATOM     11  C   UNL     1      95.554  86.442  83.308  1.00  0.00     0.005 C 
ATOM     12  C   UNL     1      96.297  85.607  80.951  1.00  0.00    -0.024 C 
ATOM     13  C   UNL     1      95.053  83.311  81.437  1.00  0.00     0.012 C 
ATOM     14  C   UNL     1      96.689  85.748  82.488  1.00  0.00     0.002 C 
ATOM     15  C   UNL     1      97.458  84.897  80.173  1.00  0.00     0.008 C 
ATOM     16  C   UNL     1      96.104  87.021  80.277  1.00  0.00     0.012 C 
ATOM     17  C   UNL     1      98.157  86.278  82.805  1.00  0.00    -0.026 C 
ATOM     18  C   UNL     1      98.882  85.394  80.487  1.00  0.00     0.005 C 
ATOM     19  C   UNL     1      98.497  86.201  84.329  1.00  0.00     0.010 C 
ATOM     20  C   UNL     1      98.293  87.795  82.460  1.00  0.00     0.012 C 
ATOM     21  C   UNL     1      99.247  85.460  81.994  1.00  0.00     0.003 C 
ATOM     22  C   UNL     1      98.724  84.784  84.838  1.00  0.00     0.033 C 
ATOM     23  C   UNL     1      99.789  84.084  82.616  1.00  0.00    -0.006 C 
ATOM     24  C   UNL     1      99.960  84.200  84.167  1.00  0.00     0.120 C 
ATOM     25  C   UNL     1     101.204  83.787  82.042  1.00  0.00     0.014 C 
ATOM     26  C   UNL     1      98.912  82.850  82.269  1.00  0.00     0.014 C 
ENDROOT
BRANCH   1  27
ATOM     27  C   UNL     1      90.681  85.523  79.546  1.00  0.00     0.048 C 
ATOM     28  O   UNL     1      89.656  85.573  80.276  1.00  0.00    -0.550 OA
ATOM     29  O   UNL     1      90.613  86.075  78.270  1.00  0.00    -0.550 OA
ENDBRANCH   1  27
BRANCH   7  30
ATOM     30  C   UNL     1      91.059  84.235  83.571  1.00  0.00    -0.077 C 
ATOM     31  C   UNL     1      91.617  83.995  84.955  1.00  0.00     0.039 C 
ATOM     32  C   UNL     1      89.822  84.758  83.478  1.00  0.00     0.008 C 
ENDBRANCH   7  30
BRANCH  24  33
ATOM     33  O   UNL     1     100.236  82.953  84.758  1.00  0.00    -0.393 OA
ATOM     34  H   UNL     1     101.120  83.023  85.208  1.00  0.00     0.210 HD
ENDBRANCH  24  33
TORSDOF 3
ENDMDL
MODEL 4
REMARK VINA RESULT:    -6.799      4.841      6.560
REMARK INTER + INTRA:          -8.248
REMARK INTER:                  -7.528
REMARK INTRA:                  -0.720
REMARK UNBOUND:                -0.455
REMARK SMILES C=C(C)[C@H]1CC[C@]2(C(=O)[O-])CC[C@]3(C)[C@H](CC[C@@H]4[C@@]5(C)CC[C@@H](O)C(C)(C)[C@H]5CC[C@]43C)[C@H]12
REMARK SMILES IDX 7 1 6 2 33 3 11 4 5 5 15 6 4 7 12 8 16 9 13 10 17 11 31 12
REMARK SMILES IDX 14 13 18 14 30 15 32 16 19 17 29 18 21 19 20 20 28 21 22 22
REMARK SMILES IDX 25 23 23 24 26 25 27 26 8 27 9 28 10 29 2 30 3 31 1 32 24 33
REMARK H PARENT 24 34
REMARK Flexibility Score: inf
ROOT
ATOM      1  C   UNL     1      95.685  85.287  81.122  1.00  0.00     0.014 C 
ATOM      2  C   UNL     1      96.699  86.021  80.224  1.00  0.00     0.014 C 
ATOM      3  C   UNL     1      96.546  84.494  82.161  1.00  0.00     0.012 C 
ATOM      4  C   UNL     1      94.691  86.274  81.799  1.00  0.00     0.014 C 
ATOM      5  C   UNL     1      97.995  85.217  80.282  1.00  0.00     0.009 C 
ATOM      6  C   UNL     1      96.334  84.973  83.645  1.00  0.00     0.000 C 
ATOM      7  C   UNL     1      98.016  84.520  81.648  1.00  0.00     0.018 C 
ATOM      8  C   UNL     1      95.307  87.217  82.846  1.00  0.00     0.008 C 
ATOM      9  C   UNL     1      97.269  84.251  84.637  1.00  0.00     0.005 C 
ATOM     10  C   UNL     1      96.267  86.535  83.897  1.00  0.00    -0.024 C 
ATOM     11  C   UNL     1      96.921  84.537  86.104  1.00  0.00     0.005 C 
ATOM     12  C   UNL     1      95.747  86.764  85.421  1.00  0.00    -0.024 C 
ATOM     13  C   UNL     1      97.684  87.173  83.650  1.00  0.00     0.012 C 
ATOM     14  C   UNL     1      96.772  86.061  86.417  1.00  0.00     0.002 C 
ATOM     15  C   UNL     1      95.640  88.290  85.764  1.00  0.00     0.008 C 
ATOM     16  C   UNL     1      94.295  86.166  85.577  1.00  0.00     0.012 C 
ATOM     17  C   UNL     1      96.620  86.411  87.963  1.00  0.00    -0.026 C 
ATOM     18  C   UNL     1      95.509  88.636  87.260  1.00  0.00     0.005 C 
ATOM     19  C   UNL     1      97.785  85.817  88.820  1.00  0.00     0.010 C 
ATOM     20  C   UNL     1      95.334  85.759  88.562  1.00  0.00     0.012 C 
ATOM     21  C   UNL     1      96.564  87.979  88.191  1.00  0.00     0.003 C 
ATOM     22  C   UNL     1      99.117  86.527  88.625  1.00  0.00     0.033 C 
ATOM     23  C   UNL     1      97.946  88.784  88.314  1.00  0.00    -0.006 C 
ATOM     24  C   UNL     1      99.002  87.961  89.125  1.00  0.00     0.120 C 
ATOM     25  C   UNL     1      97.703  90.094  89.118  1.00  0.00     0.014 C 
ATOM     26  C   UNL     1      98.544  89.218  86.948  1.00  0.00     0.014 C 
ENDROOT
BRANCH   1  27
ATOM     27  C   UNL     1      94.867  84.353  80.231  1.00  0.00     0.048 C 
ATOM     28  O   UNL     1      94.741  83.131  80.508  1.00  0.00    -0.550 OA
ATOM     29  O   UNL     1      94.340  84.817  79.029  1.00  0.00    -0.550 OA
ENDBRANCH   1  27
BRANCH   7  30
ATOM     30  C   UNL     1      98.688  83.142  81.623  1.00  0.00    -0.077 C 
ATOM     31  C   UNL     1     100.146  83.000  81.997  1.00  0.00     0.039 C 
ATOM     32  C   UNL     1      98.026  82.029  81.256  1.00  0.00     0.008 C 
ENDBRANCH   7  30
BRANCH  24  33
ATOM     33  O   UNL     1     100.278  88.552  89.072  1.00  0.00    -0.393 OA
ATOM     34  H   UNL     1     100.827  88.023  88.434  1.00  0.00     0.210 HD
ENDBRANCH  24  33
TORSDOF 3
ENDMDL
MODEL 5
REMARK VINA RESULT:    -6.794      2.745      7.557
REMARK INTER + INTRA:          -8.242
REMARK INTER:                  -7.976
REMARK INTRA:                  -0.266
REMARK UNBOUND:                -0.455
REMARK SMILES C=C(C)[C@H]1CC[C@]2(C(=O)[O-])CC[C@]3(C)[C@H](CC[C@@H]4[C@@]5(C)CC[C@@H](O)C(C)(C)[C@H]5CC[C@]43C)[C@H]12
REMARK SMILES IDX 7 1 6 2 33 3 11 4 5 5 15 6 4 7 12 8 16 9 13 10 17 11 31 12
REMARK SMILES IDX 14 13 18 14 30 15 32 16 19 17 29 18 21 19 20 20 28 21 22 22
REMARK SMILES IDX 25 23 23 24 26 25 27 26 8 27 9 28 10 29 2 30 3 31 1 32 24 33
REMARK H PARENT 24 34
REMARK Flexibility Score: inf
ROOT
ATOM      1  C   UNL     1      95.554  86.074  81.610  1.00  0.00     0.014 C 
ATOM      2  C   UNL     1      95.166  85.703  80.166  1.00  0.00     0.014 C 
ATOM      3  C   UNL     1      97.031  85.586  81.782  1.00  0.00     0.012 C 
ATOM      4  C   UNL     1      95.393  87.598  81.878  1.00  0.00     0.014 C 
ATOM      5  C   UNL     1      96.052  84.527  79.764  1.00  0.00     0.009 C 
ATOM      6  C   UNL     1      98.052  86.757  82.035  1.00  0.00     0.000 C 
ATOM      7  C   UNL     1      97.350  84.664  80.570  1.00  0.00     0.018 C 
ATOM      8  C   UNL     1      96.373  88.509  81.120  1.00  0.00     0.008 C 
ATOM      9  C   UNL     1      99.513  86.263  82.097  1.00  0.00     0.005 C 
ATOM     10  C   UNL     1      97.886  88.062  81.154  1.00  0.00    -0.024 C 
ATOM     11  C   UNL     1     100.491  87.348  82.566  1.00  0.00     0.005 C 
ATOM     12  C   UNL     1      98.837  89.213  81.798  1.00  0.00    -0.024 C 
ATOM     13  C   UNL     1      98.266  87.745  79.660  1.00  0.00     0.012 C 
ATOM     14  C   UNL     1     100.342  88.693  81.784  1.00  0.00     0.002 C 
ATOM     15  C   UNL     1      98.734  90.555  80.993  1.00  0.00     0.008 C 
ATOM     16  C   UNL     1      98.355  89.533  83.267  1.00  0.00     0.012 C 
ATOM     17  C   UNL     1     101.473  89.771  82.093  1.00  0.00    -0.026 C 
ATOM     18  C   UNL     1      99.835  91.595  81.276  1.00  0.00     0.005 C 
ATOM     19  C   UNL     1     102.911  89.199  81.871  1.00  0.00     0.010 C 
ATOM     20  C   UNL     1     101.456  90.186  83.598  1.00  0.00     0.012 C 
ATOM     21  C   UNL     1     101.291  91.064  81.194  1.00  0.00     0.003 C 
ATOM     22  C   UNL     1     103.275  88.999  80.406  1.00  0.00     0.033 C 
ATOM     23  C   UNL     1     101.925  91.065  79.720  1.00  0.00    -0.006 C 
ATOM     24  C   UNL     1     103.318  90.352  79.710  1.00  0.00     0.120 C 
ATOM     25  C   UNL     1     102.183  92.534  79.277  1.00  0.00     0.014 C 
ATOM     26  C   UNL     1     101.001  90.442  78.638  1.00  0.00     0.014 C 
ENDROOT
BRANCH   1  27
ATOM     27  C   UNL     1      94.600  85.340  82.550  1.00  0.00     0.048 C 
ATOM     28  O   UNL     1      93.525  84.838  82.128  1.00  0.00    -0.550 OA
ATOM     29  O   UNL     1      94.849  85.313  83.920  1.00  0.00    -0.550 OA
ENDBRANCH   1  27
BRANCH   7  30
ATOM     30  C   UNL     1      97.974  83.319  80.960  1.00  0.00    -0.077 C 
ATOM     31  C   UNL     1      99.454  83.222  81.251  1.00  0.00     0.039 C 
ATOM     32  C   UNL     1      97.247  82.189  81.040  1.00  0.00     0.008 C 
ENDBRANCH   7  30
BRANCH  24  33
ATOM     33  O   UNL     1     103.798  90.161  78.400  1.00  0.00    -0.393 OA
ATOM     34  H   UNL     1     104.591  89.563  78.456  1.00  0.00     0.210 HD
ENDBRANCH  24  33
TORSDOF 3
ENDMDL
MODEL 6
REMARK VINA RESULT:    -6.620      2.004      4.626
REMARK INTER + INTRA:          -8.043
REMARK INTER:                  -7.580
REMARK INTRA:                  -0.463
REMARK UNBOUND:                -0.455
REMARK SMILES C=C(C)[C@H]1CC[C@]2(C(=O)[O-])CC[C@]3(C)[C@H](CC[C@@H]4[C@@]5(C)CC[C@@H](O)C(C)(C)[C@H]5CC[C@]43C)[C@H]12
REMARK SMILES IDX 7 1 6 2 33 3 11 4 5 5 15 6 4 7 12 8 16 9 13 10 17 11 31 12
REMARK SMILES IDX 14 13 18 14 30 15 32 16 19 17 29 18 21 19 20 20 28 21 22 22
REMARK SMILES IDX 25 23 23 24 26 25 27 26 8 27 9 28 10 29 2 30 3 31 1 32 24 33
REMARK H PARENT 24 34
REMARK Flexibility Score: inf
ROOT
ATOM      1  C   UNL     1      99.485  90.547  79.026  1.00  0.00     0.014 C 
ATOM      2  C   UNL     1      98.751  89.686  77.980  1.00  0.00     0.014 C 
ATOM      3  C   UNL     1      98.532  90.596  80.266  1.00  0.00     0.012 C 
ATOM      4  C   UNL     1     100.887  89.967  79.371  1.00  0.00     0.014 C 
ATOM      5  C   UNL     1      97.262  89.792  78.293  1.00  0.00     0.009 C 
ATOM      6  C   UNL     1      99.138  89.912  81.548  1.00  0.00     0.000 C 
ATOM      7  C   UNL     1      97.150  90.050  79.801  1.00  0.00     0.018 C 
ATOM      8  C   UNL     1     100.880  88.625  80.121  1.00  0.00     0.008 C 
ATOM      9  C   UNL     1      98.141  89.879  82.726  1.00  0.00     0.005 C 
ATOM     10  C   UNL     1      99.887  88.532  81.344  1.00  0.00    -0.024 C 
ATOM     11  C   UNL     1      98.786  89.426  84.042  1.00  0.00     0.005 C 
ATOM     12  C   UNL     1     100.670  88.190  82.728  1.00  0.00    -0.024 C 
ATOM     13  C   UNL     1      98.846  87.416  80.959  1.00  0.00     0.012 C 
ATOM     14  C   UNL     1      99.602  88.100  83.905  1.00  0.00     0.002 C 
ATOM     15  C   UNL     1     101.454  86.836  82.621  1.00  0.00     0.008 C 
ATOM     16  C   UNL     1     101.745  89.309  83.014  1.00  0.00     0.012 C 
ATOM     17  C   UNL     1     100.108  87.485  85.285  1.00  0.00    -0.026 C 
ATOM     18  C   UNL     1     101.932  86.228  83.953  1.00  0.00     0.005 C 
ATOM     19  C   UNL     1      98.940  87.273  86.302  1.00  0.00     0.010 C 
ATOM     20  C   UNL     1     101.077  88.469  86.015  1.00  0.00     0.012 C 
ATOM     21  C   UNL     1     100.848  86.101  85.056  1.00  0.00     0.003 C 
ATOM     22  C   UNL     1      98.014  86.120  85.943  1.00  0.00     0.033 C 
ATOM     23  C   UNL     1      99.962  84.766  84.977  1.00  0.00    -0.006 C 
ATOM     24  C   UNL     1      98.789  84.811  86.012  1.00  0.00     0.120 C 
ATOM     25  C   UNL     1     100.844  83.545  85.370  1.00  0.00     0.014 C 
ATOM     26  C   UNL     1      99.408  84.462  83.558  1.00  0.00     0.014 C 
ENDROOT
BRANCH   1  27
ATOM     27  C   UNL     1      99.698  91.933  78.419  1.00  0.00     0.048 C 
ATOM     28  O   UNL     1      98.752  92.560  77.876  1.00  0.00    -0.550 OA
ATOM     29  O   UNL     1     100.978  92.479  78.354  1.00  0.00    -0.550 OA
ENDBRANCH   1  27
BRANCH   7  30
ATOM     30  C   UNL     1      95.968  90.948  80.184  1.00  0.00    -0.077 C 
ATOM     31  C   UNL     1      94.992  90.508  81.251  1.00  0.00     0.039 C 
ATOM     32  C   UNL     1      95.745  92.132  79.584  1.00  0.00     0.008 C 
ENDBRANCH   7  30
BRANCH  24  33
ATOM     33  O   UNL     1      97.883  83.750  85.823  1.00  0.00    -0.393 OA
ATOM     34  H   UNL     1      98.030  83.390  84.909  1.00  0.00     0.210 HD
ENDBRANCH  24  33
TORSDOF 3
ENDMDL
MODEL 7
REMARK VINA RESULT:    -6.606     10.807     14.348
REMARK INTER + INTRA:          -8.027
REMARK INTER:                  -7.728
REMARK INTRA:                  -0.299
REMARK UNBOUND:                -0.455
REMARK SMILES C=C(C)[C@H]1CC[C@]2(C(=O)[O-])CC[C@]3(C)[C@H](CC[C@@H]4[C@@]5(C)CC[C@@H](O)C(C)(C)[C@H]5CC[C@]43C)[C@H]12
REMARK SMILES IDX 7 1 6 2 33 3 11 4 5 5 15 6 4 7 12 8 16 9 13 10 17 11 31 12
REMARK SMILES IDX 14 13 18 14 30 15 32 16 19 17 29 18 21 19 20 20 28 21 22 22
REMARK SMILES IDX 25 23 23 24 26 25 27 26 8 27 9 28 10 29 2 30 3 31 1 32 24 33
REMARK H PARENT 24 34
REMARK Flexibility Score: inf
ROOT
ATOM      1  C   UNL     1      86.738  83.214  79.455  1.00  0.00     0.014 C 
ATOM      2  C   UNL     1      87.768  82.142  79.051  1.00  0.00     0.014 C 
ATOM      3  C   UNL     1      86.311  82.852  80.916  1.00  0.00     0.012 C 
ATOM      4  C   UNL     1      87.325  84.651  79.342  1.00  0.00     0.014 C 
ATOM      5  C   UNL     1      87.469  80.909  79.899  1.00  0.00     0.009 C 
ATOM      6  C   UNL     1      86.706  83.948  81.974  1.00  0.00     0.000 C 
ATOM      7  C   UNL     1      86.842  81.417  81.203  1.00  0.00     0.018 C 
ATOM      8  C   UNL     1      88.437  84.990  80.348  1.00  0.00     0.008 C 
ATOM      9  C   UNL     1      86.369  83.523  83.418  1.00  0.00     0.005 C 
ATOM     10  C   UNL     1      88.149  84.588  81.847  1.00  0.00    -0.024 C 
ATOM     11  C   UNL     1      86.536  84.663  84.431  1.00  0.00     0.005 C 
ATOM     12  C   UNL     1      88.202  85.878  82.834  1.00  0.00    -0.024 C 
ATOM     13  C   UNL     1      89.239  83.513  82.212  1.00  0.00     0.012 C 
ATOM     14  C   UNL     1      87.916  85.389  84.323  1.00  0.00     0.002 C 
ATOM     15  C   UNL     1      89.600  86.588  82.772  1.00  0.00     0.008 C 
ATOM     16  C   UNL     1      87.137  86.944  82.367  1.00  0.00     0.012 C 
ATOM     17  C   UNL     1      88.212  86.433  85.488  1.00  0.00    -0.026 C 
ATOM     18  C   UNL     1      89.898  87.587  83.906  1.00  0.00     0.005 C 
ATOM     19  C   UNL     1      88.075  85.790  86.907  1.00  0.00     0.010 C 
ATOM     20  C   UNL     1      87.159  87.587  85.488  1.00  0.00     0.012 C 
ATOM     21  C   UNL     1      89.664  87.053  85.344  1.00  0.00     0.003 C 
ATOM     22  C   UNL     1      89.203  84.832  87.260  1.00  0.00     0.033 C 
ATOM     23  C   UNL     1      90.903  86.251  85.973  1.00  0.00    -0.006 C 
ATOM     24  C   UNL     1      90.512  85.604  87.344  1.00  0.00     0.120 C 
ATOM     25  C   UNL     1      92.056  87.251  86.276  1.00  0.00     0.014 C 
ATOM     26  C   UNL     1      91.500  85.174  85.027  1.00  0.00     0.014 C 
ENDROOT
BRANCH   1  27
ATOM     27  C   UNL     1      85.565  83.121  78.480  1.00  0.00     0.048 C 
ATOM     28  O   UNL     1      85.134  84.139  77.877  1.00  0.00    -0.550 OA
ATOM     29  O   UNL     1      84.875  81.921  78.328  1.00  0.00    -0.550 OA
ENDBRANCH   1  27
BRANCH   7  30
ATOM     30  C   UNL     1      85.786  80.470  81.785  1.00  0.00    -0.077 C 
ATOM     31  C   UNL     1      84.878  79.685  80.867  1.00  0.00     0.039 C 
ATOM     32  C   UNL     1      85.616  80.316  83.112  1.00  0.00     0.008 C 
ENDBRANCH   7  30
BRANCH  24  33
ATOM     33  O   UNL     1      91.512  84.731  87.814  1.00  0.00    -0.393 OA
ATOM     34  H   UNL     1      91.850  84.215  87.034  1.00  0.00     0.210 HD
ENDBRANCH  24  33
TORSDOF 3
ENDMDL
MODEL 8
REMARK VINA RESULT:    -6.538      3.801      7.209
REMARK INTER + INTRA:          -7.949
REMARK INTER:                  -7.545
REMARK INTRA:                  -0.404
REMARK UNBOUND:                -0.455
REMARK SMILES C=C(C)[C@H]1CC[C@]2(C(=O)[O-])CC[C@]3(C)[C@H](CC[C@@H]4[C@@]5(C)CC[C@@H](O)C(C)(C)[C@H]5CC[C@]43C)[C@H]12
REMARK SMILES IDX 7 1 6 2 33 3 11 4 5 5 15 6 4 7 12 8 16 9 13 10 17 11 31 12
REMARK SMILES IDX 14 13 18 14 30 15 32 16 19 17 29 18 21 19 20 20 28 21 22 22
REMARK SMILES IDX 25 23 23 24 26 25 27 26 8 27 9 28 10 29 2 30 3 31 1 32 24 33
REMARK H PARENT 24 34
REMARK Flexibility Score: inf
ROOT
ATOM      1  C   UNL     1      95.195  84.826  79.841  1.00  0.00     0.014 C 
ATOM      2  C   UNL     1      94.979  83.300  79.865  1.00  0.00     0.014 C 
ATOM      3  C   UNL     1      94.621  85.348  81.200  1.00  0.00     0.012 C 
ATOM      4  C   UNL     1      96.693  85.195  79.643  1.00  0.00     0.014 C 
ATOM      5  C   UNL     1      93.805  83.040  80.803  1.00  0.00     0.009 C 
ATOM      6  C   UNL     1      95.712  85.993  82.133  1.00  0.00     0.000 C 
ATOM      7  C   UNL     1      93.802  84.183  81.827  1.00  0.00     0.018 C 
ATOM      8  C   UNL     1      97.622  84.835  80.814  1.00  0.00     0.008 C 
ATOM      9  C   UNL     1      95.144  86.405  83.508  1.00  0.00     0.005 C 
ATOM     10  C   UNL     1      97.101  85.240  82.248  1.00  0.00    -0.024 C 
ATOM     11  C   UNL     1      96.131  87.236  84.338  1.00  0.00     0.005 C 
ATOM     12  C   UNL     1      98.139  86.238  83.004  1.00  0.00    -0.024 C 
ATOM     13  C   UNL     1      96.906  83.885  83.024  1.00  0.00     0.012 C 
ATOM     14  C   UNL     1      97.549  86.586  84.442  1.00  0.00     0.002 C 
ATOM     15  C   UNL     1      99.553  85.579  83.159  1.00  0.00     0.008 C 
ATOM     16  C   UNL     1      98.343  87.540  82.137  1.00  0.00     0.012 C 
ATOM     17  C   UNL     1      98.537  87.306  85.464  1.00  0.00    -0.026 C 
ATOM     18  C   UNL     1     100.507  86.261  84.158  1.00  0.00     0.005 C 
ATOM     19  C   UNL     1      97.918  87.432  86.894  1.00  0.00     0.010 C 
ATOM     20  C   UNL     1      98.810  88.782  85.035  1.00  0.00     0.012 C 
ATOM     21  C   UNL     1      99.916  86.530  85.568  1.00  0.00     0.003 C 
ATOM     22  C   UNL     1      97.839  86.112  87.649  1.00  0.00     0.033 C 
ATOM     23  C   UNL     1     100.024  85.296  86.588  1.00  0.00    -0.006 C 
ATOM     24  C   UNL     1      99.248  85.598  87.914  1.00  0.00     0.120 C 
ATOM     25  C   UNL     1     101.513  85.097  86.991  1.00  0.00     0.014 C 
ATOM     26  C   UNL     1      99.550  83.943  85.991  1.00  0.00     0.014 C 
ENDROOT
BRANCH   1  27
ATOM     27  C   UNL     1      94.424  85.385  78.646  1.00  0.00     0.048 C 
ATOM     28  O   UNL     1      95.007  86.032  77.738  1.00  0.00    -0.550 OA
ATOM     29  O   UNL     1      93.036  85.284  78.600  1.00  0.00    -0.550 OA
ENDBRANCH   1  27
BRANCH   7  30
ATOM     30  C   UNL     1      92.398  84.589  82.288  1.00  0.00    -0.077 C 
ATOM     31  C   UNL     1      91.423  85.202  81.309  1.00  0.00     0.039 C 
ATOM     32  C   UNL     1      91.991  84.437  83.562  1.00  0.00     0.008 C 
ENDBRANCH   7  30
BRANCH  24  33
ATOM     33  O   UNL     1      99.156  84.460  88.737  1.00  0.00    -0.393 OA
ATOM     34  H   UNL     1      98.192  84.239  88.836  1.00  0.00     0.210 HD
ENDBRANCH  24  33
TORSDOF 3
ENDMDL
MODEL 9
REMARK VINA RESULT:    -6.503      1.683      2.414
REMARK INTER + INTRA:          -7.909
REMARK INTER:                  -7.383
REMARK INTRA:                  -0.526
REMARK UNBOUND:                -0.455
REMARK SMILES C=C(C)[C@H]1CC[C@]2(C(=O)[O-])CC[C@]3(C)[C@H](CC[C@@H]4[C@@]5(C)CC[C@@H](O)C(C)(C)[C@H]5CC[C@]43C)[C@H]12
REMARK SMILES IDX 7 1 6 2 33 3 11 4 5 5 15 6 4 7 12 8 16 9 13 10 17 11 31 12
REMARK SMILES IDX 14 13 18 14 30 15 32 16 19 17 29 18 21 19 20 20 28 21 22 22
REMARK SMILES IDX 25 23 23 24 26 25 27 26 8 27 9 28 10 29 2 30 3 31 1 32 24 33
REMARK H PARENT 24 34
REMARK Flexibility Score: inf
ROOT
ATOM      1  C   UNL     1      97.929  89.591  79.321  1.00  0.00     0.014 C 
ATOM      2  C   UNL     1      97.563  90.939  79.972  1.00  0.00     0.014 C 
ATOM      3  C   UNL     1      99.371  89.261  79.832  1.00  0.00     0.012 C 
ATOM      4  C   UNL     1      96.899  88.480  79.676  1.00  0.00     0.014 C 
ATOM      5  C   UNL     1      98.878  91.652  80.270  1.00  0.00     0.009 C 
ATOM      6  C   UNL     1      99.438  87.963  80.719  1.00  0.00     0.000 C 
ATOM      7  C   UNL     1      99.929  90.556  80.490  1.00  0.00     0.018 C 
ATOM      8  C   UNL     1      96.881  88.042  81.149  1.00  0.00     0.008 C 
ATOM      9  C   UNL     1     100.847  87.715  81.297  1.00  0.00     0.005 C 
ATOM     10  C   UNL     1      98.294  87.764  81.796  1.00  0.00    -0.024 C 
ATOM     11  C   UNL     1     100.985  86.344  81.970  1.00  0.00     0.005 C 
ATOM     12  C   UNL     1      98.407  86.242  82.357  1.00  0.00    -0.024 C 
ATOM     13  C   UNL     1      98.452  88.832  82.940  1.00  0.00     0.012 C 
ATOM     14  C   UNL     1      99.850  86.046  83.003  1.00  0.00     0.002 C 
ATOM     15  C   UNL     1      97.304  85.945  83.430  1.00  0.00     0.008 C 
ATOM     16  C   UNL     1      98.167  85.225  81.173  1.00  0.00     0.012 C 
ATOM     17  C   UNL     1     100.071  84.731  83.873  1.00  0.00    -0.026 C 
ATOM     18  C   UNL     1      97.520  84.683  84.287  1.00  0.00     0.005 C 
ATOM     19  C   UNL     1     101.452  84.733  84.607  1.00  0.00     0.010 C 
ATOM     20  C   UNL     1     100.122  83.460  82.968  1.00  0.00     0.012 C 
ATOM     21  C   UNL     1      98.919  84.558  84.949  1.00  0.00     0.003 C 
ATOM     22  C   UNL     1     101.529  85.711  85.771  1.00  0.00     0.033 C 
ATOM     23  C   UNL     1      99.066  85.315  86.356  1.00  0.00    -0.006 C 
ATOM     24  C   UNL     1     100.550  85.282  86.855  1.00  0.00     0.120 C 
ATOM     25  C   UNL     1      98.228  84.563  87.430  1.00  0.00     0.014 C 
ATOM     26  C   UNL     1      98.542  86.777  86.341  1.00  0.00     0.014 C 
ENDROOT
BRANCH   1  27
ATOM     27  C   UNL     1      97.893  89.784  77.806  1.00  0.00     0.048 C 
ATOM     28  O   UNL     1      97.370  88.922  77.051  1.00  0.00    -0.550 OA
ATOM     29  O   UNL     1      98.543  90.868  77.222  1.00  0.00    -0.550 OA
ENDBRANCH   1  27
BRANCH   7  30
ATOM     30  C   UNL     1     101.331  90.944  80.005  1.00  0.00    -0.077 C 
ATOM     31  C   UNL     1     101.765  90.617  78.594  1.00  0.00     0.039 C 
ATOM     32  C   UNL     1     102.219  91.562  80.805  1.00  0.00     0.008 C 
ENDBRANCH   7  30
BRANCH  24  33
ATOM     33  O   UNL     1     100.742  86.110  87.978  1.00  0.00    -0.393 OA
ATOM     34  H   UNL     1     100.711  87.053  87.664  1.00  0.00     0.210 HD
ENDBRANCH  24  33
TORSDOF 3
ENDMDL
