MODEL 1
REMARK VINA RESULT:    -5.622      0.000      0.000
REMARK INTER + INTRA:          -6.735
REMARK INTER:                  -6.608
REMARK INTRA:                  -0.127
REMARK UNBOUND:                -0.127
REMARK SMILES O=C([O-])C=Cc1ccc(O)c(O)c1
REMARK SMILES IDX 6 1 13 2 7 3 11 4 8 5 9 6 5 7 4 8 2 9 1 10 3 11 12 12 10 14
REMARK H PARENT 12 13 10 15
REMARK Flexibility Score: inf
ROOT
ATOM      1  C   UNL     1     -46.419 -12.780  11.010  1.00  0.00    -0.022 A 
ATOM      2  C   UNL     1     -47.675 -12.149  10.909  1.00  0.00     0.058 A 
ATOM      3  C   UNL     1     -46.357 -14.088  11.518  1.00  0.00     0.012 A 
ATOM      4  C   UNL     1     -48.844 -12.823  11.285  1.00  0.00     0.157 A 
ATOM      5  C   UNL     1     -47.522 -14.762  11.891  1.00  0.00     0.051 A 
ATOM      6  C   UNL     1     -48.770 -14.137  11.775  1.00  0.00     0.157 A 
ENDROOT
BRANCH   1   7
ATOM      7  C   UNL     1     -45.153 -12.104  10.637  1.00  0.00     0.010 C 
ATOM      8  C   UNL     1     -44.348 -11.493  11.518  1.00  0.00     0.025 C 
BRANCH   8   9
ATOM      9  C   UNL     1     -43.103 -10.820  11.110  1.00  0.00     0.064 C 
ATOM     10  O   UNL     1     -42.098 -11.480  10.733  1.00  0.00    -0.545 OA
ATOM     11  O   UNL     1     -43.035  -9.433  11.145  1.00  0.00    -0.545 OA
ENDBRANCH   8   9
ENDBRANCH   1   7
BRANCH   4  12
ATOM     12  O   UNL     1     -50.070 -12.167  11.168  1.00  0.00    -0.504 OA
ATOM     13  H   UNL     1     -50.880 -12.611  10.753  1.00  0.00     0.293 HD
ENDBRANCH   4  12
BRANCH   6  14
ATOM     14  O   UNL     1     -49.931 -14.812  12.146  1.00  0.00    -0.504 OA
ATOM     15  H   UNL     1     -50.493 -15.313  11.468  1.00  0.00     0.293 HD
ENDBRANCH   6  14
TORSDOF 4
ENDMDL
MODEL 2
REMARK VINA RESULT:    -5.351      1.216      1.740
REMARK INTER + INTRA:          -6.416
REMARK INTER:                  -6.268
REMARK INTRA:                  -0.148
REMARK UNBOUND:                -0.127
REMARK SMILES O=C([O-])C=Cc1ccc(O)c(O)c1
REMARK SMILES IDX 6 1 13 2 7 3 11 4 8 5 9 6 5 7 4 8 2 9 1 10 3 11 12 12 10 14
REMARK H PARENT 12 13 10 15
REMARK Flexibility Score: inf
ROOT
ATOM      1  C   UNL     1     -45.942 -12.335  11.675  1.00  0.00    -0.022 A 
ATOM      2  C   UNL     1     -46.545 -12.983  12.772  1.00  0.00     0.058 A 
ATOM      3  C   UNL     1     -46.519 -12.480  10.403  1.00  0.00     0.012 A 
ATOM      4  C   UNL     1     -47.712 -13.738  12.601  1.00  0.00     0.157 A 
ATOM      5  C   UNL     1     -47.684 -13.230  10.231  1.00  0.00     0.051 A 
ATOM      6  C   UNL     1     -48.288 -13.860  11.326  1.00  0.00     0.157 A 
ENDROOT
BRANCH   1   7
ATOM      7  C   UNL     1     -44.699 -11.536  11.803  1.00  0.00     0.010 C 
ATOM      8  C   UNL     1     -43.822 -11.359  10.804  1.00  0.00     0.025 C 
BRANCH   8   9
ATOM      9  C   UNL     1     -42.590 -10.568  10.971  1.00  0.00     0.064 C 
ATOM     10  O   UNL     1     -41.469 -11.028  10.628  1.00  0.00    -0.545 OA
ATOM     11  O   UNL     1     -42.667  -9.295  11.520  1.00  0.00    -0.545 OA
ENDBRANCH   8   9
ENDBRANCH   1   7
BRANCH   4  12
ATOM     12  O   UNL     1     -48.282 -14.362  13.711  1.00  0.00    -0.504 OA
ATOM     13  H   UNL     1     -48.297 -13.927  14.625  1.00  0.00     0.293 HD
ENDBRANCH   4  12
BRANCH   6  14
ATOM     14  O   UNL     1     -49.452 -14.606  11.153  1.00  0.00    -0.504 OA
ATOM     15  H   UNL     1     -49.685 -15.377  11.768  1.00  0.00     0.293 HD
ENDBRANCH   6  14
TORSDOF 4
ENDMDL
MODEL 3
REMARK VINA RESULT:    -5.293      7.061      8.935
REMARK INTER + INTRA:          -6.349
REMARK INTER:                  -6.224
REMARK INTRA:                  -0.125
REMARK UNBOUND:                -0.127
REMARK SMILES O=C([O-])C=Cc1ccc(O)c(O)c1
REMARK SMILES IDX 6 1 13 2 7 3 11 4 8 5 9 6 5 7 4 8 2 9 1 10 3 11 12 12 10 14
REMARK H PARENT 12 13 10 15
REMARK Flexibility Score: inf
ROOT
ATOM      1  C   UNL     1     -41.745  -9.464   4.889  1.00  0.00    -0.022 A 
ATOM      2  C   UNL     1     -43.084  -9.749   4.557  1.00  0.00     0.058 A 
ATOM      3  C   UNL     1     -40.761  -9.576   3.893  1.00  0.00     0.012 A 
ATOM      4  C   UNL     1     -43.433 -10.114   3.251  1.00  0.00     0.157 A 
ATOM      5  C   UNL     1     -41.108  -9.938   2.590  1.00  0.00     0.051 A 
ATOM      6  C   UNL     1     -42.443 -10.205   2.261  1.00  0.00     0.157 A 
ENDROOT
BRANCH   1   7
ATOM      7  C   UNL     1     -41.324  -9.086   6.261  1.00  0.00     0.010 C 
ATOM      8  C   UNL     1     -41.510  -9.864   7.338  1.00  0.00     0.025 C 
BRANCH   8   9
ATOM      9  C   UNL     1     -41.091  -9.451   8.688  1.00  0.00     0.064 C 
ATOM     10  O   UNL     1     -39.897  -9.129   8.930  1.00  0.00    -0.545 OA
ATOM     11  O   UNL     1     -42.027  -9.419   9.713  1.00  0.00    -0.545 OA
ENDBRANCH   8   9
ENDBRANCH   1   7
BRANCH   4  12
ATOM     12  O   UNL     1     -44.770 -10.385   2.959  1.00  0.00    -0.504 OA
ATOM     13  H   UNL     1     -45.109 -11.328   2.814  1.00  0.00     0.293 HD
ENDBRANCH   4  12
BRANCH   6  14
ATOM     14  O   UNL     1     -42.786 -10.564   0.959  1.00  0.00    -0.504 OA
ATOM     15  H   UNL     1     -43.740 -10.796   0.706  1.00  0.00     0.293 HD
ENDBRANCH   6  14
TORSDOF 4
ENDMDL
MODEL 4
REMARK VINA RESULT:    -5.287      3.157      6.756
REMARK INTER + INTRA:          -6.342
REMARK INTER:                  -6.216
REMARK INTRA:                  -0.125
REMARK UNBOUND:                -0.127
REMARK SMILES O=C([O-])C=Cc1ccc(O)c(O)c1
REMARK SMILES IDX 6 1 13 2 7 3 11 4 8 5 9 6 5 7 4 8 2 9 1 10 3 11 12 12 10 14
REMARK H PARENT 12 13 10 15
REMARK Flexibility Score: inf
ROOT
ATOM      1  C   UNL     1     -49.529 -13.421  12.589  1.00  0.00    -0.022 A 
ATOM      2  C   UNL     1     -48.336 -13.973  13.099  1.00  0.00     0.058 A 
ATOM      3  C   UNL     1     -49.474 -12.664  11.407  1.00  0.00     0.012 A 
ATOM      4  C   UNL     1     -47.122 -13.792  12.426  1.00  0.00     0.157 A 
ATOM      5  C   UNL     1     -48.264 -12.485  10.733  1.00  0.00     0.051 A 
ATOM      6  C   UNL     1     -47.084 -13.048  11.235  1.00  0.00     0.157 A 
ENDROOT
BRANCH   1   7
ATOM      7  C   UNL     1     -50.837 -13.574  13.273  1.00  0.00     0.010 C 
ATOM      8  C   UNL     1     -50.997 -13.484  14.601  1.00  0.00     0.025 C 
BRANCH   8   9
ATOM      9  C   UNL     1     -52.310 -13.654  15.247  1.00  0.00     0.064 C 
ATOM     10  O   UNL     1     -52.725 -12.833  16.108  1.00  0.00    -0.545 OA
ATOM     11  O   UNL     1     -53.102 -14.742  14.904  1.00  0.00    -0.545 OA
ENDBRANCH   8   9
ENDBRANCH   1   7
BRANCH   4  12
ATOM     12  O   UNL     1     -45.963 -14.356  12.958  1.00  0.00    -0.504 OA
ATOM     13  H   UNL     1     -45.925 -15.321  13.263  1.00  0.00     0.293 HD
ENDBRANCH   4  12
BRANCH   6  14
ATOM     14  O   UNL     1     -45.879 -12.869  10.560  1.00  0.00    -0.504 OA
ATOM     15  H   UNL     1     -45.543 -11.946  10.308  1.00  0.00     0.293 HD
ENDBRANCH   6  14
TORSDOF 4
ENDMDL
MODEL 5
REMARK VINA RESULT:    -5.274      2.296      2.852
REMARK INTER + INTRA:          -6.326
REMARK INTER:                  -6.181
REMARK INTRA:                  -0.145
REMARK UNBOUND:                -0.127
REMARK SMILES O=C([O-])C=Cc1ccc(O)c(O)c1
REMARK SMILES IDX 6 1 13 2 7 3 11 4 8 5 9 6 5 7 4 8 2 9 1 10 3 11 12 12 10 14
REMARK H PARENT 12 13 10 15
REMARK Flexibility Score: inf
ROOT
ATOM      1  C   UNL     1     -48.437 -13.149  12.490  1.00  0.00    -0.022 A 
ATOM      2  C   UNL     1     -49.663 -13.154  11.796  1.00  0.00     0.058 A 
ATOM      3  C   UNL     1     -48.453 -13.187  13.894  1.00  0.00     0.012 A 
ATOM      4  C   UNL     1     -50.877 -13.219  12.492  1.00  0.00     0.157 A 
ATOM      5  C   UNL     1     -49.662 -13.255  14.590  1.00  0.00     0.051 A 
ATOM      6  C   UNL     1     -50.878 -13.274  13.895  1.00  0.00     0.157 A 
ENDROOT
BRANCH   1   7
ATOM      7  C   UNL     1     -47.127 -13.068  11.798  1.00  0.00     0.010 C 
ATOM      8  C   UNL     1     -46.076 -12.383  12.273  1.00  0.00     0.025 C 
BRANCH   8   9
ATOM      9  C   UNL     1     -44.793 -12.314  11.552  1.00  0.00     0.064 C 
ATOM     10  O   UNL     1     -44.743 -11.970  10.341  1.00  0.00    -0.545 OA
ATOM     11  O   UNL     1     -43.618 -12.636  12.219  1.00  0.00    -0.545 OA
ENDBRANCH   8   9
ENDBRANCH   1   7
BRANCH   4  12
ATOM     12  O   UNL     1     -52.070 -13.225  11.771  1.00  0.00    -0.504 OA
ATOM     13  H   UNL     1     -52.352 -14.014  11.202  1.00  0.00     0.293 HD
ENDBRANCH   4  12
BRANCH   6  14
ATOM     14  O   UNL     1     -52.083 -13.344  14.592  1.00  0.00    -0.504 OA
ATOM     15  H   UNL     1     -52.898 -12.821  14.294  1.00  0.00     0.293 HD
ENDBRANCH   6  14
TORSDOF 4
ENDMDL
MODEL 6
REMARK VINA RESULT:    -5.233      2.081      6.003
REMARK INTER + INTRA:          -6.278
REMARK INTER:                  -6.153
REMARK INTRA:                  -0.125
REMARK UNBOUND:                -0.127
REMARK SMILES O=C([O-])C=Cc1ccc(O)c(O)c1
REMARK SMILES IDX 6 1 13 2 7 3 11 4 8 5 9 6 5 7 4 8 2 9 1 10 3 11 12 12 10 14
REMARK H PARENT 12 13 10 15
REMARK Flexibility Score: inf
ROOT
ATOM      1  C   UNL     1     -47.204 -12.898  11.875  1.00  0.00    -0.022 A 
ATOM      2  C   UNL     1     -46.538 -13.262  13.062  1.00  0.00     0.058 A 
ATOM      3  C   UNL     1     -46.451 -12.384  10.806  1.00  0.00     0.012 A 
ATOM      4  C   UNL     1     -45.147 -13.138  13.167  1.00  0.00     0.157 A 
ATOM      5  C   UNL     1     -45.064 -12.261  10.907  1.00  0.00     0.051 A 
ATOM      6  C   UNL     1     -44.404 -12.639  12.084  1.00  0.00     0.157 A 
ENDROOT
BRANCH   1   7
ATOM      7  C   UNL     1     -48.676 -12.999  11.721  1.00  0.00     0.010 C 
ATOM      8  C   UNL     1     -49.521 -13.178  12.746  1.00  0.00     0.025 C 
BRANCH   8   9
ATOM      9  C   UNL     1     -50.977 -13.287  12.555  1.00  0.00     0.064 C 
ATOM     10  O   UNL     1     -51.535 -12.831  11.522  1.00  0.00    -0.545 OA
ATOM     11  O   UNL     1     -51.749 -13.901  13.533  1.00  0.00    -0.545 OA
ENDBRANCH   8   9
ENDBRANCH   1   7
BRANCH   4  12
ATOM     12  O   UNL     1     -44.522 -13.511  14.356  1.00  0.00    -0.504 OA
ATOM     13  H   UNL     1     -44.345 -12.850  15.102  1.00  0.00     0.293 HD
ENDBRANCH   4  12
BRANCH   6  14
ATOM     14  O   UNL     1     -43.020 -12.517  12.182  1.00  0.00    -0.504 OA
ATOM     15  H   UNL     1     -42.407 -13.315  12.059  1.00  0.00     0.293 HD
ENDBRANCH   6  14
TORSDOF 4
ENDMDL
MODEL 7
REMARK VINA RESULT:    -5.217      2.463      3.166
REMARK INTER + INTRA:          -6.259
REMARK INTER:                  -6.105
REMARK INTRA:                  -0.154
REMARK UNBOUND:                -0.127
REMARK SMILES O=C([O-])C=Cc1ccc(O)c(O)c1
REMARK SMILES IDX 6 1 13 2 7 3 11 4 8 5 9 6 5 7 4 8 2 9 1 10 3 11 12 12 10 14
REMARK H PARENT 12 13 10 15
REMARK Flexibility Score: inf
ROOT
ATOM      1  C   UNL     1     -48.265 -12.973  13.126  1.00  0.00    -0.022 A 
ATOM      2  C   UNL     1     -49.315 -13.080  14.060  1.00  0.00     0.058 A 
ATOM      3  C   UNL     1     -48.573 -12.995  11.756  1.00  0.00     0.012 A 
ATOM      4  C   UNL     1     -50.644 -13.182  13.631  1.00  0.00     0.157 A 
ATOM      5  C   UNL     1     -49.898 -13.095  11.326  1.00  0.00     0.051 A 
ATOM      6  C   UNL     1     -50.939 -13.186  12.259  1.00  0.00     0.157 A 
ENDROOT
BRANCH   1   7
ATOM      7  C   UNL     1     -46.841 -12.875  13.532  1.00  0.00     0.010 C 
ATOM      8  C   UNL     1     -45.826 -12.760  12.662  1.00  0.00     0.025 C 
BRANCH   8   9
ATOM      9  C   UNL     1     -44.422 -12.679  13.100  1.00  0.00     0.064 C 
ATOM     10  O   UNL     1     -44.123 -12.608  14.322  1.00  0.00    -0.545 OA
ATOM     11  O   UNL     1     -43.411 -12.676  12.149  1.00  0.00    -0.545 OA
ENDBRANCH   8   9
ENDBRANCH   1   7
BRANCH   4  12
ATOM     12  O   UNL     1     -51.656 -13.283  14.585  1.00  0.00    -0.504 OA
ATOM     13  H   UNL     1     -51.480 -13.619  15.524  1.00  0.00     0.293 HD
ENDBRANCH   4  12
BRANCH   6  14
ATOM     14  O   UNL     1     -52.260 -13.284  11.827  1.00  0.00    -0.504 OA
ATOM     15  H   UNL     1     -52.629 -14.143  11.436  1.00  0.00     0.293 HD
ENDBRANCH   6  14
TORSDOF 4
ENDMDL
MODEL 8
REMARK VINA RESULT:    -5.142      1.594      2.093
REMARK INTER + INTRA:          -6.171
REMARK INTER:                  -6.039
REMARK INTRA:                  -0.133
REMARK UNBOUND:                -0.127
REMARK SMILES O=C([O-])C=Cc1ccc(O)c(O)c1
REMARK SMILES IDX 6 1 13 2 7 3 11 4 8 5 9 6 5 7 4 8 2 9 1 10 3 11 12 12 10 14
REMARK H PARENT 12 13 10 15
REMARK Flexibility Score: inf
ROOT
ATOM      1  C   UNL     1     -44.624 -12.163  11.325  1.00  0.00    -0.022 A 
ATOM      2  C   UNL     1     -45.693 -12.353  10.426  1.00  0.00     0.058 A 
ATOM      3  C   UNL     1     -44.706 -12.733  12.605  1.00  0.00     0.012 A 
ATOM      4  C   UNL     1     -46.807 -13.118  10.794  1.00  0.00     0.157 A 
ATOM      5  C   UNL     1     -45.815 -13.498  12.973  1.00  0.00     0.051 A 
ATOM      6  C   UNL     1     -46.868 -13.697  12.071  1.00  0.00     0.157 A 
ENDROOT
BRANCH   1   7
ATOM      7  C   UNL     1     -43.429 -11.351  10.986  1.00  0.00     0.010 C 
ATOM      8  C   UNL     1     -43.263 -10.076  11.368  1.00  0.00     0.025 C 
BRANCH   8   9
ATOM      9  C   UNL     1     -42.069  -9.295  11.002  1.00  0.00     0.064 C 
ATOM     10  O   UNL     1     -40.970  -9.860  10.759  1.00  0.00    -0.545 OA
ATOM     11  O   UNL     1     -42.156  -7.911  10.927  1.00  0.00    -0.545 OA
ENDBRANCH   8   9
ENDBRANCH   1   7
BRANCH   4  12
ATOM     12  O   UNL     1     -47.844 -13.287   9.877  1.00  0.00    -0.504 OA
ATOM     13  H   UNL     1     -48.530 -14.026   9.970  1.00  0.00     0.293 HD
ENDBRANCH   4  12
BRANCH   6  14
ATOM     14  O   UNL     1     -47.972 -14.463  12.441  1.00  0.00    -0.504 OA
ATOM     15  H   UNL     1     -48.441 -15.071  11.779  1.00  0.00     0.293 HD
ENDBRANCH   6  14
TORSDOF 4
ENDMDL
MODEL 9
REMARK VINA RESULT:    -5.106      2.414      3.455
REMARK INTER + INTRA:          -6.128
REMARK INTER:                  -6.003
REMARK INTRA:                  -0.125
REMARK UNBOUND:                -0.127
REMARK SMILES O=C([O-])C=Cc1ccc(O)c(O)c1
REMARK SMILES IDX 6 1 13 2 7 3 11 4 8 5 9 6 5 7 4 8 2 9 1 10 3 11 12 12 10 14
REMARK H PARENT 12 13 10 15
REMARK Flexibility Score: inf
ROOT
ATOM      1  C   UNL     1     -44.057 -11.569  11.578  1.00  0.00    -0.022 A 
ATOM      2  C   UNL     1     -44.001 -12.095  12.884  1.00  0.00     0.058 A 
ATOM      3  C   UNL     1     -44.980 -12.112  10.669  1.00  0.00     0.012 A 
ATOM      4  C   UNL     1     -44.866 -13.124  13.278  1.00  0.00     0.157 A 
ATOM      5  C   UNL     1     -45.845 -13.136  11.060  1.00  0.00     0.051 A 
ATOM      6  C   UNL     1     -45.795 -13.645  12.364  1.00  0.00     0.157 A 
ENDROOT
BRANCH   1   7
ATOM      7  C   UNL     1     -43.153 -10.489  11.111  1.00  0.00     0.010 C 
ATOM      8  C   UNL     1     -41.930 -10.709  10.608  1.00  0.00     0.025 C 
BRANCH   8   9
ATOM      9  C   UNL     1     -41.054  -9.610  10.165  1.00  0.00     0.064 C 
ATOM     10  O   UNL     1     -40.600  -9.571   8.991  1.00  0.00    -0.545 OA
ATOM     11  O   UNL     1     -40.720  -8.602  11.060  1.00  0.00    -0.545 OA
ENDBRANCH   8   9
ENDBRANCH   1   7
BRANCH   4  12
ATOM     12  O   UNL     1     -44.783 -13.616  14.580  1.00  0.00    -0.504 OA
ATOM     13  H   UNL     1     -44.267 -14.458  14.805  1.00  0.00     0.293 HD
ENDBRANCH   4  12
BRANCH   6  14
ATOM     14  O   UNL     1     -46.661 -14.666  12.751  1.00  0.00    -0.504 OA
ATOM     15  H   UNL     1     -47.659 -14.608  12.584  1.00  0.00     0.293 HD
ENDBRANCH   6  14
TORSDOF 4
ENDMDL
