MODEL 1
REMARK VINA RESULT:    -3.215      0.000      0.000
REMARK INTER + INTRA:          -4.408
REMARK INTER:                  -4.154
REMARK INTRA:                  -0.254
REMARK UNBOUND:                -0.254
REMARK SMILES CCCCCCC(=O)[O-]
REMARK SMILES IDX 5 1 6 2 7 3 8 4 9 5 4 6 3 7 2 8 1 9
REMARK H PARENT
REMARK Flexibility Score: inf
ROOT
ATOM      1  C   UNL     1     184.657 187.342 169.256  1.00  0.00     0.006 C 
ENDROOT
BRANCH   1   2
ATOM      2  C   UNL     1     184.157 187.172 170.702  1.00  0.00     0.053 C 
BRANCH   2   3
ATOM      3  C   UNL     1     182.673 187.347 170.820  1.00  0.00     0.041 C 
ATOM      4  O   UNL     1     182.132 188.429 170.471  1.00  0.00    -0.550 OA
ATOM      5  O   UNL     1     181.891 186.331 171.355  1.00  0.00    -0.550 OA
ENDBRANCH   2   3
ENDBRANCH   1   2
BRANCH   1   6
ATOM      6  C   UNL     1     186.190 187.427 169.128  1.00  0.00     0.000 C 
BRANCH   6   7
ATOM      7  C   UNL     1     186.882 188.366 170.131  1.00  0.00    -0.000 C 
BRANCH   7   8
ATOM      8  C   UNL     1     188.134 187.745 170.766  1.00  0.00    -0.003 C 
ATOM      9  C   UNL     1     187.805 186.417 171.442  1.00  0.00     0.004 C 
ENDBRANCH   7   8
ENDBRANCH   6   7
ENDBRANCH   1   6
TORSDOF 5
ENDMDL
MODEL 2
REMARK VINA RESULT:    -3.210     10.254     11.167
REMARK INTER + INTRA:          -4.402
REMARK INTER:                  -4.147
REMARK INTRA:                  -0.255
REMARK UNBOUND:                -0.254
REMARK SMILES CCCCCCC(=O)[O-]
REMARK SMILES IDX 5 1 6 2 7 3 8 4 9 5 4 6 3 7 2 8 1 9
REMARK H PARENT
REMARK Flexibility Score: inf
ROOT
ATOM      1  C   UNL     1     188.960 196.598 171.568  1.00  0.00     0.006 C 
ENDROOT
BRANCH   1   2
ATOM      2  C   UNL     1     189.352 196.746 173.049  1.00  0.00     0.053 C 
BRANCH   2   3
ATOM      3  C   UNL     1     188.176 197.047 173.927  1.00  0.00     0.041 C 
ATOM      4  O   UNL     1     187.012 196.741 173.555  1.00  0.00    -0.550 OA
ATOM      5  O   UNL     1     188.358 197.704 175.138  1.00  0.00    -0.550 OA
ENDBRANCH   2   3
ENDBRANCH   1   2
BRANCH   1   6
ATOM      6  C   UNL     1     189.914 197.310 170.590  1.00  0.00     0.000 C 
BRANCH   6   7
ATOM      7  C   UNL     1     191.040 198.125 171.249  1.00  0.00    -0.000 C 
BRANCH   7   8
ATOM      8  C   UNL     1     192.436 197.541 170.982  1.00  0.00    -0.003 C 
ATOM      9  C   UNL     1     192.386 196.484 169.883  1.00  0.00     0.004 C 
ENDBRANCH   7   8
ENDBRANCH   6   7
ENDBRANCH   1   6
TORSDOF 5
ENDMDL
MODEL 3
REMARK VINA RESULT:    -3.196      1.270      1.914
REMARK INTER + INTRA:          -4.384
REMARK INTER:                  -4.133
REMARK INTRA:                  -0.252
REMARK UNBOUND:                -0.254
REMARK SMILES CCCCCCC(=O)[O-]
REMARK SMILES IDX 5 1 6 2 7 3 8 4 9 5 4 6 3 7 2 8 1 9
REMARK H PARENT
REMARK Flexibility Score: inf
ROOT
ATOM      1  C   UNL     1     186.392 187.989 169.209  1.00  0.00     0.006 C 
ENDROOT
BRANCH   1   2
ATOM      2  C   UNL     1     185.232 186.987 169.082  1.00  0.00     0.053 C 
BRANCH   2   3
ATOM      3  C   UNL     1     183.941 187.532 169.613  1.00  0.00     0.041 C 
ATOM      4  O   UNL     1     183.255 188.329 168.919  1.00  0.00    -0.550 OA
ATOM      5  O   UNL     1     183.515 187.196 170.893  1.00  0.00    -0.550 OA
ENDBRANCH   2   3
ENDBRANCH   1   2
BRANCH   1   6
ATOM      6  C   UNL     1     187.164 187.891 170.539  1.00  0.00     0.000 C 
BRANCH   6   7
ATOM      7  C   UNL     1     187.126 186.512 171.220  1.00  0.00    -0.000 C 
BRANCH   7   8
ATOM      8  C   UNL     1     188.397 186.208 172.027  1.00  0.00    -0.003 C 
ATOM      9  C   UNL     1     189.607 186.921 171.432  1.00  0.00     0.004 C 
ENDBRANCH   7   8
ENDBRANCH   6   7
ENDBRANCH   1   6
TORSDOF 5
ENDMDL
MODEL 4
REMARK VINA RESULT:    -3.178      1.660      2.327
REMARK INTER + INTRA:          -4.361
REMARK INTER:                  -3.997
REMARK INTRA:                  -0.364
REMARK UNBOUND:                -0.254
REMARK SMILES CCCCCCC(=O)[O-]
REMARK SMILES IDX 5 1 6 2 7 3 8 4 9 5 4 6 3 7 2 8 1 9
REMARK H PARENT
REMARK Flexibility Score: inf
ROOT
ATOM      1  C   UNL     1     186.142 185.677 168.848  1.00  0.00     0.006 C 
ENDROOT
BRANCH   1   2
ATOM      2  C   UNL     1     185.458 186.923 168.256  1.00  0.00     0.053 C 
BRANCH   2   3
ATOM      3  C   UNL     1     184.336 187.424 169.114  1.00  0.00     0.041 C 
ATOM      4  O   UNL     1     183.401 188.097 168.606  1.00  0.00    -0.550 OA
ATOM      5  O   UNL     1     184.344 187.185 170.483  1.00  0.00    -0.550 OA
ENDBRANCH   2   3
ENDBRANCH   1   2
BRANCH   1   6
ATOM      6  C   UNL     1     187.593 185.916 169.307  1.00  0.00     0.000 C 
BRANCH   6   7
ATOM      7  C   UNL     1     187.745 186.681 170.632  1.00  0.00    -0.000 C 
BRANCH   7   8
ATOM      8  C   UNL     1     188.502 188.008 170.473  1.00  0.00    -0.003 C 
ATOM      9  C   UNL     1     187.535 189.168 170.252  1.00  0.00     0.004 C 
ENDBRANCH   7   8
ENDBRANCH   6   7
ENDBRANCH   1   6
TORSDOF 5
ENDMDL
MODEL 5
REMARK VINA RESULT:    -3.175      2.212      3.104
REMARK INTER + INTRA:          -4.358
REMARK INTER:                  -4.130
REMARK INTRA:                  -0.228
REMARK UNBOUND:                -0.254
REMARK SMILES CCCCCCC(=O)[O-]
REMARK SMILES IDX 5 1 6 2 7 3 8 4 9 5 4 6 3 7 2 8 1 9
REMARK H PARENT
REMARK Flexibility Score: inf
ROOT
ATOM      1  C   UNL     1     187.033 188.278 170.271  1.00  0.00     0.006 C 
ENDROOT
BRANCH   1   2
ATOM      2  C   UNL     1     185.835 187.340 170.506  1.00  0.00     0.053 C 
BRANCH   2   3
ATOM      3  C   UNL     1     185.260 186.812 169.226  1.00  0.00     0.041 C 
ATOM      4  O   UNL     1     185.735 185.772 168.700  1.00  0.00    -0.550 OA
ATOM      5  O   UNL     1     184.228 187.493 168.592  1.00  0.00    -0.550 OA
ENDBRANCH   2   3
ENDBRANCH   1   2
BRANCH   1   6
ATOM      6  C   UNL     1     188.379 187.713 170.765  1.00  0.00     0.000 C 
BRANCH   6   7
ATOM      7  C   UNL     1     188.334 186.264 171.277  1.00  0.00    -0.000 C 
BRANCH   7   8
ATOM      8  C   UNL     1     189.297 186.012 172.446  1.00  0.00    -0.003 C 
ATOM      9  C   UNL     1     188.614 185.224 173.559  1.00  0.00     0.004 C 
ENDBRANCH   7   8
ENDBRANCH   6   7
ENDBRANCH   1   6
TORSDOF 5
ENDMDL
MODEL 6
REMARK VINA RESULT:    -3.164      3.343      4.531
REMARK INTER + INTRA:          -4.343
REMARK INTER:                  -3.922
REMARK INTRA:                  -0.422
REMARK UNBOUND:                -0.254
REMARK SMILES CCCCCCC(=O)[O-]
REMARK SMILES IDX 5 1 6 2 7 3 8 4 9 5 4 6 3 7 2 8 1 9
REMARK H PARENT
REMARK Flexibility Score: inf
ROOT
ATOM      1  C   UNL     1     187.317 188.300 169.402  1.00  0.00     0.006 C 
ENDROOT
BRANCH   1   2
ATOM      2  C   UNL     1     188.181 188.078 170.655  1.00  0.00     0.053 C 
BRANCH   2   3
ATOM      3  C   UNL     1     188.269 186.632 171.043  1.00  0.00     0.041 C 
ATOM      4  O   UNL     1     187.612 186.198 172.026  1.00  0.00    -0.550 OA
ATOM      5  O   UNL     1     189.108 185.772 170.345  1.00  0.00    -0.550 OA
ENDBRANCH   2   3
ENDBRANCH   1   2
BRANCH   1   6
ATOM      6  C   UNL     1     185.819 188.004 169.610  1.00  0.00     0.000 C 
BRANCH   6   7
ATOM      7  C   UNL     1     185.239 186.893 168.719  1.00  0.00    -0.000 C 
BRANCH   7   8
ATOM      8  C   UNL     1     186.290 186.254 167.799  1.00  0.00    -0.003 C 
ATOM      9  C   UNL     1     186.525 184.792 168.168  1.00  0.00     0.004 C 
ENDBRANCH   7   8
ENDBRANCH   6   7
ENDBRANCH   1   6
TORSDOF 5
ENDMDL
MODEL 7
REMARK VINA RESULT:    -3.139      3.468      4.182
REMARK INTER + INTRA:          -4.311
REMARK INTER:                  -3.910
REMARK INTRA:                  -0.400
REMARK UNBOUND:                -0.254
REMARK SMILES CCCCCCC(=O)[O-]
REMARK SMILES IDX 5 1 6 2 7 3 8 4 9 5 4 6 3 7 2 8 1 9
REMARK H PARENT
REMARK Flexibility Score: inf
ROOT
ATOM      1  C   UNL     1     185.825 187.806 169.680  1.00  0.00     0.006 C 
ENDROOT
BRANCH   1   2
ATOM      2  C   UNL     1     186.195 186.937 170.895  1.00  0.00     0.053 C 
BRANCH   2   3
ATOM      3  C   UNL     1     187.671 186.909 171.152  1.00  0.00     0.041 C 
ATOM      4  O   UNL     1     188.452 187.596 170.442  1.00  0.00    -0.550 OA
ATOM      5  O   UNL     1     188.191 186.090 172.147  1.00  0.00    -0.550 OA
ENDBRANCH   2   3
ENDBRANCH   1   2
BRANCH   1   6
ATOM      6  C   UNL     1     185.191 187.019 168.515  1.00  0.00     0.000 C 
BRANCH   6   7
ATOM      7  C   UNL     1     186.181 186.498 167.460  1.00  0.00    -0.000 C 
BRANCH   7   8
ATOM      8  C   UNL     1     186.664 185.069 167.746  1.00  0.00    -0.003 C 
ATOM      9  C   UNL     1     188.170 185.036 167.984  1.00  0.00     0.004 C 
ENDBRANCH   7   8
ENDBRANCH   6   7
ENDBRANCH   1   6
TORSDOF 5
ENDMDL
MODEL 8
REMARK VINA RESULT:    -3.125      3.739      4.365
REMARK INTER + INTRA:          -4.292
REMARK INTER:                  -3.982
REMARK INTRA:                  -0.310
REMARK UNBOUND:                -0.254
REMARK SMILES CCCCCCC(=O)[O-]
REMARK SMILES IDX 5 1 6 2 7 3 8 4 9 5 4 6 3 7 2 8 1 9
REMARK H PARENT
REMARK Flexibility Score: inf
ROOT
ATOM      1  C   UNL     1     185.520 186.770 168.398  1.00  0.00     0.006 C 
ENDROOT
BRANCH   1   2
ATOM      2  C   UNL     1     186.027 185.337 168.643  1.00  0.00     0.053 C 
BRANCH   2   3
ATOM      3  C   UNL     1     187.244 185.013 167.831  1.00  0.00     0.041 C 
ATOM      4  O   UNL     1     188.377 184.966 168.377  1.00  0.00    -0.550 OA
ATOM      5  O   UNL     1     187.133 184.803 166.461  1.00  0.00    -0.550 OA
ENDBRANCH   2   3
ENDBRANCH   1   2
BRANCH   1   6
ATOM      6  C   UNL     1     185.452 187.638 169.669  1.00  0.00     0.000 C 
BRANCH   6   7
ATOM      7  C   UNL     1     186.480 187.290 170.758  1.00  0.00    -0.000 C 
BRANCH   7   8
ATOM      8  C   UNL     1     187.789 188.080 170.621  1.00  0.00    -0.003 C 
ATOM      9  C   UNL     1     187.521 189.505 170.145  1.00  0.00     0.004 C 
ENDBRANCH   7   8
ENDBRANCH   6   7
ENDBRANCH   1   6
TORSDOF 5
ENDMDL
