MODEL 1
REMARK VINA RESULT:    -8.003      0.000      0.000
REMARK INTER + INTRA:          -9.824
REMARK INTER:                  -9.640
REMARK INTRA:                  -0.183
REMARK UNBOUND:                -0.183
REMARK SMILES Oc1cc(O)c2cc(O)c(-c3ccc(O)c(O)c3)[o+]c2c1.[Cl-]
REMARK SMILES IDX 10 1 19 2 20 3 21 4 2 5 3 6 4 7 6 8 7 9 8 10 11 11 12 12
REMARK SMILES IDX 13 13 14 14 18 15 16 16 15 17 17 19 9 21 1 23 5 25
REMARK H PARENT 15 18 17 20 9 22 1 24 5 26
REMARK Flexibility Score: inf
ROOT
ATOM      1  C   UNL     1     -48.705  25.936 -15.467  1.00  0.00     0.402 A 
ATOM      2  O   UNL     1     -48.052  26.605 -14.520  1.00  0.00    -0.202 OA
ATOM      3  C   UNL     1     -46.860  27.162 -14.710  1.00  0.00     0.368 A 
ATOM      4  C   UNL     1     -46.256  27.848 -13.653  1.00  0.00     0.162 A 
ATOM      5  C   UNL     1     -45.006  28.446 -13.824  1.00  0.00     0.128 A 
ATOM      6  C   UNL     1     -44.355  28.358 -15.061  1.00  0.00     0.093 A 
ATOM      7  C   UNL     1     -44.941  27.677 -16.135  1.00  0.00     0.136 A 
ATOM      8  C   UNL     1     -46.210  27.065 -15.964  1.00  0.00     0.125 A 
ATOM      9  C   UNL     1     -46.867  26.351 -16.979  1.00  0.00     0.078 A 
ATOM     10  C   UNL     1     -48.115  25.772 -16.734  1.00  0.00     0.223 A 
ENDROOT
BRANCH   1  11
ATOM     11  C   UNL     1     -50.032  25.369 -15.136  1.00  0.00     0.087 A 
ATOM     12  C   UNL     1     -51.106  26.235 -14.873  1.00  0.00     0.022 A 
ATOM     13  C   UNL     1     -52.372  25.723 -14.579  1.00  0.00     0.051 A 
ATOM     14  C   UNL     1     -52.589  24.342 -14.556  1.00  0.00     0.157 A 
ATOM     15  C   UNL     1     -50.258  23.981 -15.133  1.00  0.00     0.068 A 
ATOM     16  C   UNL     1     -51.529  23.466 -14.840  1.00  0.00     0.158 A 
BRANCH  14  17
ATOM     17  O   UNL     1     -53.863  23.861 -14.257  1.00  0.00    -0.504 OA
ATOM     18  H   UNL     1     -54.355  24.128 -13.414  1.00  0.00     0.293 HD
ENDBRANCH  14  17
BRANCH  16  19
ATOM     19  O   UNL     1     -51.741  22.088 -14.833  1.00  0.00    -0.504 OA
ATOM     20  H   UNL     1     -52.336  21.645 -14.143  1.00  0.00     0.293 HD
ENDBRANCH  16  19
ENDBRANCH   1  11
BRANCH  10  21
ATOM     21  O   UNL     1     -48.744  25.020 -17.727  1.00  0.00    -0.500 OA
ATOM     22  H   UNL     1     -49.610  25.324 -18.156  1.00  0.00     0.294 HD
ENDBRANCH  10  21
BRANCH   5  23
ATOM     23  O   UNL     1     -44.419  29.125 -12.760  1.00  0.00    -0.507 OA
ATOM     24  H   UNL     1     -43.473  29.483 -12.817  1.00  0.00     0.293 HD
ENDBRANCH   5  23
BRANCH   7  25
ATOM     25  O   UNL     1     -44.230  27.638 -17.337  1.00  0.00    -0.507 OA
ATOM     26  H   UNL     1     -43.372  28.142 -17.509  1.00  0.00     0.293 HD
ENDBRANCH   7  25
TORSDOF 6
ENDMDL
MODEL 2
REMARK VINA RESULT:    -7.914      2.084      6.919
REMARK INTER + INTRA:          -9.717
REMARK INTER:                  -9.833
REMARK INTRA:                   0.116
REMARK UNBOUND:                -0.183
REMARK SMILES Oc1cc(O)c2cc(O)c(-c3ccc(O)c(O)c3)[o+]c2c1.[Cl-]
REMARK SMILES IDX 10 1 19 2 20 3 21 4 2 5 3 6 4 7 6 8 7 9 8 10 11 11 12 12
REMARK SMILES IDX 13 13 14 14 18 15 16 16 15 17 17 19 9 21 1 23 5 25
REMARK H PARENT 15 18 17 20 9 22 1 24 5 26
REMARK Flexibility Score: inf
ROOT
ATOM      1  C   UNL     1     -48.335  26.437 -16.551  1.00  0.00     0.402 A 
ATOM      2  O   UNL     1     -48.819  25.271 -16.132  1.00  0.00    -0.202 OA
ATOM      3  C   UNL     1     -50.007  25.142 -15.549  1.00  0.00     0.368 A 
ATOM      4  C   UNL     1     -50.430  23.873 -15.145  1.00  0.00     0.162 A 
ATOM      5  C   UNL     1     -51.674  23.706 -14.534  1.00  0.00     0.128 A 
ATOM      6  C   UNL     1     -52.501  24.815 -14.325  1.00  0.00     0.093 A 
ATOM      7  C   UNL     1     -52.100  26.097 -14.721  1.00  0.00     0.136 A 
ATOM      8  C   UNL     1     -50.835  26.271 -15.340  1.00  0.00     0.125 A 
ATOM      9  C   UNL     1     -50.344  27.519 -15.758  1.00  0.00     0.078 A 
ATOM     10  C   UNL     1     -49.085  27.612 -16.358  1.00  0.00     0.223 A 
ENDROOT
BRANCH   1  11
ATOM     11  C   UNL     1     -47.001  26.450 -17.196  1.00  0.00     0.087 A 
ATOM     12  C   UNL     1     -46.080  27.453 -16.854  1.00  0.00     0.022 A 
ATOM     13  C   UNL     1     -44.810  27.474 -17.434  1.00  0.00     0.051 A 
ATOM     14  C   UNL     1     -44.434  26.489 -18.352  1.00  0.00     0.157 A 
ATOM     15  C   UNL     1     -46.615  25.448 -18.104  1.00  0.00     0.068 A 
ATOM     16  C   UNL     1     -45.339  25.467 -18.686  1.00  0.00     0.158 A 
BRANCH  14  17
ATOM     17  O   UNL     1     -43.161  26.537 -18.916  1.00  0.00    -0.504 OA
ATOM     18  H   UNL     1     -43.006  26.405 -19.908  1.00  0.00     0.293 HD
ENDBRANCH  14  17
BRANCH  16  19
ATOM     19  O   UNL     1     -44.967  24.473 -19.590  1.00  0.00    -0.504 OA
ATOM     20  H   UNL     1     -45.633  24.064 -20.234  1.00  0.00     0.293 HD
ENDBRANCH  16  19
ENDBRANCH   1  11
BRANCH  10  21
ATOM     21  O   UNL     1     -48.576  28.857 -16.726  1.00  0.00    -0.500 OA
ATOM     22  H   UNL     1     -48.490  29.130 -17.698  1.00  0.00     0.294 HD
ENDBRANCH  10  21
BRANCH   5  23
ATOM     23  O   UNL     1     -52.079  22.434 -14.139  1.00  0.00    -0.507 OA
ATOM     24  H   UNL     1     -53.059  22.196 -14.041  1.00  0.00     0.293 HD
ENDBRANCH   5  23
BRANCH   7  25
ATOM     25  O   UNL     1     -52.984  27.152 -14.480  1.00  0.00    -0.507 OA
ATOM     26  H   UNL     1     -52.707  28.118 -14.383  1.00  0.00     0.293 HD
ENDBRANCH   7  25
TORSDOF 6
ENDMDL
MODEL 3
REMARK VINA RESULT:    -7.841      1.458      2.976
REMARK INTER + INTRA:          -9.629
REMARK INTER:                  -9.745
REMARK INTRA:                   0.116
REMARK UNBOUND:                -0.183
REMARK SMILES Oc1cc(O)c2cc(O)c(-c3ccc(O)c(O)c3)[o+]c2c1.[Cl-]
REMARK SMILES IDX 10 1 19 2 20 3 21 4 2 5 3 6 4 7 6 8 7 9 8 10 11 11 12 12
REMARK SMILES IDX 13 13 14 14 18 15 16 16 15 17 17 19 9 21 1 23 5 25
REMARK H PARENT 15 18 17 20 9 22 1 24 5 26
REMARK Flexibility Score: inf
ROOT
ATOM      1  C   UNL     1     -48.422  26.342 -15.835  1.00  0.00     0.402 A 
ATOM      2  O   UNL     1     -47.752  25.866 -16.881  1.00  0.00    -0.202 OA
ATOM      3  C   UNL     1     -46.608  26.386 -17.313  1.00  0.00     0.368 A 
ATOM      4  C   UNL     1     -45.977  25.812 -18.420  1.00  0.00     0.162 A 
ATOM      5  C   UNL     1     -44.772  26.334 -18.894  1.00  0.00     0.128 A 
ATOM      6  C   UNL     1     -44.193  27.437 -18.257  1.00  0.00     0.093 A 
ATOM      7  C   UNL     1     -44.805  28.029 -17.145  1.00  0.00     0.136 A 
ATOM      8  C   UNL     1     -46.032  27.503 -16.663  1.00  0.00     0.125 A 
ATOM      9  C   UNL     1     -46.724  28.039 -15.565  1.00  0.00     0.078 A 
ATOM     10  C   UNL     1     -47.930  27.468 -15.149  1.00  0.00     0.223 A 
ENDROOT
BRANCH   1  11
ATOM     11  C   UNL     1     -49.682  25.670 -15.444  1.00  0.00     0.087 A 
ATOM     12  C   UNL     1     -50.802  26.445 -15.105  1.00  0.00     0.022 A 
ATOM     13  C   UNL     1     -52.007  25.833 -14.753  1.00  0.00     0.051 A 
ATOM     14  C   UNL     1     -52.117  24.440 -14.747  1.00  0.00     0.157 A 
ATOM     15  C   UNL     1     -49.801  24.268 -15.458  1.00  0.00     0.068 A 
ATOM     16  C   UNL     1     -51.011  23.652 -15.106  1.00  0.00     0.158 A 
BRANCH  14  17
ATOM     17  O   UNL     1     -53.331  23.857 -14.389  1.00  0.00    -0.504 OA
ATOM     18  H   UNL     1     -53.583  22.918 -14.673  1.00  0.00     0.293 HD
ENDBRANCH  14  17
BRANCH  16  19
ATOM     19  O   UNL     1     -51.117  22.262 -15.117  1.00  0.00    -0.504 OA
ATOM     20  H   UNL     1     -51.887  21.792 -15.579  1.00  0.00     0.293 HD
ENDBRANCH  16  19
ENDBRANCH   1  11
BRANCH  10  21
ATOM     21  O   UNL     1     -48.642  28.031 -14.090  1.00  0.00    -0.500 OA
ATOM     22  H   UNL     1     -48.551  29.011 -13.849  1.00  0.00     0.294 HD
ENDBRANCH  10  21
BRANCH   5  23
ATOM     23  O   UNL     1     -44.158  25.749 -19.999  1.00  0.00    -0.507 OA
ATOM     24  H   UNL     1     -44.672  25.556 -20.850  1.00  0.00     0.293 HD
ENDBRANCH   5  23
BRANCH   7  25
ATOM     25  O   UNL     1     -44.162  29.125 -16.564  1.00  0.00    -0.507 OA
ATOM     26  H   UNL     1     -43.669  29.838 -17.081  1.00  0.00     0.293 HD
ENDBRANCH   7  25
TORSDOF 6
ENDMDL
MODEL 4
REMARK VINA RESULT:    -7.202      2.026      6.801
REMARK INTER + INTRA:          -8.859
REMARK INTER:                  -8.546
REMARK INTRA:                  -0.313
REMARK UNBOUND:                -0.183
REMARK SMILES Oc1cc(O)c2cc(O)c(-c3ccc(O)c(O)c3)[o+]c2c1.[Cl-]
REMARK SMILES IDX 10 1 19 2 20 3 21 4 2 5 3 6 4 7 6 8 7 9 8 10 11 11 12 12
REMARK SMILES IDX 13 13 14 14 18 15 16 16 15 17 17 19 9 21 1 23 5 25
REMARK H PARENT 15 18 17 20 9 22 1 24 5 26
REMARK Flexibility Score: inf
ROOT
ATOM      1  C   UNL     1     -48.351  26.275 -16.391  1.00  0.00     0.402 A 
ATOM      2  O   UNL     1     -49.165  27.267 -16.045  1.00  0.00    -0.202 OA
ATOM      3  C   UNL     1     -50.368  27.073 -15.514  1.00  0.00     0.368 A 
ATOM      4  C   UNL     1     -51.150  28.181 -15.180  1.00  0.00     0.162 A 
ATOM      5  C   UNL     1     -52.416  28.007 -14.617  1.00  0.00     0.128 A 
ATOM      6  C   UNL     1     -52.904  26.716 -14.385  1.00  0.00     0.093 A 
ATOM      7  C   UNL     1     -52.138  25.589 -14.711  1.00  0.00     0.136 A 
ATOM      8  C   UNL     1     -50.853  25.762 -15.285  1.00  0.00     0.125 A 
ATOM      9  C   UNL     1     -50.022  24.692 -15.656  1.00  0.00     0.078 A 
ATOM     10  C   UNL     1     -48.768  24.941 -16.221  1.00  0.00     0.223 A 
ENDROOT
BRANCH   1  11
ATOM     11  C   UNL     1     -47.030  26.620 -16.965  1.00  0.00     0.087 A 
ATOM     12  C   UNL     1     -45.973  26.963 -16.107  1.00  0.00     0.022 A 
ATOM     13  C   UNL     1     -44.713  27.273 -16.624  1.00  0.00     0.051 A 
ATOM     14  C   UNL     1     -44.484  27.231 -18.002  1.00  0.00     0.157 A 
ATOM     15  C   UNL     1     -46.792  26.558 -18.350  1.00  0.00     0.068 A 
ATOM     16  C   UNL     1     -45.527  26.867 -18.870  1.00  0.00     0.158 A 
BRANCH  14  17
ATOM     17  O   UNL     1     -43.218  27.547 -18.490  1.00  0.00    -0.504 OA
ATOM     18  H   UNL     1     -43.069  27.857 -19.443  1.00  0.00     0.293 HD
ENDBRANCH  14  17
BRANCH  16  19
ATOM     19  O   UNL     1     -45.303  26.809 -20.246  1.00  0.00    -0.504 OA
ATOM     20  H   UNL     1     -44.384  26.966 -20.641  1.00  0.00     0.293 HD
ENDBRANCH  16  19
ENDBRANCH   1  11
BRANCH  10  21
ATOM     21  O   UNL     1     -47.963  23.879 -16.635  1.00  0.00    -0.500 OA
ATOM     22  H   UNL     1     -48.340  23.100 -17.161  1.00  0.00     0.294 HD
ENDBRANCH  10  21
BRANCH   5  23
ATOM     23  O   UNL     1     -53.181  29.124 -14.291  1.00  0.00    -0.507 OA
ATOM     24  H   UNL     1     -53.440  29.811 -14.989  1.00  0.00     0.293 HD
ENDBRANCH   5  23
BRANCH   7  25
ATOM     25  O   UNL     1     -52.695  24.335 -14.445  1.00  0.00    -0.507 OA
ATOM     26  H   UNL     1     -53.054  24.049 -13.546  1.00  0.00     0.293 HD
ENDBRANCH   7  25
TORSDOF 6
ENDMDL
MODEL 5
REMARK VINA RESULT:    -7.112      2.953      3.872
REMARK INTER + INTRA:          -8.750
REMARK INTER:                  -8.655
REMARK INTRA:                  -0.095
REMARK UNBOUND:                -0.183
REMARK SMILES Oc1cc(O)c2cc(O)c(-c3ccc(O)c(O)c3)[o+]c2c1.[Cl-]
REMARK SMILES IDX 10 1 19 2 20 3 21 4 2 5 3 6 4 7 6 8 7 9 8 10 11 11 12 12
REMARK SMILES IDX 13 13 14 14 18 15 16 16 15 17 17 19 9 21 1 23 5 25
REMARK H PARENT 15 18 17 20 9 22 1 24 5 26
REMARK Flexibility Score: inf
ROOT
ATOM      1  C   UNL     1     -47.927  27.051 -16.506  1.00  0.00     0.402 A 
ATOM      2  O   UNL     1     -46.896  27.848 -16.771  1.00  0.00    -0.202 OA
ATOM      3  C   UNL     1     -45.881  27.494 -17.553  1.00  0.00     0.368 A 
ATOM      4  C   UNL     1     -44.844  28.404 -17.774  1.00  0.00     0.162 A 
ATOM      5  C   UNL     1     -43.768  28.062 -18.594  1.00  0.00     0.128 A 
ATOM      6  C   UNL     1     -43.727  26.800 -19.198  1.00  0.00     0.093 A 
ATOM      7  C   UNL     1     -44.754  25.870 -18.993  1.00  0.00     0.136 A 
ATOM      8  C   UNL     1     -45.848  26.214 -18.158  1.00  0.00     0.125 A 
ATOM      9  C   UNL     1     -46.915  25.343 -17.884  1.00  0.00     0.078 A 
ATOM     10  C   UNL     1     -47.958  25.752 -17.048  1.00  0.00     0.223 A 
ENDROOT
BRANCH   1  11
ATOM     11  C   UNL     1     -49.002  27.564 -15.627  1.00  0.00     0.087 A 
ATOM     12  C   UNL     1     -48.667  28.155 -14.399  1.00  0.00     0.022 A 
ATOM     13  C   UNL     1     -49.662  28.664 -13.562  1.00  0.00     0.051 A 
ATOM     14  C   UNL     1     -51.006  28.605 -13.944  1.00  0.00     0.157 A 
ATOM     15  C   UNL     1     -50.352  27.524 -16.020  1.00  0.00     0.068 A 
ATOM     16  C   UNL     1     -51.353  28.036 -15.181  1.00  0.00     0.158 A 
BRANCH  14  17
ATOM     17  O   UNL     1     -51.978  29.118 -13.088  1.00  0.00    -0.504 OA
ATOM     18  H   UNL     1     -52.859  29.481 -13.430  1.00  0.00     0.293 HD
ENDBRANCH  14  17
BRANCH  16  19
ATOM     19  O   UNL     1     -52.690  27.987 -15.576  1.00  0.00    -0.504 OA
ATOM     20  H   UNL     1     -53.217  27.122 -15.558  1.00  0.00     0.293 HD
ENDBRANCH  16  19
ENDBRANCH   1  11
BRANCH  10  21
ATOM     21  O   UNL     1     -48.992  24.869 -16.736  1.00  0.00    -0.500 OA
ATOM     22  H   UNL     1     -48.864  24.112 -16.075  1.00  0.00     0.294 HD
ENDBRANCH  10  21
BRANCH   5  23
ATOM     23  O   UNL     1     -42.743  28.982 -18.802  1.00  0.00    -0.507 OA
ATOM     24  H   UNL     1     -42.239  29.024 -19.679  1.00  0.00     0.293 HD
ENDBRANCH   5  23
BRANCH   7  25
ATOM     25  O   UNL     1     -44.641  24.634 -19.634  1.00  0.00    -0.507 OA
ATOM     26  H   UNL     1     -43.786  24.274 -20.031  1.00  0.00     0.293 HD
ENDBRANCH   7  25
TORSDOF 6
ENDMDL
MODEL 6
REMARK VINA RESULT:    -6.818      3.344      6.935
REMARK INTER + INTRA:          -8.397
REMARK INTER:                  -8.257
REMARK INTRA:                  -0.140
REMARK UNBOUND:                -0.183
REMARK SMILES Oc1cc(O)c2cc(O)c(-c3ccc(O)c(O)c3)[o+]c2c1.[Cl-]
REMARK SMILES IDX 10 1 19 2 20 3 21 4 2 5 3 6 4 7 6 8 7 9 8 10 11 11 12 12
REMARK SMILES IDX 13 13 14 14 18 15 16 16 15 17 17 19 9 21 1 23 5 25
REMARK H PARENT 15 18 17 20 9 22 1 24 5 26
REMARK Flexibility Score: inf
ROOT
ATOM      1  C   UNL     1     -46.455  27.997 -16.022  1.00  0.00     0.402 A 
ATOM      2  O   UNL     1     -47.736  28.108 -16.359  1.00  0.00    -0.202 OA
ATOM      3  C   UNL     1     -48.698  28.392 -15.487  1.00  0.00     0.368 A 
ATOM      4  C   UNL     1     -50.017  28.491 -15.939  1.00  0.00     0.162 A 
ATOM      5  C   UNL     1     -51.047  28.793 -15.047  1.00  0.00     0.128 A 
ATOM      6  C   UNL     1     -50.758  28.997 -13.693  1.00  0.00     0.093 A 
ATOM      7  C   UNL     1     -49.445  28.904 -13.215  1.00  0.00     0.136 A 
ATOM      8  C   UNL     1     -48.395  28.595 -14.119  1.00  0.00     0.125 A 
ATOM      9  C   UNL     1     -47.052  28.468 -13.729  1.00  0.00     0.078 A 
ATOM     10  C   UNL     1     -46.073  28.158 -14.677  1.00  0.00     0.223 A 
ENDROOT
BRANCH   1  11
ATOM     11  C   UNL     1     -45.474  27.686 -17.087  1.00  0.00     0.087 A 
ATOM     12  C   UNL     1     -44.406  28.567 -17.321  1.00  0.00     0.022 A 
ATOM     13  C   UNL     1     -43.458  28.284 -18.306  1.00  0.00     0.051 A 
ATOM     14  C   UNL     1     -43.552  27.113 -19.064  1.00  0.00     0.157 A 
ATOM     15  C   UNL     1     -45.556  26.498 -17.836  1.00  0.00     0.068 A 
ATOM     16  C   UNL     1     -44.604  26.213 -18.826  1.00  0.00     0.158 A 
BRANCH  14  17
ATOM     17  O   UNL     1     -42.593  26.859 -20.043  1.00  0.00    -0.504 OA
ATOM     18  H   UNL     1     -41.770  27.439 -20.154  1.00  0.00     0.293 HD
ENDBRANCH  14  17
BRANCH  16  19
ATOM     19  O   UNL     1     -44.697  25.036 -19.567  1.00  0.00    -0.504 OA
ATOM     20  H   UNL     1     -45.024  25.036 -20.526  1.00  0.00     0.293 HD
ENDBRANCH  16  19
ENDBRANCH   1  11
BRANCH  10  21
ATOM     21  O   UNL     1     -44.747  27.983 -14.281  1.00  0.00    -0.500 OA
ATOM     22  H   UNL     1     -44.045  28.696 -14.440  1.00  0.00     0.294 HD
ENDBRANCH  10  21
BRANCH   5  23
ATOM     23  O   UNL     1     -52.355  28.887 -15.516  1.00  0.00    -0.507 OA
ATOM     24  H   UNL     1     -53.111  28.366 -15.087  1.00  0.00     0.293 HD
ENDBRANCH   5  23
BRANCH   7  25
ATOM     25  O   UNL     1     -49.239  29.125 -11.851  1.00  0.00    -0.507 OA
ATOM     26  H   UNL     1     -48.675  28.535 -11.257  1.00  0.00     0.293 HD
ENDBRANCH   7  25
TORSDOF 6
ENDMDL
MODEL 7
REMARK VINA RESULT:    -6.527      2.408      4.303
REMARK INTER + INTRA:          -8.046
REMARK INTER:                  -7.801
REMARK INTRA:                  -0.245
REMARK UNBOUND:                -0.183
REMARK SMILES Oc1cc(O)c2cc(O)c(-c3ccc(O)c(O)c3)[o+]c2c1.[Cl-]
REMARK SMILES IDX 10 1 19 2 20 3 21 4 2 5 3 6 4 7 6 8 7 9 8 10 11 11 12 12
REMARK SMILES IDX 13 13 14 14 18 15 16 16 15 17 17 19 9 21 1 23 5 25
REMARK H PARENT 15 18 17 20 9 22 1 24 5 26
REMARK Flexibility Score: inf
ROOT
ATOM      1  C   UNL     1     -51.642  24.154 -14.171  1.00  0.00     0.402 A 
ATOM      2  O   UNL     1     -51.025  25.332 -14.171  1.00  0.00    -0.202 OA
ATOM      3  C   UNL     1     -49.994  25.616 -14.960  1.00  0.00     0.368 A 
ATOM      4  C   UNL     1     -49.414  26.885 -14.889  1.00  0.00     0.162 A 
ATOM      5  C   UNL     1     -48.333  27.214 -15.708  1.00  0.00     0.128 A 
ATOM      6  C   UNL     1     -47.826  26.266 -16.605  1.00  0.00     0.093 A 
ATOM      7  C   UNL     1     -48.391  24.987 -16.696  1.00  0.00     0.136 A 
ATOM      8  C   UNL     1     -49.488  24.650 -15.863  1.00  0.00     0.125 A 
ATOM      9  C   UNL     1     -50.108  23.389 -15.874  1.00  0.00     0.078 A 
ATOM     10  C   UNL     1     -51.184  23.129 -15.021  1.00  0.00     0.223 A 
ENDROOT
BRANCH   1  11
ATOM     11  C   UNL     1     -52.787  23.962 -13.252  1.00  0.00     0.087 A 
ATOM     12  C   UNL     1     -52.634  23.147 -12.119  1.00  0.00     0.022 A 
ATOM     13  C   UNL     1     -53.693  22.968 -11.227  1.00  0.00     0.051 A 
ATOM     14  C   UNL     1     -54.917  23.608 -11.444  1.00  0.00     0.157 A 
ATOM     15  C   UNL     1     -54.012  24.622 -13.458  1.00  0.00     0.068 A 
ATOM     16  C   UNL     1     -55.076  24.444 -12.562  1.00  0.00     0.158 A 
BRANCH  14  17
ATOM     17  O   UNL     1     -55.957  23.409 -10.538  1.00  0.00    -0.504 OA
ATOM     18  H   UNL     1     -56.910  23.246 -10.840  1.00  0.00     0.293 HD
ENDBRANCH  14  17
BRANCH  16  19
ATOM     19  O   UNL     1     -56.289  25.098 -12.777  1.00  0.00    -0.504 OA
ATOM     20  H   UNL     1     -56.565  25.901 -12.225  1.00  0.00     0.293 HD
ENDBRANCH  16  19
ENDBRANCH   1  11
BRANCH  10  21
ATOM     21  O   UNL     1     -51.767  21.862 -14.996  1.00  0.00    -0.500 OA
ATOM     22  H   UNL     1     -51.456  21.121 -15.613  1.00  0.00     0.294 HD
ENDBRANCH  10  21
BRANCH   5  23
ATOM     23  O   UNL     1     -47.768  28.484 -15.623  1.00  0.00    -0.507 OA
ATOM     24  H   UNL     1     -47.889  29.168 -16.360  1.00  0.00     0.293 HD
ENDBRANCH   5  23
BRANCH   7  25
ATOM     25  O   UNL     1     -47.830  24.101 -17.618  1.00  0.00    -0.507 OA
ATOM     26  H   UNL     1     -47.613  23.134 -17.422  1.00  0.00     0.293 HD
ENDBRANCH   7  25
TORSDOF 6
ENDMDL
MODEL 8
REMARK VINA RESULT:    -6.309     13.925     16.436
REMARK INTER + INTRA:          -7.784
REMARK INTER:                  -7.543
REMARK INTRA:                  -0.240
REMARK UNBOUND:                -0.183
REMARK SMILES Oc1cc(O)c2cc(O)c(-c3ccc(O)c(O)c3)[o+]c2c1.[Cl-]
REMARK SMILES IDX 10 1 19 2 20 3 21 4 2 5 3 6 4 7 6 8 7 9 8 10 11 11 12 12
REMARK SMILES IDX 13 13 14 14 18 15 16 16 15 17 17 19 9 21 1 23 5 25
REMARK H PARENT 15 18 17 20 9 22 1 24 5 26
REMARK Flexibility Score: inf
ROOT
ATOM      1  C   UNL     1     -47.946  11.077 -18.771  1.00  0.00     0.402 A 
ATOM      2  O   UNL     1     -48.923  11.853 -19.230  1.00  0.00    -0.202 OA
ATOM      3  C   UNL     1     -49.586  11.604 -20.355  1.00  0.00     0.368 A 
ATOM      4  C   UNL     1     -50.601  12.478 -20.753  1.00  0.00     0.162 A 
ATOM      5  C   UNL     1     -51.317  12.240 -21.928  1.00  0.00     0.128 A 
ATOM      6  C   UNL     1     -51.016  11.119 -22.710  1.00  0.00     0.093 A 
ATOM      7  C   UNL     1     -50.004  10.227 -22.332  1.00  0.00     0.136 A 
ATOM      8  C   UNL     1     -49.273  10.468 -21.140  1.00  0.00     0.125 A 
ATOM      9  C   UNL     1     -48.234   9.638 -20.690  1.00  0.00     0.078 A 
ATOM     10  C   UNL     1     -47.556   9.942 -19.506  1.00  0.00     0.223 A 
ENDROOT
BRANCH   1  11
ATOM     11  C   UNL     1     -47.289  11.455 -17.498  1.00  0.00     0.087 A 
ATOM     12  C   UNL     1     -46.576  12.661 -17.422  1.00  0.00     0.022 A 
ATOM     13  C   UNL     1     -45.966  13.049 -16.227  1.00  0.00     0.051 A 
ATOM     14  C   UNL     1     -46.069  12.246 -15.087  1.00  0.00     0.157 A 
ATOM     15  C   UNL     1     -47.411  10.659 -16.345  1.00  0.00     0.068 A 
ATOM     16  C   UNL     1     -46.799  11.047 -15.144  1.00  0.00     0.158 A 
BRANCH  14  17
ATOM     17  O   UNL     1     -45.448  12.657 -13.909  1.00  0.00    -0.504 OA
ATOM     18  H   UNL     1     -45.280  12.021 -13.139  1.00  0.00     0.293 HD
ENDBRANCH  14  17
BRANCH  16  19
ATOM     19  O   UNL     1     -46.920  10.249 -14.007  1.00  0.00    -0.504 OA
ATOM     20  H   UNL     1     -47.227  10.630 -13.120  1.00  0.00     0.293 HD
ENDBRANCH  16  19
ENDBRANCH   1  11
BRANCH  10  21
ATOM     21  O   UNL     1     -46.491   9.145 -19.086  1.00  0.00    -0.500 OA
ATOM     22  H   UNL     1     -45.545   9.303 -19.414  1.00  0.00     0.294 HD
ENDBRANCH  10  21
BRANCH   5  23
ATOM     23  O   UNL     1     -52.324  13.122 -22.308  1.00  0.00    -0.507 OA
ATOM     24  H   UNL     1     -52.804  13.028 -23.195  1.00  0.00     0.293 HD
ENDBRANCH   5  23
BRANCH   7  25
ATOM     25  O   UNL     1     -49.768   9.131 -23.165  1.00  0.00    -0.507 OA
ATOM     26  H   UNL     1     -50.254   8.248 -23.098  1.00  0.00     0.293 HD
ENDBRANCH   7  25
TORSDOF 6
ENDMDL
MODEL 9
REMARK VINA RESULT:    -6.249      2.786      7.764
REMARK INTER + INTRA:          -7.711
REMARK INTER:                  -8.061
REMARK INTRA:                   0.350
REMARK UNBOUND:                -0.183
REMARK SMILES Oc1cc(O)c2cc(O)c(-c3ccc(O)c(O)c3)[o+]c2c1.[Cl-]
REMARK SMILES IDX 10 1 19 2 20 3 21 4 2 5 3 6 4 7 6 8 7 9 8 10 11 11 12 12
REMARK SMILES IDX 13 13 14 14 18 15 16 16 15 17 17 19 9 21 1 23 5 25
REMARK H PARENT 15 18 17 20 9 22 1 24 5 26
REMARK Flexibility Score: inf
ROOT
ATOM      1  C   UNL     1     -45.115  28.058 -16.932  1.00  0.00     0.402 A 
ATOM      2  O   UNL     1     -46.335  27.642 -17.257  1.00  0.00    -0.202 OA
ATOM      3  C   UNL     1     -47.319  27.504 -16.374  1.00  0.00     0.368 A 
ATOM      4  C   UNL     1     -48.570  27.063 -16.814  1.00  0.00     0.162 A 
ATOM      5  C   UNL     1     -49.623  26.913 -15.909  1.00  0.00     0.128 A 
ATOM      6  C   UNL     1     -49.424  27.207 -14.555  1.00  0.00     0.093 A 
ATOM      7  C   UNL     1     -48.180  27.651 -14.090  1.00  0.00     0.136 A 
ATOM      8  C   UNL     1     -47.107  27.802 -15.006  1.00  0.00     0.125 A 
ATOM      9  C   UNL     1     -45.823  28.228 -14.629  1.00  0.00     0.078 A 
ATOM     10  C   UNL     1     -44.814  28.349 -15.589  1.00  0.00     0.223 A 
ENDROOT
BRANCH   1  11
ATOM     11  C   UNL     1     -44.106  28.180 -18.010  1.00  0.00     0.087 A 
ATOM     12  C   UNL     1     -42.989  29.008 -17.818  1.00  0.00     0.022 A 
ATOM     13  C   UNL     1     -42.014  29.123 -18.812  1.00  0.00     0.051 A 
ATOM     14  C   UNL     1     -42.131  28.404 -20.005  1.00  0.00     0.157 A 
ATOM     15  C   UNL     1     -44.212  27.441 -19.202  1.00  0.00     0.068 A 
ATOM     16  C   UNL     1     -43.233  27.555 -20.200  1.00  0.00     0.158 A 
BRANCH  14  17
ATOM     17  O   UNL     1     -41.145  28.541 -20.980  1.00  0.00    -0.504 OA
ATOM     18  H   UNL     1     -41.180  29.269 -21.683  1.00  0.00     0.293 HD
ENDBRANCH  14  17
BRANCH  16  19
ATOM     19  O   UNL     1     -43.350  26.823 -21.381  1.00  0.00    -0.504 OA
ATOM     20  H   UNL     1     -44.194  26.311 -21.608  1.00  0.00     0.293 HD
ENDBRANCH  16  19
ENDBRANCH   1  11
BRANCH  10  21
ATOM     21  O   UNL     1     -43.526  28.724 -15.206  1.00  0.00    -0.500 OA
ATOM     22  H   UNL     1     -42.764  28.056 -15.175  1.00  0.00     0.294 HD
ENDBRANCH  10  21
BRANCH   5  23
ATOM     23  O   UNL     1     -50.862  26.472 -16.366  1.00  0.00    -0.507 OA
ATOM     24  H   UNL     1     -51.704  27.017 -16.223  1.00  0.00     0.293 HD
ENDBRANCH   5  23
BRANCH   7  25
ATOM     25  O   UNL     1     -48.064  27.926 -12.725  1.00  0.00    -0.507 OA
ATOM     26  H   UNL     1     -48.084  27.225 -11.998  1.00  0.00     0.293 HD
ENDBRANCH   7  25
TORSDOF 6
ENDMDL
