MODEL 1
REMARK VINA RESULT:    -3.929      0.000      0.000
REMARK INTER + INTRA:          -6.692
REMARK INTER:                  -5.996
REMARK INTRA:                  -0.696
REMARK UNBOUND:                -0.696
REMARK SMILES O=C([O-])CCCCCCCCC(=O)[O-]
REMARK SMILES IDX 7 1 6 2 5 3 4 4 2 5 1 6 3 7 8 8 9 9 10 10 11 11 12 12 13 13
REMARK SMILES IDX 14 14
REMARK H PARENT
REMARK Flexibility Score: inf
ROOT
ATOM      1  C   UNL     1       3.765 124.259 113.035  1.00  0.00     0.000 C 
ENDROOT
BRANCH   1   2
ATOM      2  C   UNL     1       4.448 122.919 112.727  1.00  0.00     0.000 C 
BRANCH   2   3
ATOM      3  C   UNL     1       5.601 123.104 111.730  1.00  0.00     0.006 C 
BRANCH   3   4
ATOM      4  C   UNL     1       6.505 124.287 112.101  1.00  0.00     0.053 C 
BRANCH   4   5
ATOM      5  C   UNL     1       7.480 123.923 113.179  1.00  0.00     0.041 C 
ATOM      6  O   UNL     1       7.344 124.388 114.341  1.00  0.00    -0.550 OA
ATOM      7  O   UNL     1       8.519 123.042 112.907  1.00  0.00    -0.550 OA
ENDBRANCH   4   5
ENDBRANCH   3   4
ENDBRANCH   2   3
ENDBRANCH   1   2
BRANCH   1   8
ATOM      8  C   UNL     1       2.499 124.479 112.178  1.00  0.00     0.000 C 
BRANCH   8   9
ATOM      9  C   UNL     1       2.707 125.458 111.011  1.00  0.00     0.000 C 
BRANCH   9  10
ATOM     10  C   UNL     1       3.606 126.646 111.378  1.00  0.00     0.006 C 
BRANCH  10  11
ATOM     11  C   UNL     1       2.805 127.950 111.422  1.00  0.00     0.053 C 
BRANCH  11  12
ATOM     12  C   UNL     1       1.994 128.108 110.176  1.00  0.00     0.041 C 
ATOM     13  O   UNL     1       2.535 128.510 109.113  1.00  0.00    -0.550 OA
ATOM     14  O   UNL     1       0.627 127.859 110.200  1.00  0.00    -0.550 OA
ENDBRANCH  11  12
ENDBRANCH  10  11
ENDBRANCH   9  10
ENDBRANCH   8   9
ENDBRANCH   1   8
TORSDOF 9
ENDMDL
MODEL 2
REMARK VINA RESULT:    -3.909      1.468      5.689
REMARK INTER + INTRA:          -6.662
REMARK INTER:                  -5.905
REMARK INTRA:                  -0.757
REMARK UNBOUND:                -0.696
REMARK SMILES O=C([O-])CCCCCCCCC(=O)[O-]
REMARK SMILES IDX 7 1 6 2 5 3 4 4 2 5 1 6 3 7 8 8 9 9 10 10 11 11 12 12 13 13
REMARK SMILES IDX 14 14
REMARK H PARENT
REMARK Flexibility Score: inf
ROOT
ATOM      1  C   UNL     1       3.158 123.670 113.155  1.00  0.00     0.000 C 
ENDROOT
BRANCH   1   2
ATOM      2  C   UNL     1       3.361 125.032 112.473  1.00  0.00     0.000 C 
BRANCH   2   3
ATOM      3  C   UNL     1       2.746 125.041 111.066  1.00  0.00     0.006 C 
BRANCH   3   4
ATOM      4  C   UNL     1       3.250 126.217 110.220  1.00  0.00     0.053 C 
BRANCH   4   5
ATOM      5  C   UNL     1       2.279 127.358 110.222  1.00  0.00     0.041 C 
ATOM      6  O   UNL     1       1.116 127.201 110.679  1.00  0.00    -0.550 OA
ATOM      7  O   UNL     1       2.671 128.605 109.752  1.00  0.00    -0.550 OA
ENDBRANCH   4   5
ENDBRANCH   3   4
ENDBRANCH   2   3
ENDBRANCH   1   2
BRANCH   1   8
ATOM      8  C   UNL     1       4.490 122.917 113.361  1.00  0.00     0.000 C 
BRANCH   8   9
ATOM      9  C   UNL     1       5.724 123.701 112.883  1.00  0.00     0.000 C 
BRANCH   9  10
ATOM     10  C   UNL     1       6.236 123.234 111.514  1.00  0.00     0.006 C 
BRANCH  10  11
ATOM     11  C   UNL     1       6.623 124.427 110.636  1.00  0.00     0.053 C 
BRANCH  11  12
ATOM     12  C   UNL     1       7.807 125.138 111.210  1.00  0.00     0.041 C 
ATOM     13  O   UNL     1       7.758 126.377 111.428  1.00  0.00    -0.550 OA
ATOM     14  O   UNL     1       8.983 124.442 111.460  1.00  0.00    -0.550 OA
ENDBRANCH  11  12
ENDBRANCH  10  11
ENDBRANCH   9  10
ENDBRANCH   8   9
ENDBRANCH   1   8
TORSDOF 9
ENDMDL
MODEL 3
REMARK VINA RESULT:    -3.859      1.383      1.790
REMARK INTER + INTRA:          -6.585
REMARK INTER:                  -5.719
REMARK INTRA:                  -0.867
REMARK UNBOUND:                -0.696
REMARK SMILES O=C([O-])CCCCCCCCC(=O)[O-]
REMARK SMILES IDX 7 1 6 2 5 3 4 4 2 5 1 6 3 7 8 8 9 9 10 10 11 11 12 12 13 13
REMARK SMILES IDX 14 14
REMARK H PARENT
REMARK Flexibility Score: inf
ROOT
ATOM      1  C   UNL     1       3.866 123.976 113.093  1.00  0.00     0.000 C 
ENDROOT
BRANCH   1   2
ATOM      2  C   UNL     1       4.704 125.034 113.825  1.00  0.00     0.000 C 
BRANCH   2   3
ATOM      3  C   UNL     1       6.206 124.746 113.679  1.00  0.00     0.006 C 
BRANCH   3   4
ATOM      4  C   UNL     1       6.762 125.234 112.335  1.00  0.00     0.053 C 
BRANCH   4   5
ATOM      5  C   UNL     1       7.662 124.215 111.705  1.00  0.00     0.041 C 
ATOM      6  O   UNL     1       8.902 124.420 111.634  1.00  0.00    -0.550 OA
ATOM      7  O   UNL     1       7.133 123.022 111.227  1.00  0.00    -0.550 OA
ENDBRANCH   4   5
ENDBRANCH   3   4
ENDBRANCH   2   3
ENDBRANCH   1   2
BRANCH   1   8
ATOM      8  C   UNL     1       2.761 124.610 112.220  1.00  0.00     0.000 C 
BRANCH   8   9
ATOM      9  C   UNL     1       3.089 124.618 110.718  1.00  0.00     0.000 C 
BRANCH   9  10
ATOM     10  C   UNL     1       3.743 125.927 110.255  1.00  0.00     0.006 C 
BRANCH  10  11
ATOM     11  C   UNL     1       3.133 127.131 110.976  1.00  0.00     0.053 C 
BRANCH  11  12
ATOM     12  C   UNL     1       2.129 127.812 110.101  1.00  0.00     0.041 C 
ATOM     13  O   UNL     1       0.898 127.623 110.283  1.00  0.00    -0.550 OA
ATOM     14  O   UNL     1       2.554 128.618 109.052  1.00  0.00    -0.550 OA
ENDBRANCH  11  12
ENDBRANCH  10  11
ENDBRANCH   9  10
ENDBRANCH   8   9
ENDBRANCH   1   8
TORSDOF 9
ENDMDL
MODEL 4
REMARK VINA RESULT:    -3.850      1.199      6.325
REMARK INTER + INTRA:          -6.571
REMARK INTER:                  -6.126
REMARK INTRA:                  -0.445
REMARK UNBOUND:                -0.696
REMARK SMILES O=C([O-])CCCCCCCCC(=O)[O-]
REMARK SMILES IDX 7 1 6 2 5 3 4 4 2 5 1 6 3 7 8 8 9 9 10 10 11 11 12 12 13 13
REMARK SMILES IDX 14 14
REMARK H PARENT
REMARK Flexibility Score: inf
ROOT
ATOM      1  C   UNL     1       3.121 125.000 110.742  1.00  0.00     0.000 C 
ENDROOT
BRANCH   1   2
ATOM      2  C   UNL     1       2.289 124.781 112.015  1.00  0.00     0.000 C 
BRANCH   2   3
ATOM      3  C   UNL     1       1.410 126.004 112.316  1.00  0.00     0.006 C 
BRANCH   3   4
ATOM      4  C   UNL     1       2.021 127.304 111.779  1.00  0.00     0.053 C 
BRANCH   4   5
ATOM      5  C   UNL     1       1.264 127.825 110.595  1.00  0.00     0.041 C 
ATOM      6  O   UNL     1       0.009 127.920 110.636  1.00  0.00    -0.550 OA
ATOM      7  O   UNL     1       1.949 128.239 109.460  1.00  0.00    -0.550 OA
ENDBRANCH   4   5
ENDBRANCH   3   4
ENDBRANCH   2   3
ENDBRANCH   1   2
BRANCH   1   8
ATOM      8  C   UNL     1       4.632 124.812 110.995  1.00  0.00     0.000 C 
BRANCH   8   9
ATOM      9  C   UNL     1       4.981 123.491 111.700  1.00  0.00     0.000 C 
BRANCH   9  10
ATOM     10  C   UNL     1       5.561 123.698 113.106  1.00  0.00     0.006 C 
BRANCH  10  11
ATOM     11  C   UNL     1       6.698 124.722 113.086  1.00  0.00     0.053 C 
BRANCH  11  12
ATOM     12  C   UNL     1       7.946 124.108 112.536  1.00  0.00     0.041 C 
ATOM     13  O   UNL     1       8.540 124.643 111.563  1.00  0.00    -0.550 OA
ATOM     14  O   UNL     1       8.428 122.917 113.066  1.00  0.00    -0.550 OA
ENDBRANCH  11  12
ENDBRANCH  10  11
ENDBRANCH   9  10
ENDBRANCH   8   9
ENDBRANCH   1   8
TORSDOF 9
ENDMDL
MODEL 5
REMARK VINA RESULT:    -3.823      3.004      5.861
REMARK INTER + INTRA:          -6.531
REMARK INTER:                  -5.903
REMARK INTRA:                  -0.628
REMARK UNBOUND:                -0.696
REMARK SMILES O=C([O-])CCCCCCCCC(=O)[O-]
REMARK SMILES IDX 7 1 6 2 5 3 4 4 2 5 1 6 3 7 8 8 9 9 10 10 11 11 12 12 13 13
REMARK SMILES IDX 14 14
REMARK H PARENT
REMARK Flexibility Score: inf
ROOT
ATOM      1  C   UNL     1       5.854 124.113 112.574  1.00  0.00     0.000 C 
ENDROOT
BRANCH   1   2
ATOM      2  C   UNL     1       4.514 123.812 111.886  1.00  0.00     0.000 C 
BRANCH   2   3
ATOM      3  C   UNL     1       4.121 124.943 110.925  1.00  0.00     0.006 C 
BRANCH   3   4
ATOM      4  C   UNL     1       3.555 126.162 111.664  1.00  0.00     0.053 C 
BRANCH   4   5
ATOM      5  C   UNL     1       2.204 126.549 111.143  1.00  0.00     0.041 C 
ATOM      6  O   UNL     1       2.093 127.103 110.017  1.00  0.00    -0.550 OA
ATOM      7  O   UNL     1       1.065 126.265 111.886  1.00  0.00    -0.550 OA
ENDBRANCH   4   5
ENDBRANCH   3   4
ENDBRANCH   2   3
ENDBRANCH   1   2
BRANCH   1   8
ATOM      8  C   UNL     1       7.049 123.493 111.819  1.00  0.00     0.000 C 
BRANCH   8   9
ATOM      9  C   UNL     1       8.206 124.477 111.578  1.00  0.00     0.000 C 
BRANCH   9  10
ATOM     10  C   UNL     1       8.116 125.185 110.220  1.00  0.00     0.006 C 
BRANCH  10  11
ATOM     11  C   UNL     1       7.625 124.227 109.131  1.00  0.00     0.053 C 
BRANCH  11  12
ATOM     12  C   UNL     1       8.060 124.702 107.781  1.00  0.00     0.041 C 
ATOM     13  O   UNL     1       9.267 124.611 107.436  1.00  0.00    -0.550 OA
ATOM     14  O   UNL     1       7.141 125.291 106.921  1.00  0.00    -0.550 OA
ENDBRANCH  11  12
ENDBRANCH  10  11
ENDBRANCH   9  10
ENDBRANCH   8   9
ENDBRANCH   1   8
TORSDOF 9
ENDMDL
MODEL 6
REMARK VINA RESULT:    -3.815      2.824      3.610
REMARK INTER + INTRA:          -6.519
REMARK INTER:                  -5.875
REMARK INTRA:                  -0.644
REMARK UNBOUND:                -0.696
REMARK SMILES O=C([O-])CCCCCCCCC(=O)[O-]
REMARK SMILES IDX 7 1 6 2 5 3 4 4 2 5 1 6 3 7 8 8 9 9 10 10 11 11 12 12 13 13
REMARK SMILES IDX 14 14
REMARK H PARENT
REMARK Flexibility Score: inf
ROOT
ATOM      1  C   UNL     1       5.377 125.139 110.969  1.00  0.00     0.000 C 
ENDROOT
BRANCH   1   2
ATOM      2  C   UNL     1       6.699 125.666 111.547  1.00  0.00     0.000 C 
BRANCH   2   3
ATOM      3  C   UNL     1       7.841 125.525 110.529  1.00  0.00     0.006 C 
BRANCH   3   4
ATOM      4  C   UNL     1       7.606 124.368 109.549  1.00  0.00     0.053 C 
BRANCH   4   5
ATOM      5  C   UNL     1       7.629 124.834 108.125  1.00  0.00     0.041 C 
ATOM      6  O   UNL     1       8.663 124.679 107.424  1.00  0.00    -0.550 OA
ATOM      7  O   UNL     1       6.496 125.407 107.563  1.00  0.00    -0.550 OA
ENDBRANCH   4   5
ENDBRANCH   3   4
ENDBRANCH   2   3
ENDBRANCH   1   2
BRANCH   1   8
ATOM      8  C   UNL     1       4.501 124.459 112.043  1.00  0.00     0.000 C 
BRANCH   8   9
ATOM      9  C   UNL     1       2.993 124.687 111.845  1.00  0.00     0.000 C 
BRANCH   9  10
ATOM     10  C   UNL     1       2.675 125.555 110.620  1.00  0.00     0.006 C 
BRANCH  10  11
ATOM     11  C   UNL     1       1.925 126.826 111.026  1.00  0.00     0.053 C 
BRANCH  11  12
ATOM     12  C   UNL     1       2.842 128.008 110.992  1.00  0.00     0.041 C 
ATOM     13  O   UNL     1       3.695 128.176 111.902  1.00  0.00    -0.550 OA
ATOM     14  O   UNL     1       2.721 128.952 109.980  1.00  0.00    -0.550 OA
ENDBRANCH  11  12
ENDBRANCH  10  11
ENDBRANCH   9  10
ENDBRANCH   8   9
ENDBRANCH   1   8
TORSDOF 9
ENDMDL
MODEL 7
REMARK VINA RESULT:    -3.749      3.871      4.952
REMARK INTER + INTRA:          -6.418
REMARK INTER:                  -5.883
REMARK INTRA:                  -0.535
REMARK UNBOUND:                -0.696
REMARK SMILES O=C([O-])CCCCCCCCC(=O)[O-]
REMARK SMILES IDX 7 1 6 2 5 3 4 4 2 5 1 6 3 7 8 8 9 9 10 10 11 11 12 12 13 13
REMARK SMILES IDX 14 14
REMARK H PARENT
REMARK Flexibility Score: inf
ROOT
ATOM      1  C   UNL     1       3.971 126.986 113.232  1.00  0.00     0.000 C 
ENDROOT
BRANCH   1   2
ATOM      2  C   UNL     1       4.623 125.864 112.408  1.00  0.00     0.000 C 
BRANCH   2   3
ATOM      3  C   UNL     1       6.152 125.902 112.539  1.00  0.00     0.006 C 
BRANCH   3   4
ATOM      4  C   UNL     1       6.854 125.320 111.305  1.00  0.00     0.053 C 
BRANCH   4   5
ATOM      5  C   UNL     1       7.843 124.258 111.679  1.00  0.00     0.041 C 
ATOM      6  O   UNL     1       9.077 124.457 111.528  1.00  0.00    -0.550 OA
ATOM      7  O   UNL     1       7.401 123.061 112.228  1.00  0.00    -0.550 OA
ENDBRANCH   4   5
ENDBRANCH   3   4
ENDBRANCH   2   3
ENDBRANCH   1   2
BRANCH   1   8
ATOM      8  C   UNL     1       3.809 128.288 112.418  1.00  0.00     0.000 C 
BRANCH   8   9
ATOM      9  C   UNL     1       4.283 129.545 113.166  1.00  0.00     0.000 C 
BRANCH   9  10
ATOM     10  C   UNL     1       5.747 129.457 113.618  1.00  0.00     0.006 C 
BRANCH  10  11
ATOM     11  C   UNL     1       5.957 130.184 114.949  1.00  0.00     0.053 C 
BRANCH  11  12
ATOM     12  C   UNL     1       7.283 130.876 114.963  1.00  0.00     0.041 C 
ATOM     13  O   UNL     1       8.104 130.694 114.026  1.00  0.00    -0.550 OA
ATOM     14  O   UNL     1       7.634 131.685 116.038  1.00  0.00    -0.550 OA
ENDBRANCH  11  12
ENDBRANCH  10  11
ENDBRANCH   9  10
ENDBRANCH   8   9
ENDBRANCH   1   8
TORSDOF 9
ENDMDL
MODEL 8
REMARK VINA RESULT:    -3.733      1.521      5.764
REMARK INTER + INTRA:          -6.394
REMARK INTER:                  -5.597
REMARK INTRA:                  -0.797
REMARK UNBOUND:                -0.696
REMARK SMILES O=C([O-])CCCCCCCCC(=O)[O-]
REMARK SMILES IDX 7 1 6 2 5 3 4 4 2 5 1 6 3 7 8 8 9 9 10 10 11 11 12 12 13 13
REMARK SMILES IDX 14 14
REMARK H PARENT
REMARK Flexibility Score: inf
ROOT
ATOM      1  C   UNL     1       4.105 124.923 114.108  1.00  0.00     0.000 C 
ENDROOT
BRANCH   1   2
ATOM      2  C   UNL     1       3.095 126.060 113.892  1.00  0.00     0.000 C 
BRANCH   2   3
ATOM      3  C   UNL     1       1.826 125.546 113.197  1.00  0.00     0.006 C 
BRANCH   3   4
ATOM      4  C   UNL     1       1.426 126.418 111.999  1.00  0.00     0.053 C 
BRANCH   4   5
ATOM      5  C   UNL     1       2.340 126.206 110.831  1.00  0.00     0.041 C 
ATOM      6  O   UNL     1       2.590 125.042 110.423  1.00  0.00    -0.550 OA
ATOM      7  O   UNL     1       2.886 127.300 110.170  1.00  0.00    -0.550 OA
ENDBRANCH   4   5
ENDBRANCH   3   4
ENDBRANCH   2   3
ENDBRANCH   1   2
BRANCH   1   8
ATOM      8  C   UNL     1       3.601 123.580 113.537  1.00  0.00     0.000 C 
BRANCH   8   9
ATOM      9  C   UNL     1       4.629 122.864 112.645  1.00  0.00     0.000 C 
BRANCH   9  10
ATOM     10  C   UNL     1       5.332 123.811 111.663  1.00  0.00     0.006 C 
BRANCH  10  11
ATOM     11  C   UNL     1       6.784 123.385 111.432  1.00  0.00     0.053 C 
BRANCH  11  12
ATOM     12  C   UNL     1       7.646 123.821 112.573  1.00  0.00     0.041 C 
ATOM     13  O   UNL     1       8.567 123.073 112.995  1.00  0.00    -0.550 OA
ATOM     14  O   UNL     1       7.402 125.035 113.205  1.00  0.00    -0.550 OA
ENDBRANCH  11  12
ENDBRANCH  10  11
ENDBRANCH   9  10
ENDBRANCH   8   9
ENDBRANCH   1   8
TORSDOF 9
ENDMDL
MODEL 9
REMARK VINA RESULT:    -3.709      3.881      6.389
REMARK INTER + INTRA:          -6.356
REMARK INTER:                  -5.915
REMARK INTRA:                  -0.441
REMARK UNBOUND:                -0.696
REMARK SMILES O=C([O-])CCCCCCCCC(=O)[O-]
REMARK SMILES IDX 7 1 6 2 5 3 4 4 2 5 1 6 3 7 8 8 9 9 10 10 11 11 12 12 13 13
REMARK SMILES IDX 14 14
REMARK H PARENT
REMARK Flexibility Score: inf
ROOT
ATOM      1  C   UNL     1       4.903 128.190 112.968  1.00  0.00     0.000 C 
ENDROOT
BRANCH   1   2
ATOM      2  C   UNL     1       4.441 128.404 114.417  1.00  0.00     0.000 C 
BRANCH   2   3
ATOM      3  C   UNL     1       5.145 129.615 115.047  1.00  0.00     0.006 C 
BRANCH   3   4
ATOM      4  C   UNL     1       5.915 130.443 114.010  1.00  0.00     0.053 C 
BRANCH   4   5
ATOM      5  C   UNL     1       7.307 130.753 114.470  1.00  0.00     0.041 C 
ATOM      6  O   UNL     1       8.279 130.629 113.680  1.00  0.00    -0.550 OA
ATOM      7  O   UNL     1       7.524 131.213 115.763  1.00  0.00    -0.550 OA
ENDBRANCH   4   5
ENDBRANCH   3   4
ENDBRANCH   2   3
ENDBRANCH   1   2
BRANCH   1   8
ATOM      8  C   UNL     1       5.783 126.930 112.817  1.00  0.00     0.000 C 
BRANCH   8   9
ATOM      9  C   UNL     1       5.139 125.827 111.960  1.00  0.00     0.000 C 
BRANCH   9  10
ATOM     10  C   UNL     1       6.076 125.294 110.868  1.00  0.00     0.006 C 
BRANCH  10  11
ATOM     11  C   UNL     1       7.536 125.339 111.325  1.00  0.00     0.053 C 
BRANCH  11  12
ATOM     12  C   UNL     1       7.945 124.020 111.901  1.00  0.00     0.041 C 
ATOM     13  O   UNL     1       8.954 123.941 112.650  1.00  0.00    -0.550 OA
ATOM     14  O   UNL     1       7.242 122.869 111.569  1.00  0.00    -0.550 OA
ENDBRANCH  11  12
ENDBRANCH  10  11
ENDBRANCH   9  10
ENDBRANCH   8   9
ENDBRANCH   1   8
TORSDOF 9
ENDMDL
