MODEL 1
REMARK VINA RESULT:    -6.512      0.000      0.000
REMARK INTER + INTRA:          -7.917
REMARK INTER:                  -7.654
REMARK INTRA:                  -0.263
REMARK UNBOUND:                -0.263
REMARK SMILES O=c1cc(-c2ccc(O)c(O)c2)oc2cc(O)cc(O)c12
REMARK SMILES IDX 4 1 3 2 2 3 1 4 21 5 19 6 18 7 16 8 15 9 14 10 13 11 5 12
REMARK SMILES IDX 6 13 7 14 8 15 12 16 10 17 9 18 11 20 20 22 17 24
REMARK H PARENT 9 19 11 21 20 23 17 25
REMARK Flexibility Score: inf
ROOT
ATOM      1  C   UNL     1     103.300 135.294  52.836  1.00  0.00     0.138 A 
ATOM      2  C   UNL     1     103.034 135.946  51.624  1.00  0.00     0.100 A 
ATOM      3  C   UNL     1     101.923 135.569  50.867  1.00  0.00     0.197 A 
ATOM      4  O   UNL     1     101.744 136.129  49.755  1.00  0.00    -0.289 OA
ATOM      5  C   UNL     1     101.058 134.555  51.345  1.00  0.00     0.107 A 
ATOM      6  C   UNL     1      99.874 134.118  50.679  1.00  0.00     0.134 A 
ATOM      7  C   UNL     1      99.160 133.027  51.188  1.00  0.00     0.093 A 
ATOM      8  C   UNL     1      99.553 132.396  52.371  1.00  0.00     0.123 A 
ATOM      9  C   UNL     1     100.677 132.850  53.057  1.00  0.00     0.094 A 
ATOM     10  C   UNL     1     101.431 133.915  52.556  1.00  0.00     0.146 A 
ATOM     11  O   UNL     1     102.504 134.308  53.234  1.00  0.00    -0.456 OA
ENDROOT
BRANCH   1  12
ATOM     12  C   UNL     1     104.468 135.656  53.680  1.00  0.00     0.021 A 
ATOM     13  C   UNL     1     104.290 136.527  54.768  1.00  0.00     0.016 A 
ATOM     14  C   UNL     1     105.373 136.889  55.573  1.00  0.00     0.051 A 
ATOM     15  C   UNL     1     106.652 136.396  55.301  1.00  0.00     0.157 A 
ATOM     16  C   UNL     1     105.761 135.171  53.402  1.00  0.00     0.062 A 
ATOM     17  C   UNL     1     106.849 135.536  54.209  1.00  0.00     0.158 A 
BRANCH  15  18
ATOM     18  O   UNL     1     107.713 136.774  56.124  1.00  0.00    -0.504 OA
ATOM     19  H   UNL     1     107.939 137.746  56.298  1.00  0.00     0.293 HD
ENDBRANCH  15  18
BRANCH  17  20
ATOM     20  O   UNL     1     108.125 135.049  53.926  1.00  0.00    -0.504 OA
ATOM     21  H   UNL     1     108.579 135.236  53.040  1.00  0.00     0.293 HD
ENDBRANCH  17  20
ENDBRANCH   1  12
BRANCH   6  22
ATOM     22  O   UNL     1      99.347 134.731  49.538  1.00  0.00    -0.507 OA
ATOM     23  H   UNL     1      99.732 135.550  49.094  1.00  0.00     0.293 HD
ENDBRANCH   6  22
BRANCH   8  24
ATOM     24  O   UNL     1      98.828 131.320  52.878  1.00  0.00    -0.508 OA
ATOM     25  H   UNL     1      99.047 130.912  53.780  1.00  0.00     0.293 HD
ENDBRANCH   8  24
TORSDOF 5
ENDMDL
MODEL 2
REMARK VINA RESULT:    -6.481      2.563      3.308
REMARK INTER + INTRA:          -7.880
REMARK INTER:                  -7.563
REMARK INTRA:                  -0.318
REMARK UNBOUND:                -0.263
REMARK SMILES O=c1cc(-c2ccc(O)c(O)c2)oc2cc(O)cc(O)c12
REMARK SMILES IDX 4 1 3 2 2 3 1 4 21 5 19 6 18 7 16 8 15 9 14 10 13 11 5 12
REMARK SMILES IDX 6 13 7 14 8 15 12 16 10 17 9 18 11 20 20 22 17 24
REMARK H PARENT 9 19 11 21 20 23 17 25
REMARK Flexibility Score: inf
ROOT
ATOM      1  C   UNL     1     103.934 133.797  52.572  1.00  0.00     0.138 A 
ATOM      2  C   UNL     1     104.375 134.938  51.887  1.00  0.00     0.100 A 
ATOM      3  C   UNL     1     103.507 135.599  51.016  1.00  0.00     0.197 A 
ATOM      4  O   UNL     1     103.950 136.582  50.369  1.00  0.00    -0.289 OA
ATOM      5  C   UNL     1     102.182 135.129  50.854  1.00  0.00     0.107 A 
ATOM      6  C   UNL     1     101.197 135.746  50.025  1.00  0.00     0.134 A 
ATOM      7  C   UNL     1      99.954 135.126  49.853  1.00  0.00     0.093 A 
ATOM      8  C   UNL     1      99.638 133.944  50.528  1.00  0.00     0.123 A 
ATOM      9  C   UNL     1     100.573 133.364  51.382  1.00  0.00     0.094 A 
ATOM     10  C   UNL     1     101.835 133.940  51.547  1.00  0.00     0.146 A 
ATOM     11  O   UNL     1     102.703 133.346  52.360  1.00  0.00    -0.456 OA
ENDROOT
BRANCH   1  12
ATOM     12  C   UNL     1     104.815 133.057  53.511  1.00  0.00     0.021 A 
ATOM     13  C   UNL     1     106.151 133.462  53.669  1.00  0.00     0.016 A 
ATOM     14  C   UNL     1     107.003 132.779  54.540  1.00  0.00     0.051 A 
ATOM     15  C   UNL     1     106.540 131.676  55.261  1.00  0.00     0.157 A 
ATOM     16  C   UNL     1     104.355 131.937  54.230  1.00  0.00     0.062 A 
ATOM     17  C   UNL     1     105.210 131.249  55.104  1.00  0.00     0.158 A 
BRANCH  15  18
ATOM     18  O   UNL     1     107.413 131.014  56.125  1.00  0.00    -0.504 OA
ATOM     19  H   UNL     1     108.352 130.757  55.847  1.00  0.00     0.293 HD
ENDBRANCH  15  18
BRANCH  17  20
ATOM     20  O   UNL     1     104.745 130.142  55.813  1.00  0.00    -0.504 OA
ATOM     21  H   UNL     1     105.243 129.780  56.618  1.00  0.00     0.293 HD
ENDBRANCH  17  20
ENDBRANCH   1  12
BRANCH   6  22
ATOM     22  O   UNL     1     101.380 136.970  49.373  1.00  0.00    -0.507 OA
ATOM     23  H   UNL     1     100.678 137.440  48.823  1.00  0.00     0.293 HD
ENDBRANCH   6  22
BRANCH   8  24
ATOM     24  O   UNL     1      98.393 133.342  50.363  1.00  0.00    -0.508 OA
ATOM     25  H   UNL     1      97.721 133.299  51.120  1.00  0.00     0.293 HD
ENDBRANCH   8  24
TORSDOF 5
ENDMDL
MODEL 3
REMARK VINA RESULT:    -6.477      2.583      6.740
REMARK INTER + INTRA:          -7.876
REMARK INTER:                  -7.591
REMARK INTRA:                  -0.285
REMARK UNBOUND:                -0.263
REMARK SMILES O=c1cc(-c2ccc(O)c(O)c2)oc2cc(O)cc(O)c12
REMARK SMILES IDX 4 1 3 2 2 3 1 4 21 5 19 6 18 7 16 8 15 9 14 10 13 11 5 12
REMARK SMILES IDX 6 13 7 14 8 15 12 16 10 17 9 18 11 20 20 22 17 24
REMARK H PARENT 9 19 11 21 20 23 17 25
REMARK Flexibility Score: inf
ROOT
ATOM      1  C   UNL     1     102.985 134.037  54.002  1.00  0.00     0.138 A 
ATOM      2  C   UNL     1     103.480 135.266  53.545  1.00  0.00     0.100 A 
ATOM      3  C   UNL     1     104.852 135.423  53.337  1.00  0.00     0.197 A 
ATOM      4  O   UNL     1     105.274 136.555  52.986  1.00  0.00    -0.289 OA
ATOM      5  C   UNL     1     105.726 134.332  53.562  1.00  0.00     0.107 A 
ATOM      6  C   UNL     1     107.137 134.364  53.344  1.00  0.00     0.134 A 
ATOM      7  C   UNL     1     107.915 133.261  53.711  1.00  0.00     0.093 A 
ATOM      8  C   UNL     1     107.328 132.104  54.231  1.00  0.00     0.123 A 
ATOM      9  C   UNL     1     105.947 132.043  54.396  1.00  0.00     0.094 A 
ATOM     10  C   UNL     1     105.145 133.141  54.071  1.00  0.00     0.146 A 
ATOM     11  O   UNL     1     103.833 133.047  54.258  1.00  0.00    -0.456 OA
ENDROOT
BRANCH   1  12
ATOM     12  C   UNL     1     101.535 133.815  54.238  1.00  0.00     0.021 A 
ATOM     13  C   UNL     1     100.823 134.711  55.053  1.00  0.00     0.016 A 
ATOM     14  C   UNL     1      99.461 134.521  55.296  1.00  0.00     0.051 A 
ATOM     15  C   UNL     1      98.788 133.430  54.740  1.00  0.00     0.157 A 
ATOM     16  C   UNL     1     100.857 132.710  53.689  1.00  0.00     0.062 A 
ATOM     17  C   UNL     1      99.489 132.517  53.935  1.00  0.00     0.158 A 
BRANCH  15  18
ATOM     18  O   UNL     1      97.428 133.267  55.000  1.00  0.00    -0.504 OA
ATOM     19  H   UNL     1      96.721 133.425  54.290  1.00  0.00     0.293 HD
ENDBRANCH  15  18
BRANCH  17  20
ATOM     20  O   UNL     1      98.826 131.420  53.385  1.00  0.00    -0.504 OA
ATOM     21  H   UNL     1      97.862 131.213  53.617  1.00  0.00     0.293 HD
ENDBRANCH  17  20
ENDBRANCH   1  12
BRANCH   6  22
ATOM     22  O   UNL     1     107.812 135.437  52.754  1.00  0.00    -0.507 OA
ATOM     23  H   UNL     1     107.414 136.064  52.072  1.00  0.00     0.293 HD
ENDBRANCH   6  22
BRANCH   8  24
ATOM     24  O   UNL     1     108.110 131.005  54.579  1.00  0.00    -0.508 OA
ATOM     25  H   UNL     1     109.024 131.118  55.001  1.00  0.00     0.293 HD
ENDBRANCH   8  24
TORSDOF 5
ENDMDL
MODEL 4
REMARK VINA RESULT:    -6.458      1.975      6.849
REMARK INTER + INTRA:          -7.853
REMARK INTER:                  -7.543
REMARK INTRA:                  -0.311
REMARK UNBOUND:                -0.263
REMARK SMILES O=c1cc(-c2ccc(O)c(O)c2)oc2cc(O)cc(O)c12
REMARK SMILES IDX 4 1 3 2 2 3 1 4 21 5 19 6 18 7 16 8 15 9 14 10 13 11 5 12
REMARK SMILES IDX 6 13 7 14 8 15 12 16 10 17 9 18 11 20 20 22 17 24
REMARK H PARENT 9 19 11 21 20 23 17 25
REMARK Flexibility Score: inf
ROOT
ATOM      1  C   UNL     1     103.378 134.450  52.072  1.00  0.00     0.138 A 
ATOM      2  C   UNL     1     104.225 135.563  51.979  1.00  0.00     0.100 A 
ATOM      3  C   UNL     1     105.450 135.555  52.650  1.00  0.00     0.197 A 
ATOM      4  O   UNL     1     106.161 136.592  52.599  1.00  0.00    -0.289 OA
ATOM      5  C   UNL     1     105.838 134.415  53.393  1.00  0.00     0.107 A 
ATOM      6  C   UNL     1     107.079 134.279  54.083  1.00  0.00     0.134 A 
ATOM      7  C   UNL     1     107.305 133.151  54.880  1.00  0.00     0.093 A 
ATOM      8  C   UNL     1     106.359 132.126  54.964  1.00  0.00     0.123 A 
ATOM      9  C   UNL     1     105.167 132.224  54.251  1.00  0.00     0.094 A 
ATOM     10  C   UNL     1     104.897 133.354  53.473  1.00  0.00     0.146 A 
ATOM     11  O   UNL     1     103.742 133.415  52.820  1.00  0.00    -0.456 OA
ENDROOT
BRANCH   1  12
ATOM     12  C   UNL     1     102.065 134.405  51.377  1.00  0.00     0.021 A 
ATOM     13  C   UNL     1     101.849 135.223  50.256  1.00  0.00     0.016 A 
ATOM     14  C   UNL     1     100.621 135.204  49.590  1.00  0.00     0.051 A 
ATOM     15  C   UNL     1      99.587 134.377  50.035  1.00  0.00     0.157 A 
ATOM     16  C   UNL     1     101.016 133.582  51.831  1.00  0.00     0.062 A 
ATOM     17  C   UNL     1      99.783 133.564  51.164  1.00  0.00     0.158 A 
BRANCH  15  18
ATOM     18  O   UNL     1      98.373 134.379  49.348  1.00  0.00    -0.504 OA
ATOM     19  H   UNL     1      98.299 134.688  48.386  1.00  0.00     0.293 HD
ENDBRANCH  15  18
BRANCH  17  20
ATOM     20  O   UNL     1      98.750 132.745  51.620  1.00  0.00    -0.504 OA
ATOM     21  H   UNL     1      98.076 133.071  52.302  1.00  0.00     0.293 HD
ENDBRANCH  17  20
ENDBRANCH   1  12
BRANCH   6  22
ATOM     22  O   UNL     1     108.125 135.204  54.000  1.00  0.00    -0.507 OA
ATOM     23  H   UNL     1     109.105 134.966  53.986  1.00  0.00     0.293 HD
ENDBRANCH   6  22
BRANCH   8  24
ATOM     24  O   UNL     1     106.598 131.000  55.748  1.00  0.00    -0.508 OA
ATOM     25  H   UNL     1     107.536 130.742  56.033  1.00  0.00     0.293 HD
ENDBRANCH   8  24
TORSDOF 5
ENDMDL
MODEL 5
REMARK VINA RESULT:    -6.444      2.257      7.246
REMARK INTER + INTRA:          -7.837
REMARK INTER:                  -7.523
REMARK INTRA:                  -0.314
REMARK UNBOUND:                -0.263
REMARK SMILES O=c1cc(-c2ccc(O)c(O)c2)oc2cc(O)cc(O)c12
REMARK SMILES IDX 4 1 3 2 2 3 1 4 21 5 19 6 18 7 16 8 15 9 14 10 13 11 5 12
REMARK SMILES IDX 6 13 7 14 8 15 12 16 10 17 9 18 11 20 20 22 17 24
REMARK H PARENT 9 19 11 21 20 23 17 25
REMARK Flexibility Score: inf
ROOT
ATOM      1  C   UNL     1     102.639 133.037  52.517  1.00  0.00     0.138 A 
ATOM      2  C   UNL     1     102.622 131.826  53.222  1.00  0.00     0.100 A 
ATOM      3  C   UNL     1     103.728 131.460  53.991  1.00  0.00     0.197 A 
ATOM      4  O   UNL     1     103.708 130.339  54.562  1.00  0.00    -0.289 OA
ATOM      5  C   UNL     1     104.843 132.326  54.076  1.00  0.00     0.107 A 
ATOM      6  C   UNL     1     106.009 132.076  54.861  1.00  0.00     0.134 A 
ATOM      7  C   UNL     1     107.098 132.950  54.776  1.00  0.00     0.093 A 
ATOM      8  C   UNL     1     107.041 134.099  53.981  1.00  0.00     0.123 A 
ATOM      9  C   UNL     1     105.888 134.380  53.254  1.00  0.00     0.094 A 
ATOM     10  C   UNL     1     104.796 133.508  53.290  1.00  0.00     0.146 A 
ATOM     11  O   UNL     1     103.720 133.807  52.570  1.00  0.00    -0.456 OA
ENDROOT
BRANCH   1  12
ATOM     12  C   UNL     1     101.488 133.477  51.686  1.00  0.00     0.021 A 
ATOM     13  C   UNL     1     100.239 132.857  51.853  1.00  0.00     0.016 A 
ATOM     14  C   UNL     1      99.144 133.246  51.078  1.00  0.00     0.051 A 
ATOM     15  C   UNL     1      99.278 134.253  50.119  1.00  0.00     0.157 A 
ATOM     16  C   UNL     1     101.623 134.482  50.709  1.00  0.00     0.062 A 
ATOM     17  C   UNL     1     100.524 134.872  49.929  1.00  0.00     0.158 A 
BRANCH  15  18
ATOM     18  O   UNL     1      98.165 134.621  49.362  1.00  0.00    -0.504 OA
ATOM     19  H   UNL     1      97.546 135.370  49.645  1.00  0.00     0.293 HD
ENDBRANCH  15  18
BRANCH  17  20
ATOM     20  O   UNL     1     100.667 135.870  48.965  1.00  0.00    -0.504 OA
ATOM     21  H   UNL     1     101.316 136.638  49.090  1.00  0.00     0.293 HD
ENDBRANCH  17  20
ENDBRANCH   1  12
BRANCH   6  22
ATOM     22  O   UNL     1     106.136 131.004  55.750  1.00  0.00    -0.507 OA
ATOM     23  H   UNL     1     107.006 130.553  55.988  1.00  0.00     0.293 HD
ENDBRANCH   6  22
BRANCH   8  24
ATOM     24  O   UNL     1     108.125 134.971  53.915  1.00  0.00    -0.508 OA
ATOM     25  H   UNL     1     109.029 134.668  53.574  1.00  0.00     0.293 HD
ENDBRANCH   8  24
TORSDOF 5
ENDMDL
MODEL 6
REMARK VINA RESULT:    -6.402      2.733      4.241
REMARK INTER + INTRA:          -7.787
REMARK INTER:                  -7.491
REMARK INTRA:                  -0.297
REMARK UNBOUND:                -0.263
REMARK SMILES O=c1cc(-c2ccc(O)c(O)c2)oc2cc(O)cc(O)c12
REMARK SMILES IDX 4 1 3 2 2 3 1 4 21 5 19 6 18 7 16 8 15 9 14 10 13 11 5 12
REMARK SMILES IDX 6 13 7 14 8 15 12 16 10 17 9 18 11 20 20 22 17 24
REMARK H PARENT 9 19 11 21 20 23 17 25
REMARK Flexibility Score: inf
ROOT
ATOM      1  C   UNL     1     103.116 133.078  52.809  1.00  0.00     0.138 A 
ATOM      2  C   UNL     1     101.806 132.581  52.843  1.00  0.00     0.100 A 
ATOM      3  C   UNL     1     100.840 133.123  51.993  1.00  0.00     0.197 A 
ATOM      4  O   UNL     1      99.659 132.700  52.090  1.00  0.00    -0.289 OA
ATOM      5  C   UNL     1     101.198 134.148  51.085  1.00  0.00     0.107 A 
ATOM      6  C   UNL     1     100.307 134.747  50.144  1.00  0.00     0.134 A 
ATOM      7  C   UNL     1     100.744 135.832  49.376  1.00  0.00     0.093 A 
ATOM      8  C   UNL     1     102.057 136.302  49.471  1.00  0.00     0.123 A 
ATOM      9  C   UNL     1     102.949 135.689  50.347  1.00  0.00     0.094 A 
ATOM     10  C   UNL     1     102.534 134.625  51.153  1.00  0.00     0.146 A 
ATOM     11  O   UNL     1     103.412 134.078  51.986  1.00  0.00    -0.456 OA
ENDROOT
BRANCH   1  12
ATOM     12  C   UNL     1     104.183 132.537  53.690  1.00  0.00     0.021 A 
ATOM     13  C   UNL     1     105.450 133.143  53.692  1.00  0.00     0.016 A 
ATOM     14  C   UNL     1     106.472 132.649  54.506  1.00  0.00     0.051 A 
ATOM     15  C   UNL     1     106.252 131.537  55.322  1.00  0.00     0.157 A 
ATOM     16  C   UNL     1     103.967 131.408  54.505  1.00  0.00     0.062 A 
ATOM     17  C   UNL     1     104.994 130.910  55.320  1.00  0.00     0.158 A 
BRANCH  15  18
ATOM     18  O   UNL     1     107.291 131.067  56.124  1.00  0.00    -0.504 OA
ATOM     19  H   UNL     1     107.643 131.595  56.914  1.00  0.00     0.293 HD
ENDBRANCH  15  18
BRANCH  17  20
ATOM     20  O   UNL     1     104.771 129.793  56.125  1.00  0.00    -0.504 OA
ATOM     21  H   UNL     1     104.659 128.868  55.728  1.00  0.00     0.293 HD
ENDBRANCH  17  20
ENDBRANCH   1  12
BRANCH   6  22
ATOM     22  O   UNL     1      99.003 134.301  49.910  1.00  0.00    -0.507 OA
ATOM     23  H   UNL     1      98.203 134.538  50.476  1.00  0.00     0.293 HD
ENDBRANCH   6  22
BRANCH   8  24
ATOM     24  O   UNL     1     102.487 137.373  48.692  1.00  0.00    -0.508 OA
ATOM     25  H   UNL     1     101.864 138.133  48.446  1.00  0.00     0.293 HD
ENDBRANCH   8  24
TORSDOF 5
ENDMDL
MODEL 7
REMARK VINA RESULT:    -6.060      1.065      2.698
REMARK INTER + INTRA:          -7.385
REMARK INTER:                  -7.105
REMARK INTRA:                  -0.281
REMARK UNBOUND:                -0.263
REMARK SMILES O=c1cc(-c2ccc(O)c(O)c2)oc2cc(O)cc(O)c12
REMARK SMILES IDX 4 1 3 2 2 3 1 4 21 5 19 6 18 7 16 8 15 9 14 10 13 11 5 12
REMARK SMILES IDX 6 13 7 14 8 15 12 16 10 17 9 18 11 20 20 22 17 24
REMARK H PARENT 9 19 11 21 20 23 17 25
REMARK Flexibility Score: inf
ROOT
ATOM      1  C   UNL     1     103.291 134.399  53.715  1.00  0.00     0.138 A 
ATOM      2  C   UNL     1     102.621 133.435  54.481  1.00  0.00     0.100 A 
ATOM      3  C   UNL     1     101.425 132.890  54.011  1.00  0.00     0.197 A 
ATOM      4  O   UNL     1     100.815 132.073  54.749  1.00  0.00    -0.289 OA
ATOM      5  C   UNL     1     100.916 133.291  52.753  1.00  0.00     0.107 A 
ATOM      6  C   UNL     1      99.728 132.772  52.155  1.00  0.00     0.134 A 
ATOM      7  C   UNL     1      99.259 133.329  50.960  1.00  0.00     0.093 A 
ATOM      8  C   UNL     1      99.967 134.343  50.309  1.00  0.00     0.123 A 
ATOM      9  C   UNL     1     101.156 134.818  50.857  1.00  0.00     0.094 A 
ATOM     10  C   UNL     1     101.632 134.307  52.068  1.00  0.00     0.146 A 
ATOM     11  O   UNL     1     102.763 134.798  52.564  1.00  0.00    -0.456 OA
ENDROOT
BRANCH   1  12
ATOM     12  C   UNL     1     104.567 135.011  54.167  1.00  0.00     0.021 A 
ATOM     13  C   UNL     1     104.618 135.665  55.409  1.00  0.00     0.016 A 
ATOM     14  C   UNL     1     105.804 136.255  55.853  1.00  0.00     0.051 A 
ATOM     15  C   UNL     1     106.955 136.211  55.064  1.00  0.00     0.157 A 
ATOM     16  C   UNL     1     105.727 134.979  53.367  1.00  0.00     0.062 A 
ATOM     17  C   UNL     1     106.917 135.573  53.813  1.00  0.00     0.158 A 
BRANCH  15  18
ATOM     18  O   UNL     1     108.125 136.807  55.535  1.00  0.00    -0.504 OA
ATOM     19  H   UNL     1     108.166 137.275  56.433  1.00  0.00     0.293 HD
ENDBRANCH  15  18
BRANCH  17  20
ATOM     20  O   UNL     1     108.060 135.535  53.015  1.00  0.00    -0.504 OA
ATOM     21  H   UNL     1     108.538 136.383  52.732  1.00  0.00     0.293 HD
ENDBRANCH  17  20
ENDBRANCH   1  12
BRANCH   6  22
ATOM     22  O   UNL     1      98.992 131.705  52.678  1.00  0.00    -0.507 OA
ATOM     23  H   UNL     1      99.040 130.754  52.345  1.00  0.00     0.293 HD
ENDBRANCH   6  22
BRANCH   8  24
ATOM     24  O   UNL     1      99.500 134.881  49.112  1.00  0.00    -0.508 OA
ATOM     25  H   UNL     1      98.586 135.312  49.046  1.00  0.00     0.293 HD
ENDBRANCH   8  24
TORSDOF 5
ENDMDL
MODEL 8
REMARK VINA RESULT:    -6.043      2.172      2.218
REMARK INTER + INTRA:          -7.365
REMARK INTER:                  -7.072
REMARK INTRA:                  -0.294
REMARK UNBOUND:                -0.263
REMARK SMILES O=c1cc(-c2ccc(O)c(O)c2)oc2cc(O)cc(O)c12
REMARK SMILES IDX 4 1 3 2 2 3 1 4 21 5 19 6 18 7 16 8 15 9 14 10 13 11 5 12
REMARK SMILES IDX 6 13 7 14 8 15 12 16 10 17 9 18 11 20 20 22 17 24
REMARK H PARENT 9 19 11 21 20 23 17 25
REMARK Flexibility Score: inf
ROOT
ATOM      1  C   UNL     1     103.784 133.651  53.266  1.00  0.00     0.138 A 
ATOM      2  C   UNL     1     103.864 133.016  52.019  1.00  0.00     0.100 A 
ATOM      3  C   UNL     1     102.755 132.328  51.523  1.00  0.00     0.197 A 
ATOM      4  O   UNL     1     102.876 131.717  50.430  1.00  0.00    -0.289 OA
ATOM      5  C   UNL     1     101.552 132.303  52.268  1.00  0.00     0.107 A 
ATOM      6  C   UNL     1     100.346 131.668  51.843  1.00  0.00     0.134 A 
ATOM      7  C   UNL     1      99.254 131.609  52.716  1.00  0.00     0.093 A 
ATOM      8  C   UNL     1      99.302 132.214  53.975  1.00  0.00     0.123 A 
ATOM      9  C   UNL     1     100.456 132.882  54.377  1.00  0.00     0.094 A 
ATOM     10  C   UNL     1     101.576 132.929  53.542  1.00  0.00     0.146 A 
ATOM     11  O   UNL     1     102.661 133.565  53.970  1.00  0.00    -0.456 OA
ENDROOT
BRANCH   1  12
ATOM     12  C   UNL     1     104.933 134.397  53.840  1.00  0.00     0.021 A 
ATOM     13  C   UNL     1     104.946 134.697  55.213  1.00  0.00     0.016 A 
ATOM     14  C   UNL     1     106.011 135.404  55.776  1.00  0.00     0.051 A 
ATOM     15  C   UNL     1     107.075 135.833  54.979  1.00  0.00     0.157 A 
ATOM     16  C   UNL     1     106.002 134.842  53.037  1.00  0.00     0.062 A 
ATOM     17  C   UNL     1     107.070 135.554  53.602  1.00  0.00     0.158 A 
BRANCH  15  18
ATOM     18  O   UNL     1     108.125 136.536  55.570  1.00  0.00    -0.504 OA
ATOM     19  H   UNL     1     108.713 136.125  56.285  1.00  0.00     0.293 HD
ENDBRANCH  15  18
BRANCH  17  20
ATOM     20  O   UNL     1     108.125 135.989  52.799  1.00  0.00    -0.504 OA
ATOM     21  H   UNL     1     108.224 135.678  51.840  1.00  0.00     0.293 HD
ENDBRANCH  17  20
ENDBRANCH   1  12
BRANCH   6  22
ATOM     22  O   UNL     1     100.164 131.107  50.575  1.00  0.00    -0.507 OA
ATOM     23  H   UNL     1     100.415 130.164  50.321  1.00  0.00     0.293 HD
ENDBRANCH   6  22
BRANCH   8  24
ATOM     24  O   UNL     1      98.205 132.162  54.831  1.00  0.00    -0.508 OA
ATOM     25  H   UNL     1      97.309 131.804  54.522  1.00  0.00     0.293 HD
ENDBRANCH   8  24
TORSDOF 5
ENDMDL
MODEL 9
REMARK VINA RESULT:    -5.629      3.215      7.015
REMARK INTER + INTRA:          -6.879
REMARK INTER:                  -6.597
REMARK INTRA:                  -0.282
REMARK UNBOUND:                -0.263
REMARK SMILES O=c1cc(-c2ccc(O)c(O)c2)oc2cc(O)cc(O)c12
REMARK SMILES IDX 4 1 3 2 2 3 1 4 21 5 19 6 18 7 16 8 15 9 14 10 13 11 5 12
REMARK SMILES IDX 6 13 7 14 8 15 12 16 10 17 9 18 11 20 20 22 17 24
REMARK H PARENT 9 19 11 21 20 23 17 25
REMARK Flexibility Score: inf
ROOT
ATOM      1  C   UNL     1     102.873 133.949  54.924  1.00  0.00     0.138 A 
ATOM      2  C   UNL     1     103.165 132.591  55.117  1.00  0.00     0.100 A 
ATOM      3  C   UNL     1     104.444 132.112  54.828  1.00  0.00     0.197 A 
ATOM      4  O   UNL     1     104.657 130.878  54.952  1.00  0.00    -0.289 OA
ATOM      5  C   UNL     1     105.443 133.005  54.373  1.00  0.00     0.107 A 
ATOM      6  C   UNL     1     106.792 132.637  54.086  1.00  0.00     0.134 A 
ATOM      7  C   UNL     1     107.661 133.583  53.530  1.00  0.00     0.093 A 
ATOM      8  C   UNL     1     107.248 134.899  53.308  1.00  0.00     0.123 A 
ATOM      9  C   UNL     1     105.949 135.282  53.635  1.00  0.00     0.094 A 
ATOM     10  C   UNL     1     105.047 134.352  54.159  1.00  0.00     0.146 A 
ATOM     11  O   UNL     1     103.813 134.754  54.443  1.00  0.00    -0.456 OA
ENDROOT
BRANCH   1  12
ATOM     12  C   UNL     1     101.530 134.511  55.217  1.00  0.00     0.021 A 
ATOM     13  C   UNL     1     101.428 135.780  55.811  1.00  0.00     0.016 A 
ATOM     14  C   UNL     1     100.177 136.329  56.104  1.00  0.00     0.051 A 
ATOM     15  C   UNL     1      99.008 135.618  55.818  1.00  0.00     0.157 A 
ATOM     16  C   UNL     1     100.351 133.792  54.942  1.00  0.00     0.062 A 
ATOM     17  C   UNL     1      99.094 134.342  55.237  1.00  0.00     0.158 A 
BRANCH  15  18
ATOM     18  O   UNL     1      97.773 136.192  56.120  1.00  0.00    -0.504 OA
ATOM     19  H   UNL     1      97.624 136.735  56.962  1.00  0.00     0.293 HD
ENDBRANCH  15  18
BRANCH  17  20
ATOM     20  O   UNL     1      97.932 133.623  54.959  1.00  0.00    -0.504 OA
ATOM     21  H   UNL     1      97.052 133.842  55.412  1.00  0.00     0.293 HD
ENDBRANCH  17  20
ENDBRANCH   1  12
BRANCH   6  22
ATOM     22  O   UNL     1     107.330 131.373  54.349  1.00  0.00    -0.507 OA
ATOM     23  H   UNL     1     107.678 130.738  53.647  1.00  0.00     0.293 HD
ENDBRANCH   6  22
BRANCH   8  24
ATOM     24  O   UNL     1     108.125 135.837  52.768  1.00  0.00    -0.508 OA
ATOM     25  H   UNL     1     107.828 136.488  52.050  1.00  0.00     0.293 HD
ENDBRANCH   8  24
TORSDOF 5
ENDMDL
