MODEL 1
REMARK VINA RESULT:    -3.734      0.000      0.000
REMARK INTER + INTRA:          -8.093
REMARK INTER:                  -6.354
REMARK INTRA:                  -1.739
REMARK UNBOUND:                -1.739
REMARK SMILES CCCCCCCCCCCCCC(=O)[O-]
REMARK SMILES IDX 8 1 9 2 10 3 11 4 12 5 13 6 14 7 15 8 16 9 7 10 6 11 5 12
REMARK SMILES IDX 4 13 3 14 2 15 1 16
REMARK H PARENT
REMARK Flexibility Score: inf
ROOT
ATOM      1  C   UNL     1     142.013 128.255 116.188  1.00  0.00     0.000 C 
ENDROOT
BRANCH   1   2
ATOM      2  C   UNL     1     142.715 127.459 115.073  1.00  0.00     0.000 C 
BRANCH   2   3
ATOM      3  C   UNL     1     144.240 127.296 115.249  1.00  0.00     0.000 C 
BRANCH   3   4
ATOM      4  C   UNL     1     145.106 128.235 114.390  1.00  0.00     0.000 C 
BRANCH   4   5
ATOM      5  C   UNL     1     145.291 129.659 114.949  1.00  0.00     0.006 C 
BRANCH   5   6
ATOM      6  C   UNL     1     146.198 129.730 116.192  1.00  0.00     0.053 C 
BRANCH   6   7
ATOM      7  C   UNL     1     145.420 129.900 117.461  1.00  0.00     0.041 C 
ATOM      8  O   UNL     1     144.353 130.568 117.467  1.00  0.00    -0.550 OA
ATOM      9  O   UNL     1     145.854 129.290 118.631  1.00  0.00    -0.550 OA
ENDBRANCH   6   7
ENDBRANCH   5   6
ENDBRANCH   4   5
ENDBRANCH   3   4
ENDBRANCH   2   3
ENDBRANCH   1   2
BRANCH   1  10
ATOM     10  C   UNL     1     141.449 129.620 115.750  1.00  0.00     0.000 C 
BRANCH  10  11
ATOM     11  C   UNL     1     141.737 129.964 114.273  1.00  0.00    -0.000 C 
BRANCH  11  12
ATOM     12  C   UNL     1     140.467 130.376 113.508  1.00  0.00    -0.000 C 
BRANCH  12  13
ATOM     13  C   UNL     1     139.204 129.680 114.040  1.00  0.00    -0.000 C 
BRANCH  13  14
ATOM     14  C   UNL     1     138.763 128.498 113.163  1.00  0.00    -0.000 C 
BRANCH  14  15
ATOM     15  C   UNL     1     138.877 127.175 113.929  1.00  0.00    -0.003 C 
ATOM     16  C   UNL     1     138.445 127.341 115.383  1.00  0.00     0.004 C 
ENDBRANCH  14  15
ENDBRANCH  13  14
ENDBRANCH  12  13
ENDBRANCH  11  12
ENDBRANCH  10  11
ENDBRANCH   1  10
TORSDOF 12
ENDMDL
MODEL 2
REMARK VINA RESULT:    -3.677      2.034      3.951
REMARK INTER + INTRA:          -7.995
REMARK INTER:                  -5.912
REMARK INTRA:                  -2.083
REMARK UNBOUND:                -1.739
REMARK SMILES CCCCCCCCCCCCCC(=O)[O-]
REMARK SMILES IDX 8 1 9 2 10 3 11 4 12 5 13 6 14 7 15 8 16 9 7 10 6 11 5 12
REMARK SMILES IDX 4 13 3 14 2 15 1 16
REMARK H PARENT
REMARK Flexibility Score: inf
ROOT
ATOM      1  C   UNL     1     145.384 129.528 114.731  1.00  0.00     0.000 C 
ENDROOT
BRANCH   1   2
ATOM      2  C   UNL     1     146.194 129.940 115.973  1.00  0.00     0.000 C 
BRANCH   2   3
ATOM      3  C   UNL     1     145.566 131.069 116.818  1.00  0.00     0.000 C 
BRANCH   3   4
ATOM      4  C   UNL     1     145.059 130.647 118.209  1.00  0.00     0.000 C 
BRANCH   4   5
ATOM      5  C   UNL     1     143.970 129.556 118.212  1.00  0.00     0.006 C 
BRANCH   5   6
ATOM      6  C   UNL     1     144.184 128.464 119.276  1.00  0.00     0.053 C 
BRANCH   6   7
ATOM      7  C   UNL     1     145.609 128.005 119.349  1.00  0.00     0.041 C 
ATOM      8  O   UNL     1     146.114 127.350 118.399  1.00  0.00    -0.550 OA
ATOM      9  O   UNL     1     146.390 128.331 120.450  1.00  0.00    -0.550 OA
ENDBRANCH   6   7
ENDBRANCH   5   6
ENDBRANCH   4   5
ENDBRANCH   3   4
ENDBRANCH   2   3
ENDBRANCH   1   2
BRANCH   1  10
ATOM     10  C   UNL     1     145.351 128.013 114.453  1.00  0.00     0.000 C 
BRANCH  10  11
ATOM     11  C   UNL     1     144.352 127.243 115.343  1.00  0.00    -0.000 C 
BRANCH  11  12
ATOM     12  C   UNL     1     142.904 127.359 114.835  1.00  0.00    -0.000 C 
BRANCH  12  13
ATOM     13  C   UNL     1     141.883 127.479 115.977  1.00  0.00    -0.000 C 
BRANCH  13  14
ATOM     14  C   UNL     1     141.119 128.811 115.953  1.00  0.00    -0.000 C 
BRANCH  14  15
ATOM     15  C   UNL     1     141.656 129.731 114.851  1.00  0.00    -0.003 C 
ATOM     16  C   UNL     1     142.061 131.090 115.415  1.00  0.00     0.004 C 
ENDBRANCH  14  15
ENDBRANCH  13  14
ENDBRANCH  12  13
ENDBRANCH  11  12
ENDBRANCH  10  11
ENDBRANCH   1  10
TORSDOF 12
ENDMDL
MODEL 3
REMARK VINA RESULT:    -3.648      2.818      6.205
REMARK INTER + INTRA:          -7.946
REMARK INTER:                  -6.419
REMARK INTRA:                  -1.527
REMARK UNBOUND:                -1.739
REMARK SMILES CCCCCCCCCCCCCC(=O)[O-]
REMARK SMILES IDX 8 1 9 2 10 3 11 4 12 5 13 6 14 7 15 8 16 9 7 10 6 11 5 12
REMARK SMILES IDX 4 13 3 14 2 15 1 16
REMARK H PARENT
REMARK Flexibility Score: inf
ROOT
ATOM      1  C   UNL     1     142.756 128.589 115.065  1.00  0.00     0.000 C 
ENDROOT
BRANCH   1   2
ATOM      2  C   UNL     1     142.138 127.214 115.375  1.00  0.00     0.000 C 
BRANCH   2   3
ATOM      3  C   UNL     1     140.807 126.918 114.653  1.00  0.00     0.000 C 
BRANCH   3   4
ATOM      4  C   UNL     1     139.535 127.296 115.434  1.00  0.00     0.000 C 
BRANCH   4   5
ATOM      5  C   UNL     1     138.397 127.903 114.590  1.00  0.00     0.006 C 
BRANCH   5   6
ATOM      6  C   UNL     1     138.870 128.547 113.274  1.00  0.00     0.053 C 
BRANCH   6   7
ATOM      7  C   UNL     1     139.084 130.024 113.403  1.00  0.00     0.041 C 
ATOM      8  O   UNL     1     138.116 130.786 113.662  1.00  0.00    -0.550 OA
ATOM      9  O   UNL     1     140.361 130.558 113.273  1.00  0.00    -0.550 OA
ENDBRANCH   6   7
ENDBRANCH   5   6
ENDBRANCH   4   5
ENDBRANCH   3   4
ENDBRANCH   2   3
ENDBRANCH   1   2
BRANCH   1  10
ATOM     10  C   UNL     1     144.262 128.564 114.740  1.00  0.00     0.000 C 
BRANCH  10  11
ATOM     11  C   UNL     1     144.886 127.154 114.812  1.00  0.00    -0.000 C 
BRANCH  11  12
ATOM     12  C   UNL     1     146.013 127.065 115.857  1.00  0.00    -0.000 C 
BRANCH  12  13
ATOM     13  C   UNL     1     145.647 127.750 117.183  1.00  0.00    -0.000 C 
BRANCH  13  14
ATOM     14  C   UNL     1     144.739 126.884 118.069  1.00  0.00    -0.000 C 
BRANCH  14  15
ATOM     15  C   UNL     1     143.679 127.741 118.770  1.00  0.00    -0.003 C 
ATOM     16  C   UNL     1     143.940 129.228 118.552  1.00  0.00     0.004 C 
ENDBRANCH  14  15
ENDBRANCH  13  14
ENDBRANCH  12  13
ENDBRANCH  11  12
ENDBRANCH  10  11
ENDBRANCH   1  10
TORSDOF 12
ENDMDL
MODEL 4
REMARK VINA RESULT:    -3.604      1.339      2.538
REMARK INTER + INTRA:          -7.871
REMARK INTER:                  -6.444
REMARK INTRA:                  -1.427
REMARK UNBOUND:                -1.739
REMARK SMILES CCCCCCCCCCCCCC(=O)[O-]
REMARK SMILES IDX 8 1 9 2 10 3 11 4 12 5 13 6 14 7 15 8 16 9 7 10 6 11 5 12
REMARK SMILES IDX 4 13 3 14 2 15 1 16
REMARK H PARENT
REMARK Flexibility Score: inf
ROOT
ATOM      1  C   UNL     1     141.984 128.731 115.839  1.00  0.00     0.000 C 
ENDROOT
BRANCH   1   2
ATOM      2  C   UNL     1     142.709 129.483 114.708  1.00  0.00     0.000 C 
BRANCH   2   3
ATOM      3  C   UNL     1     144.246 129.340 114.709  1.00  0.00     0.000 C 
BRANCH   3   4
ATOM      4  C   UNL     1     144.777 127.936 114.371  1.00  0.00     0.000 C 
BRANCH   4   5
ATOM      5  C   UNL     1     145.881 127.404 115.306  1.00  0.00     0.006 C 
BRANCH   5   6
ATOM      6  C   UNL     1     145.358 126.875 116.653  1.00  0.00     0.053 C 
BRANCH   6   7
ATOM      7  C   UNL     1     145.920 127.626 117.821  1.00  0.00     0.041 C 
ATOM      8  O   UNL     1     145.788 128.876 117.896  1.00  0.00    -0.550 OA
ATOM      9  O   UNL     1     146.559 126.942 118.848  1.00  0.00    -0.550 OA
ENDBRANCH   6   7
ENDBRANCH   5   6
ENDBRANCH   4   5
ENDBRANCH   3   4
ENDBRANCH   2   3
ENDBRANCH   1   2
BRANCH   1  10
ATOM     10  C   UNL     1     141.294 127.423 115.406  1.00  0.00     0.000 C 
BRANCH  10  11
ATOM     11  C   UNL     1     139.955 127.161 116.128  1.00  0.00    -0.000 C 
BRANCH  11  12
ATOM     12  C   UNL     1     138.752 127.225 115.171  1.00  0.00    -0.000 C 
BRANCH  12  13
ATOM     13  C   UNL     1     139.171 127.403 113.703  1.00  0.00    -0.000 C 
BRANCH  13  14
ATOM     14  C   UNL     1     138.718 128.748 113.115  1.00  0.00    -0.000 C 
BRANCH  14  15
ATOM     15  C   UNL     1     138.369 129.743 114.229  1.00  0.00    -0.003 C 
ATOM     16  C   UNL     1     139.308 130.946 114.208  1.00  0.00     0.004 C 
ENDBRANCH  14  15
ENDBRANCH  13  14
ENDBRANCH  12  13
ENDBRANCH  11  12
ENDBRANCH  10  11
ENDBRANCH   1  10
TORSDOF 12
ENDMDL
MODEL 5
REMARK VINA RESULT:    -3.558      2.160      3.697
REMARK INTER + INTRA:          -7.792
REMARK INTER:                  -6.199
REMARK INTRA:                  -1.593
REMARK UNBOUND:                -1.739
REMARK SMILES CCCCCCCCCCCCCC(=O)[O-]
REMARK SMILES IDX 8 1 9 2 10 3 11 4 12 5 13 6 14 7 15 8 16 9 7 10 6 11 5 12
REMARK SMILES IDX 4 13 3 14 2 15 1 16
REMARK H PARENT
REMARK Flexibility Score: inf
ROOT
ATOM      1  C   UNL     1     145.380 129.084 114.244  1.00  0.00     0.000 C 
ENDROOT
BRANCH   1   2
ATOM      2  C   UNL     1     145.573 127.561 114.358  1.00  0.00     0.000 C 
BRANCH   2   3
ATOM      3  C   UNL     1     145.651 127.018 115.801  1.00  0.00     0.000 C 
BRANCH   3   4
ATOM      4  C   UNL     1     144.332 127.063 116.594  1.00  0.00     0.000 C 
BRANCH   4   5
ATOM      5  C   UNL     1     144.484 127.100 118.127  1.00  0.00     0.006 C 
BRANCH   5   6
ATOM      6  C   UNL     1     145.509 128.133 118.628  1.00  0.00     0.053 C 
BRANCH   6   7
ATOM      7  C   UNL     1     145.530 128.243 120.122  1.00  0.00     0.041 C 
ATOM      8  O   UNL     1     146.594 128.028 120.760  1.00  0.00    -0.550 OA
ATOM      9  O   UNL     1     144.382 128.617 120.809  1.00  0.00    -0.550 OA
ENDBRANCH   6   7
ENDBRANCH   5   6
ENDBRANCH   4   5
ENDBRANCH   3   4
ENDBRANCH   2   3
ENDBRANCH   1   2
BRANCH   1  10
ATOM     10  C   UNL     1     146.023 129.904 115.380  1.00  0.00     0.000 C 
BRANCH  10  11
ATOM     11  C   UNL     1     145.210 131.155 115.776  1.00  0.00    -0.000 C 
BRANCH  11  12
ATOM     12  C   UNL     1     143.852 130.796 116.405  1.00  0.00    -0.000 C 
BRANCH  12  13
ATOM     13  C   UNL     1     142.709 131.687 115.894  1.00  0.00    -0.000 C 
BRANCH  13  14
ATOM     14  C   UNL     1     141.542 130.877 115.308  1.00  0.00    -0.000 C 
BRANCH  14  15
ATOM     15  C   UNL     1     142.032 129.538 114.746  1.00  0.00    -0.003 C 
ATOM     16  C   UNL     1     141.128 128.390 115.187  1.00  0.00     0.004 C 
ENDBRANCH  14  15
ENDBRANCH  13  14
ENDBRANCH  12  13
ENDBRANCH  11  12
ENDBRANCH  10  11
ENDBRANCH   1  10
TORSDOF 12
ENDMDL
MODEL 6
REMARK VINA RESULT:    -3.552      3.193      5.200
REMARK INTER + INTRA:          -7.782
REMARK INTER:                  -6.167
REMARK INTRA:                  -1.615
REMARK UNBOUND:                -1.739
REMARK SMILES CCCCCCCCCCCCCC(=O)[O-]
REMARK SMILES IDX 8 1 9 2 10 3 11 4 12 5 13 6 14 7 15 8 16 9 7 10 6 11 5 12
REMARK SMILES IDX 4 13 3 14 2 15 1 16
REMARK H PARENT
REMARK Flexibility Score: inf
ROOT
ATOM      1  C   UNL     1     144.705 127.201 115.313  1.00  0.00     0.000 C 
ENDROOT
BRANCH   1   2
ATOM      2  C   UNL     1     145.530 128.002 114.290  1.00  0.00     0.000 C 
BRANCH   2   3
ATOM      3  C   UNL     1     145.665 129.509 114.597  1.00  0.00     0.000 C 
BRANCH   3   4
ATOM      4  C   UNL     1     145.816 129.867 116.086  1.00  0.00     0.000 C 
BRANCH   4   5
ATOM      5  C   UNL     1     144.732 130.803 116.654  1.00  0.00     0.006 C 
BRANCH   5   6
ATOM      6  C   UNL     1     145.287 131.956 117.510  1.00  0.00     0.053 C 
BRANCH   6   7
ATOM      7  C   UNL     1     145.635 133.162 116.691  1.00  0.00     0.041 C 
ATOM      8  O   UNL     1     144.833 133.592 115.821  1.00  0.00    -0.550 OA
ATOM      9  O   UNL     1     146.830 133.833 116.913  1.00  0.00    -0.550 OA
ENDBRANCH   6   7
ENDBRANCH   5   6
ENDBRANCH   4   5
ENDBRANCH   3   4
ENDBRANCH   2   3
ENDBRANCH   1   2
BRANCH   1  10
ATOM     10  C   UNL     1     143.198 127.522 115.323  1.00  0.00     0.000 C 
BRANCH  10  11
ATOM     11  C   UNL     1     142.554 127.424 116.722  1.00  0.00    -0.000 C 
BRANCH  11  12
ATOM     12  C   UNL     1     143.601 127.277 117.840  1.00  0.00    -0.000 C 
BRANCH  12  13
ATOM     13  C   UNL     1     143.087 127.767 119.202  1.00  0.00    -0.000 C 
BRANCH  13  14
ATOM     14  C   UNL     1     143.956 128.885 119.798  1.00  0.00    -0.000 C 
BRANCH  14  15
ATOM     15  C   UNL     1     145.447 128.587 119.594  1.00  0.00    -0.003 C 
ATOM     16  C   UNL     1     146.071 128.009 120.861  1.00  0.00     0.004 C 
ENDBRANCH  14  15
ENDBRANCH  13  14
ENDBRANCH  12  13
ENDBRANCH  11  12
ENDBRANCH  10  11
ENDBRANCH   1  10
TORSDOF 12
ENDMDL
MODEL 7
REMARK VINA RESULT:    -3.507      3.134      6.022
REMARK INTER + INTRA:          -7.706
REMARK INTER:                  -5.714
REMARK INTRA:                  -1.992
REMARK UNBOUND:                -1.739
REMARK SMILES CCCCCCCCCCCCCC(=O)[O-]
REMARK SMILES IDX 8 1 9 2 10 3 11 4 12 5 13 6 14 7 15 8 16 9 7 10 6 11 5 12
REMARK SMILES IDX 4 13 3 14 2 15 1 16
REMARK H PARENT
REMARK Flexibility Score: inf
ROOT
ATOM      1  C   UNL     1     143.863 129.089 118.576  1.00  0.00     0.000 C 
ENDROOT
BRANCH   1   2
ATOM      2  C   UNL     1     142.647 128.161 118.408  1.00  0.00     0.000 C 
BRANCH   2   3
ATOM      3  C   UNL     1     141.805 128.409 117.138  1.00  0.00     0.000 C 
BRANCH   3   4
ATOM      4  C   UNL     1     141.598 127.181 116.234  1.00  0.00     0.000 C 
BRANCH   4   5
ATOM      5  C   UNL     1     141.226 127.493 114.771  1.00  0.00     0.006 C 
BRANCH   5   6
ATOM      6  C   UNL     1     140.375 128.764 114.600  1.00  0.00     0.053 C 
BRANCH   6   7
ATOM      7  C   UNL     1     138.964 128.459 114.198  1.00  0.00     0.041 C 
ATOM      8  O   UNL     1     138.024 129.216 114.558  1.00  0.00    -0.550 OA
ATOM      9  O   UNL     1     138.690 127.358 113.397  1.00  0.00    -0.550 OA
ENDBRANCH   6   7
ENDBRANCH   5   6
ENDBRANCH   4   5
ENDBRANCH   3   4
ENDBRANCH   2   3
ENDBRANCH   1   2
BRANCH   1  10
ATOM     10  C   UNL     1     145.230 128.383 118.503  1.00  0.00     0.000 C 
BRANCH  10  11
ATOM     11  C   UNL     1     145.190 127.030 117.761  1.00  0.00    -0.000 C 
BRANCH  11  12
ATOM     12  C   UNL     1     146.012 127.051 116.460  1.00  0.00    -0.000 C 
BRANCH  12  13
ATOM     13  C   UNL     1     145.131 127.101 115.202  1.00  0.00    -0.000 C 
BRANCH  13  14
ATOM     14  C   UNL     1     145.390 128.349 114.345  1.00  0.00    -0.000 C 
BRANCH  14  15
ATOM     15  C   UNL     1     144.387 129.460 114.678  1.00  0.00    -0.003 C 
ATOM     16  C   UNL     1     145.055 130.593 115.452  1.00  0.00     0.004 C 
ENDBRANCH  14  15
ENDBRANCH  13  14
ENDBRANCH  12  13
ENDBRANCH  11  12
ENDBRANCH  10  11
ENDBRANCH   1  10
TORSDOF 12
ENDMDL
MODEL 8
REMARK VINA RESULT:    -3.506      3.032      6.037
REMARK INTER + INTRA:          -7.705
REMARK INTER:                  -6.117
REMARK INTRA:                  -1.588
REMARK UNBOUND:                -1.739
REMARK SMILES CCCCCCCCCCCCCC(=O)[O-]
REMARK SMILES IDX 8 1 9 2 10 3 11 4 12 5 13 6 14 7 15 8 16 9 7 10 6 11 5 12
REMARK SMILES IDX 4 13 3 14 2 15 1 16
REMARK H PARENT
REMARK Flexibility Score: inf
ROOT
ATOM      1  C   UNL     1     144.568 130.663 115.977  1.00  0.00     0.000 C 
ENDROOT
BRANCH   1   2
ATOM      2  C   UNL     1     143.171 130.331 115.421  1.00  0.00     0.000 C 
BRANCH   2   3
ATOM      3  C   UNL     1     142.143 129.868 116.474  1.00  0.00     0.000 C 
BRANCH   3   4
ATOM      4  C   UNL     1     141.895 128.350 116.530  1.00  0.00     0.000 C 
BRANCH   4   5
ATOM      5  C   UNL     1     141.414 127.710 115.213  1.00  0.00     0.006 C 
BRANCH   5   6
ATOM      6  C   UNL     1     140.058 128.246 114.717  1.00  0.00     0.053 C 
BRANCH   6   7
ATOM      7  C   UNL     1     138.911 127.377 115.135  1.00  0.00     0.041 C 
ATOM      8  O   UNL     1     138.882 126.875 116.289  1.00  0.00    -0.550 OA
ATOM      9  O   UNL     1     137.855 127.149 114.261  1.00  0.00    -0.550 OA
ENDBRANCH   6   7
ENDBRANCH   5   6
ENDBRANCH   4   5
ENDBRANCH   3   4
ENDBRANCH   2   3
ENDBRANCH   1   2
BRANCH   1  10
ATOM     10  C   UNL     1     145.717 129.830 115.376  1.00  0.00     0.000 C 
BRANCH  10  11
ATOM     11  C   UNL     1     145.287 128.958 114.176  1.00  0.00    -0.000 C 
BRANCH  11  12
ATOM     12  C   UNL     1     145.376 127.453 114.485  1.00  0.00    -0.000 C 
BRANCH  12  13
ATOM     13  C   UNL     1     145.995 127.165 115.861  1.00  0.00    -0.000 C 
BRANCH  13  14
ATOM     14  C   UNL     1     144.938 126.875 116.939  1.00  0.00    -0.000 C 
BRANCH  14  15
ATOM     15  C   UNL     1     145.418 127.346 118.317  1.00  0.00    -0.003 C 
ATOM     16  C   UNL     1     144.239 127.647 119.238  1.00  0.00     0.004 C 
ENDBRANCH  14  15
ENDBRANCH  13  14
ENDBRANCH  12  13
ENDBRANCH  11  12
ENDBRANCH  10  11
ENDBRANCH   1  10
TORSDOF 12
ENDMDL
MODEL 9
REMARK VINA RESULT:    -3.480      2.756      5.976
REMARK INTER + INTRA:          -7.660
REMARK INTER:                  -6.362
REMARK INTRA:                  -1.298
REMARK UNBOUND:                -1.739
REMARK SMILES CCCCCCCCCCCCCC(=O)[O-]
REMARK SMILES IDX 8 1 9 2 10 3 11 4 12 5 13 6 14 7 15 8 16 9 7 10 6 11 5 12
REMARK SMILES IDX 4 13 3 14 2 15 1 16
REMARK H PARENT
REMARK Flexibility Score: inf
ROOT
ATOM      1  C   UNL     1     143.893 127.470 116.286  1.00  0.00     0.000 C 
ENDROOT
BRANCH   1   2
ATOM      2  C   UNL     1     142.359 127.554 116.393  1.00  0.00     0.000 C 
BRANCH   2   3
ATOM      3  C   UNL     1     141.630 127.896 115.077  1.00  0.00     0.000 C 
BRANCH   3   4
ATOM      4  C   UNL     1     140.318 127.129 114.832  1.00  0.00     0.000 C 
BRANCH   4   5
ATOM      5  C   UNL     1     139.057 128.005 114.691  1.00  0.00     0.006 C 
BRANCH   5   6
ATOM      6  C   UNL     1     138.869 128.609 113.287  1.00  0.00     0.053 C 
BRANCH   6   7
ATOM      7  C   UNL     1     139.085 130.091 113.267  1.00  0.00     0.041 C 
ATOM      8  O   UNL     1     138.131 130.875 113.515  1.00  0.00    -0.550 OA
ATOM      9  O   UNL     1     140.348 130.608 113.008  1.00  0.00    -0.550 OA
ENDBRANCH   6   7
ENDBRANCH   5   6
ENDBRANCH   4   5
ENDBRANCH   3   4
ENDBRANCH   2   3
ENDBRANCH   1   2
BRANCH   1  10
ATOM     10  C   UNL     1     144.421 127.035 114.905  1.00  0.00     0.000 C 
BRANCH  10  11
ATOM     11  C   UNL     1     145.648 127.843 114.430  1.00  0.00    -0.000 C 
BRANCH  11  12
ATOM     12  C   UNL     1     145.360 129.353 114.351  1.00  0.00    -0.000 C 
BRANCH  12  13
ATOM     13  C   UNL     1     146.013 130.141 115.497  1.00  0.00    -0.000 C 
BRANCH  13  14
ATOM     14  C   UNL     1     145.269 131.446 115.819  1.00  0.00    -0.000 C 
BRANCH  14  15
ATOM     15  C   UNL     1     143.963 131.162 116.569  1.00  0.00    -0.003 C 
ATOM     16  C   UNL     1     142.748 131.478 115.700  1.00  0.00     0.004 C 
ENDBRANCH  14  15
ENDBRANCH  13  14
ENDBRANCH  12  13
ENDBRANCH  11  12
ENDBRANCH  10  11
ENDBRANCH   1  10
TORSDOF 12
ENDMDL
