MODEL 1
REMARK VINA RESULT:    -5.241      0.000      0.000
REMARK INTER + INTRA:          -5.547
REMARK INTER:                  -5.547
REMARK INTRA:                   0.000
REMARK UNBOUND:                 0.000
REMARK SMILES O=c1ccc2cc(O)c(O)cc2o1
REMARK SMILES IDX 4 1 3 2 2 3 1 4 13 5 12 6 11 7 9 8 7 9 6 10 5 11 8 12 10 14
REMARK H PARENT 8 13 10 15
REMARK Flexibility Score: inf
ROOT
ATOM      1  C   UNL     1     -39.242 -36.758 -20.883  1.00  0.00     0.019 A 
ATOM      2  C   UNL     1     -38.990 -38.125 -20.991  1.00  0.00     0.094 A 
ATOM      3  C   UNL     1     -40.006 -39.029 -20.662  1.00  0.00     0.336 A 
ATOM      4  O   UNL     1     -39.798 -40.267 -20.752  1.00  0.00    -0.246 OA
ATOM      5  O   UNL     1     -41.194 -38.589 -20.255  1.00  0.00    -0.423 OA
ATOM      6  C   UNL     1     -41.476 -37.293 -20.141  1.00  0.00     0.142 A 
ATOM      7  C   UNL     1     -42.743 -36.890 -19.708  1.00  0.00     0.098 A 
ATOM      8  C   UNL     1     -43.045 -35.525 -19.584  1.00  0.00     0.161 A 
ATOM      9  C   UNL     1     -42.076 -34.561 -19.896  1.00  0.00     0.158 A 
ATOM     10  C   UNL     1     -40.803 -34.961 -20.331  1.00  0.00     0.062 A 
ATOM     11  C   UNL     1     -40.500 -36.323 -20.453  1.00  0.00     0.022 A 
ENDROOT
BRANCH   9  12
ATOM     12  O   UNL     1     -42.385 -33.207 -19.770  1.00  0.00    -0.504 OA
ATOM     13  H   UNL     1     -41.660 -32.506 -19.673  1.00  0.00     0.293 HD
ENDBRANCH   9  12
BRANCH   8  14
ATOM     14  O   UNL     1     -44.307 -35.119 -19.154  1.00  0.00    -0.504 OA
ATOM     15  H   UNL     1     -45.140 -35.654 -19.375  1.00  0.00     0.293 HD
ENDBRANCH   8  14
TORSDOF 2
ENDMDL
MODEL 2
REMARK VINA RESULT:    -4.974      1.113      2.248
REMARK INTER + INTRA:          -5.264
REMARK INTER:                  -5.264
REMARK INTRA:                   0.000
REMARK UNBOUND:                 0.000
REMARK SMILES O=c1ccc2cc(O)c(O)cc2o1
REMARK SMILES IDX 4 1 3 2 2 3 1 4 13 5 12 6 11 7 9 8 7 9 6 10 5 11 8 12 10 14
REMARK H PARENT 8 13 10 15
REMARK Flexibility Score: inf
ROOT
ATOM      1  C   UNL     1     -41.294 -38.737 -20.246  1.00  0.00     0.019 A 
ATOM      2  C   UNL     1     -40.049 -39.107 -20.755  1.00  0.00     0.094 A 
ATOM      3  C   UNL     1     -39.143 -38.106 -21.122  1.00  0.00     0.336 A 
ATOM      4  O   UNL     1     -38.015 -38.419 -21.584  1.00  0.00    -0.246 OA
ATOM      5  O   UNL     1     -39.465 -36.822 -20.985  1.00  0.00    -0.423 OA
ATOM      6  C   UNL     1     -40.641 -36.427 -20.503  1.00  0.00     0.142 A 
ATOM      7  C   UNL     1     -40.923 -35.063 -20.381  1.00  0.00     0.098 A 
ATOM      8  C   UNL     1     -42.161 -34.641 -19.874  1.00  0.00     0.161 A 
ATOM      9  C   UNL     1     -43.120 -35.588 -19.486  1.00  0.00     0.158 A 
ATOM     10  C   UNL     1     -42.841 -36.958 -19.605  1.00  0.00     0.062 A 
ATOM     11  C   UNL     1     -41.606 -37.380 -20.113  1.00  0.00     0.022 A 
ENDROOT
BRANCH   9  12
ATOM     12  O   UNL     1     -44.348 -35.159 -18.983  1.00  0.00    -0.504 OA
ATOM     13  H   UNL     1     -44.407 -34.586 -18.149  1.00  0.00     0.293 HD
ENDBRANCH   9  12
BRANCH   8  14
ATOM     14  O   UNL     1     -42.446 -33.282 -19.752  1.00  0.00    -0.504 OA
ATOM     15  H   UNL     1     -41.771 -32.632 -19.364  1.00  0.00     0.293 HD
ENDBRANCH   8  14
TORSDOF 2
ENDMDL
MODEL 3
REMARK VINA RESULT:    -4.841     17.095     17.990
REMARK INTER + INTRA:          -5.124
REMARK INTER:                  -5.124
REMARK INTRA:                   0.000
REMARK UNBOUND:                 0.000
REMARK SMILES O=c1ccc2cc(O)c(O)cc2o1
REMARK SMILES IDX 4 1 3 2 2 3 1 4 13 5 12 6 11 7 9 8 7 9 6 10 5 11 8 12 10 14
REMARK H PARENT 8 13 10 15
REMARK Flexibility Score: inf
ROOT
ATOM      1  C   UNL     1     -57.393 -31.012 -22.026  1.00  0.00     0.019 A 
ATOM      2  C   UNL     1     -57.608 -30.449 -23.284  1.00  0.00     0.094 A 
ATOM      3  C   UNL     1     -57.705 -29.058 -23.396  1.00  0.00     0.336 A 
ATOM      4  O   UNL     1     -57.900 -28.531 -24.522  1.00  0.00    -0.246 OA
ATOM      5  O   UNL     1     -57.594 -28.285 -22.318  1.00  0.00    -0.423 OA
ATOM      6  C   UNL     1     -57.388 -28.782 -21.100  1.00  0.00     0.142 A 
ATOM      7  C   UNL     1     -57.278 -27.921 -20.004  1.00  0.00     0.098 A 
ATOM      8  C   UNL     1     -57.062 -28.439 -18.719  1.00  0.00     0.161 A 
ATOM      9  C   UNL     1     -56.953 -29.824 -18.530  1.00  0.00     0.158 A 
ATOM     10  C   UNL     1     -57.062 -30.692 -19.626  1.00  0.00     0.062 A 
ATOM     11  C   UNL     1     -57.279 -30.176 -20.910  1.00  0.00     0.022 A 
ENDROOT
BRANCH   9  12
ATOM     12  O   UNL     1     -56.738 -30.330 -17.248  1.00  0.00    -0.504 OA
ATOM     13  H   UNL     1     -57.224 -31.155 -16.916  1.00  0.00     0.293 HD
ENDBRANCH   9  12
BRANCH   8  14
ATOM     14  O   UNL     1     -56.952 -27.583 -17.624  1.00  0.00    -0.504 OA
ATOM     15  H   UNL     1     -56.665 -27.923 -16.712  1.00  0.00     0.293 HD
ENDBRANCH   8  14
TORSDOF 2
ENDMDL
MODEL 4
REMARK VINA RESULT:    -4.608      6.750      8.890
REMARK INTER + INTRA:          -4.878
REMARK INTER:                  -4.878
REMARK INTRA:                   0.000
REMARK UNBOUND:                 0.000
REMARK SMILES O=c1ccc2cc(O)c(O)cc2o1
REMARK SMILES IDX 4 1 3 2 2 3 1 4 13 5 12 6 11 7 9 8 7 9 6 10 5 11 8 12 10 14
REMARK H PARENT 8 13 10 15
REMARK Flexibility Score: inf
ROOT
ATOM      1  C   UNL     1     -49.475 -38.297 -19.900  1.00  0.00     0.019 A 
ATOM      2  C   UNL     1     -50.750 -38.313 -20.466  1.00  0.00     0.094 A 
ATOM      3  C   UNL     1     -51.556 -37.175 -20.350  1.00  0.00     0.336 A 
ATOM      4  O   UNL     1     -52.710 -37.169 -20.853  1.00  0.00    -0.246 OA
ATOM      5  O   UNL     1     -51.112 -36.095 -19.711  1.00  0.00    -0.423 OA
ATOM      6  C   UNL     1     -49.901 -36.039 -19.159  1.00  0.00     0.142 A 
ATOM      7  C   UNL     1     -49.488 -34.877 -18.500  1.00  0.00     0.098 A 
ATOM      8  C   UNL     1     -48.215 -34.813 -17.915  1.00  0.00     0.161 A 
ATOM      9  C   UNL     1     -47.351 -35.915 -17.991  1.00  0.00     0.158 A 
ATOM     10  C   UNL     1     -47.761 -37.083 -18.651  1.00  0.00     0.062 A 
ATOM     11  C   UNL     1     -49.033 -37.149 -19.234  1.00  0.00     0.022 A 
ENDROOT
BRANCH   9  12
ATOM     12  O   UNL     1     -46.088 -35.841 -17.406  1.00  0.00    -0.504 OA
ATOM     13  H   UNL     1     -45.615 -36.669 -17.062  1.00  0.00     0.293 HD
ENDBRANCH   9  12
BRANCH   8  14
ATOM     14  O   UNL     1     -47.799 -33.656 -17.258  1.00  0.00    -0.504 OA
ATOM     15  H   UNL     1     -47.983 -32.734 -17.640  1.00  0.00     0.293 HD
ENDBRANCH   8  14
TORSDOF 2
ENDMDL
MODEL 5
REMARK VINA RESULT:    -4.561      1.945      2.971
REMARK INTER + INTRA:          -4.828
REMARK INTER:                  -4.828
REMARK INTRA:                   0.000
REMARK UNBOUND:                 0.000
REMARK SMILES O=c1ccc2cc(O)c(O)cc2o1
REMARK SMILES IDX 4 1 3 2 2 3 1 4 13 5 12 6 11 7 9 8 7 9 6 10 5 11 8 12 10 14
REMARK H PARENT 8 13 10 15
REMARK Flexibility Score: inf
ROOT
ATOM      1  C   UNL     1     -39.715 -39.749 -20.982  1.00  0.00     0.019 A 
ATOM      2  C   UNL     1     -40.831 -40.584 -21.029  1.00  0.00     0.094 A 
ATOM      3  C   UNL     1     -42.100 -40.032 -20.820  1.00  0.00     0.336 A 
ATOM      4  O   UNL     1     -43.119 -40.770 -20.858  1.00  0.00    -0.246 OA
ATOM      5  O   UNL     1     -42.238 -38.731 -20.581  1.00  0.00    -0.423 OA
ATOM      6  C   UNL     1     -41.199 -37.899 -20.530  1.00  0.00     0.142 A 
ATOM      7  C   UNL     1     -41.405 -36.540 -20.275  1.00  0.00     0.098 A 
ATOM      8  C   UNL     1     -40.315 -35.659 -20.218  1.00  0.00     0.161 A 
ATOM      9  C   UNL     1     -39.013 -36.141 -20.418  1.00  0.00     0.158 A 
ATOM     10  C   UNL     1     -38.801 -37.504 -20.674  1.00  0.00     0.062 A 
ATOM     11  C   UNL     1     -39.889 -38.384 -20.730  1.00  0.00     0.022 A 
ENDROOT
BRANCH   9  12
ATOM     12  O   UNL     1     -37.935 -35.258 -20.360  1.00  0.00    -0.504 OA
ATOM     13  H   UNL     1     -37.307 -35.242 -19.564  1.00  0.00     0.293 HD
ENDBRANCH   9  12
BRANCH   8  14
ATOM     14  O   UNL     1     -40.516 -34.304 -19.965  1.00  0.00    -0.504 OA
ATOM     15  H   UNL     1     -40.999 -33.986 -19.132  1.00  0.00     0.293 HD
ENDBRANCH   8  14
TORSDOF 2
ENDMDL
MODEL 6
REMARK VINA RESULT:    -4.455      6.976      8.156
REMARK INTER + INTRA:          -4.715
REMARK INTER:                  -4.715
REMARK INTRA:                   0.000
REMARK UNBOUND:                 0.000
REMARK SMILES O=c1ccc2cc(O)c(O)cc2o1
REMARK SMILES IDX 4 1 3 2 2 3 1 4 13 5 12 6 11 7 9 8 7 9 6 10 5 11 8 12 10 14
REMARK H PARENT 8 13 10 15
REMARK Flexibility Score: inf
ROOT
ATOM      1  C   UNL     1     -50.597 -37.696 -20.003  1.00  0.00     0.019 A 
ATOM      2  C   UNL     1     -50.080 -38.947 -20.340  1.00  0.00     0.094 A 
ATOM      3  C   UNL     1     -48.759 -39.250 -19.991  1.00  0.00     0.336 A 
ATOM      4  O   UNL     1     -48.273 -40.373 -20.287  1.00  0.00    -0.246 OA
ATOM      5  O   UNL     1     -48.009 -38.357 -19.348  1.00  0.00    -0.423 OA
ATOM      6  C   UNL     1     -48.465 -37.153 -19.008  1.00  0.00     0.142 A 
ATOM      7  C   UNL     1     -47.632 -36.257 -18.333  1.00  0.00     0.098 A 
ATOM      8  C   UNL     1     -48.107 -34.987 -17.973  1.00  0.00     0.161 A 
ATOM      9  C   UNL     1     -49.421 -34.613 -18.289  1.00  0.00     0.158 A 
ATOM     10  C   UNL     1     -50.261 -35.509 -18.966  1.00  0.00     0.062 A 
ATOM     11  C   UNL     1     -49.788 -36.777 -19.327  1.00  0.00     0.022 A 
ENDROOT
BRANCH   9  12
ATOM     12  O   UNL     1     -49.884 -33.349 -17.927  1.00  0.00    -0.504 OA
ATOM     13  H   UNL     1     -50.875 -33.144 -17.871  1.00  0.00     0.293 HD
ENDBRANCH   9  12
BRANCH   8  14
ATOM     14  O   UNL     1     -47.279 -34.090 -17.299  1.00  0.00    -0.504 OA
ATOM     15  H   UNL     1     -46.770 -33.365 -17.793  1.00  0.00     0.293 HD
ENDBRANCH   8  14
TORSDOF 2
ENDMDL
MODEL 7
REMARK VINA RESULT:    -4.377      1.365      5.077
REMARK INTER + INTRA:          -4.633
REMARK INTER:                  -4.633
REMARK INTRA:                   0.000
REMARK UNBOUND:                 0.000
REMARK SMILES O=c1ccc2cc(O)c(O)cc2o1
REMARK SMILES IDX 4 1 3 2 2 3 1 4 13 5 12 6 11 7 9 8 7 9 6 10 5 11 8 12 10 14
REMARK H PARENT 8 13 10 15
REMARK Flexibility Score: inf
ROOT
ATOM      1  C   UNL     1     -43.351 -37.598 -20.534  1.00  0.00     0.019 A 
ATOM      2  C   UNL     1     -43.741 -36.321 -20.132  1.00  0.00     0.094 A 
ATOM      3  C   UNL     1     -42.758 -35.349 -19.914  1.00  0.00     0.336 A 
ATOM      4  O   UNL     1     -43.090 -34.191 -19.550  1.00  0.00    -0.246 OA
ATOM      5  O   UNL     1     -41.472 -35.640 -20.090  1.00  0.00    -0.423 OA
ATOM      6  C   UNL     1     -41.057 -36.846 -20.474  1.00  0.00     0.142 A 
ATOM      7  C   UNL     1     -39.692 -37.094 -20.642  1.00  0.00     0.098 A 
ATOM      8  C   UNL     1     -39.249 -38.363 -21.046  1.00  0.00     0.161 A 
ATOM      9  C   UNL     1     -40.178 -39.387 -21.283  1.00  0.00     0.158 A 
ATOM     10  C   UNL     1     -41.549 -39.143 -21.115  1.00  0.00     0.062 A 
ATOM     11  C   UNL     1     -41.991 -37.877 -20.711  1.00  0.00     0.022 A 
ENDROOT
BRANCH   9  12
ATOM     12  O   UNL     1     -39.729 -40.644 -21.684  1.00  0.00    -0.504 OA
ATOM     13  H   UNL     1     -39.716 -40.915 -22.660  1.00  0.00     0.293 HD
ENDBRANCH   9  12
BRANCH   8  14
ATOM     14  O   UNL     1     -37.889 -38.613 -21.215  1.00  0.00    -0.504 OA
ATOM     15  H   UNL     1     -37.531 -39.052 -22.057  1.00  0.00     0.293 HD
ENDBRANCH   8  14
TORSDOF 2
ENDMDL
MODEL 8
REMARK VINA RESULT:    -4.333      8.744      9.646
REMARK INTER + INTRA:          -4.586
REMARK INTER:                  -4.586
REMARK INTRA:                   0.000
REMARK UNBOUND:                 0.000
REMARK SMILES O=c1ccc2cc(O)c(O)cc2o1
REMARK SMILES IDX 4 1 3 2 2 3 1 4 13 5 12 6 11 7 9 8 7 9 6 10 5 11 8 12 10 14
REMARK H PARENT 8 13 10 15
REMARK Flexibility Score: inf
ROOT
ATOM      1  C   UNL     1     -49.981 -37.494 -18.728  1.00  0.00     0.019 A 
ATOM      2  C   UNL     1     -50.546 -37.000 -19.904  1.00  0.00     0.094 A 
ATOM      3  C   UNL     1     -50.563 -37.815 -21.042  1.00  0.00     0.336 A 
ATOM      4  O   UNL     1     -51.067 -37.387 -22.113  1.00  0.00    -0.246 OA
ATOM      5  O   UNL     1     -50.047 -39.041 -21.001  1.00  0.00    -0.423 OA
ATOM      6  C   UNL     1     -49.500 -39.551 -19.899  1.00  0.00     0.142 A 
ATOM      7  C   UNL     1     -48.974 -40.846 -19.915  1.00  0.00     0.098 A 
ATOM      8  C   UNL     1     -48.395 -41.387 -18.758  1.00  0.00     0.161 A 
ATOM      9  C   UNL     1     -48.344 -40.629 -17.579  1.00  0.00     0.158 A 
ATOM     10  C   UNL     1     -48.870 -39.329 -17.557  1.00  0.00     0.062 A 
ATOM     11  C   UNL     1     -49.447 -38.787 -18.713  1.00  0.00     0.022 A 
ENDROOT
BRANCH   9  12
ATOM     12  O   UNL     1     -47.767 -41.175 -16.434  1.00  0.00    -0.504 OA
ATOM     13  H   UNL     1     -47.947 -40.789 -15.514  1.00  0.00     0.293 HD
ENDBRANCH   9  12
BRANCH   8  14
ATOM     14  O   UNL     1     -47.871 -42.678 -18.770  1.00  0.00    -0.504 OA
ATOM     15  H   UNL     1     -48.447 -43.483 -18.993  1.00  0.00     0.293 HD
ENDBRANCH   8  14
TORSDOF 2
ENDMDL
