MODEL 1
REMARK VINA RESULT:    -5.464      0.000      0.000
REMARK INTER + INTRA:          -5.464
REMARK INTER:                  -5.464
REMARK INTRA:                   0.000
REMARK UNBOUND:                 0.000
REMARK SMILES CC1=CC(=O)[C@H]2C[C@@H]1C2(C)C
REMARK SMILES IDX 1 1 2 2 3 3 4 4 5 5 6 6 7 7 8 8 9 9 10 10 11 11
REMARK H PARENT
REMARK Flexibility Score: inf
ROOT
ATOM      1  C   UNL     1      16.953 -10.020  65.744  1.00  0.00     0.040 C 
ATOM      2  C   UNL     1      17.905 -10.419  66.827  1.00  0.00    -0.066 C 
ATOM      3  C   UNL     1      18.150  -9.627  67.909  1.00  0.00     0.047 C 
ATOM      4  C   UNL     1      19.129 -10.159  68.911  1.00  0.00     0.159 C 
ATOM      5  O   UNL     1      19.471  -9.504  69.930  1.00  0.00    -0.295 OA
ATOM      6  C   UNL     1      19.682 -11.552  68.609  1.00  0.00     0.067 C 
ATOM      7  C   UNL     1      18.438 -12.374  68.209  1.00  0.00     0.021 C 
ATOM      8  C   UNL     1      18.614 -11.788  66.790  1.00  0.00     0.022 C 
ATOM      9  C   UNL     1      20.125 -11.597  67.118  1.00  0.00    -0.019 C 
ATOM     10  C   UNL     1      20.962 -12.858  66.790  1.00  0.00     0.012 C 
ATOM     11  C   UNL     1      20.854 -10.359  66.527  1.00  0.00     0.012 C 
ENDROOT
TORSDOF 0
ENDMDL
MODEL 2
REMARK VINA RESULT:    -5.352      0.773      3.128
REMARK INTER + INTRA:          -5.352
REMARK INTER:                  -5.352
REMARK INTRA:                   0.000
REMARK UNBOUND:                 0.000
REMARK SMILES CC1=CC(=O)[C@H]2C[C@@H]1C2(C)C
REMARK SMILES IDX 1 1 2 2 3 3 4 4 5 5 6 6 7 7 8 8 9 9 10 10 11 11
REMARK H PARENT
REMARK Flexibility Score: inf
ROOT
ATOM      1  C   UNL     1      21.045 -12.918  66.739  1.00  0.00     0.040 C 
ATOM      2  C   UNL     1      20.207 -11.773  67.214  1.00  0.00    -0.066 C 
ATOM      3  C   UNL     1      20.232 -11.340  68.506  1.00  0.00     0.047 C 
ATOM      4  C   UNL     1      19.336 -10.185  68.835  1.00  0.00     0.159 C 
ATOM      5  O   UNL     1      19.238  -9.720  70.000  1.00  0.00    -0.295 OA
ATOM      6  C   UNL     1      18.552  -9.608  67.655  1.00  0.00     0.067 C 
ATOM      7  C   UNL     1      19.598  -9.500  66.523  1.00  0.00     0.021 C 
ATOM      8  C   UNL     1      19.310 -10.990  66.234  1.00  0.00     0.022 C 
ATOM      9  C   UNL     1      17.904 -10.784  66.869  1.00  0.00    -0.019 C 
ATOM     10  C   UNL     1      16.857 -10.297  65.837  1.00  0.00     0.012 C 
ATOM     11  C   UNL     1      17.284 -11.958  67.676  1.00  0.00     0.012 C 
ENDROOT
TORSDOF 0
ENDMDL
MODEL 3
REMARK VINA RESULT:    -5.166     16.715     17.908
REMARK INTER + INTRA:          -5.166
REMARK INTER:                  -5.166
REMARK INTRA:                   0.000
REMARK UNBOUND:                 0.000
REMARK SMILES CC1=CC(=O)[C@H]2C[C@@H]1C2(C)C
REMARK SMILES IDX 1 1 2 2 3 3 4 4 5 5 6 6 7 7 8 8 9 9 10 10 11 11
REMARK H PARENT
REMARK Flexibility Score: inf
ROOT
ATOM      1  C   UNL     1       5.816   1.730  66.040  1.00  0.00     0.040 C 
ATOM      2  C   UNL     1       6.706   1.541  64.853  1.00  0.00    -0.066 C 
ATOM      3  C   UNL     1       8.045   1.792  64.900  1.00  0.00     0.047 C 
ATOM      4  C   UNL     1       8.807   1.560  63.631  1.00  0.00     0.159 C 
ATOM      5  O   UNL     1      10.040   1.794  63.534  1.00  0.00    -0.295 OA
ATOM      6  C   UNL     1       7.984   1.015  62.463  1.00  0.00     0.067 C 
ATOM      7  C   UNL     1       7.135  -0.112  63.092  1.00  0.00     0.021 C 
ATOM      8  C   UNL     1       6.146   0.994  63.524  1.00  0.00     0.022 C 
ATOM      9  C   UNL     1       6.680   1.855  62.342  1.00  0.00    -0.019 C 
ATOM     10  C   UNL     1       5.920   1.579  61.021  1.00  0.00     0.012 C 
ATOM     11  C   UNL     1       6.772   3.394  62.539  1.00  0.00     0.012 C 
ENDROOT
TORSDOF 0
ENDMDL
MODEL 4
REMARK VINA RESULT:    -5.072      3.911      5.780
REMARK INTER + INTRA:          -5.072
REMARK INTER:                  -5.072
REMARK INTRA:                   0.000
REMARK UNBOUND:                 0.000
REMARK SMILES CC1=CC(=O)[C@H]2C[C@@H]1C2(C)C
REMARK SMILES IDX 1 1 2 2 3 3 4 4 5 5 6 6 7 7 8 8 9 9 10 10 11 11
REMARK H PARENT
REMARK Flexibility Score: inf
ROOT
ATOM      1  C   UNL     1      13.970  -8.964  62.592  1.00  0.00     0.040 C 
ATOM      2  C   UNL     1      15.172  -9.807  62.875  1.00  0.00    -0.066 C 
ATOM      3  C   UNL     1      15.449 -10.942  62.170  1.00  0.00     0.047 C 
ATOM      4  C   UNL     1      16.688 -11.683  62.570  1.00  0.00     0.159 C 
ATOM      5  O   UNL     1      17.029 -12.766  62.024  1.00  0.00    -0.295 OA
ATOM      6  C   UNL     1      17.511 -11.033  63.682  1.00  0.00     0.067 C 
ATOM      7  C   UNL     1      17.577  -9.543  63.282  1.00  0.00     0.021 C 
ATOM      8  C   UNL     1      16.194  -9.391  63.953  1.00  0.00     0.022 C 
ATOM      9  C   UNL     1      16.549 -10.624  64.835  1.00  0.00    -0.019 C 
ATOM     10  C   UNL     1      17.309 -10.227  66.124  1.00  0.00     0.012 C 
ATOM     11  C   UNL     1      15.405 -11.602  65.224  1.00  0.00     0.012 C 
ENDROOT
TORSDOF 0
ENDMDL
MODEL 5
REMARK VINA RESULT:    -5.057      1.847      3.547
REMARK INTER + INTRA:          -5.057
REMARK INTER:                  -5.057
REMARK INTRA:                   0.000
REMARK UNBOUND:                 0.000
REMARK SMILES CC1=CC(=O)[C@H]2C[C@@H]1C2(C)C
REMARK SMILES IDX 1 1 2 2 3 3 4 4 5 5 6 6 7 7 8 8 9 9 10 10 11 11
REMARK H PARENT
REMARK Flexibility Score: inf
ROOT
ATOM      1  C   UNL     1      20.787 -10.387  66.293  1.00  0.00     0.040 C 
ATOM      2  C   UNL     1      19.395 -10.825  66.621  1.00  0.00    -0.066 C 
ATOM      3  C   UNL     1      19.138 -11.844  67.490  1.00  0.00     0.047 C 
ATOM      4  C   UNL     1      17.694 -12.172  67.718  1.00  0.00     0.159 C 
ATOM      5  O   UNL     1      17.329 -13.118  68.464  1.00  0.00    -0.295 OA
ATOM      6  C   UNL     1      16.696 -11.276  66.985  1.00  0.00     0.067 C 
ATOM      7  C   UNL     1      17.227  -9.845  67.220  1.00  0.00     0.021 C 
ATOM      8  C   UNL     1      18.174 -10.094  66.025  1.00  0.00     0.022 C 
ATOM      9  C   UNL     1      17.148 -11.141  65.502  1.00  0.00    -0.019 C 
ATOM     10  C   UNL     1      16.057 -10.501  64.609  1.00  0.00     0.012 C 
ATOM     11  C   UNL     1      17.691 -12.405  64.778  1.00  0.00     0.012 C 
ENDROOT
TORSDOF 0
ENDMDL
MODEL 6
REMARK VINA RESULT:    -4.928      2.602      3.776
REMARK INTER + INTRA:          -4.928
REMARK INTER:                  -4.928
REMARK INTRA:                   0.000
REMARK UNBOUND:                 0.000
REMARK SMILES CC1=CC(=O)[C@H]2C[C@@H]1C2(C)C
REMARK SMILES IDX 1 1 2 2 3 3 4 4 5 5 6 6 7 7 8 8 9 9 10 10 11 11
REMARK H PARENT
REMARK Flexibility Score: inf
ROOT
ATOM      1  C   UNL     1      14.384 -11.850  65.108  1.00  0.00     0.040 C 
ATOM      2  C   UNL     1      15.829 -11.486  65.248  1.00  0.00    -0.066 C 
ATOM      3  C   UNL     1      16.619 -11.216  64.171  1.00  0.00     0.047 C 
ATOM      4  C   UNL     1      18.047 -10.868  64.468  1.00  0.00     0.159 C 
ATOM      5  O   UNL     1      18.886 -10.639  63.559  1.00  0.00    -0.295 OA
ATOM      6  C   UNL     1      18.410 -10.809  65.952  1.00  0.00     0.067 C 
ATOM      7  C   UNL     1      17.254 -10.011  66.594  1.00  0.00     0.021 C 
ATOM      8  C   UNL     1      16.476 -11.345  66.641  1.00  0.00     0.022 C 
ATOM      9  C   UNL     1      17.849 -12.080  66.651  1.00  0.00    -0.019 C 
ATOM     10  C   UNL     1      18.409 -12.262  68.084  1.00  0.00     0.012 C 
ATOM     11  C   UNL     1      17.959 -13.441  65.908  1.00  0.00     0.012 C 
ENDROOT
TORSDOF 0
ENDMDL
MODEL 7
REMARK VINA RESULT:    -4.903     15.753     17.371
REMARK INTER + INTRA:          -4.903
REMARK INTER:                  -4.903
REMARK INTRA:                   0.000
REMARK UNBOUND:                 0.000
REMARK SMILES CC1=CC(=O)[C@H]2C[C@@H]1C2(C)C
REMARK SMILES IDX 1 1 2 2 3 3 4 4 5 5 6 6 7 7 8 8 9 9 10 10 11 11
REMARK H PARENT
REMARK Flexibility Score: inf
ROOT
ATOM      1  C   UNL     1      10.274  -8.959  55.329  1.00  0.00     0.040 C 
ATOM      2  C   UNL     1       8.802  -9.206  55.429  1.00  0.00    -0.066 C 
ATOM      3  C   UNL     1       8.173 -10.167  54.694  1.00  0.00     0.047 C 
ATOM      4  C   UNL     1       6.695 -10.296  54.900  1.00  0.00     0.159 C 
ATOM      5  O   UNL     1       5.995 -11.117  54.251  1.00  0.00    -0.295 OA
ATOM      6  C   UNL     1       6.096  -9.365  55.954  1.00  0.00     0.067 C 
ATOM      7  C   UNL     1       7.071  -9.469  57.148  1.00  0.00     0.021 C 
ATOM      8  C   UNL     1       7.933  -8.410  56.424  1.00  0.00     0.022 C 
ATOM      9  C   UNL     1       6.637  -7.927  55.708  1.00  0.00    -0.019 C 
ATOM     10  C   UNL     1       5.872  -6.860  56.531  1.00  0.00     0.012 C 
ATOM     11  C   UNL     1       6.752  -7.422  54.243  1.00  0.00     0.012 C 
ENDROOT
TORSDOF 0
ENDMDL
MODEL 8
REMARK VINA RESULT:    -4.840      1.761      2.435
REMARK INTER + INTRA:          -4.840
REMARK INTER:                  -4.840
REMARK INTRA:                   0.000
REMARK UNBOUND:                 0.000
REMARK SMILES CC1=CC(=O)[C@H]2C[C@@H]1C2(C)C
REMARK SMILES IDX 1 1 2 2 3 3 4 4 5 5 6 6 7 7 8 8 9 9 10 10 11 11
REMARK H PARENT
REMARK Flexibility Score: inf
ROOT
ATOM      1  C   UNL     1      16.226 -10.064  64.680  1.00  0.00     0.040 C 
ATOM      2  C   UNL     1      17.082 -10.830  65.638  1.00  0.00    -0.066 C 
ATOM      3  C   UNL     1      16.558 -11.517  66.693  1.00  0.00     0.047 C 
ATOM      4  C   UNL     1      17.540 -12.235  67.568  1.00  0.00     0.159 C 
ATOM      5  O   UNL     1      17.186 -12.870  68.596  1.00  0.00    -0.295 OA
ATOM      6  C   UNL     1      19.000 -12.146  67.124  1.00  0.00     0.067 C 
ATOM      7  C   UNL     1      18.951 -12.419  65.604  1.00  0.00     0.021 C 
ATOM      8  C   UNL     1      18.608 -10.921  65.436  1.00  0.00     0.022 C 
ATOM      9  C   UNL     1      19.327 -10.662  66.792  1.00  0.00    -0.019 C 
ATOM     10  C   UNL     1      20.847 -10.418  66.615  1.00  0.00     0.012 C 
ATOM     11  C   UNL     1      18.760  -9.555  67.724  1.00  0.00     0.012 C 
ENDROOT
TORSDOF 0
ENDMDL
MODEL 9
REMARK VINA RESULT:    -4.800      3.905      6.030
REMARK INTER + INTRA:          -4.800
REMARK INTER:                  -4.800
REMARK INTRA:                   0.000
REMARK UNBOUND:                 0.000
REMARK SMILES CC1=CC(=O)[C@H]2C[C@@H]1C2(C)C
REMARK SMILES IDX 1 1 2 2 3 3 4 4 5 5 6 6 7 7 8 8 9 9 10 10 11 11
REMARK H PARENT
REMARK Flexibility Score: inf
ROOT
ATOM      1  C   UNL     1      17.252 -10.853  66.466  1.00  0.00     0.040 C 
ATOM      2  C   UNL     1      16.691 -11.236  65.133  1.00  0.00    -0.066 C 
ATOM      3  C   UNL     1      17.360 -12.050  64.268  1.00  0.00     0.047 C 
ATOM      4  C   UNL     1      16.673 -12.344  62.969  1.00  0.00     0.159 C 
ATOM      5  O   UNL     1      17.205 -13.047  62.072  1.00  0.00    -0.295 OA
ATOM      6  C   UNL     1      15.281 -11.733  62.813  1.00  0.00     0.067 C 
ATOM      7  C   UNL     1      14.584 -12.029  64.159  1.00  0.00     0.021 C 
ATOM      8  C   UNL     1      15.287 -10.765  64.701  1.00  0.00     0.022 C 
ATOM      9  C   UNL     1      15.346 -10.237  63.238  1.00  0.00    -0.019 C 
ATOM     10  C   UNL     1      14.068  -9.456  62.842  1.00  0.00     0.012 C 
ATOM     11  C   UNL     1      16.582  -9.401  62.807  1.00  0.00     0.012 C 
ENDROOT
TORSDOF 0
ENDMDL
