MODEL 1
REMARK VINA RESULT:    -5.831      0.000      0.000
REMARK INTER + INTRA:          -7.151
REMARK INTER:                  -6.854
REMARK INTRA:                  -0.297
REMARK UNBOUND:                -0.297
REMARK SMILES O=c1cc(-c2ccc(O)c(O)c2)oc2cc(O)cc(O)c12
REMARK SMILES IDX 4 1 3 2 2 3 1 4 21 5 19 6 18 7 16 8 15 9 14 10 13 11 5 12
REMARK SMILES IDX 6 13 7 14 8 15 12 16 10 17 9 18 11 20 20 22 17 24
REMARK H PARENT 9 19 11 21 20 23 17 25
REMARK Flexibility Score: inf
ROOT
ATOM      1  C   UNL     1      41.985   9.140  36.866  1.00  0.00     0.138 A 
ATOM      2  C   UNL     1      41.905   8.097  35.928  1.00  0.00     0.100 A 
ATOM      3  C   UNL     1      42.065   8.380  34.570  1.00  0.00     0.197 A 
ATOM      4  O   UNL     1      41.994   7.437  33.736  1.00  0.00    -0.289 OA
ATOM      5  C   UNL     1      42.307   9.707  34.161  1.00  0.00     0.107 A 
ATOM      6  C   UNL     1      42.479  10.079  32.806  1.00  0.00     0.134 A 
ATOM      7  C   UNL     1      42.722  11.423  32.481  1.00  0.00     0.093 A 
ATOM      8  C   UNL     1      42.796  12.396  33.481  1.00  0.00     0.123 A 
ATOM      9  C   UNL     1      42.627  12.032  34.821  1.00  0.00     0.094 A 
ATOM     10  C   UNL     1      42.383  10.700  35.166  1.00  0.00     0.146 A 
ATOM     11  O   UNL     1      42.224  10.380  36.446  1.00  0.00    -0.456 OA
ENDROOT
BRANCH   1  12
ATOM     12  C   UNL     1      41.824   8.897  38.321  1.00  0.00     0.021 A 
ATOM     13  C   UNL     1      42.040   9.950  39.225  1.00  0.00     0.016 A 
ATOM     14  C   UNL     1      41.889   9.749  40.598  1.00  0.00     0.051 A 
ATOM     15  C   UNL     1      41.511   8.500  41.100  1.00  0.00     0.157 A 
ATOM     16  C   UNL     1      41.429   7.644  38.825  1.00  0.00     0.062 A 
ATOM     17  C   UNL     1      41.272   7.435  40.200  1.00  0.00     0.158 A 
BRANCH  15  18
ATOM     18  O   UNL     1      41.383   8.364  42.484  1.00  0.00    -0.504 OA
ATOM     19  H   UNL     1      41.802   8.991  43.155  1.00  0.00     0.293 HD
ENDBRANCH  15  18
BRANCH  17  20
ATOM     20  O   UNL     1      40.875   6.165  40.626  1.00  0.00    -0.504 OA
ATOM     21  H   UNL     1      41.122   5.766  41.520  1.00  0.00     0.293 HD
ENDBRANCH  17  20
ENDBRANCH   1  12
BRANCH   6  22
ATOM     22  O   UNL     1      42.411   9.130  31.786  1.00  0.00    -0.507 OA
ATOM     23  H   UNL     1      42.307   9.399  30.814  1.00  0.00     0.293 HD
ENDBRANCH   6  22
BRANCH   8  24
ATOM     24  O   UNL     1      43.039  13.723  33.130  1.00  0.00    -0.508 OA
ATOM     25  H   UNL     1      43.518  14.358  33.758  1.00  0.00     0.293 HD
ENDBRANCH   8  24
TORSDOF 5
ENDMDL
MODEL 2
REMARK VINA RESULT:    -5.530      1.768      7.047
REMARK INTER + INTRA:          -6.797
REMARK INTER:                  -6.509
REMARK INTRA:                  -0.288
REMARK UNBOUND:                -0.297
REMARK SMILES O=c1cc(-c2ccc(O)c(O)c2)oc2cc(O)cc(O)c12
REMARK SMILES IDX 4 1 3 2 2 3 1 4 21 5 19 6 18 7 16 8 15 9 14 10 13 11 5 12
REMARK SMILES IDX 6 13 7 14 8 15 12 16 10 17 9 18 11 20 20 22 17 24
REMARK H PARENT 9 19 11 21 20 23 17 25
REMARK Flexibility Score: inf
ROOT
ATOM      1  C   UNL     1      42.280  10.845  37.159  1.00  0.00     0.138 A 
ATOM      2  C   UNL     1      41.690   9.574  37.052  1.00  0.00     0.100 A 
ATOM      3  C   UNL     1      41.583   8.769  38.187  1.00  0.00     0.197 A 
ATOM      4  O   UNL     1      41.051   7.630  38.082  1.00  0.00    -0.289 OA
ATOM      5  C   UNL     1      42.065   9.243  39.423  1.00  0.00     0.107 A 
ATOM      6  C   UNL     1      41.997   8.491  40.620  1.00  0.00     0.134 A 
ATOM      7  C   UNL     1      42.496   9.037  41.814  1.00  0.00     0.093 A 
ATOM      8  C   UNL     1      43.058  10.316  41.831  1.00  0.00     0.123 A 
ATOM      9  C   UNL     1      43.126  11.063  40.651  1.00  0.00     0.094 A 
ATOM     10  C   UNL     1      42.637  10.537  39.452  1.00  0.00     0.146 A 
ATOM     11  O   UNL     1      42.716  11.266  38.344  1.00  0.00    -0.456 OA
ENDROOT
BRANCH   1  12
ATOM     12  C   UNL     1      42.418  11.744  35.986  1.00  0.00     0.021 A 
ATOM     13  C   UNL     1      42.398  13.134  36.176  1.00  0.00     0.016 A 
ATOM     14  C   UNL     1      42.533  14.001  35.090  1.00  0.00     0.051 A 
ATOM     15  C   UNL     1      42.701  13.504  33.795  1.00  0.00     0.157 A 
ATOM     16  C   UNL     1      42.602  11.242  34.684  1.00  0.00     0.062 A 
ATOM     17  C   UNL     1      42.741  12.104  33.590  1.00  0.00     0.158 A 
BRANCH  15  18
ATOM     18  O   UNL     1      42.824  14.424  32.752  1.00  0.00    -0.504 OA
ATOM     19  H   UNL     1      43.510  15.164  32.730  1.00  0.00     0.293 HD
ENDBRANCH  15  18
BRANCH  17  20
ATOM     20  O   UNL     1      42.923  11.533  32.328  1.00  0.00    -0.504 OA
ATOM     21  H   UNL     1      42.738  12.013  31.459  1.00  0.00     0.293 HD
ENDBRANCH  17  20
ENDBRANCH   1  12
BRANCH   6  22
ATOM     22  O   UNL     1      41.442   7.211  40.634  1.00  0.00    -0.507 OA
ATOM     23  H   UNL     1      41.050   6.791  39.799  1.00  0.00     0.293 HD
ENDBRANCH   6  22
BRANCH   8  24
ATOM     24  O   UNL     1      43.544  10.835  43.030  1.00  0.00    -0.508 OA
ATOM     25  H   UNL     1      42.920  11.137  43.768  1.00  0.00     0.293 HD
ENDBRANCH   8  24
TORSDOF 5
ENDMDL
MODEL 3
REMARK VINA RESULT:    -5.446      1.703      6.883
REMARK INTER + INTRA:          -6.698
REMARK INTER:                  -6.412
REMARK INTRA:                  -0.286
REMARK UNBOUND:                -0.297
REMARK SMILES O=c1cc(-c2ccc(O)c(O)c2)oc2cc(O)cc(O)c12
REMARK SMILES IDX 4 1 3 2 2 3 1 4 21 5 19 6 18 7 16 8 15 9 14 10 13 11 5 12
REMARK SMILES IDX 6 13 7 14 8 15 12 16 10 17 9 18 11 20 20 22 17 24
REMARK H PARENT 9 19 11 21 20 23 17 25
REMARK Flexibility Score: inf
ROOT
ATOM      1  C   UNL     1      42.048   9.383  37.929  1.00  0.00     0.138 A 
ATOM      2  C   UNL     1      41.398   8.365  38.645  1.00  0.00     0.100 A 
ATOM      3  C   UNL     1      41.464   8.354  40.039  1.00  0.00     0.197 A 
ATOM      4  O   UNL     1      40.875   7.437  40.672  1.00  0.00    -0.289 OA
ATOM      5  C   UNL     1      42.179   9.367  40.708  1.00  0.00     0.107 A 
ATOM      6  C   UNL     1      42.297   9.430  42.117  1.00  0.00     0.134 A 
ATOM      7  C   UNL     1      43.023  10.476  42.707  1.00  0.00     0.093 A 
ATOM      8  C   UNL     1      43.631  11.455  41.918  1.00  0.00     0.123 A 
ATOM      9  C   UNL     1      43.517  11.398  40.525  1.00  0.00     0.094 A 
ATOM     10  C   UNL     1      42.799  10.364  39.917  1.00  0.00     0.146 A 
ATOM     11  O   UNL     1      42.707  10.330  38.592  1.00  0.00    -0.456 OA
ENDROOT
BRANCH   1  12
ATOM     12  C   UNL     1      42.010   9.445  36.446  1.00  0.00     0.021 A 
ATOM     13  C   UNL     1      42.009  10.694  35.807  1.00  0.00     0.016 A 
ATOM     14  C   UNL     1      41.979  10.779  34.414  1.00  0.00     0.051 A 
ATOM     15  C   UNL     1      41.962   9.623  33.628  1.00  0.00     0.157 A 
ATOM     16  C   UNL     1      42.008   8.280  35.655  1.00  0.00     0.062 A 
ATOM     17  C   UNL     1      41.982   8.356  34.257  1.00  0.00     0.158 A 
BRANCH  15  18
ATOM     18  O   UNL     1      41.928   9.777  32.240  1.00  0.00    -0.504 OA
ATOM     19  H   UNL     1      41.266   9.312  31.636  1.00  0.00     0.293 HD
ENDBRANCH  15  18
BRANCH  17  20
ATOM     20  O   UNL     1      41.984   7.158  33.539  1.00  0.00    -0.504 OA
ATOM     21  H   UNL     1      42.007   6.244  33.967  1.00  0.00     0.293 HD
ENDBRANCH  17  20
ENDBRANCH   1  12
BRANCH   6  22
ATOM     22  O   UNL     1      41.701   8.466  42.931  1.00  0.00    -0.507 OA
ATOM     23  H   UNL     1      41.363   8.689  43.860  1.00  0.00     0.293 HD
ENDBRANCH   6  22
BRANCH   8  24
ATOM     24  O   UNL     1      44.347  12.483  42.530  1.00  0.00    -0.508 OA
ATOM     25  H   UNL     1      44.711  12.387  43.471  1.00  0.00     0.293 HD
ENDBRANCH   8  24
TORSDOF 5
ENDMDL
MODEL 4
REMARK VINA RESULT:    -5.406      6.015      7.930
REMARK INTER + INTRA:          -6.651
REMARK INTER:                  -6.333
REMARK INTRA:                  -0.318
REMARK UNBOUND:                -0.297
REMARK SMILES O=c1cc(-c2ccc(O)c(O)c2)oc2cc(O)cc(O)c12
REMARK SMILES IDX 4 1 3 2 2 3 1 4 21 5 19 6 18 7 16 8 15 9 14 10 13 11 5 12
REMARK SMILES IDX 6 13 7 14 8 15 12 16 10 17 9 18 11 20 20 22 17 24
REMARK H PARENT 9 19 11 21 20 23 17 25
REMARK Flexibility Score: inf
ROOT
ATOM      1  C   UNL     1      44.315  13.123  42.616  1.00  0.00     0.138 A 
ATOM      2  C   UNL     1      44.900  14.088  43.452  1.00  0.00     0.100 A 
ATOM      3  C   UNL     1      45.215  15.345  42.934  1.00  0.00     0.197 A 
ATOM      4  O   UNL     1      45.739  16.206  43.693  1.00  0.00    -0.289 OA
ATOM      5  C   UNL     1      44.939  15.629  41.582  1.00  0.00     0.107 A 
ATOM      6  C   UNL     1      45.227  16.876  40.979  1.00  0.00     0.134 A 
ATOM      7  C   UNL     1      44.915  17.082  39.626  1.00  0.00     0.093 A 
ATOM      8  C   UNL     1      44.322  16.068  38.869  1.00  0.00     0.123 A 
ATOM      9  C   UNL     1      44.035  14.834  39.462  1.00  0.00     0.094 A 
ATOM     10  C   UNL     1      44.339  14.608  40.807  1.00  0.00     0.146 A 
ATOM     11  O   UNL     1      44.057  13.427  41.346  1.00  0.00    -0.456 OA
ENDROOT
BRANCH   1  12
ATOM     12  C   UNL     1      43.957  11.770  43.113  1.00  0.00     0.021 A 
ATOM     13  C   UNL     1      44.046  11.494  44.486  1.00  0.00     0.016 A 
ATOM     14  C   UNL     1      43.710  10.233  44.980  1.00  0.00     0.051 A 
ATOM     15  C   UNL     1      43.268   9.223  44.120  1.00  0.00     0.157 A 
ATOM     16  C   UNL     1      43.498  10.759  42.248  1.00  0.00     0.062 A 
ATOM     17  C   UNL     1      43.156   9.492  42.735  1.00  0.00     0.158 A 
BRANCH  15  18
ATOM     18  O   UNL     1      42.952   7.982  44.676  1.00  0.00    -0.504 OA
ATOM     19  H   UNL     1      42.017   7.696  44.926  1.00  0.00     0.293 HD
ENDBRANCH  15  18
BRANCH  17  20
ATOM     20  O   UNL     1      42.706   8.540  41.817  1.00  0.00    -0.504 OA
ATOM     21  H   UNL     1      41.800   8.095  41.864  1.00  0.00     0.293 HD
ENDBRANCH  17  20
ENDBRANCH   1  12
BRANCH   6  22
ATOM     22  O   UNL     1      45.819  17.908  41.708  1.00  0.00    -0.507 OA
ATOM     23  H   UNL     1      46.165  18.748  41.259  1.00  0.00     0.293 HD
ENDBRANCH   6  22
BRANCH   8  24
ATOM     24  O   UNL     1      44.023  16.299  37.528  1.00  0.00    -0.508 OA
ATOM     25  H   UNL     1      43.870  15.535  36.880  1.00  0.00     0.293 HD
ENDBRANCH   8  24
TORSDOF 5
ENDMDL
MODEL 5
REMARK VINA RESULT:    -5.354      5.339      7.812
REMARK INTER + INTRA:          -6.590
REMARK INTER:                  -6.273
REMARK INTRA:                  -0.317
REMARK UNBOUND:                -0.297
REMARK SMILES O=c1cc(-c2ccc(O)c(O)c2)oc2cc(O)cc(O)c12
REMARK SMILES IDX 4 1 3 2 2 3 1 4 21 5 19 6 18 7 16 8 15 9 14 10 13 11 5 12
REMARK SMILES IDX 6 13 7 14 8 15 12 16 10 17 9 18 11 20 20 22 17 24
REMARK H PARENT 9 19 11 21 20 23 17 25
REMARK Flexibility Score: inf
ROOT
ATOM      1  C   UNL     1      43.870  12.411  41.610  1.00  0.00     0.138 A 
ATOM      2  C   UNL     1      44.249  12.704  42.931  1.00  0.00     0.100 A 
ATOM      3  C   UNL     1      44.754  13.968  43.236  1.00  0.00     0.197 A 
ATOM      4  O   UNL     1      45.090  14.222  44.425  1.00  0.00    -0.289 OA
ATOM      5  C   UNL     1      44.874  14.933  42.217  1.00  0.00     0.107 A 
ATOM      6  C   UNL     1      45.377  16.237  42.441  1.00  0.00     0.134 A 
ATOM      7  C   UNL     1      45.460  17.143  41.372  1.00  0.00     0.093 A 
ATOM      8  C   UNL     1      45.049  16.771  40.089  1.00  0.00     0.123 A 
ATOM      9  C   UNL     1      44.551  15.483  39.863  1.00  0.00     0.094 A 
ATOM     10  C   UNL     1      44.462  14.566  40.914  1.00  0.00     0.146 A 
ATOM     11  O   UNL     1      43.987  13.349  40.673  1.00  0.00    -0.456 OA
ENDROOT
BRANCH   1  12
ATOM     12  C   UNL     1      43.325  11.084  41.228  1.00  0.00     0.021 A 
ATOM     13  C   UNL     1      42.989  10.161  42.232  1.00  0.00     0.016 A 
ATOM     14  C   UNL     1      42.469   8.909  41.900  1.00  0.00     0.051 A 
ATOM     15  C   UNL     1      42.261   8.553  40.564  1.00  0.00     0.157 A 
ATOM     16  C   UNL     1      43.102  10.732  39.884  1.00  0.00     0.062 A 
ATOM     17  C   UNL     1      42.577   9.480  39.542  1.00  0.00     0.158 A 
BRANCH  15  18
ATOM     18  O   UNL     1      41.743   7.284  40.299  1.00  0.00    -0.504 OA
ATOM     19  H   UNL     1      40.758   7.085  40.198  1.00  0.00     0.293 HD
ENDBRANCH  15  18
BRANCH  17  20
ATOM     20  O   UNL     1      42.381   9.203  38.187  1.00  0.00    -0.504 OA
ATOM     21  H   UNL     1      43.130   9.023  37.534  1.00  0.00     0.293 HD
ENDBRANCH  17  20
ENDBRANCH   1  12
BRANCH   6  22
ATOM     22  O   UNL     1      45.794  16.638  43.710  1.00  0.00    -0.507 OA
ATOM     23  H   UNL     1      45.890  15.978  44.473  1.00  0.00     0.293 HD
ENDBRANCH   6  22
BRANCH   8  24
ATOM     24  O   UNL     1      45.142  17.690  39.045  1.00  0.00    -0.508 OA
ATOM     25  H   UNL     1      45.972  18.255  38.910  1.00  0.00     0.293 HD
ENDBRANCH   8  24
TORSDOF 5
ENDMDL
MODEL 6
REMARK VINA RESULT:    -5.331      1.630      3.228
REMARK INTER + INTRA:          -6.563
REMARK INTER:                  -6.260
REMARK INTRA:                  -0.302
REMARK UNBOUND:                -0.297
REMARK SMILES O=c1cc(-c2ccc(O)c(O)c2)oc2cc(O)cc(O)c12
REMARK SMILES IDX 4 1 3 2 2 3 1 4 21 5 19 6 18 7 16 8 15 9 14 10 13 11 5 12
REMARK SMILES IDX 6 13 7 14 8 15 12 16 10 17 9 18 11 20 20 22 17 24
REMARK H PARENT 9 19 11 21 20 23 17 25
REMARK Flexibility Score: inf
ROOT
ATOM      1  C   UNL     1      42.144  10.642  37.422  1.00  0.00     0.138 A 
ATOM      2  C   UNL     1      42.356  11.781  36.626  1.00  0.00     0.100 A 
ATOM      3  C   UNL     1      42.455  11.641  35.241  1.00  0.00     0.197 A 
ATOM      4  O   UNL     1      42.644  12.669  34.535  1.00  0.00    -0.289 OA
ATOM      5  C   UNL     1      42.337  10.363  34.660  1.00  0.00     0.107 A 
ATOM      6  C   UNL     1      42.426  10.134  33.266  1.00  0.00     0.134 A 
ATOM      7  C   UNL     1      42.292   8.830  32.766  1.00  0.00     0.093 A 
ATOM      8  C   UNL     1      42.071   7.754  33.631  1.00  0.00     0.123 A 
ATOM      9  C   UNL     1      41.982   7.976  35.009  1.00  0.00     0.094 A 
ATOM     10  C   UNL     1      42.114   9.267  35.528  1.00  0.00     0.146 A 
ATOM     11  O   UNL     1      42.027   9.451  36.841  1.00  0.00    -0.456 OA
ENDROOT
BRANCH   1  12
ATOM     12  C   UNL     1      42.030  10.731  38.899  1.00  0.00     0.021 A 
ATOM     13  C   UNL     1      41.407  11.849  39.477  1.00  0.00     0.016 A 
ATOM     14  C   UNL     1      41.281  11.953  40.863  1.00  0.00     0.051 A 
ATOM     15  C   UNL     1      41.761  10.944  41.703  1.00  0.00     0.157 A 
ATOM     16  C   UNL     1      42.500   9.707  39.742  1.00  0.00     0.062 A 
ATOM     17  C   UNL     1      42.374   9.802  41.134  1.00  0.00     0.158 A 
BRANCH  15  18
ATOM     18  O   UNL     1      41.609  11.112  43.081  1.00  0.00    -0.504 OA
ATOM     19  H   UNL     1      41.945  11.914  43.593  1.00  0.00     0.293 HD
ENDBRANCH  15  18
BRANCH  17  20
ATOM     20  O   UNL     1      42.862   8.746  41.906  1.00  0.00    -0.504 OA
ATOM     21  H   UNL     1      42.475   7.813  41.895  1.00  0.00     0.293 HD
ENDBRANCH  17  20
ENDBRANCH   1  12
BRANCH   6  22
ATOM     22  O   UNL     1      42.646  11.188  32.379  1.00  0.00    -0.507 OA
ATOM     23  H   UNL     1      43.004  11.031  31.443  1.00  0.00     0.293 HD
ENDBRANCH   6  22
BRANCH   8  24
ATOM     24  O   UNL     1      41.942   6.469  33.108  1.00  0.00    -0.508 OA
ATOM     25  H   UNL     1      41.117   6.189  32.591  1.00  0.00     0.293 HD
ENDBRANCH   8  24
TORSDOF 5
ENDMDL
MODEL 7
REMARK VINA RESULT:    -5.301      1.970      3.132
REMARK INTER + INTRA:          -6.528
REMARK INTER:                  -6.229
REMARK INTRA:                  -0.299
REMARK UNBOUND:                -0.297
REMARK SMILES O=c1cc(-c2ccc(O)c(O)c2)oc2cc(O)cc(O)c12
REMARK SMILES IDX 4 1 3 2 2 3 1 4 21 5 19 6 18 7 16 8 15 9 14 10 13 11 5 12
REMARK SMILES IDX 6 13 7 14 8 15 12 16 10 17 9 18 11 20 20 22 17 24
REMARK H PARENT 9 19 11 21 20 23 17 25
REMARK Flexibility Score: inf
ROOT
ATOM      1  C   UNL     1      41.980  10.419  36.724  1.00  0.00     0.138 A 
ATOM      2  C   UNL     1      42.261  10.225  35.361  1.00  0.00     0.100 A 
ATOM      3  C   UNL     1      42.440  11.334  34.532  1.00  0.00     0.197 A 
ATOM      4  O   UNL     1      42.693  11.149  33.311  1.00  0.00    -0.289 OA
ATOM      5  C   UNL     1      42.341  12.630  35.074  1.00  0.00     0.107 A 
ATOM      6  C   UNL     1      42.507  13.806  34.304  1.00  0.00     0.134 A 
ATOM      7  C   UNL     1      42.398  15.062  34.921  1.00  0.00     0.093 A 
ATOM      8  C   UNL     1      42.127  15.163  36.288  1.00  0.00     0.123 A 
ATOM      9  C   UNL     1      41.962  14.004  37.053  1.00  0.00     0.094 A 
ATOM     10  C   UNL     1      42.066  12.744  36.458  1.00  0.00     0.146 A 
ATOM     11  O   UNL     1      41.903  11.658  37.206  1.00  0.00    -0.456 OA
ENDROOT
BRANCH   1  12
ATOM     12  C   UNL     1      41.782   9.278  37.652  1.00  0.00     0.021 A 
ATOM     13  C   UNL     1      41.092   8.139  37.208  1.00  0.00     0.016 A 
ATOM     14  C   UNL     1      40.898   7.050  38.059  1.00  0.00     0.051 A 
ATOM     15  C   UNL     1      41.395   7.066  39.366  1.00  0.00     0.157 A 
ATOM     16  C   UNL     1      42.296   9.289  38.963  1.00  0.00     0.062 A 
ATOM     17  C   UNL     1      42.109   8.200  39.822  1.00  0.00     0.158 A 
BRANCH  15  18
ATOM     18  O   UNL     1      41.162   5.947  40.168  1.00  0.00    -0.504 OA
ATOM     19  H   UNL     1      40.669   5.123  39.858  1.00  0.00     0.293 HD
ENDBRANCH  15  18
BRANCH  17  20
ATOM     20  O   UNL     1      42.650   8.282  41.107  1.00  0.00    -0.504 OA
ATOM     21  H   UNL     1      43.253   7.580  41.512  1.00  0.00     0.293 HD
ENDBRANCH  17  20
ENDBRANCH   1  12
BRANCH   6  22
ATOM     22  O   UNL     1      42.779  13.737  32.938  1.00  0.00    -0.507 OA
ATOM     23  H   UNL     1      42.662  12.877  32.413  1.00  0.00     0.293 HD
ENDBRANCH   6  22
BRANCH   8  24
ATOM     24  O   UNL     1      42.024  16.423  36.875  1.00  0.00    -0.508 OA
ATOM     25  H   UNL     1      42.699  16.745  37.559  1.00  0.00     0.293 HD
ENDBRANCH   8  24
TORSDOF 5
ENDMDL
MODEL 8
REMARK VINA RESULT:    -5.192      3.993      7.537
REMARK INTER + INTRA:          -6.399
REMARK INTER:                  -6.135
REMARK INTRA:                  -0.264
REMARK UNBOUND:                -0.297
REMARK SMILES O=c1cc(-c2ccc(O)c(O)c2)oc2cc(O)cc(O)c12
REMARK SMILES IDX 4 1 3 2 2 3 1 4 21 5 19 6 18 7 16 8 15 9 14 10 13 11 5 12
REMARK SMILES IDX 6 13 7 14 8 15 12 16 10 17 9 18 11 20 20 22 17 24
REMARK H PARENT 9 19 11 21 20 23 17 25
REMARK Flexibility Score: inf
ROOT
ATOM      1  C   UNL     1      42.467  13.539  35.811  1.00  0.00     0.138 A 
ATOM      2  C   UNL     1      42.311  14.801  35.214  1.00  0.00     0.100 A 
ATOM      3  C   UNL     1      42.049  15.913  36.016  1.00  0.00     0.197 A 
ATOM      4  O   UNL     1      41.911  17.042  35.471  1.00  0.00    -0.289 OA
ATOM      5  C   UNL     1      41.947  15.754  37.412  1.00  0.00     0.107 A 
ATOM      6  C   UNL     1      41.683  16.828  38.296  1.00  0.00     0.134 A 
ATOM      7  C   UNL     1      41.602  16.587  39.677  1.00  0.00     0.093 A 
ATOM      8  C   UNL     1      41.782  15.299  40.187  1.00  0.00     0.123 A 
ATOM      9  C   UNL     1      42.044  14.235  39.317  1.00  0.00     0.094 A 
ATOM     10  C   UNL     1      42.127  14.453  37.939  1.00  0.00     0.146 A 
ATOM     11  O   UNL     1      42.375  13.426  37.134  1.00  0.00    -0.456 OA
ENDROOT
BRANCH   1  12
ATOM     12  C   UNL     1      42.749  12.323  35.008  1.00  0.00     0.021 A 
ATOM     13  C   UNL     1      41.784  11.306  34.933  1.00  0.00     0.016 A 
ATOM     14  C   UNL     1      42.022  10.156  34.180  1.00  0.00     0.051 A 
ATOM     15  C   UNL     1      43.219   9.997  33.476  1.00  0.00     0.157 A 
ATOM     16  C   UNL     1      43.949  12.171  34.288  1.00  0.00     0.062 A 
ATOM     17  C   UNL     1      44.194  11.022  33.527  1.00  0.00     0.158 A 
BRANCH  15  18
ATOM     18  O   UNL     1      43.398   8.821  32.745  1.00  0.00    -0.504 OA
ATOM     19  H   UNL     1      42.669   8.141  32.583  1.00  0.00     0.293 HD
ENDBRANCH  15  18
BRANCH  17  20
ATOM     20  O   UNL     1      45.406  10.943  32.837  1.00  0.00    -0.504 OA
ATOM     21  H   UNL     1      46.305  10.840  33.286  1.00  0.00     0.293 HD
ENDBRANCH  17  20
ENDBRANCH   1  12
BRANCH   6  22
ATOM     22  O   UNL     1      41.499  18.124  37.816  1.00  0.00    -0.507 OA
ATOM     23  H   UNL     1      41.464  18.326  36.823  1.00  0.00     0.293 HD
ENDBRANCH   6  22
BRANCH   8  24
ATOM     24  O   UNL     1      41.697  15.088  41.562  1.00  0.00    -0.508 OA
ATOM     25  H   UNL     1      42.526  15.051  42.144  1.00  0.00     0.293 HD
ENDBRANCH   8  24
TORSDOF 5
ENDMDL
MODEL 9
REMARK VINA RESULT:    -5.176      2.613      4.489
REMARK INTER + INTRA:          -6.381
REMARK INTER:                  -6.084
REMARK INTRA:                  -0.296
REMARK UNBOUND:                -0.297
REMARK SMILES O=c1cc(-c2ccc(O)c(O)c2)oc2cc(O)cc(O)c12
REMARK SMILES IDX 4 1 3 2 2 3 1 4 21 5 19 6 18 7 16 8 15 9 14 10 13 11 5 12
REMARK SMILES IDX 6 13 7 14 8 15 12 16 10 17 9 18 11 20 20 22 17 24
REMARK H PARENT 9 19 11 21 20 23 17 25
REMARK Flexibility Score: inf
ROOT
ATOM      1  C   UNL     1      42.095  11.324  36.663  1.00  0.00     0.138 A 
ATOM      2  C   UNL     1      42.750  11.969  35.602  1.00  0.00     0.100 A 
ATOM      3  C   UNL     1      43.019  11.263  34.429  1.00  0.00     0.197 A 
ATOM      4  O   UNL     1      43.607  11.851  33.481  1.00  0.00    -0.289 OA
ATOM      5  C   UNL     1      42.627   9.913  34.325  1.00  0.00     0.107 A 
ATOM      6  C   UNL     1      42.862   9.125  33.173  1.00  0.00     0.134 A 
ATOM      7  C   UNL     1      42.435   7.788  33.146  1.00  0.00     0.093 A 
ATOM      8  C   UNL     1      41.779   7.228  34.246  1.00  0.00     0.123 A 
ATOM      9  C   UNL     1      41.544   8.004  35.386  1.00  0.00     0.094 A 
ATOM     10  C   UNL     1      41.963   9.336  35.433  1.00  0.00     0.146 A 
ATOM     11  O   UNL     1      41.729  10.051  36.529  1.00  0.00    -0.456 OA
ENDROOT
BRANCH   1  12
ATOM     12  C   UNL     1      41.782  12.026  37.933  1.00  0.00     0.021 A 
ATOM     13  C   UNL     1      41.321  11.289  39.035  1.00  0.00     0.016 A 
ATOM     14  C   UNL     1      41.026  11.925  40.241  1.00  0.00     0.051 A 
ATOM     15  C   UNL     1      41.194  13.306  40.381  1.00  0.00     0.157 A 
ATOM     16  C   UNL     1      41.965  13.415  38.077  1.00  0.00     0.062 A 
ATOM     17  C   UNL     1      41.675  14.060  39.285  1.00  0.00     0.158 A 
BRANCH  15  18
ATOM     18  O   UNL     1      40.875  13.882  41.613  1.00  0.00    -0.504 OA
ATOM     19  H   UNL     1      40.333  14.727  41.718  1.00  0.00     0.293 HD
ENDBRANCH  15  18
BRANCH  17  20
ATOM     20  O   UNL     1      41.884  15.440  39.354  1.00  0.00    -0.504 OA
ATOM     21  H   UNL     1      42.188  15.924  40.186  1.00  0.00     0.293 HD
ENDBRANCH  17  20
ENDBRANCH   1  12
BRANCH   6  22
ATOM     22  O   UNL     1      43.514   9.657  32.060  1.00  0.00    -0.507 OA
ATOM     23  H   UNL     1      43.044   9.768  31.169  1.00  0.00     0.293 HD
ENDBRANCH   6  22
BRANCH   8  24
ATOM     24  O   UNL     1      41.365   5.899  34.193  1.00  0.00    -0.508 OA
ATOM     25  H   UNL     1      41.260   5.343  35.034  1.00  0.00     0.293 HD
ENDBRANCH   8  24
TORSDOF 5
ENDMDL
