MODEL 1
REMARK VINA RESULT:    -3.002      0.000      0.000
REMARK INTER + INTRA:          -3.619
REMARK INTER:                  -3.528
REMARK INTRA:                  -0.090
REMARK UNBOUND:                -0.090
REMARK SMILES CCCCC(=O)[O-]
REMARK SMILES IDX 4 1 5 2 6 3 7 4 3 5 2 6 1 7
REMARK H PARENT
REMARK Flexibility Score: inf
ROOT
ATOM      1  C   UNL     1      18.715 130.492  64.996  1.00  0.00     0.053 C 
ENDROOT
BRANCH   1   2
ATOM      2  C   UNL     1      19.154 131.716  64.257  1.00  0.00     0.041 C 
ATOM      3  O   UNL     1      19.906 131.614  63.252  1.00  0.00    -0.550 OA
ATOM      4  O   UNL     1      18.774 132.974  64.707  1.00  0.00    -0.550 OA
ENDBRANCH   1   2
BRANCH   1   5
ATOM      5  C   UNL     1      17.731 129.679  64.152  1.00  0.00     0.006 C 
BRANCH   5   6
ATOM      6  C   UNL     1      18.151 128.206  64.084  1.00  0.00    -0.003 C 
ATOM      7  C   UNL     1      19.667 128.068  63.992  1.00  0.00     0.004 C 
ENDBRANCH   5   6
ENDBRANCH   1   5
TORSDOF 3
ENDMDL
MODEL 2
REMARK VINA RESULT:    -2.955      1.105      1.437
REMARK INTER + INTRA:          -3.563
REMARK INTER:                  -3.487
REMARK INTRA:                  -0.077
REMARK UNBOUND:                -0.090
REMARK SMILES CCCCC(=O)[O-]
REMARK SMILES IDX 4 1 5 2 6 3 7 4 3 5 2 6 1 7
REMARK H PARENT
REMARK Flexibility Score: inf
ROOT
ATOM      1  C   UNL     1      18.860 130.635  64.228  1.00  0.00     0.053 C 
ENDROOT
BRANCH   1   2
ATOM      2  C   UNL     1      18.795 131.635  65.339  1.00  0.00     0.041 C 
ATOM      3  O   UNL     1      18.722 131.248  66.535  1.00  0.00    -0.550 OA
ATOM      4  O   UNL     1      18.764 132.993  65.052  1.00  0.00    -0.550 OA
ENDBRANCH   1   2
BRANCH   1   5
ATOM      5  C   UNL     1      17.737 129.605  64.366  1.00  0.00     0.006 C 
BRANCH   5   6
ATOM      6  C   UNL     1      18.259 128.185  64.116  1.00  0.00    -0.003 C 
ATOM      7  C   UNL     1      19.774 128.178  63.937  1.00  0.00     0.004 C 
ENDBRANCH   5   6
ENDBRANCH   1   5
TORSDOF 3
ENDMDL
MODEL 3
REMARK VINA RESULT:    -2.932      0.822      1.504
REMARK INTER + INTRA:          -3.537
REMARK INTER:                  -3.434
REMARK INTRA:                  -0.103
REMARK UNBOUND:                -0.090
REMARK SMILES CCCCC(=O)[O-]
REMARK SMILES IDX 4 1 5 2 6 3 7 4 3 5 2 6 1 7
REMARK H PARENT
REMARK Flexibility Score: inf
ROOT
ATOM      1  C   UNL     1      18.148 130.849  64.000  1.00  0.00     0.053 C 
ENDROOT
BRANCH   1   2
ATOM      2  C   UNL     1      19.069 131.980  63.664  1.00  0.00     0.041 C 
ATOM      3  O   UNL     1      18.735 133.166  63.922  1.00  0.00    -0.550 OA
ATOM      4  O   UNL     1      20.274 131.727  63.020  1.00  0.00    -0.550 OA
ENDBRANCH   1   2
BRANCH   1   5
ATOM      5  C   UNL     1      18.886 129.778  64.805  1.00  0.00     0.006 C 
BRANCH   5   6
ATOM      6  C   UNL     1      18.936 128.450  64.039  1.00  0.00    -0.003 C 
ATOM      7  C   UNL     1      20.362 128.111  63.617  1.00  0.00     0.004 C 
ENDBRANCH   5   6
ENDBRANCH   1   5
TORSDOF 3
ENDMDL
MODEL 4
REMARK VINA RESULT:    -2.844      2.600      3.800
REMARK INTER + INTRA:          -3.434
REMARK INTER:                  -3.406
REMARK INTRA:                  -0.028
REMARK UNBOUND:                -0.090
REMARK SMILES CCCCC(=O)[O-]
REMARK SMILES IDX 4 1 5 2 6 3 7 4 3 5 2 6 1 7
REMARK H PARENT
REMARK Flexibility Score: inf
ROOT
ATOM      1  C   UNL     1      19.249 130.044  64.079  1.00  0.00     0.053 C 
ENDROOT
BRANCH   1   2
ATOM      2  C   UNL     1      19.276 128.549  64.019  1.00  0.00     0.041 C 
ATOM      3  O   UNL     1      18.243 127.886  64.301  1.00  0.00    -0.550 OA
ATOM      4  O   UNL     1      20.454 127.887  63.699  1.00  0.00    -0.550 OA
ENDBRANCH   1   2
BRANCH   1   5
ATOM      5  C   UNL     1      18.144 130.524  65.022  1.00  0.00     0.006 C 
BRANCH   5   6
ATOM      6  C   UNL     1      18.676 131.576  66.002  1.00  0.00    -0.003 C 
ATOM      7  C   UNL     1      18.061 131.400  67.387  1.00  0.00     0.004 C 
ENDBRANCH   5   6
ENDBRANCH   1   5
TORSDOF 3
ENDMDL
MODEL 5
REMARK VINA RESULT:    -2.818      2.481      3.687
REMARK INTER + INTRA:          -3.402
REMARK INTER:                  -3.366
REMARK INTRA:                  -0.037
REMARK UNBOUND:                -0.090
REMARK SMILES CCCCC(=O)[O-]
REMARK SMILES IDX 4 1 5 2 6 3 7 4 3 5 2 6 1 7
REMARK H PARENT
REMARK Flexibility Score: inf
ROOT
ATOM      1  C   UNL     1      18.880 129.611  64.804  1.00  0.00     0.053 C 
ENDROOT
BRANCH   1   2
ATOM      2  C   UNL     1      19.232 128.411  63.982  1.00  0.00     0.041 C 
ATOM      3  O   UNL     1      20.420 128.226  63.609  1.00  0.00    -0.550 OA
ATOM      4  O   UNL     1      18.240 127.523  63.586  1.00  0.00    -0.550 OA
ENDBRANCH   1   2
BRANCH   1   5
ATOM      5  C   UNL     1      19.106 130.895  64.004  1.00  0.00     0.006 C 
BRANCH   5   6
ATOM      6  C   UNL     1      18.911 132.134  64.886  1.00  0.00    -0.003 C 
ATOM      7  C   UNL     1      18.560 131.743  66.318  1.00  0.00     0.004 C 
ENDBRANCH   5   6
ENDBRANCH   1   5
TORSDOF 3
ENDMDL
MODEL 6
REMARK VINA RESULT:    -2.780      2.163      2.804
REMARK INTER + INTRA:          -3.358
REMARK INTER:                  -3.316
REMARK INTRA:                  -0.042
REMARK UNBOUND:                -0.090
REMARK SMILES CCCCC(=O)[O-]
REMARK SMILES IDX 4 1 5 2 6 3 7 4 3 5 2 6 1 7
REMARK H PARENT
REMARK Flexibility Score: inf
ROOT
ATOM      1  C   UNL     1      19.269 131.969  63.402  1.00  0.00     0.053 C 
ENDROOT
BRANCH   1   2
ATOM      2  C   UNL     1      20.396 132.095  62.425  1.00  0.00     0.041 C 
ATOM      3  O   UNL     1      21.447 131.420  62.581  1.00  0.00    -0.550 OA
ATOM      4  O   UNL     1      20.305 132.995  61.371  1.00  0.00    -0.550 OA
ENDBRANCH   1   2
BRANCH   1   5
ATOM      5  C   UNL     1      19.226 130.558  63.992  1.00  0.00     0.006 C 
BRANCH   5   6
ATOM      6  C   UNL     1      18.361 130.517  65.258  1.00  0.00    -0.003 C 
ATOM      7  C   UNL     1      18.692 131.680  66.189  1.00  0.00     0.004 C 
ENDBRANCH   5   6
ENDBRANCH   1   5
TORSDOF 3
ENDMDL
MODEL 7
REMARK VINA RESULT:    -2.741      2.537      3.573
REMARK INTER + INTRA:          -3.312
REMARK INTER:                  -3.245
REMARK INTRA:                  -0.067
REMARK UNBOUND:                -0.090
REMARK SMILES CCCCC(=O)[O-]
REMARK SMILES IDX 4 1 5 2 6 3 7 4 3 5 2 6 1 7
REMARK H PARENT
REMARK Flexibility Score: inf
ROOT
ATOM      1  C   UNL     1      18.881 129.862  64.396  1.00  0.00     0.053 C 
ENDROOT
BRANCH   1   2
ATOM      2  C   UNL     1      17.761 128.869  64.373  1.00  0.00     0.041 C 
ATOM      3  O   UNL     1      17.864 127.814  63.695  1.00  0.00    -0.550 OA
ATOM      4  O   UNL     1      16.584 129.133  65.062  1.00  0.00    -0.550 OA
ENDBRANCH   1   2
BRANCH   1   5
ATOM      5  C   UNL     1      18.585 130.982  65.396  1.00  0.00     0.006 C 
BRANCH   5   6
ATOM      6  C   UNL     1      18.839 132.359  64.771  1.00  0.00    -0.003 C 
ATOM      7  C   UNL     1      19.308 132.230  63.326  1.00  0.00     0.004 C 
ENDBRANCH   5   6
ENDBRANCH   1   5
TORSDOF 3
ENDMDL
MODEL 8
REMARK VINA RESULT:    -2.716      2.611      3.132
REMARK INTER + INTRA:          -3.283
REMARK INTER:                  -3.227
REMARK INTRA:                  -0.056
REMARK UNBOUND:                -0.090
REMARK SMILES CCCCC(=O)[O-]
REMARK SMILES IDX 4 1 5 2 6 3 7 4 3 5 2 6 1 7
REMARK H PARENT
REMARK Flexibility Score: inf
ROOT
ATOM      1  C   UNL     1      17.301 130.048  64.220  1.00  0.00     0.053 C 
ENDROOT
BRANCH   1   2
ATOM      2  C   UNL     1      16.509 129.802  65.466  1.00  0.00     0.041 C 
ATOM      3  O   UNL     1      16.510 130.652  66.395  1.00  0.00    -0.550 OA
ATOM      4  O   UNL     1      15.810 128.612  65.621  1.00  0.00    -0.550 OA
ENDBRANCH   1   2
BRANCH   1   5
ATOM      5  C   UNL     1      18.774 129.698  64.443  1.00  0.00     0.006 C 
BRANCH   5   6
ATOM      6  C   UNL     1      19.042 128.221  64.130  1.00  0.00    -0.003 C 
ATOM      7  C   UNL     1      20.465 128.014  63.621  1.00  0.00     0.004 C 
ENDBRANCH   5   6
ENDBRANCH   1   5
TORSDOF 3
ENDMDL
MODEL 9
REMARK VINA RESULT:    -2.640      2.068      3.231
REMARK INTER + INTRA:          -3.194
REMARK INTER:                  -3.173
REMARK INTRA:                  -0.021
REMARK UNBOUND:                -0.090
REMARK SMILES CCCCC(=O)[O-]
REMARK SMILES IDX 4 1 5 2 6 3 7 4 3 5 2 6 1 7
REMARK H PARENT
REMARK Flexibility Score: inf
ROOT
ATOM      1  C   UNL     1      18.599 131.278  64.447  1.00  0.00     0.053 C 
ENDROOT
BRANCH   1   2
ATOM      2  C   UNL     1      19.381 132.041  63.425  1.00  0.00     0.041 C 
ATOM      3  O   UNL     1      18.930 133.120  62.959  1.00  0.00    -0.550 OA
ATOM      4  O   UNL     1      20.585 131.536  62.951  1.00  0.00    -0.550 OA
ENDBRANCH   1   2
BRANCH   1   5
ATOM      5  C   UNL     1      18.717 131.943  65.820  1.00  0.00     0.006 C 
BRANCH   5   6
ATOM      6  C   UNL     1      17.472 131.672  66.672  1.00  0.00    -0.003 C 
ATOM      7  C   UNL     1      17.846 131.396  68.125  1.00  0.00     0.004 C 
ENDBRANCH   5   6
ENDBRANCH   1   5
TORSDOF 3
ENDMDL
