MODEL 1
REMARK VINA RESULT:    -4.567      0.000      0.000
REMARK INTER + INTRA:          -5.285
REMARK INTER:                  -5.235
REMARK INTRA:                  -0.051
REMARK UNBOUND:                -0.051
REMARK SMILES O=C([O-])c1cc(O)c(O)c(O)c1
REMARK SMILES IDX 4 1 5 2 12 3 6 4 10 5 8 6 2 7 1 8 3 9 7 10 11 12 9 14
REMARK H PARENT 7 11 11 13 9 15
REMARK Flexibility Score: inf
ROOT
ATOM      1  C   UNL     1      12.340  -9.686  11.972  1.00  0.00     0.005 A 
ATOM      2  C   UNL     1      13.190  -9.387  13.049  1.00  0.00     0.060 A 
ATOM      3  C   UNL     1      10.975  -9.910  12.221  1.00  0.00     0.060 A 
ATOM      4  C   UNL     1      12.687  -9.312  14.355  1.00  0.00     0.162 A 
ATOM      5  C   UNL     1      10.466  -9.837  13.522  1.00  0.00     0.162 A 
ATOM      6  C   UNL     1      11.321  -9.538  14.596  1.00  0.00     0.200 A 
ENDROOT
BRANCH   1   7
ATOM      7  C   UNL     1      12.877  -9.764  10.595  1.00  0.00     0.072 C 
ATOM      8  O   UNL     1      14.068 -10.121  10.390  1.00  0.00    -0.545 OA
ATOM      9  O   UNL     1      12.074  -9.445   9.506  1.00  0.00    -0.545 OA
ENDBRANCH   1   7
BRANCH   4  10
ATOM     10  O   UNL     1      13.541  -9.014  15.416  1.00  0.00    -0.504 OA
ATOM     11  H   UNL     1      13.629  -9.630  16.217  1.00  0.00     0.293 HD
ENDBRANCH   4  10
BRANCH   5  12
ATOM     12  O   UNL     1       9.105 -10.067  13.727  1.00  0.00    -0.504 OA
ATOM     13  H   UNL     1       8.452 -10.153  12.959  1.00  0.00     0.293 HD
ENDBRANCH   5  12
BRANCH   6  14
ATOM     14  O   UNL     1      10.805  -9.467  15.890  1.00  0.00    -0.502 OA
ATOM     15  H   UNL     1      11.217  -9.973  16.665  1.00  0.00     0.293 HD
ENDBRANCH   6  14
TORSDOF 4
ENDMDL
MODEL 2
REMARK VINA RESULT:    -4.560      0.070      2.430
REMARK INTER + INTRA:          -5.277
REMARK INTER:                  -5.227
REMARK INTRA:                  -0.050
REMARK UNBOUND:                -0.051
REMARK SMILES O=C([O-])c1cc(O)c(O)c(O)c1
REMARK SMILES IDX 4 1 5 2 12 3 6 4 10 5 8 6 2 7 1 8 3 9 7 10 11 12 9 14
REMARK H PARENT 7 11 11 13 9 15
REMARK Flexibility Score: inf
ROOT
ATOM      1  C   UNL     1      12.296  -9.669  11.951  1.00  0.00     0.005 A 
ATOM      2  C   UNL     1      10.938  -9.919  12.207  1.00  0.00     0.060 A 
ATOM      3  C   UNL     1      13.150  -9.372  13.028  1.00  0.00     0.060 A 
ATOM      4  C   UNL     1      10.438  -9.875  13.516  1.00  0.00     0.162 A 
ATOM      5  C   UNL     1      12.658  -9.325  14.336  1.00  0.00     0.162 A 
ATOM      6  C   UNL     1      11.298  -9.576  14.586  1.00  0.00     0.200 A 
ENDROOT
BRANCH   1   7
ATOM      7  C   UNL     1      12.817  -9.718  10.567  1.00  0.00     0.072 C 
ATOM      8  O   UNL     1      13.987 -10.125  10.336  1.00  0.00    -0.545 OA
ATOM      9  O   UNL     1      12.021  -9.316   9.500  1.00  0.00    -0.545 OA
ENDBRANCH   1   7
BRANCH   4  10
ATOM     10  O   UNL     1       9.087 -10.125  13.757  1.00  0.00    -0.504 OA
ATOM     11  H   UNL     1       8.658  -9.909  14.649  1.00  0.00     0.293 HD
ENDBRANCH   4  10
BRANCH   5  12
ATOM     12  O   UNL     1      13.538  -9.026  15.377  1.00  0.00    -0.504 OA
ATOM     13  H   UNL     1      14.504  -9.332  15.370  1.00  0.00     0.293 HD
ENDBRANCH   5  12
BRANCH   6  14
ATOM     14  O   UNL     1      10.817  -9.528  15.894  1.00  0.00    -0.502 OA
ATOM     15  H   UNL     1      10.055 -10.115  16.212  1.00  0.00     0.293 HD
ENDBRANCH   6  14
TORSDOF 4
ENDMDL
MODEL 3
REMARK VINA RESULT:    -3.985      1.660      4.916
REMARK INTER + INTRA:          -4.618
REMARK INTER:                  -4.571
REMARK INTRA:                  -0.047
REMARK UNBOUND:                -0.051
REMARK SMILES O=C([O-])c1cc(O)c(O)c(O)c1
REMARK SMILES IDX 4 1 5 2 12 3 6 4 10 5 8 6 2 7 1 8 3 9 7 10 11 12 9 14
REMARK H PARENT 7 11 11 13 9 15
REMARK Flexibility Score: inf
ROOT
ATOM      1  C   UNL     1      11.776  -9.491  15.620  1.00  0.00     0.005 A 
ATOM      2  C   UNL     1      10.507  -9.721  15.065  1.00  0.00     0.060 A 
ATOM      3  C   UNL     1      12.888  -9.398  14.765  1.00  0.00     0.060 A 
ATOM      4  C   UNL     1      10.347  -9.855  13.679  1.00  0.00     0.162 A 
ATOM      5  C   UNL     1      12.737  -9.531  13.381  1.00  0.00     0.162 A 
ATOM      6  C   UNL     1      11.464  -9.762  12.832  1.00  0.00     0.200 A 
ENDROOT
BRANCH   1   7
ATOM      7  C   UNL     1      11.937  -9.350  17.084  1.00  0.00     0.072 C 
ATOM      8  O   UNL     1      12.698 -10.125  17.724  1.00  0.00    -0.545 OA
ATOM      9  O   UNL     1      11.252  -8.358  17.776  1.00  0.00    -0.545 OA
ENDBRANCH   1   7
BRANCH   4  10
ATOM     10  O   UNL     1       9.081 -10.083  13.140  1.00  0.00    -0.504 OA
ATOM     11  H   UNL     1       8.928 -10.115  12.139  1.00  0.00     0.293 HD
ENDBRANCH   4  10
BRANCH   5  12
ATOM     12  O   UNL     1      13.866  -9.434  12.567  1.00  0.00    -0.504 OA
ATOM     13  H   UNL     1      13.797  -9.292  11.567  1.00  0.00     0.293 HD
ENDBRANCH   5  12
BRANCH   6  14
ATOM     14  O   UNL     1      11.323  -9.893  11.450  1.00  0.00    -0.502 OA
ATOM     15  H   UNL     1      11.405  -9.104  10.821  1.00  0.00     0.293 HD
ENDBRANCH   6  14
TORSDOF 4
ENDMDL
MODEL 4
REMARK VINA RESULT:    -3.966      1.669      4.358
REMARK INTER + INTRA:          -4.596
REMARK INTER:                  -4.549
REMARK INTRA:                  -0.047
REMARK UNBOUND:                -0.051
REMARK SMILES O=C([O-])c1cc(O)c(O)c(O)c1
REMARK SMILES IDX 4 1 5 2 12 3 6 4 10 5 8 6 2 7 1 8 3 9 7 10 11 12 9 14
REMARK H PARENT 7 11 11 13 9 15
REMARK Flexibility Score: inf
ROOT
ATOM      1  C   UNL     1      11.791  -9.529  15.642  1.00  0.00     0.005 A 
ATOM      2  C   UNL     1      12.901  -9.482  14.783  1.00  0.00     0.060 A 
ATOM      3  C   UNL     1      10.511  -9.727  15.094  1.00  0.00     0.060 A 
ATOM      4  C   UNL     1      12.739  -9.631  13.398  1.00  0.00     0.162 A 
ATOM      5  C   UNL     1      10.342  -9.876  13.714  1.00  0.00     0.162 A 
ATOM      6  C   UNL     1      11.456  -9.827  12.859  1.00  0.00     0.200 A 
ENDROOT
BRANCH   1   7
ATOM      7  C   UNL     1      11.969  -9.371  17.102  1.00  0.00     0.072 C 
ATOM      8  O   UNL     1      12.753 -10.125  17.738  1.00  0.00    -0.545 OA
ATOM      9  O   UNL     1      11.274  -8.385  17.794  1.00  0.00    -0.545 OA
ENDBRANCH   1   7
BRANCH   4  10
ATOM     10  O   UNL     1      13.849  -9.582  12.556  1.00  0.00    -0.504 OA
ATOM     11  H   UNL     1      14.572  -8.881  12.670  1.00  0.00     0.293 HD
ENDBRANCH   4  10
BRANCH   5  12
ATOM     12  O   UNL     1       9.056 -10.070  13.210  1.00  0.00    -0.504 OA
ATOM     13  H   UNL     1       8.523  -9.318  12.789  1.00  0.00     0.293 HD
ENDBRANCH   5  12
BRANCH   6  14
ATOM     14  O   UNL     1      11.277  -9.977  11.484  1.00  0.00    -0.502 OA
ATOM     15  H   UNL     1      10.361 -10.087  11.066  1.00  0.00     0.293 HD
ENDBRANCH   6  14
TORSDOF 4
ENDMDL
MODEL 5
REMARK VINA RESULT:    -3.886      1.865      3.715
REMARK INTER + INTRA:          -4.505
REMARK INTER:                  -4.460
REMARK INTRA:                  -0.045
REMARK UNBOUND:                -0.051
REMARK SMILES O=C([O-])c1cc(O)c(O)c(O)c1
REMARK SMILES IDX 4 1 5 2 12 3 6 4 10 5 8 6 2 7 1 8 3 9 7 10 11 12 9 14
REMARK H PARENT 7 11 11 13 9 15
REMARK Flexibility Score: inf
ROOT
ATOM      1  C   UNL     1      10.261  -9.163  13.934  1.00  0.00     0.005 A 
ATOM      2  C   UNL     1      11.394  -9.363  13.127  1.00  0.00     0.060 A 
ATOM      3  C   UNL     1      10.428  -9.037  15.324  1.00  0.00     0.060 A 
ATOM      4  C   UNL     1      12.673  -9.434  13.697  1.00  0.00     0.162 A 
ATOM      5  C   UNL     1      11.701  -9.107  15.900  1.00  0.00     0.162 A 
ATOM      6  C   UNL     1      12.829  -9.308  15.088  1.00  0.00     0.200 A 
ENDROOT
BRANCH   1   7
ATOM      7  C   UNL     1       8.914  -9.089  13.326  1.00  0.00     0.072 C 
ATOM      8  O   UNL     1       8.356 -10.125  12.875  1.00  0.00    -0.545 OA
ATOM      9  O   UNL     1       8.244  -7.874  13.246  1.00  0.00    -0.545 OA
ENDBRANCH   1   7
BRANCH   4  10
ATOM     10  O   UNL     1      13.789  -9.633  12.885  1.00  0.00    -0.504 OA
ATOM     11  H   UNL     1      13.739  -9.525  11.879  1.00  0.00     0.293 HD
ENDBRANCH   4  10
BRANCH   5  12
ATOM     12  O   UNL     1      11.823  -8.977  17.283  1.00  0.00    -0.504 OA
ATOM     13  H   UNL     1      12.642  -8.567  17.715  1.00  0.00     0.293 HD
ENDBRANCH   5  12
BRANCH   6  14
ATOM     14  O   UNL     1      14.095  -9.376  15.670  1.00  0.00    -0.502 OA
ATOM     15  H   UNL     1      14.294  -8.976  16.579  1.00  0.00     0.293 HD
ENDBRANCH   6  14
TORSDOF 4
ENDMDL
MODEL 6
REMARK VINA RESULT:    -3.824      2.058      3.801
REMARK INTER + INTRA:          -4.433
REMARK INTER:                  -4.389
REMARK INTRA:                  -0.045
REMARK UNBOUND:                -0.051
REMARK SMILES O=C([O-])c1cc(O)c(O)c(O)c1
REMARK SMILES IDX 4 1 5 2 12 3 6 4 10 5 8 6 2 7 1 8 3 9 7 10 11 12 9 14
REMARK H PARENT 7 11 11 13 9 15
REMARK Flexibility Score: inf
ROOT
ATOM      1  C   UNL     1      10.266  -9.273  14.062  1.00  0.00     0.005 A 
ATOM      2  C   UNL     1      10.325  -9.589  15.429  1.00  0.00     0.060 A 
ATOM      3  C   UNL     1      11.466  -9.101  13.349  1.00  0.00     0.060 A 
ATOM      4  C   UNL     1      11.560  -9.733  16.076  1.00  0.00     0.162 A 
ATOM      5  C   UNL     1      12.702  -9.242  13.988  1.00  0.00     0.162 A 
ATOM      6  C   UNL     1      12.754  -9.558  15.357  1.00  0.00     0.200 A 
ENDROOT
BRANCH   1   7
ATOM      7  C   UNL     1       8.960  -9.123  13.385  1.00  0.00     0.072 C 
ATOM      8  O   UNL     1       8.370 -10.125  12.898  1.00  0.00    -0.545 OA
ATOM      9  O   UNL     1       8.361  -7.873  13.277  1.00  0.00    -0.545 OA
ENDBRANCH   1   7
BRANCH   4  10
ATOM     10  O   UNL     1      11.605 -10.047  17.434  1.00  0.00    -0.504 OA
ATOM     11  H   UNL     1      12.353  -9.716  18.032  1.00  0.00     0.293 HD
ENDBRANCH   4  10
BRANCH   5  12
ATOM     12  O   UNL     1      13.870  -9.062  13.246  1.00  0.00    -0.504 OA
ATOM     13  H   UNL     1      14.118  -9.673  12.478  1.00  0.00     0.293 HD
ENDBRANCH   5  12
BRANCH   6  14
ATOM     14  O   UNL     1      13.991  -9.697  15.986  1.00  0.00    -0.502 OA
ATOM     15  H   UNL     1      14.475  -8.913  16.407  1.00  0.00     0.293 HD
ENDBRANCH   6  14
TORSDOF 4
ENDMDL
MODEL 7
REMARK VINA RESULT:    -3.430      1.162      4.217
REMARK INTER + INTRA:          -3.982
REMARK INTER:                  -3.929
REMARK INTRA:                  -0.053
REMARK UNBOUND:                -0.051
REMARK SMILES O=C([O-])c1cc(O)c(O)c(O)c1
REMARK SMILES IDX 4 1 5 2 12 3 6 4 10 5 8 6 2 7 1 8 3 9 7 10 11 12 9 14
REMARK H PARENT 7 11 11 13 9 15
REMARK Flexibility Score: inf
ROOT
ATOM      1  C   UNL     1      11.866  -9.666  13.335  1.00  0.00     0.005 A 
ATOM      2  C   UNL     1      13.235  -9.383  13.200  1.00  0.00     0.060 A 
ATOM      3  C   UNL     1      11.103  -9.912  12.180  1.00  0.00     0.060 A 
ATOM      4  C   UNL     1      13.835  -9.346  11.934  1.00  0.00     0.162 A 
ATOM      5  C   UNL     1      11.694  -9.876  10.913  1.00  0.00     0.162 A 
ATOM      6  C   UNL     1      13.065  -9.592  10.785  1.00  0.00     0.200 A 
ENDROOT
BRANCH   1   7
ATOM      7  C   UNL     1      11.238  -9.703  14.674  1.00  0.00     0.072 C 
ATOM      8  O   UNL     1      10.011  -9.957  14.801  1.00  0.00    -0.545 OA
ATOM      9  O   UNL     1      11.996  -9.461  15.814  1.00  0.00    -0.545 OA
ENDBRANCH   1   7
BRANCH   4  10
ATOM     10  O   UNL     1      15.195  -9.064  11.814  1.00  0.00    -0.504 OA
ATOM     11  H   UNL     1      15.732  -9.370  11.011  1.00  0.00     0.293 HD
ENDBRANCH   4  10
BRANCH   5  12
ATOM     12  O   UNL     1      10.903 -10.125   9.791  1.00  0.00    -0.504 OA
ATOM     13  H   UNL     1       9.919 -10.351   9.867  1.00  0.00     0.293 HD
ENDBRANCH   5  12
BRANCH   6  14
ATOM     14  O   UNL     1      13.647  -9.559   9.517  1.00  0.00    -0.502 OA
ATOM     15  H   UNL     1      14.125 -10.359   9.121  1.00  0.00     0.293 HD
ENDBRANCH   6  14
TORSDOF 4
ENDMDL
MODEL 8
REMARK VINA RESULT:    -3.134      1.128      4.870
REMARK INTER + INTRA:          -3.643
REMARK INTER:                  -3.590
REMARK INTRA:                  -0.052
REMARK UNBOUND:                -0.051
REMARK SMILES O=C([O-])c1cc(O)c(O)c(O)c1
REMARK SMILES IDX 4 1 5 2 12 3 6 4 10 5 8 6 2 7 1 8 3 9 7 10 11 12 9 14
REMARK H PARENT 7 11 11 13 9 15
REMARK Flexibility Score: inf
ROOT
ATOM      1  C   UNL     1      11.741  -9.836  13.238  1.00  0.00     0.005 A 
ATOM      2  C   UNL     1      10.944  -9.862  12.083  1.00  0.00     0.060 A 
ATOM      3  C   UNL     1      13.139  -9.908  13.104  1.00  0.00     0.060 A 
ATOM      4  C   UNL     1      11.529  -9.956  10.813  1.00  0.00     0.162 A 
ATOM      5  C   UNL     1      13.731 -10.003  11.840  1.00  0.00     0.162 A 
ATOM      6  C   UNL     1      12.927 -10.028  10.688  1.00  0.00     0.200 A 
ENDROOT
BRANCH   1   7
ATOM      7  C   UNL     1      11.117  -9.736  14.576  1.00  0.00     0.072 C 
ATOM      8  O   UNL     1       9.879  -9.920  14.722  1.00  0.00    -0.545 OA
ATOM      9  O   UNL     1      11.889  -9.440  15.693  1.00  0.00    -0.545 OA
ENDBRANCH   1   7
BRANCH   4  10
ATOM     10  O   UNL     1      10.726  -9.981   9.673  1.00  0.00    -0.504 OA
ATOM     11  H   UNL     1      10.462 -10.852   9.228  1.00  0.00     0.293 HD
ENDBRANCH   4  10
BRANCH   5  12
ATOM     12  O   UNL     1      15.121 -10.072  11.750  1.00  0.00    -0.504 OA
ATOM     13  H   UNL     1      15.655  -9.434  11.173  1.00  0.00     0.293 HD
ENDBRANCH   5  12
BRANCH   6  14
ATOM     14  O   UNL     1      13.525 -10.123   9.431  1.00  0.00    -0.502 OA
ATOM     15  H   UNL     1      14.071  -9.368   9.034  1.00  0.00     0.293 HD
ENDBRANCH   6  14
TORSDOF 4
ENDMDL
MODEL 9
REMARK VINA RESULT:    -2.234      1.048      3.812
REMARK INTER + INTRA:          -2.611
REMARK INTER:                  -2.559
REMARK INTRA:                  -0.052
REMARK UNBOUND:                -0.051
REMARK SMILES O=C([O-])c1cc(O)c(O)c(O)c1
REMARK SMILES IDX 4 1 5 2 12 3 6 4 10 5 8 6 2 7 1 8 3 9 7 10 11 12 9 14
REMARK H PARENT 7 11 11 13 9 15
REMARK Flexibility Score: inf
ROOT
ATOM      1  C   UNL     1      10.666  -9.628  13.139  1.00  0.00     0.005 A 
ATOM      2  C   UNL     1      11.625  -9.208  14.075  1.00  0.00     0.060 A 
ATOM      3  C   UNL     1      11.077  -9.930  11.829  1.00  0.00     0.060 A 
ATOM      4  C   UNL     1      12.974  -9.091  13.711  1.00  0.00     0.162 A 
ATOM      5  C   UNL     1      12.421  -9.816  11.459  1.00  0.00     0.162 A 
ATOM      6  C   UNL     1      13.376  -9.394  12.400  1.00  0.00     0.200 A 
ENDROOT
BRANCH   1   7
ATOM      7  C   UNL     1       9.243  -9.749  13.529  1.00  0.00     0.072 C 
ATOM      8  O   UNL     1       8.920  -9.893  14.738  1.00  0.00    -0.545 OA
ATOM      9  O   UNL     1       8.243  -9.704  12.565  1.00  0.00    -0.545 OA
ENDBRANCH   1   7
BRANCH   4  10
ATOM     10  O   UNL     1      13.916  -8.673  14.650  1.00  0.00    -0.504 OA
ATOM     11  H   UNL     1      14.379  -9.331  15.268  1.00  0.00     0.293 HD
ENDBRANCH   4  10
BRANCH   5  12
ATOM     12  O   UNL     1      12.788 -10.124  10.149  1.00  0.00    -0.504 OA
ATOM     13  H   UNL     1      13.281  -9.466   9.559  1.00  0.00     0.293 HD
ENDBRANCH   5  12
BRANCH   6  14
ATOM     14  O   UNL     1      14.714  -9.283  12.022  1.00  0.00    -0.502 OA
ATOM     15  H   UNL     1      15.138  -9.905  11.344  1.00  0.00     0.293 HD
ENDBRANCH   6  14
TORSDOF 4
ENDMDL
