MODEL 1
REMARK VINA RESULT:    -6.732      0.000      0.000
REMARK INTER + INTRA:          -7.354
REMARK INTER:                  -7.126
REMARK INTRA:                  -0.229
REMARK UNBOUND:                -0.229
REMARK SMILES O=c1cc(-c2ccccc2)oc2ccccc12
REMARK SMILES IDX 4 1 3 2 2 3 1 4 17 5 16 6 15 7 14 8 13 9 12 10 11 11 5 12
REMARK SMILES IDX 8 13 7 14 9 15 6 16 10 17
REMARK H PARENT
REMARK Flexibility Score: inf
ROOT
ATOM      1  C   UNL     1      -2.967  40.241   2.284  1.00  0.00     0.138 A 
ATOM      2  C   UNL     1      -1.670  40.745   2.514  1.00  0.00     0.100 A 
ATOM      3  C   UNL     1      -0.840  41.032   1.429  1.00  0.00     0.193 A 
ATOM      4  O   UNL     1       0.320  41.482   1.634  1.00  0.00    -0.289 OA
ATOM      5  C   UNL     1      -1.309  40.816   0.125  1.00  0.00     0.065 A 
ATOM      6  C   UNL     1      -0.524  41.084  -1.012  1.00  0.00     0.016 A 
ATOM      7  C   UNL     1      -1.041  40.850  -2.290  1.00  0.00     0.001 A 
ATOM      8  C   UNL     1      -2.337  40.348  -2.443  1.00  0.00     0.004 A 
ATOM      9  C   UNL     1      -3.123  40.079  -1.319  1.00  0.00     0.048 A 
ATOM     10  C   UNL     1      -2.616  40.310  -0.036  1.00  0.00     0.138 A 
ATOM     11  O   UNL     1      -3.371  40.051   1.027  1.00  0.00    -0.456 OA
ENDROOT
BRANCH   1  12
ATOM     12  C   UNL     1      -3.920  39.908   3.388  1.00  0.00     0.017 A 
ATOM     13  C   UNL     1      -5.724  39.372   5.492  1.00  0.00     0.000 A 
ATOM     14  C   UNL     1      -5.213  38.325   4.725  1.00  0.00     0.001 A 
ATOM     15  C   UNL     1      -5.341  40.685   5.217  1.00  0.00     0.001 A 
ATOM     16  C   UNL     1      -4.319  38.584   3.682  1.00  0.00     0.012 A 
ATOM     17  C   UNL     1      -4.448  40.952   4.175  1.00  0.00     0.012 A 
ENDBRANCH   1  12
TORSDOF 1
ENDMDL
MODEL 2
REMARK VINA RESULT:    -6.652      1.205      2.402
REMARK INTER + INTRA:          -7.269
REMARK INTER:                  -7.038
REMARK INTRA:                  -0.231
REMARK UNBOUND:                -0.229
REMARK SMILES O=c1cc(-c2ccccc2)oc2ccccc12
REMARK SMILES IDX 4 1 3 2 2 3 1 4 17 5 16 6 15 7 14 8 13 9 12 10 11 11 5 12
REMARK SMILES IDX 8 13 7 14 9 15 6 16 10 17
REMARK H PARENT
REMARK Flexibility Score: inf
ROOT
ATOM      1  C   UNL     1      -3.798  40.105   2.276  1.00  0.00     0.138 A 
ATOM      2  C   UNL     1      -4.333  39.895   0.989  1.00  0.00     0.100 A 
ATOM      3  C   UNL     1      -3.551  40.166  -0.136  1.00  0.00     0.193 A 
ATOM      4  O   UNL     1      -4.029  39.978  -1.287  1.00  0.00    -0.289 OA
ATOM      5  C   UNL     1      -2.243  40.644   0.033  1.00  0.00     0.065 A 
ATOM      6  C   UNL     1      -1.402  40.938  -1.057  1.00  0.00     0.016 A 
ATOM      7  C   UNL     1      -0.106  41.412  -0.832  1.00  0.00     0.001 A 
ATOM      8  C   UNL     1       0.359  41.597   0.473  1.00  0.00     0.004 A 
ATOM      9  C   UNL     1      -0.470  41.308   1.561  1.00  0.00     0.048 A 
ATOM     10  C   UNL     1      -1.769  40.832   1.348  1.00  0.00     0.138 A 
ATOM     11  O   UNL     1      -2.549  40.561   2.389  1.00  0.00    -0.456 OA
ENDROOT
BRANCH   1  12
ATOM     12  C   UNL     1      -4.567  39.840   3.532  1.00  0.00     0.017 A 
ATOM     13  C   UNL     1      -6.015  39.433   5.920  1.00  0.00     0.000 A 
ATOM     14  C   UNL     1      -5.719  38.352   5.090  1.00  0.00     0.001 A 
ATOM     15  C   UNL     1      -5.594  40.715   5.568  1.00  0.00     0.001 A 
ATOM     16  C   UNL     1      -5.002  38.547   3.905  1.00  0.00     0.012 A 
ATOM     17  C   UNL     1      -4.877  40.919   4.385  1.00  0.00     0.012 A 
ENDBRANCH   1  12
TORSDOF 1
ENDMDL
MODEL 3
REMARK VINA RESULT:    -6.626     18.920     20.740
REMARK INTER + INTRA:          -7.242
REMARK INTER:                  -7.014
REMARK INTRA:                  -0.228
REMARK UNBOUND:                -0.229
REMARK SMILES O=c1cc(-c2ccccc2)oc2ccccc12
REMARK SMILES IDX 4 1 3 2 2 3 1 4 17 5 16 6 15 7 14 8 13 9 12 10 11 11 5 12
REMARK SMILES IDX 8 13 7 14 9 15 6 16 10 17
REMARK H PARENT
REMARK Flexibility Score: inf
ROOT
ATOM      1  C   UNL     1       6.162  27.281  13.875  1.00  0.00     0.138 A 
ATOM      2  C   UNL     1       5.676  27.602  12.591  1.00  0.00     0.100 A 
ATOM      3  C   UNL     1       4.938  26.655  11.877  1.00  0.00     0.193 A 
ATOM      4  O   UNL     1       4.504  26.942  10.729  1.00  0.00    -0.289 OA
ATOM      5  C   UNL     1       4.691  25.399  12.449  1.00  0.00     0.065 A 
ATOM      6  C   UNL     1       3.955  24.401  11.784  1.00  0.00     0.016 A 
ATOM      7  C   UNL     1       3.738  23.164  12.400  1.00  0.00     0.001 A 
ATOM      8  C   UNL     1       4.251  22.915  13.676  1.00  0.00     0.004 A 
ATOM      9  C   UNL     1       4.983  23.901  14.344  1.00  0.00     0.048 A 
ATOM     10  C   UNL     1       5.206  25.142  13.737  1.00  0.00     0.138 A 
ATOM     11  O   UNL     1       5.903  26.073  14.380  1.00  0.00    -0.456 OA
ENDROOT
BRANCH   1  12
ATOM     12  C   UNL     1       6.960  28.235  14.707  1.00  0.00     0.017 A 
ATOM     13  C   UNL     1       8.542  29.979  16.263  1.00  0.00     0.000 A 
ATOM     14  C   UNL     1       7.199  30.275  16.030  1.00  0.00     0.001 A 
ATOM     15  C   UNL     1       9.102  28.820  15.726  1.00  0.00     0.001 A 
ATOM     16  C   UNL     1       6.410  29.415  15.260  1.00  0.00     0.012 A 
ATOM     17  C   UNL     1       8.320  27.955  14.954  1.00  0.00     0.012 A 
ENDBRANCH   1  12
TORSDOF 1
ENDMDL
MODEL 4
REMARK VINA RESULT:    -6.432      1.466      6.220
REMARK INTER + INTRA:          -7.036
REMARK INTER:                  -6.779
REMARK INTRA:                  -0.257
REMARK UNBOUND:                -0.229
REMARK SMILES O=c1cc(-c2ccccc2)oc2ccccc12
REMARK SMILES IDX 4 1 3 2 2 3 1 4 17 5 16 6 15 7 14 8 13 9 12 10 11 11 5 12
REMARK SMILES IDX 8 13 7 14 9 15 6 16 10 17
REMARK H PARENT
REMARK Flexibility Score: inf
ROOT
ATOM      1  C   UNL     1      -3.171  39.931   1.309  1.00  0.00     0.138 A 
ATOM      2  C   UNL     1      -4.099  39.030   0.749  1.00  0.00     0.100 A 
ATOM      3  C   UNL     1      -5.137  38.529   1.539  1.00  0.00     0.193 A 
ATOM      4  O   UNL     1      -5.967  37.723   1.038  1.00  0.00    -0.289 OA
ATOM      5  C   UNL     1      -5.240  38.932   2.878  1.00  0.00     0.065 A 
ATOM      6  C   UNL     1      -6.260  38.465   3.728  1.00  0.00     0.016 A 
ATOM      7  C   UNL     1      -6.317  38.899   5.056  1.00  0.00     0.001 A 
ATOM      8  C   UNL     1      -5.361  39.795   5.545  1.00  0.00     0.004 A 
ATOM      9  C   UNL     1      -4.344  40.263   4.707  1.00  0.00     0.048 A 
ATOM     10  C   UNL     1      -4.279  39.836   3.376  1.00  0.00     0.138 A 
ATOM     11  O   UNL     1      -3.308  40.287   2.587  1.00  0.00    -0.456 OA
ENDROOT
BRANCH   1  12
ATOM     12  C   UNL     1      -2.032  40.514   0.534  1.00  0.00     0.017 A 
ATOM     13  C   UNL     1       0.168  41.620  -0.846  1.00  0.00     0.000 A 
ATOM     14  C   UNL     1      -0.987  41.266  -1.542  1.00  0.00     0.001 A 
ATOM     15  C   UNL     1       0.235  41.426   0.534  1.00  0.00     0.001 A 
ATOM     16  C   UNL     1      -2.081  40.718  -0.864  1.00  0.00     0.012 A 
ATOM     17  C   UNL     1      -0.854  40.878   1.219  1.00  0.00     0.012 A 
ENDBRANCH   1  12
TORSDOF 1
ENDMDL
MODEL 5
REMARK VINA RESULT:    -6.285     18.764     20.370
REMARK INTER + INTRA:          -6.880
REMARK INTER:                  -6.652
REMARK INTRA:                  -0.229
REMARK UNBOUND:                -0.229
REMARK SMILES O=c1cc(-c2ccccc2)oc2ccccc12
REMARK SMILES IDX 4 1 3 2 2 3 1 4 17 5 16 6 15 7 14 8 13 9 12 10 11 11 5 12
REMARK SMILES IDX 8 13 7 14 9 15 6 16 10 17
REMARK H PARENT
REMARK Flexibility Score: inf
ROOT
ATOM      1  C   UNL     1       6.425  27.189  14.107  1.00  0.00     0.138 A 
ATOM      2  C   UNL     1       6.118  25.924  14.647  1.00  0.00     0.100 A 
ATOM      3  C   UNL     1       5.373  25.015  13.893  1.00  0.00     0.193 A 
ATOM      4  O   UNL     1       5.099  23.882  14.376  1.00  0.00    -0.289 OA
ATOM      5  C   UNL     1       4.942  25.374  12.608  1.00  0.00     0.065 A 
ATOM      6  C   UNL     1       4.189  24.506  11.796  1.00  0.00     0.016 A 
ATOM      7  C   UNL     1       3.785  24.916  10.521  1.00  0.00     0.001 A 
ATOM      8  C   UNL     1       4.125  26.187  10.050  1.00  0.00     0.004 A 
ATOM      9  C   UNL     1       4.873  27.056  10.851  1.00  0.00     0.048 A 
ATOM     10  C   UNL     1       5.284  26.656  12.127  1.00  0.00     0.138 A 
ATOM     11  O   UNL     1       5.994  27.489  12.881  1.00  0.00    -0.456 OA
ENDROOT
BRANCH   1  12
ATOM     12  C   UNL     1       7.216  28.221  14.847  1.00  0.00     0.017 A 
ATOM     13  C   UNL     1       8.630  30.222  16.249  1.00  0.00     0.000 A 
ATOM     14  C   UNL     1       9.281  29.054  15.852  1.00  0.00     0.001 A 
ATOM     15  C   UNL     1       7.279  30.399  15.952  1.00  0.00     0.001 A 
ATOM     16  C   UNL     1       8.586  28.059  15.158  1.00  0.00     0.012 A 
ATOM     17  C   UNL     1       6.577  29.409  15.258  1.00  0.00     0.012 A 
ENDBRANCH   1  12
TORSDOF 1
ENDMDL
MODEL 6
REMARK VINA RESULT:    -6.277     19.097     20.713
REMARK INTER + INTRA:          -6.872
REMARK INTER:                  -6.651
REMARK INTRA:                  -0.221
REMARK UNBOUND:                -0.229
REMARK SMILES O=c1cc(-c2ccccc2)oc2ccccc12
REMARK SMILES IDX 4 1 3 2 2 3 1 4 17 5 16 6 15 7 14 8 13 9 12 10 11 11 5 12
REMARK SMILES IDX 8 13 7 14 9 15 6 16 10 17
REMARK H PARENT
REMARK Flexibility Score: inf
ROOT
ATOM      1  C   UNL     1       6.459  27.272  13.473  1.00  0.00     0.138 A 
ATOM      2  C   UNL     1       6.013  28.305  14.323  1.00  0.00     0.100 A 
ATOM      3  C   UNL     1       6.925  28.947  15.164  1.00  0.00     0.193 A 
ATOM      4  O   UNL     1       6.526  29.870  15.925  1.00  0.00    -0.289 OA
ATOM      5  C   UNL     1       8.271  28.554  15.150  1.00  0.00     0.065 A 
ATOM      6  C   UNL     1       9.240  29.159  15.972  1.00  0.00     0.016 A 
ATOM      7  C   UNL     1      10.570  28.729  15.919  1.00  0.00     0.001 A 
ATOM      8  C   UNL     1      10.940  27.698  15.051  1.00  0.00     0.004 A 
ATOM      9  C   UNL     1       9.984  27.091  14.231  1.00  0.00     0.048 A 
ATOM     10  C   UNL     1       8.651  27.514  14.276  1.00  0.00     0.138 A 
ATOM     11  O   UNL     1       7.749  26.932  13.493  1.00  0.00    -0.456 OA
ENDROOT
BRANCH   1  12
ATOM     12  C   UNL     1       5.550  26.534  12.541  1.00  0.00     0.017 A 
ATOM     13  C   UNL     1       3.846  25.212  10.721  1.00  0.00     0.000 A 
ATOM     14  C   UNL     1       4.138  24.629  11.953  1.00  0.00     0.001 A 
ATOM     15  C   UNL     1       4.397  26.450  10.389  1.00  0.00     0.001 A 
ATOM     16  C   UNL     1       4.982  25.279  12.859  1.00  0.00     0.012 A 
ATOM     17  C   UNL     1       5.242  27.106  11.290  1.00  0.00     0.012 A 
ENDBRANCH   1  12
TORSDOF 1
ENDMDL
MODEL 7
REMARK VINA RESULT:    -6.242      1.283      5.880
REMARK INTER + INTRA:          -6.836
REMARK INTER:                  -6.572
REMARK INTRA:                  -0.264
REMARK UNBOUND:                -0.229
REMARK SMILES O=c1cc(-c2ccccc2)oc2ccccc12
REMARK SMILES IDX 4 1 3 2 2 3 1 4 17 5 16 6 15 7 14 8 13 9 12 10 11 11 5 12
REMARK SMILES IDX 8 13 7 14 9 15 6 16 10 17
REMARK H PARENT
REMARK Flexibility Score: inf
ROOT
ATOM      1  C   UNL     1      -2.456  40.607   1.025  1.00  0.00     0.138 A 
ATOM      2  C   UNL     1      -1.966  41.301   2.151  1.00  0.00     0.100 A 
ATOM      3  C   UNL     1      -2.602  41.147   3.385  1.00  0.00     0.193 A 
ATOM      4  O   UNL     1      -2.164  41.768   4.392  1.00  0.00    -0.289 OA
ATOM      5  C   UNL     1      -3.717  40.303   3.486  1.00  0.00     0.065 A 
ATOM      6  C   UNL     1      -4.403  40.103   4.698  1.00  0.00     0.016 A 
ATOM      7  C   UNL     1      -5.510  39.250   4.744  1.00  0.00     0.001 A 
ATOM      8  C   UNL     1      -5.940  38.595   3.586  1.00  0.00     0.004 A 
ATOM      9  C   UNL     1      -5.265  38.788   2.378  1.00  0.00     0.048 A 
ATOM     10  C   UNL     1      -4.155  39.638   2.321  1.00  0.00     0.138 A 
ATOM     11  O   UNL     1      -3.519  39.815   1.167  1.00  0.00    -0.456 OA
ENDROOT
BRANCH   1  12
ATOM     12  C   UNL     1      -1.835  40.716  -0.332  1.00  0.00     0.017 A 
ATOM     13  C   UNL     1      -0.743  40.881  -2.930  1.00  0.00     0.000 A 
ATOM     14  C   UNL     1      -0.022  41.360  -1.837  1.00  0.00     0.001 A 
ATOM     15  C   UNL     1      -2.005  40.320  -2.737  1.00  0.00     0.001 A 
ATOM     16  C   UNL     1      -0.557  41.282  -0.548  1.00  0.00     0.012 A 
ATOM     17  C   UNL     1      -2.548  40.238  -1.451  1.00  0.00     0.012 A 
ENDBRANCH   1  12
TORSDOF 1
ENDMDL
MODEL 8
REMARK VINA RESULT:    -6.025      2.114      5.727
REMARK INTER + INTRA:          -6.606
REMARK INTER:                  -6.343
REMARK INTRA:                  -0.263
REMARK UNBOUND:                -0.229
REMARK SMILES O=c1cc(-c2ccccc2)oc2ccccc12
REMARK SMILES IDX 4 1 3 2 2 3 1 4 17 5 16 6 15 7 14 8 13 9 12 10 11 11 5 12
REMARK SMILES IDX 8 13 7 14 9 15 6 16 10 17
REMARK H PARENT
REMARK Flexibility Score: inf
ROOT
ATOM      1  C   UNL     1      -3.234  39.878   1.752  1.00  0.00     0.138 A 
ATOM      2  C   UNL     1      -3.413  39.965   3.148  1.00  0.00     0.100 A 
ATOM      3  C   UNL     1      -4.543  39.391   3.734  1.00  0.00     0.193 A 
ATOM      4  O   UNL     1      -4.704  39.469   4.983  1.00  0.00    -0.289 OA
ATOM      5  C   UNL     1      -5.483  38.736   2.926  1.00  0.00     0.065 A 
ATOM      6  C   UNL     1      -6.642  38.137   3.452  1.00  0.00     0.016 A 
ATOM      7  C   UNL     1      -7.547  37.496   2.600  1.00  0.00     0.001 A 
ATOM      8  C   UNL     1      -7.305  37.449   1.225  1.00  0.00     0.004 A 
ATOM      9  C   UNL     1      -6.156  38.042   0.693  1.00  0.00     0.048 A 
ATOM     10  C   UNL     1      -5.243  38.685   1.536  1.00  0.00     0.138 A 
ATOM     11  O   UNL     1      -4.153  39.246   1.022  1.00  0.00    -0.456 OA
ENDROOT
BRANCH   1  12
ATOM     12  C   UNL     1      -2.054  40.465   1.044  1.00  0.00     0.017 A 
ATOM     13  C   UNL     1       0.124  41.565  -0.374  1.00  0.00     0.000 A 
ATOM     14  C   UNL     1       0.204  41.399   1.008  1.00  0.00     0.001 A 
ATOM     15  C   UNL     1      -1.033  41.188  -1.055  1.00  0.00     0.001 A 
ATOM     16  C   UNL     1      -0.872  40.854   1.716  1.00  0.00     0.012 A 
ATOM     17  C   UNL     1      -2.113  40.643  -0.354  1.00  0.00     0.012 A 
ENDBRANCH   1  12
TORSDOF 1
ENDMDL
MODEL 9
REMARK VINA RESULT:    -5.928     19.839     21.541
REMARK INTER + INTRA:          -6.503
REMARK INTER:                  -6.276
REMARK INTRA:                  -0.227
REMARK UNBOUND:                -0.229
REMARK SMILES O=c1cc(-c2ccccc2)oc2ccccc12
REMARK SMILES IDX 4 1 3 2 2 3 1 4 17 5 16 6 15 7 14 8 13 9 12 10 11 11 5 12
REMARK SMILES IDX 8 13 7 14 9 15 6 16 10 17
REMARK H PARENT
REMARK Flexibility Score: inf
ROOT
ATOM      1  C   UNL     1       7.646  25.026  11.207  1.00  0.00     0.138 A 
ATOM      2  C   UNL     1       6.255  25.243  11.139  1.00  0.00     0.100 A 
ATOM      3  C   UNL     1       5.650  26.122  12.041  1.00  0.00     0.193 A 
ATOM      4  O   UNL     1       4.406  26.316  11.980  1.00  0.00    -0.289 OA
ATOM      5  C   UNL     1       6.437  26.776  13.000  1.00  0.00     0.065 A 
ATOM      6  C   UNL     1       5.891  27.673  13.937  1.00  0.00     0.016 A 
ATOM      7  C   UNL     1       6.722  28.299  14.872  1.00  0.00     0.001 A 
ATOM      8  C   UNL     1       8.094  28.035  14.881  1.00  0.00     0.004 A 
ATOM      9  C   UNL     1       8.644  27.144  13.954  1.00  0.00     0.048 A 
ATOM     10  C   UNL     1       7.823  26.514  13.013  1.00  0.00     0.138 A 
ATOM     11  O   UNL     1       8.356  25.669  12.136  1.00  0.00    -0.456 OA
ENDROOT
BRANCH   1  12
ATOM     12  C   UNL     1       8.373  24.102  10.281  1.00  0.00     0.017 A 
ATOM     13  C   UNL     1       9.784  22.435   8.493  1.00  0.00     0.000 A 
ATOM     14  C   UNL     1       8.938  21.875   9.450  1.00  0.00     0.001 A 
ATOM     15  C   UNL     1       9.931  23.820   8.421  1.00  0.00     0.001 A 
ATOM     16  C   UNL     1       8.236  22.695  10.339  1.00  0.00     0.012 A 
ATOM     17  C   UNL     1       9.233  24.647   9.306  1.00  0.00     0.012 A 
ENDBRANCH   1  12
TORSDOF 1
ENDMDL
