MODEL 1
REMARK VINA RESULT:    -3.518      0.000      0.000
REMARK INTER + INTRA:          -4.994
REMARK INTER:                  -4.547
REMARK INTRA:                  -0.447
REMARK UNBOUND:                -0.447
REMARK SMILES CCO[C@@H]1O[C@@H](CO)[C@@H](O)[C@@H](O)[C@@H]1O
REMARK SMILES IDX 4 1 13 2 11 3 9 4 6 5 5 6 3 7 2 8 1 9 14 10 12 12 7 14 8 15
REMARK SMILES IDX 10 17
REMARK H PARENT 14 11 12 13 8 16 10 18
REMARK Flexibility Score: inf
ROOT
ATOM      1  C   UNL     1       9.753  13.356  24.388  1.00  0.00     0.281 C 
ATOM      2  C   UNL     1       8.693  14.173  23.621  1.00  0.00     0.202 C 
ATOM      3  C   UNL     1       7.276  13.654  23.940  1.00  0.00     0.179 C 
ATOM      4  C   UNL     1       7.078  13.579  25.464  1.00  0.00     0.177 C 
ATOM      5  C   UNL     1       8.232  12.755  26.076  1.00  0.00     0.178 C 
ATOM      6  O   UNL     1       9.487  13.353  25.786  1.00  0.00    -0.341 OA
ENDROOT
BRANCH   1   7
ATOM      7  O   UNL     1       9.822  12.036  23.868  1.00  0.00    -0.350 OA
BRANCH   7   8
ATOM      8  C   UNL     1      11.169  11.657  23.676  1.00  0.00     0.160 C 
ATOM      9  C   UNL     1      11.445  11.546  22.185  1.00  0.00     0.035 C 
ENDBRANCH   7   8
ENDBRANCH   1   7
BRANCH   2  10
ATOM     10  O   UNL     1       8.945  14.081  22.243  1.00  0.00    -0.385 OA
ATOM     11  H   UNL     1       8.214  14.570  21.780  1.00  0.00     0.211 HD
ENDBRANCH   2  10
BRANCH   3  12
ATOM     12  O   UNL     1       6.307  14.505  23.382  1.00  0.00    -0.387 OA
ATOM     13  H   UNL     1       5.521  13.941  23.159  1.00  0.00     0.211 HD
ENDBRANCH   3  12
BRANCH   5  14
ATOM     14  C   UNL     1       8.085  12.595  27.597  1.00  0.00     0.191 C 
BRANCH  14  15
ATOM     15  O   UNL     1       8.605  13.709  28.275  1.00  0.00    -0.394 OA
ATOM     16  H   UNL     1       8.447  13.562  29.244  1.00  0.00     0.210 HD
ENDBRANCH  14  15
ENDBRANCH   5  14
BRANCH   4  17
ATOM     17  O   UNL     1       7.065  14.874  26.013  1.00  0.00    -0.387 OA
ATOM     18  H   UNL     1       7.960  15.027  26.415  1.00  0.00     0.211 HD
ENDBRANCH   4  17
TORSDOF 7
ENDMDL
MODEL 2
REMARK VINA RESULT:    -3.486      2.523      4.779
REMARK INTER + INTRA:          -4.952
REMARK INTER:                  -4.550
REMARK INTRA:                  -0.401
REMARK UNBOUND:                -0.447
REMARK SMILES CCO[C@@H]1O[C@@H](CO)[C@@H](O)[C@@H](O)[C@@H]1O
REMARK SMILES IDX 4 1 13 2 11 3 9 4 6 5 5 6 3 7 2 8 1 9 14 10 12 12 7 14 8 15
REMARK SMILES IDX 10 17
REMARK H PARENT 14 11 12 13 8 16 10 18
REMARK Flexibility Score: inf
ROOT
ATOM      1  C   UNL     1       6.753  13.823  24.281  1.00  0.00     0.281 C 
ATOM      2  C   UNL     1       5.221  13.696  24.410  1.00  0.00     0.202 C 
ATOM      3  C   UNL     1       4.572  15.090  24.530  1.00  0.00     0.179 C 
ATOM      4  C   UNL     1       5.068  15.998  23.392  1.00  0.00     0.177 C 
ATOM      5  C   UNL     1       6.613  15.991  23.386  1.00  0.00     0.178 C 
ATOM      6  O   UNL     1       7.110  14.674  23.199  1.00  0.00    -0.341 OA
ENDROOT
BRANCH   1   7
ATOM      7  O   UNL     1       7.309  14.277  25.507  1.00  0.00    -0.350 OA
BRANCH   7   8
ATOM      8  C   UNL     1       8.393  13.454  25.886  1.00  0.00     0.160 C 
ATOM      9  C   UNL     1       8.215  13.039  27.338  1.00  0.00     0.035 C 
ENDBRANCH   7   8
ENDBRANCH   1   7
BRANCH   2  10
ATOM     10  O   UNL     1       4.913  12.917  25.536  1.00  0.00    -0.385 OA
ATOM     11  H   UNL     1       4.424  12.116  25.211  1.00  0.00     0.211 HD
ENDBRANCH   2  10
BRANCH   3  12
ATOM     12  O   UNL     1       3.173  14.985  24.471  1.00  0.00    -0.387 OA
ATOM     13  H   UNL     1       2.803  15.821  24.858  1.00  0.00     0.211 HD
ENDBRANCH   3  12
BRANCH   5  14
ATOM     14  C   UNL     1       7.191  16.911  22.300  1.00  0.00     0.191 C 
BRANCH  14  15
ATOM     15  O   UNL     1       6.390  18.050  22.123  1.00  0.00    -0.394 OA
ATOM     16  H   UNL     1       6.103  18.061  21.173  1.00  0.00     0.210 HD
ENDBRANCH  14  15
ENDBRANCH   5  14
BRANCH   4  17
ATOM     17  O   UNL     1       4.579  15.535  22.157  1.00  0.00    -0.387 OA
ATOM     18  H   UNL     1       5.074  16.022  21.448  1.00  0.00     0.211 HD
ENDBRANCH   4  17
TORSDOF 7
ENDMDL
MODEL 3
REMARK VINA RESULT:    -3.420     13.848     15.073
REMARK INTER + INTRA:          -4.867
REMARK INTER:                  -4.724
REMARK INTRA:                  -0.143
REMARK UNBOUND:                -0.447
REMARK SMILES CCO[C@@H]1O[C@@H](CO)[C@@H](O)[C@@H](O)[C@@H]1O
REMARK SMILES IDX 4 1 13 2 11 3 9 4 6 5 5 6 3 7 2 8 1 9 14 10 12 12 7 14 8 15
REMARK SMILES IDX 10 17
REMARK H PARENT 14 11 12 13 8 16 10 18
REMARK Flexibility Score: inf
ROOT
ATOM      1  C   UNL     1      22.125  20.540  25.914  1.00  0.00     0.281 C 
ATOM      2  C   UNL     1      21.597  19.189  25.389  1.00  0.00     0.202 C 
ATOM      3  C   UNL     1      20.202  19.364  24.754  1.00  0.00     0.179 C 
ATOM      4  C   UNL     1      20.236  20.506  23.724  1.00  0.00     0.177 C 
ATOM      5  C   UNL     1      20.813  21.770  24.401  1.00  0.00     0.178 C 
ATOM      6  O   UNL     1      22.124  21.526  24.888  1.00  0.00    -0.341 OA
ENDROOT
BRANCH   1   7
ATOM      7  O   UNL     1      21.364  20.958  27.038  1.00  0.00    -0.350 OA
BRANCH   7   8
ATOM      8  C   UNL     1      22.112  21.861  27.825  1.00  0.00     0.160 C 
ATOM      9  C   UNL     1      21.197  22.490  28.864  1.00  0.00     0.035 C 
ENDBRANCH   7   8
ENDBRANCH   1   7
BRANCH   2  10
ATOM     10  O   UNL     1      21.537  18.271  26.449  1.00  0.00    -0.385 OA
ATOM     11  H   UNL     1      22.076  17.481  26.181  1.00  0.00     0.211 HD
ENDBRANCH   2  10
BRANCH   3  12
ATOM     12  O   UNL     1      19.799  18.176  24.124  1.00  0.00    -0.387 OA
ATOM     13  H   UNL     1      20.367  18.069  23.316  1.00  0.00     0.211 HD
ENDBRANCH   3  12
BRANCH   5  14
ATOM     14  C   UNL     1      20.841  22.974  23.448  1.00  0.00     0.191 C 
BRANCH  14  15
ATOM     15  O   UNL     1      19.813  23.882  23.749  1.00  0.00    -0.394 OA
ATOM     16  H   UNL     1      19.583  24.354  22.907  1.00  0.00     0.210 HD
ENDBRANCH  14  15
ENDBRANCH   5  14
BRANCH   4  17
ATOM     17  O   UNL     1      21.033  20.141  22.625  1.00  0.00    -0.387 OA
ATOM     18  H   UNL     1      21.077  20.931  22.025  1.00  0.00     0.211 HD
ENDBRANCH   4  17
TORSDOF 7
ENDMDL
MODEL 4
REMARK VINA RESULT:    -3.411      2.250      4.121
REMARK INTER + INTRA:          -4.855
REMARK INTER:                  -4.375
REMARK INTRA:                  -0.480
REMARK UNBOUND:                -0.447
REMARK SMILES CCO[C@@H]1O[C@@H](CO)[C@@H](O)[C@@H](O)[C@@H]1O
REMARK SMILES IDX 4 1 13 2 11 3 9 4 6 5 5 6 3 7 2 8 1 9 14 10 12 12 7 14 8 15
REMARK SMILES IDX 10 17
REMARK H PARENT 14 11 12 13 8 16 10 18
REMARK Flexibility Score: inf
ROOT
ATOM      1  C   UNL     1       7.078  13.792  25.651  1.00  0.00     0.281 C 
ATOM      2  C   UNL     1       8.244  14.342  24.805  1.00  0.00     0.202 C 
ATOM      3  C   UNL     1       7.856  14.386  23.313  1.00  0.00     0.179 C 
ATOM      4  C   UNL     1       6.514  15.117  23.143  1.00  0.00     0.177 C 
ATOM      5  C   UNL     1       5.469  14.462  24.074  1.00  0.00     0.178 C 
ATOM      6  O   UNL     1       5.886  14.537  25.430  1.00  0.00    -0.341 OA
ENDROOT
BRANCH   1   7
ATOM      7  O   UNL     1       6.887  12.411  25.378  1.00  0.00    -0.350 OA
BRANCH   7   8
ATOM      8  C   UNL     1       6.476  11.735  26.549  1.00  0.00     0.160 C 
ATOM      9  C   UNL     1       7.490  11.992  27.652  1.00  0.00     0.035 C 
ENDBRANCH   7   8
ENDBRANCH   1   7
BRANCH   2  10
ATOM     10  O   UNL     1       9.375  13.530  24.990  1.00  0.00    -0.385 OA
ATOM     11  H   UNL     1       9.343  13.196  25.925  1.00  0.00     0.211 HD
ENDBRANCH   2  10
BRANCH   3  12
ATOM     12  O   UNL     1       8.848  15.047  22.569  1.00  0.00    -0.387 OA
ATOM     13  H   UNL     1       9.604  14.412  22.466  1.00  0.00     0.211 HD
ENDBRANCH   3  12
BRANCH   5  14
ATOM     14  C   UNL     1       4.083  15.109  23.933  1.00  0.00     0.191 C 
BRANCH  14  15
ATOM     15  O   UNL     1       4.029  16.342  24.603  1.00  0.00    -0.394 OA
ATOM     16  H   UNL     1       3.189  16.353  25.131  1.00  0.00     0.210 HD
ENDBRANCH  14  15
ENDBRANCH   5  14
BRANCH   4  17
ATOM     17  O   UNL     1       6.661  16.478  23.464  1.00  0.00    -0.387 OA
ATOM     18  H   UNL     1       7.386  16.539  24.140  1.00  0.00     0.211 HD
ENDBRANCH   4  17
TORSDOF 7
ENDMDL
MODEL 5
REMARK VINA RESULT:    -3.407     21.340     22.684
REMARK INTER + INTRA:          -4.849
REMARK INTER:                  -4.480
REMARK INTRA:                  -0.369
REMARK UNBOUND:                -0.447
REMARK SMILES CCO[C@@H]1O[C@@H](CO)[C@@H](O)[C@@H](O)[C@@H]1O
REMARK SMILES IDX 4 1 13 2 11 3 9 4 6 5 5 6 3 7 2 8 1 9 14 10 12 12 7 14 8 15
REMARK SMILES IDX 10 17
REMARK H PARENT 14 11 12 13 8 16 10 18
REMARK Flexibility Score: inf
ROOT
ATOM      1  C   UNL     1      19.468  27.423  38.966  1.00  0.00     0.281 C 
ATOM      2  C   UNL     1      19.353  26.990  40.441  1.00  0.00     0.202 C 
ATOM      3  C   UNL     1      19.427  25.454  40.561  1.00  0.00     0.179 C 
ATOM      4  C   UNL     1      20.665  24.931  39.813  1.00  0.00     0.177 C 
ATOM      5  C   UNL     1      20.641  25.476  38.368  1.00  0.00     0.178 C 
ATOM      6  O   UNL     1      20.646  26.897  38.366  1.00  0.00    -0.341 OA
ENDROOT
BRANCH   1   7
ATOM      7  O   UNL     1      18.303  27.037  38.252  1.00  0.00    -0.350 OA
BRANCH   7   8
ATOM      8  C   UNL     1      17.769  28.144  37.555  1.00  0.00     0.160 C 
ATOM      9  C   UNL     1      18.303  28.138  36.131  1.00  0.00     0.035 C 
ENDBRANCH   7   8
ENDBRANCH   1   7
BRANCH   2  10
ATOM     10  O   UNL     1      18.140  27.461  40.970  1.00  0.00    -0.385 OA
ATOM     11  H   UNL     1      18.303  27.672  41.927  1.00  0.00     0.211 HD
ENDBRANCH   2  10
BRANCH   3  12
ATOM     12  O   UNL     1      19.498  25.072  41.911  1.00  0.00    -0.387 OA
ATOM     13  H   UNL     1      19.883  24.157  41.933  1.00  0.00     0.211 HD
ENDBRANCH   3  12
BRANCH   5  14
ATOM     14  C   UNL     1      21.826  24.963  37.536  1.00  0.00     0.191 C 
BRANCH  14  15
ATOM     15  O   UNL     1      22.125  23.628  37.851  1.00  0.00    -0.394 OA
ATOM     16  H   UNL     1      21.544  23.369  38.613  1.00  0.00     0.210 HD
ENDBRANCH  14  15
ENDBRANCH   5  14
BRANCH   4  17
ATOM     17  O   UNL     1      21.837  25.349  40.468  1.00  0.00    -0.387 OA
ATOM     18  H   UNL     1      22.068  26.243  40.104  1.00  0.00     0.211 HD
ENDBRANCH   4  17
TORSDOF 7
ENDMDL
MODEL 6
REMARK VINA RESULT:    -3.349     21.818     22.776
REMARK INTER + INTRA:          -4.774
REMARK INTER:                  -4.304
REMARK INTRA:                  -0.470
REMARK UNBOUND:                -0.447
REMARK SMILES CCO[C@@H]1O[C@@H](CO)[C@@H](O)[C@@H](O)[C@@H]1O
REMARK SMILES IDX 4 1 13 2 11 3 9 4 6 5 5 6 3 7 2 8 1 9 14 10 12 12 7 14 8 15
REMARK SMILES IDX 10 17
REMARK H PARENT 14 11 12 13 8 16 10 18
REMARK Flexibility Score: inf
ROOT
ATOM      1  C   UNL     1      20.625  26.129  38.048  1.00  0.00     0.281 C 
ATOM      2  C   UNL     1      20.635  24.799  38.829  1.00  0.00     0.202 C 
ATOM      3  C   UNL     1      20.813  25.060  40.339  1.00  0.00     0.179 C 
ATOM      4  C   UNL     1      19.783  26.099  40.815  1.00  0.00     0.177 C 
ATOM      5  C   UNL     1      19.886  27.351  39.915  1.00  0.00     0.178 C 
ATOM      6  O   UNL     1      19.637  27.017  38.557  1.00  0.00    -0.341 OA
ENDROOT
BRANCH   1   7
ATOM      7  O   UNL     1      21.917  26.719  38.072  1.00  0.00    -0.350 OA
BRANCH   7   8
ATOM      8  C   UNL     1      22.116  27.506  36.916  1.00  0.00     0.160 C 
ATOM      9  C   UNL     1      22.125  26.600  35.695  1.00  0.00     0.035 C 
ENDBRANCH   7   8
ENDBRANCH   1   7
BRANCH   2  10
ATOM     10  O   UNL     1      21.676  23.988  38.350  1.00  0.00    -0.385 OA
ATOM     11  H   UNL     1      22.131  23.601  39.144  1.00  0.00     0.211 HD
ENDBRANCH   2  10
BRANCH   3  12
ATOM     12  O   UNL     1      20.648  23.869  41.064  1.00  0.00    -0.387 OA
ATOM     13  H   UNL     1      19.756  23.505  40.824  1.00  0.00     0.211 HD
ENDBRANCH   3  12
BRANCH   5  14
ATOM     14  C   UNL     1      18.915  28.459  40.351  1.00  0.00     0.191 C 
BRANCH  14  15
ATOM     15  O   UNL     1      17.636  28.253  39.811  1.00  0.00    -0.394 OA
ATOM     16  H   UNL     1      17.708  28.380  38.829  1.00  0.00     0.210 HD
ENDBRANCH  14  15
ENDBRANCH   5  14
BRANCH   4  17
ATOM     17  O   UNL     1      18.486  25.560  40.745  1.00  0.00    -0.387 OA
ATOM     18  H   UNL     1      18.494  24.881  40.021  1.00  0.00     0.211 HD
ENDBRANCH   4  17
TORSDOF 7
ENDMDL
MODEL 7
REMARK VINA RESULT:    -3.288     20.843     22.099
REMARK INTER + INTRA:          -4.696
REMARK INTER:                  -4.253
REMARK INTRA:                  -0.443
REMARK UNBOUND:                -0.447
REMARK SMILES CCO[C@@H]1O[C@@H](CO)[C@@H](O)[C@@H](O)[C@@H]1O
REMARK SMILES IDX 4 1 13 2 11 3 9 4 6 5 5 6 3 7 2 8 1 9 14 10 12 12 7 14 8 15
REMARK SMILES IDX 10 17
REMARK H PARENT 14 11 12 13 8 16 10 18
REMARK Flexibility Score: inf
ROOT
ATOM      1  C   UNL     1      17.454  27.995  37.244  1.00  0.00     0.281 C 
ATOM      2  C   UNL     1      18.705  27.730  36.382  1.00  0.00     0.202 C 
ATOM      3  C   UNL     1      19.986  28.091  37.161  1.00  0.00     0.179 C 
ATOM      4  C   UNL     1      19.973  27.401  38.536  1.00  0.00     0.177 C 
ATOM      5  C   UNL     1      18.648  27.744  39.253  1.00  0.00     0.178 C 
ATOM      6  O   UNL     1      17.533  27.309  38.488  1.00  0.00    -0.341 OA
ENDROOT
BRANCH   1   7
ATOM      7  O   UNL     1      17.276  29.392  37.430  1.00  0.00    -0.350 OA
BRANCH   7   8
ATOM      8  C   UNL     1      15.906  29.725  37.341  1.00  0.00     0.160 C 
ATOM      9  C   UNL     1      15.235  28.802  36.335  1.00  0.00     0.035 C 
ENDBRANCH   7   8
ENDBRANCH   1   7
BRANCH   2  10
ATOM     10  O   UNL     1      18.624  28.488  35.202  1.00  0.00    -0.385 OA
ATOM     11  H   UNL     1      18.845  27.879  34.450  1.00  0.00     0.211 HD
ENDBRANCH   2  10
BRANCH   3  12
ATOM     12  O   UNL     1      21.124  27.688  36.445  1.00  0.00    -0.387 OA
ATOM     13  H   UNL     1      21.808  28.398  36.564  1.00  0.00     0.211 HD
ENDBRANCH   3  12
BRANCH   5  14
ATOM     14  C   UNL     1      18.573  27.126  40.657  1.00  0.00     0.191 C 
BRANCH  14  15
ATOM     15  O   UNL     1      18.294  25.752  40.591  1.00  0.00    -0.394 OA
ATOM     16  H   UNL     1      18.304  25.405  41.521  1.00  0.00     0.210 HD
ENDBRANCH  14  15
ENDBRANCH   5  14
BRANCH   4  17
ATOM     17  O   UNL     1      20.088  26.008  38.378  1.00  0.00    -0.387 OA
ATOM     18  H   UNL     1      21.058  25.804  38.312  1.00  0.00     0.211 HD
ENDBRANCH   4  17
TORSDOF 7
ENDMDL
MODEL 8
REMARK VINA RESULT:    -3.134      2.642      4.510
REMARK INTER + INTRA:          -4.497
REMARK INTER:                  -4.018
REMARK INTRA:                  -0.479
REMARK UNBOUND:                -0.447
REMARK SMILES CCO[C@@H]1O[C@@H](CO)[C@@H](O)[C@@H](O)[C@@H]1O
REMARK SMILES IDX 4 1 13 2 11 3 9 4 6 5 5 6 3 7 2 8 1 9 14 10 12 12 7 14 8 15
REMARK SMILES IDX 10 17
REMARK H PARENT 14 11 12 13 8 16 10 18
REMARK Flexibility Score: inf
ROOT
ATOM      1  C   UNL     1       5.628  15.626  23.370  1.00  0.00     0.281 C 
ATOM      2  C   UNL     1       4.481  14.597  23.288  1.00  0.00     0.202 C 
ATOM      3  C   UNL     1       5.046  13.168  23.156  1.00  0.00     0.179 C 
ATOM      4  C   UNL     1       6.085  12.913  24.261  1.00  0.00     0.177 C 
ATOM      5  C   UNL     1       7.139  14.042  24.223  1.00  0.00     0.178 C 
ATOM      6  O   UNL     1       6.529  15.308  24.424  1.00  0.00    -0.341 OA
ENDROOT
BRANCH   1   7
ATOM      7  O   UNL     1       6.297  15.711  22.120  1.00  0.00    -0.350 OA
BRANCH   7   8
ATOM      8  C   UNL     1       6.706  17.041  21.875  1.00  0.00     0.160 C 
ATOM      9  C   UNL     1       5.541  17.978  22.154  1.00  0.00     0.035 C 
ENDBRANCH   7   8
ENDBRANCH   1   7
BRANCH   2  10
ATOM     10  O   UNL     1       3.664  14.900  22.187  1.00  0.00    -0.385 OA
ATOM     11  H   UNL     1       3.833  15.850  21.952  1.00  0.00     0.211 HD
ENDBRANCH   2  10
BRANCH   3  12
ATOM     12  O   UNL     1       4.012  12.223  23.257  1.00  0.00    -0.387 OA
ATOM     13  H   UNL     1       3.888  12.032  24.224  1.00  0.00     0.211 HD
ENDBRANCH   3  12
BRANCH   5  14
ATOM     14  C   UNL     1       8.243  13.839  25.272  1.00  0.00     0.191 C 
BRANCH  14  15
ATOM     15  O   UNL     1       7.803  14.220  26.550  1.00  0.00    -0.394 OA
ATOM     16  H   UNL     1       7.099  14.908  26.424  1.00  0.00     0.210 HD
ENDBRANCH  14  15
ENDBRANCH   5  14
BRANCH   4  17
ATOM     17  O   UNL     1       5.456  12.883  25.518  1.00  0.00    -0.387 OA
ATOM     18  H   UNL     1       5.886  13.584  26.074  1.00  0.00     0.211 HD
ENDBRANCH   4  17
TORSDOF 7
ENDMDL
MODEL 9
REMARK VINA RESULT:    -3.120      3.043      4.162
REMARK INTER + INTRA:          -4.479
REMARK INTER:                  -4.007
REMARK INTRA:                  -0.472
REMARK UNBOUND:                -0.447
REMARK SMILES CCO[C@@H]1O[C@@H](CO)[C@@H](O)[C@@H](O)[C@@H]1O
REMARK SMILES IDX 4 1 13 2 11 3 9 4 6 5 5 6 3 7 2 8 1 9 14 10 12 12 7 14 8 15
REMARK SMILES IDX 10 17
REMARK H PARENT 14 11 12 13 8 16 10 18
REMARK Flexibility Score: inf
ROOT
ATOM      1  C   UNL     1       7.109  15.046  23.324  1.00  0.00     0.281 C 
ATOM      2  C   UNL     1       6.728  16.492  22.946  1.00  0.00     0.202 C 
ATOM      3  C   UNL     1       5.312  16.536  22.336  1.00  0.00     0.179 C 
ATOM      4  C   UNL     1       4.320  15.812  23.263  1.00  0.00     0.177 C 
ATOM      5  C   UNL     1       4.863  14.397  23.564  1.00  0.00     0.178 C 
ATOM      6  O   UNL     1       6.137  14.467  24.187  1.00  0.00    -0.341 OA
ENDROOT
BRANCH   1   7
ATOM      7  O   UNL     1       7.293  14.267  22.150  1.00  0.00    -0.350 OA
BRANCH   7   8
ATOM      8  C   UNL     1       8.269  13.271  22.374  1.00  0.00     0.160 C 
ATOM      9  C   UNL     1       9.520  13.922  22.945  1.00  0.00     0.035 C 
ENDBRANCH   7   8
ENDBRANCH   1   7
BRANCH   2  10
ATOM     10  O   UNL     1       7.667  16.995  22.031  1.00  0.00    -0.385 OA
ATOM     11  H   UNL     1       7.289  16.860  21.122  1.00  0.00     0.211 HD
ENDBRANCH   2  10
BRANCH   3  12
ATOM     12  O   UNL     1       4.899  17.866  22.154  1.00  0.00    -0.387 OA
ATOM     13  H   UNL     1       4.549  18.182  23.028  1.00  0.00     0.211 HD
ENDBRANCH   3  12
BRANCH   5  14
ATOM     14  C   UNL     1       3.906  13.588  24.453  1.00  0.00     0.191 C 
BRANCH  14  15
ATOM     15  O   UNL     1       2.624  14.159  24.467  1.00  0.00    -0.394 OA
ATOM     16  H   UNL     1       2.736  15.137  24.339  1.00  0.00     0.210 HD
ENDBRANCH  14  15
ENDBRANCH   5  14
BRANCH   4  17
ATOM     17  O   UNL     1       4.164  16.533  24.460  1.00  0.00    -0.387 OA
ATOM     18  H   UNL     1       4.940  16.308  25.037  1.00  0.00     0.211 HD
ENDBRANCH   4  17
TORSDOF 7
ENDMDL
