MODEL 1
REMARK VINA RESULT:    -3.860      0.000      0.000
REMARK INTER + INTRA:          -4.414
REMARK INTER:                  -4.311
REMARK INTRA:                  -0.102
REMARK UNBOUND:                -0.102
REMARK SMILES CCc1ccc(O)cc1O
REMARK SMILES IDX 3 1 9 2 8 3 6 4 5 5 4 6 2 7 1 8 10 9 7 11
REMARK H PARENT 10 10 7 12
REMARK Flexibility Score: inf
ROOT
ATOM      1  C   UNL     1     177.980 161.266 175.596  1.00  0.00    -0.006 A 
ATOM      2  C   UNL     1     179.226 161.855 175.297  1.00  0.00     0.122 A 
ATOM      3  C   UNL     1     179.941 161.438 174.165  1.00  0.00     0.092 A 
ATOM      4  C   UNL     1     179.419 160.448 173.323  1.00  0.00     0.119 A 
ATOM      5  C   UNL     1     178.178 159.876 173.610  1.00  0.00     0.047 A 
ATOM      6  C   UNL     1     177.460 160.285 174.736  1.00  0.00     0.011 A 
ENDROOT
BRANCH   1   7
ATOM      7  C   UNL     1     177.176 161.716 176.789  1.00  0.00     0.036 C 
ATOM      8  C   UNL     1     177.283 160.706 177.928  1.00  0.00     0.009 C 
ENDBRANCH   1   7
BRANCH   2   9
ATOM      9  O   UNL     1     179.747 162.851 176.123  1.00  0.00    -0.508 OA
ATOM     10  H   UNL     1     179.188 163.289 176.845  1.00  0.00     0.293 HD
ENDBRANCH   2   9
BRANCH   4  11
ATOM     11  O   UNL     1     180.125 160.031 172.196  1.00  0.00    -0.508 OA
ATOM     12  H   UNL     1     180.249 160.636 171.394  1.00  0.00     0.293 HD
ENDBRANCH   4  11
TORSDOF 3
ENDMDL
MODEL 2
REMARK VINA RESULT:    -3.679      2.549      3.359
REMARK INTER + INTRA:          -4.211
REMARK INTER:                  -4.122
REMARK INTRA:                  -0.089
REMARK UNBOUND:                -0.102
REMARK SMILES CCc1ccc(O)cc1O
REMARK SMILES IDX 3 1 9 2 8 3 6 4 5 5 4 6 2 7 1 8 10 9 7 11
REMARK H PARENT 10 10 7 12
REMARK Flexibility Score: inf
ROOT
ATOM      1  C   UNL     1     177.720 163.169 174.312  1.00  0.00    -0.006 A 
ATOM      2  C   UNL     1     178.391 162.366 173.368  1.00  0.00     0.122 A 
ATOM      3  C   UNL     1     179.196 161.303 173.802  1.00  0.00     0.092 A 
ATOM      4  C   UNL     1     179.327 161.027 175.169  1.00  0.00     0.119 A 
ATOM      5  C   UNL     1     178.650 161.813 176.104  1.00  0.00     0.047 A 
ATOM      6  C   UNL     1     177.847 162.875 175.680  1.00  0.00     0.011 A 
ENDROOT
BRANCH   1   7
ATOM      7  C   UNL     1     176.824 164.299 173.872  1.00  0.00     0.036 C 
ATOM      8  C   UNL     1     177.117 165.565 174.671  1.00  0.00     0.009 C 
ENDBRANCH   1   7
BRANCH   2   9
ATOM      9  O   UNL     1     178.256 162.625 172.004  1.00  0.00    -0.508 OA
ATOM     10  H   UNL     1     178.001 163.543 171.661  1.00  0.00     0.293 HD
ENDBRANCH   2   9
BRANCH   4  11
ATOM     11  O   UNL     1     180.125 159.972 175.607  1.00  0.00    -0.508 OA
ATOM     12  H   UNL     1     181.111 160.097 175.802  1.00  0.00     0.293 HD
ENDBRANCH   4  11
TORSDOF 3
ENDMDL
MODEL 3
REMARK VINA RESULT:    -3.652     19.322     20.726
REMARK INTER + INTRA:          -4.181
REMARK INTER:                  -4.096
REMARK INTRA:                  -0.085
REMARK UNBOUND:                -0.102
REMARK SMILES CCc1ccc(O)cc1O
REMARK SMILES IDX 3 1 9 2 8 3 6 4 5 5 4 6 2 7 1 8 10 9 7 11
REMARK H PARENT 10 10 7 12
REMARK Flexibility Score: inf
ROOT
ATOM      1  C   UNL     1     162.350 162.735 188.605  1.00  0.00    -0.006 A 
ATOM      2  C   UNL     1     163.603 163.380 188.577  1.00  0.00     0.122 A 
ATOM      3  C   UNL     1     164.779 162.619 188.503  1.00  0.00     0.092 A 
ATOM      4  C   UNL     1     164.715 161.222 188.444  1.00  0.00     0.119 A 
ATOM      5  C   UNL     1     163.473 160.582 188.456  1.00  0.00     0.047 A 
ATOM      6  C   UNL     1     162.297 161.333 188.531  1.00  0.00     0.011 A 
ENDROOT
BRANCH   1   7
ATOM      7  C   UNL     1     161.069 163.529 188.654  1.00  0.00     0.036 C 
ATOM      8  C   UNL     1     159.900 162.645 189.077  1.00  0.00     0.009 C 
ENDBRANCH   1   7
BRANCH   2   9
ATOM      9  O   UNL     1     163.676 164.773 188.622  1.00  0.00    -0.508 OA
ATOM     10  H   UNL     1     163.058 165.355 188.070  1.00  0.00     0.293 HD
ENDBRANCH   2   9
BRANCH   4  11
ATOM     11  O   UNL     1     165.880 160.461 188.369  1.00  0.00    -0.508 OA
ATOM     12  H   UNL     1     166.277 160.185 187.479  1.00  0.00     0.293 HD
ENDBRANCH   4  11
TORSDOF 3
ENDMDL
MODEL 4
REMARK VINA RESULT:    -3.646     18.894     20.932
REMARK INTER + INTRA:          -4.175
REMARK INTER:                  -4.071
REMARK INTRA:                  -0.103
REMARK UNBOUND:                -0.102
REMARK SMILES CCc1ccc(O)cc1O
REMARK SMILES IDX 3 1 9 2 8 3 6 4 5 5 4 6 2 7 1 8 10 9 7 11
REMARK H PARENT 10 10 7 12
REMARK Flexibility Score: inf
ROOT
ATOM      1  C   UNL     1     161.120 161.588 187.814  1.00  0.00    -0.006 A 
ATOM      2  C   UNL     1     161.065 161.447 186.412  1.00  0.00     0.122 A 
ATOM      3  C   UNL     1     162.211 161.052 185.706  1.00  0.00     0.092 A 
ATOM      4  C   UNL     1     163.405 160.784 186.386  1.00  0.00     0.119 A 
ATOM      5  C   UNL     1     163.455 160.908 187.776  1.00  0.00     0.047 A 
ATOM      6  C   UNL     1     162.319 161.302 188.488  1.00  0.00     0.011 A 
ENDROOT
BRANCH   1   7
ATOM      7  C   UNL     1     159.896 161.981 188.602  1.00  0.00     0.036 C 
ATOM      8  C   UNL     1     159.929 163.467 188.948  1.00  0.00     0.009 C 
ENDBRANCH   1   7
BRANCH   2   9
ATOM      9  O   UNL     1     159.877 161.699 185.727  1.00  0.00    -0.508 OA
ATOM     10  H   UNL     1     159.181 160.976 185.587  1.00  0.00     0.293 HD
ENDBRANCH   2   9
BRANCH   4  11
ATOM     11  O   UNL     1     164.546 160.390 185.689  1.00  0.00    -0.508 OA
ATOM     12  H   UNL     1     164.888 160.914 184.893  1.00  0.00     0.293 HD
ENDBRANCH   4  11
TORSDOF 3
ENDMDL
MODEL 5
REMARK VINA RESULT:    -3.600     23.120     24.630
REMARK INTER + INTRA:          -4.124
REMARK INTER:                  -4.028
REMARK INTRA:                  -0.096
REMARK UNBOUND:                -0.102
REMARK SMILES CCc1ccc(O)cc1O
REMARK SMILES IDX 3 1 9 2 8 3 6 4 5 5 4 6 2 7 1 8 10 9 7 11
REMARK H PARENT 10 10 7 12
REMARK Flexibility Score: inf
ROOT
ATOM      1  C   UNL     1     170.253 178.893 188.454  1.00  0.00    -0.006 A 
ATOM      2  C   UNL     1     169.631 177.703 188.883  1.00  0.00     0.122 A 
ATOM      3  C   UNL     1     168.298 177.729 189.319  1.00  0.00     0.092 A 
ATOM      4  C   UNL     1     167.577 178.930 189.318  1.00  0.00     0.119 A 
ATOM      5  C   UNL     1     168.188 180.106 188.878  1.00  0.00     0.047 A 
ATOM      6  C   UNL     1     169.515 180.088 188.443  1.00  0.00     0.011 A 
ENDROOT
BRANCH   1   7
ATOM      7  C   UNL     1     171.674 178.888 187.951  1.00  0.00     0.036 C 
ATOM      8  C   UNL     1     172.574 179.714 188.864  1.00  0.00     0.009 C 
ENDBRANCH   1   7
BRANCH   2   9
ATOM      9  O   UNL     1     170.337 176.500 188.875  1.00  0.00    -0.508 OA
ATOM     10  H   UNL     1     170.130 175.767 188.206  1.00  0.00     0.293 HD
ENDBRANCH   2   9
BRANCH   4  11
ATOM     11  O   UNL     1     166.252 178.962 189.749  1.00  0.00    -0.508 OA
ATOM     12  H   UNL     1     165.629 179.718 189.492  1.00  0.00     0.293 HD
ENDBRANCH   4  11
TORSDOF 3
ENDMDL
MODEL 6
REMARK VINA RESULT:    -3.600     24.712     26.047
REMARK INTER + INTRA:          -4.123
REMARK INTER:                  -4.015
REMARK INTRA:                  -0.108
REMARK UNBOUND:                -0.102
REMARK SMILES CCc1ccc(O)cc1O
REMARK SMILES IDX 3 1 9 2 8 3 6 4 5 5 4 6 2 7 1 8 10 9 7 11
REMARK H PARENT 10 10 7 12
REMARK Flexibility Score: inf
ROOT
ATOM      1  C   UNL     1     161.676 175.442 188.099  1.00  0.00    -0.006 A 
ATOM      2  C   UNL     1     161.305 176.791 188.270  1.00  0.00     0.122 A 
ATOM      3  C   UNL     1     162.143 177.811 187.798  1.00  0.00     0.092 A 
ATOM      4  C   UNL     1     163.342 177.497 187.145  1.00  0.00     0.119 A 
ATOM      5  C   UNL     1     163.702 176.160 186.961  1.00  0.00     0.047 A 
ATOM      6  C   UNL     1     162.873 175.138 187.429  1.00  0.00     0.011 A 
ENDROOT
BRANCH   1   7
ATOM      7  C   UNL     1     160.779 174.325 188.569  1.00  0.00     0.036 C 
ATOM      8  C   UNL     1     159.875 173.843 187.439  1.00  0.00     0.009 C 
ENDBRANCH   1   7
BRANCH   2   9
ATOM      9  O   UNL     1     160.106 177.114 188.908  1.00  0.00    -0.508 OA
ATOM     10  H   UNL     1     159.593 176.430 189.451  1.00  0.00     0.293 HD
ENDBRANCH   2   9
BRANCH   4  11
ATOM     11  O   UNL     1     164.178 178.506 186.672  1.00  0.00    -0.508 OA
ATOM     12  H   UNL     1     163.807 179.343 186.238  1.00  0.00     0.293 HD
ENDBRANCH   4  11
TORSDOF 3
ENDMDL
MODEL 7
REMARK VINA RESULT:    -3.572     17.447     18.706
REMARK INTER + INTRA:          -4.092
REMARK INTER:                  -3.996
REMARK INTRA:                  -0.096
REMARK UNBOUND:                -0.102
REMARK SMILES CCc1ccc(O)cc1O
REMARK SMILES IDX 3 1 9 2 8 3 6 4 5 5 4 6 2 7 1 8 10 9 7 11
REMARK H PARENT 10 10 7 12
REMARK Flexibility Score: inf
ROOT
ATOM      1  C   UNL     1     165.673 160.624 188.559  1.00  0.00    -0.006 A 
ATOM      2  C   UNL     1     166.101 160.278 187.261  1.00  0.00     0.122 A 
ATOM      3  C   UNL     1     165.184 160.283 186.200  1.00  0.00     0.092 A 
ATOM      4  C   UNL     1     163.848 160.642 186.420  1.00  0.00     0.119 A 
ATOM      5  C   UNL     1     163.428 161.000 187.703  1.00  0.00     0.047 A 
ATOM      6  C   UNL     1     164.334 160.996 188.766  1.00  0.00     0.011 A 
ENDROOT
BRANCH   1   7
ATOM      7  C   UNL     1     166.643 160.657 189.713  1.00  0.00     0.036 C 
ATOM      8  C   UNL     1     166.680 162.042 190.350  1.00  0.00     0.009 C 
ENDBRANCH   1   7
BRANCH   2   9
ATOM      9  O   UNL     1     167.432 159.933 187.030  1.00  0.00    -0.508 OA
ATOM     10  H   UNL     1     168.184 160.304 187.599  1.00  0.00     0.293 HD
ENDBRANCH   2   9
BRANCH   4  11
ATOM     11  O   UNL     1     162.933 160.649 185.369  1.00  0.00    -0.508 OA
ATOM     12  H   UNL     1     161.935 160.693 185.534  1.00  0.00     0.293 HD
ENDBRANCH   4  11
TORSDOF 3
ENDMDL
MODEL 8
REMARK VINA RESULT:    -3.570     15.878     17.967
REMARK INTER + INTRA:          -4.090
REMARK INTER:                  -4.002
REMARK INTRA:                  -0.089
REMARK UNBOUND:                -0.102
REMARK SMILES CCc1ccc(O)cc1O
REMARK SMILES IDX 3 1 9 2 8 3 6 4 5 5 4 6 2 7 1 8 10 9 7 11
REMARK H PARENT 10 10 7 12
REMARK Flexibility Score: inf
ROOT
ATOM      1  C   UNL     1     165.276 160.266 188.109  1.00  0.00    -0.006 A 
ATOM      2  C   UNL     1     166.533 160.285 188.747  1.00  0.00     0.122 A 
ATOM      3  C   UNL     1     167.706 160.299 187.978  1.00  0.00     0.092 A 
ATOM      4  C   UNL     1     167.636 160.305 186.579  1.00  0.00     0.119 A 
ATOM      5  C   UNL     1     166.390 160.302 185.947  1.00  0.00     0.047 A 
ATOM      6  C   UNL     1     165.217 160.288 186.706  1.00  0.00     0.011 A 
ENDROOT
BRANCH   1   7
ATOM      7  C   UNL     1     163.999 160.282 188.910  1.00  0.00     0.036 C 
ATOM      8  C   UNL     1     162.945 161.151 188.232  1.00  0.00     0.009 C 
ENDBRANCH   1   7
BRANCH   2   9
ATOM      9  O   UNL     1     166.613 160.292 190.140  1.00  0.00    -0.508 OA
ATOM     10  H   UNL     1     167.113 161.018 190.639  1.00  0.00     0.293 HD
ENDBRANCH   2   9
BRANCH   4  11
ATOM     11  O   UNL     1     168.798 160.320 185.810  1.00  0.00    -0.508 OA
ATOM     12  H   UNL     1     168.910 160.956 185.031  1.00  0.00     0.293 HD
ENDBRANCH   4  11
TORSDOF 3
ENDMDL
MODEL 9
REMARK VINA RESULT:    -3.567     11.618     13.199
REMARK INTER + INTRA:          -4.086
REMARK INTER:                  -3.991
REMARK INTRA:                  -0.095
REMARK UNBOUND:                -0.102
REMARK SMILES CCc1ccc(O)cc1O
REMARK SMILES IDX 3 1 9 2 8 3 6 4 5 5 4 6 2 7 1 8 10 9 7 11
REMARK H PARENT 10 10 7 12
REMARK Flexibility Score: inf
ROOT
ATOM      1  C   UNL     1     176.789 163.040 188.561  1.00  0.00    -0.006 A 
ATOM      2  C   UNL     1     177.155 163.280 187.221  1.00  0.00     0.122 A 
ATOM      3  C   UNL     1     176.793 162.363 186.223  1.00  0.00     0.092 A 
ATOM      4  C   UNL     1     176.060 161.216 186.549  1.00  0.00     0.119 A 
ATOM      5  C   UNL     1     175.683 160.985 187.874  1.00  0.00     0.047 A 
ATOM      6  C   UNL     1     176.040 161.893 188.874  1.00  0.00     0.011 A 
ENDROOT
BRANCH   1   7
ATOM      7  C   UNL     1     177.137 164.024 189.649  1.00  0.00     0.036 C 
ATOM      8  C   UNL     1     175.887 164.456 190.409  1.00  0.00     0.009 C 
ENDBRANCH   1   7
BRANCH   2   9
ATOM      9  O   UNL     1     177.874 164.428 186.885  1.00  0.00    -0.508 OA
ATOM     10  H   UNL     1     178.650 164.752 187.450  1.00  0.00     0.293 HD
ENDBRANCH   2   9
BRANCH   4  11
ATOM     11  O   UNL     1     175.697 160.301 185.561  1.00  0.00    -0.508 OA
ATOM     12  H   UNL     1     175.588 160.581 184.594  1.00  0.00     0.293 HD
ENDBRANCH   4  11
TORSDOF 3
ENDMDL
