MODEL 1
REMARK VINA RESULT:    -6.488      0.000      0.000
REMARK INTER + INTRA:         -12.133
REMARK INTER:                 -10.281
REMARK INTRA:                  -1.852
REMARK UNBOUND:                -1.852
REMARK SMILES C[C@H]1O[C@@H](O[C@@H]2[C@H](Oc3cc(O)c4c(c3)O[C@H](c3ccc(O)cc3)CC4=O)O[C@@H](CO)[C@@H](O)[C@H]2O)[C@H](O)[C@H](O)[C@H]1O
REMARK SMILES IDX 6 1 34 2 32 3 29 4 28 5 7 6 5 7 4 8 1 9 2 10 40 11 3 12
REMARK SMILES IDX 38 13 36 14 41 15 39 17 37 19 35 21 8 23 9 24 10 25 15 26
REMARK SMILES IDX 11 27 14 28 13 29 16 30 26 31 17 32 27 33 25 34 12 35 18 37
REMARK SMILES IDX 19 38 24 39 20 40 23 41 21 42 22 43 33 45 30 47 31 48
REMARK H PARENT 41 16 39 18 37 20 35 22 12 36 22 44 33 46 31 49
REMARK Flexibility Score: inf
ROOT
ATOM      1  C   UNL     1      -0.856 -29.040 -20.658  1.00  0.00     0.221 C 
ATOM      2  C   UNL     1      -0.363 -29.621 -22.001  1.00  0.00     0.181 C 
ATOM      3  C   UNL     1      -0.765 -31.106 -22.154  1.00  0.00     0.177 C 
ATOM      4  C   UNL     1      -0.412 -31.893 -20.870  1.00  0.00     0.179 C 
ATOM      5  O   UNL     1      -1.011 -31.299 -19.727  1.00  0.00    -0.332 OA
ATOM      6  C   UNL     1      -0.500 -29.992 -19.497  1.00  0.00     0.339 C 
ENDROOT
BRANCH   1   7
ATOM      7  O   UNL     1      -0.210 -27.796 -20.418  1.00  0.00    -0.337 OA
BRANCH   7   8
ATOM      8  C   UNL     1      -1.077 -26.816 -19.869  1.00  0.00     0.282 C 
ATOM      9  C   UNL     1       0.817 -25.736 -22.057  1.00  0.00     0.041 C 
ATOM     10  C   UNL     1      -0.185 -25.000 -21.144  1.00  0.00     0.150 C 
ATOM     11  C   UNL     1       0.460 -24.349 -19.896  1.00  0.00     0.174 C 
ATOM     12  O   UNL     1      -1.326 -25.793 -20.828  1.00  0.00    -0.344 OA
ATOM     13  C   UNL     1       0.736 -25.406 -18.810  1.00  0.00     0.179 C 
ATOM     14  C   UNL     1      -0.529 -26.232 -18.543  1.00  0.00     0.202 C 
BRANCH  11  15
ATOM     15  O   UNL     1       1.647 -23.685 -20.250  1.00  0.00    -0.388 OA
ATOM     16  H   UNL     1       1.445 -22.714 -20.231  1.00  0.00     0.211 HD
ENDBRANCH  11  15
BRANCH  13  17
ATOM     17  O   UNL     1       1.210 -24.814 -17.622  1.00  0.00    -0.387 OA
ATOM     18  H   UNL     1       1.156 -25.488 -16.895  1.00  0.00     0.211 HD
ENDBRANCH  13  17
BRANCH  14  19
ATOM     19  O   UNL     1      -1.518 -25.423 -17.944  1.00  0.00    -0.385 OA
ATOM     20  H   UNL     1      -1.228 -24.484 -18.052  1.00  0.00     0.211 HD
ENDBRANCH  14  19
ENDBRANCH   7   8
ENDBRANCH   1   7
BRANCH   2  21
ATOM     21  O   UNL     1      -0.893 -28.889 -23.076  1.00  0.00    -0.387 OA
ATOM     22  H   UNL     1      -0.740 -29.431 -23.898  1.00  0.00     0.211 HD
ENDBRANCH   2  21
BRANCH   6  23
ATOM     23  O   UNL     1       0.916 -30.018 -19.289  1.00  0.00    -0.462 OA
BRANCH  23  24
ATOM     24  C   UNL     1       1.535 -30.272 -18.058  1.00  0.00     0.130 A 
ATOM     25  C   UNL     1       2.624 -31.156 -17.924  1.00  0.00     0.093 A 
ATOM     26  C   UNL     1       1.052 -29.601 -16.931  1.00  0.00     0.094 A 
ATOM     27  C   UNL     1       3.235 -31.360 -16.678  1.00  0.00     0.133 A 
ATOM     28  C   UNL     1       1.651 -29.791 -15.682  1.00  0.00     0.138 A 
ATOM     29  C   UNL     1       2.732 -30.685 -15.536  1.00  0.00     0.102 A 
ATOM     30  O   UNL     1       1.175 -29.057 -14.584  1.00  0.00    -0.484 OA
ATOM     31  C   UNL     1       3.284 -30.839 -14.173  1.00  0.00     0.174 C 
ATOM     32  C   UNL     1       1.575 -29.290 -13.227  1.00  0.00     0.211 C 
ATOM     33  O   UNL     1       3.896 -31.880 -13.820  1.00  0.00    -0.294 OA
ATOM     34  C   UNL     1       3.054 -29.743 -13.176  1.00  0.00     0.131 C 
BRANCH  27  35
ATOM     35  O   UNL     1       4.346 -32.211 -16.636  1.00  0.00    -0.507 OA
ATOM     36  H   UNL     1       4.850 -32.521 -17.451  1.00  0.00     0.293 HD
ENDBRANCH  27  35
BRANCH  32  37
ATOM     37  C   UNL     1       1.315 -28.048 -12.381  1.00  0.00    -0.007 A 
ATOM     38  C   UNL     1       2.159 -26.918 -12.468  1.00  0.00     0.011 A 
ATOM     39  C   UNL     1       0.276 -28.034 -11.423  1.00  0.00     0.011 A 
ATOM     40  C   UNL     1       1.923 -25.789 -11.676  1.00  0.00     0.046 A 
ATOM     41  C   UNL     1       0.055 -26.906 -10.626  1.00  0.00     0.046 A 
ATOM     42  C   UNL     1       0.875 -25.779 -10.756  1.00  0.00     0.115 A 
BRANCH  42  43
ATOM     43  O   UNL     1       0.666 -24.650  -9.968  1.00  0.00    -0.508 OA
ATOM     44  H   UNL     1       1.281 -24.413  -9.197  1.00  0.00     0.293 HD
ENDBRANCH  42  43
ENDBRANCH  32  37
ENDBRANCH  23  24
ENDBRANCH   6  23
BRANCH   3  45
ATOM     45  O   UNL     1      -2.126 -31.241 -22.492  1.00  0.00    -0.387 OA
ATOM     46  H   UNL     1      -2.549 -31.850 -21.838  1.00  0.00     0.211 HD
ENDBRANCH   3  45
BRANCH   4  47
ATOM     47  C   UNL     1      -0.866 -33.354 -20.967  1.00  0.00     0.191 C 
BRANCH  47  48
ATOM     48  O   UNL     1      -0.875 -33.946 -19.699  1.00  0.00    -0.394 OA
ATOM     49  H   UNL     1      -1.609 -34.617 -19.699  1.00  0.00     0.210 HD
ENDBRANCH  47  48
ENDBRANCH   4  47
TORSDOF 14
ENDMDL
MODEL 2
REMARK VINA RESULT:    -5.754     11.522     15.073
REMARK INTER + INTRA:         -10.970
REMARK INTER:                  -8.943
REMARK INTRA:                  -2.027
REMARK UNBOUND:                -1.852
REMARK SMILES C[C@H]1O[C@@H](O[C@@H]2[C@H](Oc3cc(O)c4c(c3)O[C@H](c3ccc(O)cc3)CC4=O)O[C@@H](CO)[C@@H](O)[C@H]2O)[C@H](O)[C@H](O)[C@H]1O
REMARK SMILES IDX 6 1 34 2 32 3 29 4 28 5 7 6 5 7 4 8 1 9 2 10 40 11 3 12
REMARK SMILES IDX 38 13 36 14 41 15 39 17 37 19 35 21 8 23 9 24 10 25 15 26
REMARK SMILES IDX 11 27 14 28 13 29 16 30 26 31 17 32 27 33 25 34 12 35 18 37
REMARK SMILES IDX 19 38 24 39 20 40 23 41 21 42 22 43 33 45 30 47 31 48
REMARK H PARENT 41 16 39 18 37 20 35 22 12 36 22 44 33 46 31 49
REMARK Flexibility Score: inf
ROOT
ATOM      1  C   UNL     1     -12.547 -17.895 -17.477  1.00  0.00     0.221 C 
ATOM      2  C   UNL     1     -13.468 -18.833 -16.665  1.00  0.00     0.181 C 
ATOM      3  C   UNL     1     -13.200 -18.709 -15.148  1.00  0.00     0.177 C 
ATOM      4  C   UNL     1     -11.682 -18.785 -14.862  1.00  0.00     0.179 C 
ATOM      5  O   UNL     1     -10.974 -17.803 -15.604  1.00  0.00    -0.332 OA
ATOM      6  C   UNL     1     -11.085 -18.033 -17.003  1.00  0.00     0.339 C 
ENDROOT
BRANCH   1   7
ATOM      7  O   UNL     1     -12.598 -18.259 -18.851  1.00  0.00    -0.337 OA
BRANCH   7   8
ATOM      8  C   UNL     1     -13.168 -17.252 -19.672  1.00  0.00     0.282 C 
ATOM      9  C   UNL     1     -12.585 -19.900 -21.151  1.00  0.00     0.041 C 
ATOM     10  C   UNL     1     -13.089 -18.544 -21.683  1.00  0.00     0.150 C 
ATOM     11  C   UNL     1     -11.978 -17.654 -22.293  1.00  0.00     0.174 C 
ATOM     12  O   UNL     1     -13.899 -17.849 -20.739  1.00  0.00    -0.344 OA
ATOM     13  C   UNL     1     -11.162 -16.963 -21.186  1.00  0.00     0.179 C 
ATOM     14  C   UNL     1     -12.102 -16.258 -20.198  1.00  0.00     0.202 C 
BRANCH  11  15
ATOM     15  O   UNL     1     -11.137 -18.421 -23.119  1.00  0.00    -0.388 OA
ATOM     16  H   UNL     1     -10.859 -19.209 -22.585  1.00  0.00     0.211 HD
ENDBRANCH  11  15
BRANCH  13  17
ATOM     17  O   UNL     1     -10.227 -16.055 -21.723  1.00  0.00    -0.387 OA
ATOM     18  H   UNL     1     -10.560 -15.133 -21.563  1.00  0.00     0.211 HD
ENDBRANCH  13  17
BRANCH  14  19
ATOM     19  O   UNL     1     -12.746 -15.174 -20.832  1.00  0.00    -0.385 OA
ATOM     20  H   UNL     1     -13.659 -15.120 -20.458  1.00  0.00     0.211 HD
ENDBRANCH  14  19
ENDBRANCH   7   8
ENDBRANCH   1   7
BRANCH   2  21
ATOM     21  O   UNL     1     -14.816 -18.537 -16.920  1.00  0.00    -0.387 OA
ATOM     22  H   UNL     1     -14.828 -17.753 -17.537  1.00  0.00     0.211 HD
ENDBRANCH   2  21
BRANCH   6  23
ATOM     23  O   UNL     1     -10.564 -19.317 -17.361  1.00  0.00    -0.462 OA
BRANCH  23  24
ATOM     24  C   UNL     1      -9.474 -19.523 -18.218  1.00  0.00     0.130 A 
ATOM     25  C   UNL     1      -9.448 -19.042 -19.541  1.00  0.00     0.093 A 
ATOM     26  C   UNL     1      -8.371 -20.221 -17.718  1.00  0.00     0.094 A 
ATOM     27  C   UNL     1      -8.324 -19.244 -20.357  1.00  0.00     0.133 A 
ATOM     28  C   UNL     1      -7.243 -20.429 -18.516  1.00  0.00     0.138 A 
ATOM     29  C   UNL     1      -7.213 -19.963 -19.847  1.00  0.00     0.102 A 
ATOM     30  O   UNL     1      -6.132 -21.084 -17.961  1.00  0.00    -0.484 OA
ATOM     31  C   UNL     1      -5.987 -20.252 -20.621  1.00  0.00     0.174 C 
ATOM     32  C   UNL     1      -4.994 -21.519 -18.718  1.00  0.00     0.211 C 
ATOM     33  O   UNL     1      -5.997 -20.313 -21.879  1.00  0.00    -0.294 OA
ATOM     34  C   UNL     1      -4.716 -20.533 -19.878  1.00  0.00     0.131 C 
BRANCH  27  35
ATOM     35  O   UNL     1      -8.352 -18.688 -21.641  1.00  0.00    -0.507 OA
ATOM     36  H   UNL     1      -8.147 -19.202 -22.483  1.00  0.00     0.293 HD
ENDBRANCH  27  35
BRANCH  32  37
ATOM     37  C   UNL     1      -3.788 -21.697 -17.801  1.00  0.00    -0.007 A 
ATOM     38  C   UNL     1      -2.637 -22.390 -18.238  1.00  0.00     0.011 A 
ATOM     39  C   UNL     1      -3.831 -21.251 -16.461  1.00  0.00     0.011 A 
ATOM     40  C   UNL     1      -1.542 -22.564 -17.385  1.00  0.00     0.046 A 
ATOM     41  C   UNL     1      -2.738 -21.439 -15.610  1.00  0.00     0.046 A 
ATOM     42  C   UNL     1      -1.589 -22.092 -16.073  1.00  0.00     0.115 A 
BRANCH  42  43
ATOM     43  O   UNL     1      -0.493 -22.287 -15.235  1.00  0.00    -0.508 OA
ATOM     44  H   UNL     1      -0.210 -21.592 -14.552  1.00  0.00     0.293 HD
ENDBRANCH  42  43
ENDBRANCH  32  37
ENDBRANCH  23  24
ENDBRANCH   6  23
BRANCH   3  45
ATOM     45  O   UNL     1     -13.774 -17.538 -14.616  1.00  0.00    -0.387 OA
ATOM     46  H   UNL     1     -14.598 -17.788 -14.131  1.00  0.00     0.211 HD
ENDBRANCH   3  45
BRANCH   4  47
ATOM     47  C   UNL     1     -11.383 -18.593 -13.370  1.00  0.00     0.191 C 
BRANCH  47  48
ATOM     48  O   UNL     1     -11.402 -17.233 -13.042  1.00  0.00    -0.394 OA
ATOM     49  H   UNL     1     -10.701 -17.094 -12.350  1.00  0.00     0.210 HD
ENDBRANCH  47  48
ENDBRANCH   4  47
TORSDOF 14
ENDMDL
MODEL 3
REMARK VINA RESULT:    -5.742      1.945      5.045
REMARK INTER + INTRA:         -10.951
REMARK INTER:                  -8.920
REMARK INTRA:                  -2.031
REMARK UNBOUND:                -1.852
REMARK SMILES C[C@H]1O[C@@H](O[C@@H]2[C@H](Oc3cc(O)c4c(c3)O[C@H](c3ccc(O)cc3)CC4=O)O[C@@H](CO)[C@@H](O)[C@H]2O)[C@H](O)[C@H](O)[C@H]1O
REMARK SMILES IDX 6 1 34 2 32 3 29 4 28 5 7 6 5 7 4 8 1 9 2 10 40 11 3 12
REMARK SMILES IDX 38 13 36 14 41 15 39 17 37 19 35 21 8 23 9 24 10 25 15 26
REMARK SMILES IDX 11 27 14 28 13 29 16 30 26 31 17 32 27 33 25 34 12 35 18 37
REMARK SMILES IDX 19 38 24 39 20 40 23 41 21 42 22 43 33 45 30 47 31 48
REMARK H PARENT 41 16 39 18 37 20 35 22 12 36 22 44 33 46 31 49
REMARK Flexibility Score: inf
ROOT
ATOM      1  C   UNL     1      -0.006 -27.243 -19.820  1.00  0.00     0.221 C 
ATOM      2  C   UNL     1      -0.868 -25.993 -19.530  1.00  0.00     0.181 C 
ATOM      3  C   UNL     1      -0.012 -24.706 -19.534  1.00  0.00     0.177 C 
ATOM      4  C   UNL     1       1.260 -24.903 -18.676  1.00  0.00     0.179 C 
ATOM      5  O   UNL     1       2.002 -26.031 -19.117  1.00  0.00    -0.332 OA
ATOM      6  C   UNL     1       1.265 -27.234 -18.944  1.00  0.00     0.339 C 
ENDROOT
BRANCH   1   7
ATOM      7  O   UNL     1      -0.750 -28.411 -19.501  1.00  0.00    -0.337 OA
BRANCH   7   8
ATOM      8  C   UNL     1      -0.948 -29.266 -20.617  1.00  0.00     0.282 C 
ATOM      9  C   UNL     1      -1.207 -30.683 -17.884  1.00  0.00     0.041 C 
ATOM     10  C   UNL     1      -1.238 -31.253 -19.317  1.00  0.00     0.150 C 
ATOM     11  C   UNL     1       0.114 -31.843 -19.790  1.00  0.00     0.174 C 
ATOM     12  O   UNL     1      -1.806 -30.345 -20.258  1.00  0.00    -0.344 OA
ATOM     13  C   UNL     1       1.080 -30.722 -20.212  1.00  0.00     0.179 C 
ATOM     14  C   UNL     1       0.392 -29.775 -21.205  1.00  0.00     0.202 C 
BRANCH  11  15
ATOM     15  O   UNL     1       0.684 -32.630 -18.775  1.00  0.00    -0.388 OA
ATOM     16  H   UNL     1       0.128 -33.448 -18.704  1.00  0.00     0.211 HD
ENDBRANCH  11  15
BRANCH  13  17
ATOM     17  O   UNL     1       2.269 -31.244 -20.760  1.00  0.00    -0.387 OA
ATOM     18  H   UNL     1       2.654 -31.891 -20.111  1.00  0.00     0.211 HD
ENDBRANCH  13  17
BRANCH  14  19
ATOM     19  O   UNL     1       0.144 -30.446 -22.421  1.00  0.00    -0.385 OA
ATOM     20  H   UNL     1       0.927 -31.021 -22.599  1.00  0.00     0.211 HD
ENDBRANCH  14  19
ENDBRANCH   7   8
ENDBRANCH   1   7
BRANCH   2  21
ATOM     21  O   UNL     1      -1.889 -25.870 -20.486  1.00  0.00    -0.387 OA
ATOM     22  H   UNL     1      -2.365 -26.746 -20.514  1.00  0.00     0.211 HD
ENDBRANCH   2  21
BRANCH   6  23
ATOM     23  O   UNL     1       0.924 -27.440 -17.569  1.00  0.00    -0.462 OA
BRANCH  23  24
ATOM     24  C   UNL     1       1.553 -28.364 -16.723  1.00  0.00     0.130 A 
ATOM     25  C   UNL     1       2.240 -29.493 -17.210  1.00  0.00     0.093 A 
ATOM     26  C   UNL     1       1.502 -28.132 -15.346  1.00  0.00     0.094 A 
ATOM     27  C   UNL     1       2.883 -30.378 -16.331  1.00  0.00     0.133 A 
ATOM     28  C   UNL     1       2.138 -29.002 -14.456  1.00  0.00     0.138 A 
ATOM     29  C   UNL     1       2.816 -30.142 -14.933  1.00  0.00     0.102 A 
ATOM     30  O   UNL     1       2.113 -28.705 -13.084  1.00  0.00    -0.484 OA
ATOM     31  C   UNL     1       3.437 -31.017 -13.916  1.00  0.00     0.174 C 
ATOM     32  C   UNL     1       2.564 -29.601 -12.059  1.00  0.00     0.211 C 
ATOM     33  O   UNL     1       3.655 -32.237 -14.134  1.00  0.00    -0.294 OA
ATOM     34  C   UNL     1       3.761 -30.438 -12.571  1.00  0.00     0.131 C 
BRANCH  27  35
ATOM     35  O   UNL     1       3.591 -31.446 -16.894  1.00  0.00    -0.507 OA
ATOM     36  H   UNL     1       4.443 -31.342 -17.421  1.00  0.00     0.293 HD
ENDBRANCH  27  35
BRANCH  32  37
ATOM     37  C   UNL     1       2.895 -28.823 -10.789  1.00  0.00    -0.007 A 
ATOM     38  C   UNL     1       2.038 -28.865  -9.666  1.00  0.00     0.011 A 
ATOM     39  C   UNL     1       4.021 -27.971 -10.740  1.00  0.00     0.011 A 
ATOM     40  C   UNL     1       2.341 -28.135  -8.511  1.00  0.00     0.046 A 
ATOM     41  C   UNL     1       4.310 -27.235  -9.586  1.00  0.00     0.046 A 
ATOM     42  C   UNL     1       3.473 -27.321  -8.467  1.00  0.00     0.115 A 
BRANCH  42  43
ATOM     43  O   UNL     1       3.748 -26.592  -7.313  1.00  0.00    -0.508 OA
ATOM     44  H   UNL     1       3.967 -27.046  -6.432  1.00  0.00     0.293 HD
ENDBRANCH  42  43
ENDBRANCH  32  37
ENDBRANCH  23  24
ENDBRANCH   6  23
BRANCH   3  45
ATOM     45  O   UNL     1       0.300 -24.297 -20.846  1.00  0.00    -0.387 OA
ATOM     46  H   UNL     1      -0.373 -23.632 -21.132  1.00  0.00     0.211 HD
ENDBRANCH   3  45
BRANCH   4  47
ATOM     47  C   UNL     1       2.162 -23.665 -18.722  1.00  0.00     0.191 C 
BRANCH  47  48
ATOM     48  O   UNL     1       1.393 -22.499 -18.639  1.00  0.00    -0.394 OA
ATOM     49  H   UNL     1       1.319 -22.270 -17.674  1.00  0.00     0.210 HD
ENDBRANCH  47  48
ENDBRANCH   4  47
TORSDOF 14
ENDMDL
MODEL 4
REMARK VINA RESULT:    -5.739     11.601     15.415
REMARK INTER + INTRA:         -10.946
REMARK INTER:                  -9.402
REMARK INTRA:                  -1.544
REMARK UNBOUND:                -1.852
REMARK SMILES C[C@H]1O[C@@H](O[C@@H]2[C@H](Oc3cc(O)c4c(c3)O[C@H](c3ccc(O)cc3)CC4=O)O[C@@H](CO)[C@@H](O)[C@H]2O)[C@H](O)[C@H](O)[C@H]1O
REMARK SMILES IDX 6 1 34 2 32 3 29 4 28 5 7 6 5 7 4 8 1 9 2 10 40 11 3 12
REMARK SMILES IDX 38 13 36 14 41 15 39 17 37 19 35 21 8 23 9 24 10 25 15 26
REMARK SMILES IDX 11 27 14 28 13 29 16 30 26 31 17 32 27 33 25 34 12 35 18 37
REMARK SMILES IDX 19 38 24 39 20 40 23 41 21 42 22 43 33 45 30 47 31 48
REMARK H PARENT 41 16 39 18 37 20 35 22 12 36 22 44 33 46 31 49
REMARK Flexibility Score: inf
ROOT
ATOM      1  C   UNL     1     -11.959 -16.890 -16.907  1.00  0.00     0.221 C 
ATOM      2  C   UNL     1     -11.560 -16.906 -15.415  1.00  0.00     0.181 C 
ATOM      3  C   UNL     1     -10.394 -15.932 -15.132  1.00  0.00     0.177 C 
ATOM      4  C   UNL     1      -9.264 -16.131 -16.168  1.00  0.00     0.179 C 
ATOM      5  O   UNL     1      -9.757 -15.993 -17.493  1.00  0.00    -0.332 OA
ATOM      6  C   UNL     1     -10.705 -17.008 -17.800  1.00  0.00     0.339 C 
ENDROOT
BRANCH   1   7
ATOM      7  O   UNL     1     -12.798 -18.003 -17.183  1.00  0.00    -0.337 OA
BRANCH   7   8
ATOM      8  C   UNL     1     -13.996 -17.644 -17.854  1.00  0.00     0.282 C 
ATOM      9  C   UNL     1     -13.174 -20.596 -18.241  1.00  0.00     0.041 C 
ATOM     10  C   UNL     1     -14.322 -19.783 -18.873  1.00  0.00     0.150 C 
ATOM     11  C   UNL     1     -14.005 -19.236 -20.286  1.00  0.00     0.174 C 
ATOM     12  O   UNL     1     -14.837 -18.785 -17.995  1.00  0.00    -0.344 OA
ATOM     13  C   UNL     1     -13.112 -17.985 -20.199  1.00  0.00     0.179 C 
ATOM     14  C   UNL     1     -13.718 -16.969 -19.220  1.00  0.00     0.202 C 
BRANCH  11  15
ATOM     15  O   UNL     1     -13.387 -20.229 -21.066  1.00  0.00    -0.388 OA
ATOM     16  H   UNL     1     -13.665 -20.065 -22.004  1.00  0.00     0.211 HD
ENDBRANCH  11  15
BRANCH  13  17
ATOM     17  O   UNL     1     -12.914 -17.403 -21.467  1.00  0.00    -0.387 OA
ATOM     18  H   UNL     1     -11.994 -17.030 -21.499  1.00  0.00     0.211 HD
ENDBRANCH  13  17
BRANCH  14  19
ATOM     19  O   UNL     1     -14.923 -16.455 -19.742  1.00  0.00    -0.385 OA
ATOM     20  H   UNL     1     -15.660 -16.966 -19.327  1.00  0.00     0.211 HD
ENDBRANCH  14  19
ENDBRANCH   7   8
ENDBRANCH   1   7
BRANCH   2  21
ATOM     21  O   UNL     1     -12.657 -16.557 -14.611  1.00  0.00    -0.387 OA
ATOM     22  H   UNL     1     -13.270 -16.013 -15.179  1.00  0.00     0.211 HD
ENDBRANCH   2  21
BRANCH   6  23
ATOM     23  O   UNL     1     -10.127 -18.311 -17.678  1.00  0.00    -0.462 OA
BRANCH  23  24
ATOM     24  C   UNL     1      -9.109 -18.811 -18.503  1.00  0.00     0.130 A 
ATOM     25  C   UNL     1      -9.068 -18.566 -19.889  1.00  0.00     0.093 A 
ATOM     26  C   UNL     1      -8.095 -19.566 -17.907  1.00  0.00     0.094 A 
ATOM     27  C   UNL     1      -8.016 -19.060 -20.675  1.00  0.00     0.133 A 
ATOM     28  C   UNL     1      -7.039 -20.064 -18.675  1.00  0.00     0.138 A 
ATOM     29  C   UNL     1      -6.996 -19.836 -20.066  1.00  0.00     0.102 A 
ATOM     30  O   UNL     1      -6.009 -20.770 -18.033  1.00  0.00    -0.484 OA
ATOM     31  C   UNL     1      -5.853 -20.422 -20.798  1.00  0.00     0.174 C 
ATOM     32  C   UNL     1      -4.972 -21.483 -18.721  1.00  0.00     0.211 C 
ATOM     33  O   UNL     1      -5.920 -20.690 -22.026  1.00  0.00    -0.294 OA
ATOM     34  C   UNL     1      -4.605 -20.754 -20.036  1.00  0.00     0.131 C 
BRANCH  27  35
ATOM     35  O   UNL     1      -8.016 -18.728 -22.035  1.00  0.00    -0.507 OA
ATOM     36  H   UNL     1      -8.321 -17.840 -22.399  1.00  0.00     0.293 HD
ENDBRANCH  27  35
BRANCH  32  37
ATOM     37  C   UNL     1      -3.768 -21.676 -17.805  1.00  0.00    -0.007 A 
ATOM     38  C   UNL     1      -2.636 -22.405 -18.235  1.00  0.00     0.011 A 
ATOM     39  C   UNL     1      -3.796 -21.208 -16.472  1.00  0.00     0.011 A 
ATOM     40  C   UNL     1      -1.543 -22.592 -17.382  1.00  0.00     0.046 A 
ATOM     41  C   UNL     1      -2.704 -21.410 -15.622  1.00  0.00     0.046 A 
ATOM     42  C   UNL     1      -1.573 -22.098 -16.077  1.00  0.00     0.115 A 
BRANCH  42  43
ATOM     43  O   UNL     1      -0.479 -22.307 -15.240  1.00  0.00    -0.508 OA
ATOM     44  H   UNL     1       0.220 -21.589 -15.083  1.00  0.00     0.293 HD
ENDBRANCH  42  43
ENDBRANCH  32  37
ENDBRANCH  23  24
ENDBRANCH   6  23
BRANCH   3  45
ATOM     45  O   UNL     1     -10.837 -14.595 -15.091  1.00  0.00    -0.387 OA
ATOM     46  H   UNL     1     -10.049 -14.005 -15.176  1.00  0.00     0.211 HD
ENDBRANCH   3  45
BRANCH   4  47
ATOM     47  C   UNL     1      -8.125 -15.127 -15.954  1.00  0.00     0.191 C 
BRANCH  47  48
ATOM     48  O   UNL     1      -7.091 -15.713 -15.217  1.00  0.00    -0.394 OA
ATOM     49  H   UNL     1      -7.508 -16.127 -14.414  1.00  0.00     0.210 HD
ENDBRANCH  47  48
ENDBRANCH   4  47
TORSDOF 14
ENDMDL
MODEL 5
REMARK VINA RESULT:    -5.510      1.304      2.170
REMARK INTER + INTRA:         -10.584
REMARK INTER:                  -9.123
REMARK INTRA:                  -1.461
REMARK UNBOUND:                -1.852
REMARK SMILES C[C@H]1O[C@@H](O[C@@H]2[C@H](Oc3cc(O)c4c(c3)O[C@H](c3ccc(O)cc3)CC4=O)O[C@@H](CO)[C@@H](O)[C@H]2O)[C@H](O)[C@H](O)[C@H]1O
REMARK SMILES IDX 6 1 34 2 32 3 29 4 28 5 7 6 5 7 4 8 1 9 2 10 40 11 3 12
REMARK SMILES IDX 38 13 36 14 41 15 39 17 37 19 35 21 8 23 9 24 10 25 15 26
REMARK SMILES IDX 11 27 14 28 13 29 16 30 26 31 17 32 27 33 25 34 12 35 18 37
REMARK SMILES IDX 19 38 24 39 20 40 23 41 21 42 22 43 33 45 30 47 31 48
REMARK H PARENT 41 16 39 18 37 20 35 22 12 36 22 44 33 46 31 49
REMARK Flexibility Score: inf
ROOT
ATOM      1  C   UNL     1       0.653 -27.633 -20.677  1.00  0.00     0.221 C 
ATOM      2  C   UNL     1       0.957 -28.143 -22.103  1.00  0.00     0.181 C 
ATOM      3  C   UNL     1      -0.150 -29.096 -22.609  1.00  0.00     0.177 C 
ATOM      4  C   UNL     1      -0.480 -30.157 -21.533  1.00  0.00     0.179 C 
ATOM      5  O   UNL     1      -0.834 -29.541 -20.303  1.00  0.00    -0.332 OA
ATOM      6  C   UNL     1       0.255 -28.808 -19.759  1.00  0.00     0.339 C 
ENDROOT
BRANCH   1   7
ATOM      7  O   UNL     1       1.819 -27.028 -20.134  1.00  0.00    -0.337 OA
BRANCH   7   8
ATOM      8  C   UNL     1       1.942 -25.655 -20.471  1.00  0.00     0.282 C 
ATOM      9  C   UNL     1       2.427 -26.265 -17.482  1.00  0.00     0.041 C 
ATOM     10  C   UNL     1       2.356 -24.920 -18.233  1.00  0.00     0.150 C 
ATOM     11  C   UNL     1       0.980 -24.216 -18.137  1.00  0.00     0.174 C 
ATOM     12  O   UNL     1       2.838 -25.011 -19.572  1.00  0.00    -0.344 OA
ATOM     13  C   UNL     1      -0.031 -24.858 -19.105  1.00  0.00     0.179 C 
ATOM     14  C   UNL     1       0.568 -24.942 -20.515  1.00  0.00     0.202 C 
BRANCH  11  15
ATOM     15  O   UNL     1       0.498 -24.267 -16.817  1.00  0.00    -0.388 OA
ATOM     16  H   UNL     1       0.299 -23.331 -16.553  1.00  0.00     0.211 HD
ENDBRANCH  11  15
BRANCH  13  17
ATOM     17  O   UNL     1      -1.251 -24.153 -19.119  1.00  0.00    -0.387 OA
ATOM     18  H   UNL     1      -1.225 -23.469 -18.399  1.00  0.00     0.211 HD
ENDBRANCH  13  17
BRANCH  14  19
ATOM     19  O   UNL     1       0.731 -23.646 -21.050  1.00  0.00    -0.385 OA
ATOM     20  H   UNL     1       0.884 -23.750 -22.020  1.00  0.00     0.211 HD
ENDBRANCH  14  19
ENDBRANCH   7   8
ENDBRANCH   1   7
BRANCH   2  21
ATOM     21  O   UNL     1       1.079 -27.065 -22.993  1.00  0.00    -0.387 OA
ATOM     22  H   UNL     1       0.469 -27.253 -23.759  1.00  0.00     0.211 HD
ENDBRANCH   2  21
BRANCH   6  23
ATOM     23  O   UNL     1       1.383 -29.657 -19.519  1.00  0.00    -0.462 OA
BRANCH  23  24
ATOM     24  C   UNL     1       1.848 -30.023 -18.248  1.00  0.00     0.130 A 
ATOM     25  C   UNL     1       2.833 -31.010 -18.056  1.00  0.00     0.093 A 
ATOM     26  C   UNL     1       1.314 -29.359 -17.139  1.00  0.00     0.094 A 
ATOM     27  C   UNL     1       3.292 -31.326 -16.768  1.00  0.00     0.133 A 
ATOM     28  C   UNL     1       1.761 -29.660 -15.850  1.00  0.00     0.138 A 
ATOM     29  C   UNL     1       2.738 -30.658 -15.647  1.00  0.00     0.102 A 
ATOM     30  O   UNL     1       1.243 -28.933 -14.766  1.00  0.00    -0.484 OA
ATOM     31  C   UNL     1       3.131 -30.923 -14.246  1.00  0.00     0.174 C 
ATOM     32  C   UNL     1       1.479 -29.263 -13.390  1.00  0.00     0.211 C 
ATOM     33  O   UNL     1       3.607 -32.033 -13.891  1.00  0.00    -0.294 OA
ATOM     34  C   UNL     1       2.899 -29.855 -13.219  1.00  0.00     0.131 C 
BRANCH  27  35
ATOM     35  O   UNL     1       4.312 -32.279 -16.663  1.00  0.00    -0.507 OA
ATOM     36  H   UNL     1       4.878 -32.412 -15.840  1.00  0.00     0.293 HD
ENDBRANCH  27  35
BRANCH  32  37
ATOM     37  C   UNL     1       1.246 -28.040 -12.509  1.00  0.00    -0.007 A 
ATOM     38  C   UNL     1       2.076 -26.901 -12.611  1.00  0.00     0.011 A 
ATOM     39  C   UNL     1       0.251 -28.055 -11.506  1.00  0.00     0.011 A 
ATOM     40  C   UNL     1       1.866 -25.790 -11.787  1.00  0.00     0.046 A 
ATOM     41  C   UNL     1       0.055 -26.946 -10.678  1.00  0.00     0.046 A 
ATOM     42  C   UNL     1       0.859 -25.808 -10.821  1.00  0.00     0.115 A 
BRANCH  42  43
ATOM     43  O   UNL     1       0.675 -24.697 -10.001  1.00  0.00    -0.508 OA
ATOM     44  H   UNL     1       1.457 -24.155  -9.651  1.00  0.00     0.293 HD
ENDBRANCH  42  43
ENDBRANCH  32  37
ENDBRANCH  23  24
ENDBRANCH   6  23
BRANCH   3  45
ATOM     45  O   UNL     1      -1.298 -28.385 -23.012  1.00  0.00    -0.387 OA
ATOM     46  H   UNL     1      -2.081 -28.981 -22.915  1.00  0.00     0.211 HD
ENDBRANCH   3  45
BRANCH   4  47
ATOM     47  C   UNL     1      -1.626 -31.071 -21.981  1.00  0.00     0.191 C 
BRANCH  47  48
ATOM     48  O   UNL     1      -2.837 -30.369 -21.980  1.00  0.00    -0.394 OA
ATOM     49  H   UNL     1      -3.520 -30.972 -21.582  1.00  0.00     0.210 HD
ENDBRANCH  47  48
ENDBRANCH   4  47
TORSDOF 14
ENDMDL
MODEL 6
REMARK VINA RESULT:    -5.333      1.930      8.946
REMARK INTER + INTRA:         -10.303
REMARK INTER:                  -7.740
REMARK INTRA:                  -2.563
REMARK UNBOUND:                -1.852
REMARK SMILES C[C@H]1O[C@@H](O[C@@H]2[C@H](Oc3cc(O)c4c(c3)O[C@H](c3ccc(O)cc3)CC4=O)O[C@@H](CO)[C@@H](O)[C@H]2O)[C@H](O)[C@H](O)[C@H]1O
REMARK SMILES IDX 6 1 34 2 32 3 29 4 28 5 7 6 5 7 4 8 1 9 2 10 40 11 3 12
REMARK SMILES IDX 38 13 36 14 41 15 39 17 37 19 35 21 8 23 9 24 10 25 15 26
REMARK SMILES IDX 11 27 14 28 13 29 16 30 26 31 17 32 27 33 25 34 12 35 18 37
REMARK SMILES IDX 19 38 24 39 20 40 23 41 21 42 22 43 33 45 30 47 31 48
REMARK H PARENT 41 16 39 18 37 20 35 22 12 36 22 44 33 46 31 49
REMARK Flexibility Score: inf
ROOT
ATOM      1  C   UNL     1       2.949 -28.036 -14.013  1.00  0.00     0.221 C 
ATOM      2  C   UNL     1       3.589 -27.001 -13.062  1.00  0.00     0.181 C 
ATOM      3  C   UNL     1       2.633 -26.631 -11.905  1.00  0.00     0.177 C 
ATOM      4  C   UNL     1       1.223 -26.309 -12.456  1.00  0.00     0.179 C 
ATOM      5  O   UNL     1       0.721 -27.388 -13.231  1.00  0.00    -0.332 OA
ATOM      6  C   UNL     1       1.516 -27.605 -14.390  1.00  0.00     0.339 C 
ENDROOT
BRANCH   1   7
ATOM      7  O   UNL     1       3.713 -28.112 -15.209  1.00  0.00    -0.337 OA
BRANCH   7   8
ATOM      8  C   UNL     1       4.217 -29.414 -15.466  1.00  0.00     0.282 C 
ATOM      9  C   UNL     1       4.076 -27.604 -17.965  1.00  0.00     0.041 C 
ATOM     10  C   UNL     1       4.450 -29.094 -17.824  1.00  0.00     0.150 C 
ATOM     11  C   UNL     1       3.289 -30.068 -18.141  1.00  0.00     0.174 C 
ATOM     12  O   UNL     1       5.095 -29.384 -16.586  1.00  0.00    -0.344 OA
ATOM     13  C   UNL     1       2.313 -30.159 -16.955  1.00  0.00     0.179 C 
ATOM     14  C   UNL     1       3.082 -30.450 -15.658  1.00  0.00     0.202 C 
BRANCH  11  15
ATOM     15  O   UNL     1       2.615 -29.660 -19.305  1.00  0.00    -0.388 OA
ATOM     16  H   UNL     1       3.312 -29.385 -19.955  1.00  0.00     0.211 HD
ENDBRANCH  11  15
BRANCH  13  17
ATOM     17  O   UNL     1       1.319 -31.133 -17.178  1.00  0.00    -0.387 OA
ATOM     18  H   UNL     1       1.378 -31.810 -16.454  1.00  0.00     0.211 HD
ENDBRANCH  13  17
BRANCH  14  19
ATOM     19  O   UNL     1       3.635 -31.747 -15.705  1.00  0.00    -0.385 OA
ATOM     20  H   UNL     1       2.882 -32.385 -15.668  1.00  0.00     0.211 HD
ENDBRANCH  14  19
ENDBRANCH   7   8
ENDBRANCH   1   7
BRANCH   2  21
ATOM     21  O   UNL     1       4.786 -27.503 -12.526  1.00  0.00    -0.387 OA
ATOM     22  H   UNL     1       4.911 -28.417 -12.904  1.00  0.00     0.211 HD
ENDBRANCH   2  21
BRANCH   6  23
ATOM     23  O   UNL     1       1.548 -26.441 -15.222  1.00  0.00    -0.462 OA
BRANCH  23  24
ATOM     24  C   UNL     1       0.984 -26.363 -16.503  1.00  0.00     0.130 A 
ATOM     25  C   UNL     1       0.916 -25.158 -17.230  1.00  0.00     0.093 A 
ATOM     26  C   UNL     1       0.489 -27.539 -17.074  1.00  0.00     0.094 A 
ATOM     27  C   UNL     1       0.370 -25.128 -18.522  1.00  0.00     0.133 A 
ATOM     28  C   UNL     1      -0.056 -27.527 -18.361  1.00  0.00     0.138 A 
ATOM     29  C   UNL     1      -0.141 -26.323 -19.090  1.00  0.00     0.102 A 
ATOM     30  O   UNL     1      -0.491 -28.737 -18.924  1.00  0.00    -0.484 OA
ATOM     31  C   UNL     1      -0.755 -26.404 -20.433  1.00  0.00     0.174 C 
ATOM     32  C   UNL     1      -1.230 -28.835 -20.149  1.00  0.00     0.211 C 
ATOM     33  O   UNL     1      -1.297 -25.406 -20.976  1.00  0.00    -0.294 OA
ATOM     34  C   UNL     1      -0.779 -27.730 -21.134  1.00  0.00     0.131 C 
BRANCH  27  35
ATOM     35  O   UNL     1       0.389 -23.904 -19.201  1.00  0.00    -0.507 OA
ATOM     36  H   UNL     1      -0.421 -23.318 -19.331  1.00  0.00     0.293 HD
ENDBRANCH  27  35
BRANCH  32  37
ATOM     37  C   UNL     1      -1.089 -30.235 -20.738  1.00  0.00    -0.007 A 
ATOM     38  C   UNL     1      -1.440 -30.499 -22.082  1.00  0.00     0.011 A 
ATOM     39  C   UNL     1      -0.689 -31.320 -19.927  1.00  0.00     0.011 A 
ATOM     40  C   UNL     1      -1.324 -31.789 -22.609  1.00  0.00     0.046 A 
ATOM     41  C   UNL     1      -0.587 -32.610 -20.458  1.00  0.00     0.046 A 
ATOM     42  C   UNL     1      -0.900 -32.845 -21.803  1.00  0.00     0.115 A 
BRANCH  42  43
ATOM     43  O   UNL     1      -0.803 -34.125 -22.344  1.00  0.00    -0.508 OA
ATOM     44  H   UNL     1       0.034 -34.688 -22.244  1.00  0.00     0.293 HD
ENDBRANCH  42  43
ENDBRANCH  32  37
ENDBRANCH  23  24
ENDBRANCH   6  23
BRANCH   3  45
ATOM     45  O   UNL     1       2.593 -27.641 -10.924  1.00  0.00    -0.387 OA
ATOM     46  H   UNL     1       3.135 -28.404 -11.242  1.00  0.00     0.211 HD
ENDBRANCH   3  45
BRANCH   4  47
ATOM     47  C   UNL     1       0.236 -26.008 -11.323  1.00  0.00     0.191 C 
BRANCH  47  48
ATOM     48  O   UNL     1       0.814 -25.138 -10.392  1.00  0.00    -0.394 OA
ATOM     49  H   UNL     1       1.370 -25.694  -9.783  1.00  0.00     0.210 HD
ENDBRANCH  47  48
ENDBRANCH   4  47
TORSDOF 14
ENDMDL
MODEL 7
REMARK VINA RESULT:    -5.329      1.659      2.082
REMARK INTER + INTRA:         -10.297
REMARK INTER:                  -8.086
REMARK INTRA:                  -2.210
REMARK UNBOUND:                -1.852
REMARK SMILES C[C@H]1O[C@@H](O[C@@H]2[C@H](Oc3cc(O)c4c(c3)O[C@H](c3ccc(O)cc3)CC4=O)O[C@@H](CO)[C@@H](O)[C@H]2O)[C@H](O)[C@H](O)[C@H]1O
REMARK SMILES IDX 6 1 34 2 32 3 29 4 28 5 7 6 5 7 4 8 1 9 2 10 40 11 3 12
REMARK SMILES IDX 38 13 36 14 41 15 39 17 37 19 35 21 8 23 9 24 10 25 15 26
REMARK SMILES IDX 11 27 14 28 13 29 16 30 26 31 17 32 27 33 25 34 12 35 18 37
REMARK SMILES IDX 19 38 24 39 20 40 23 41 21 42 22 43 33 45 30 47 31 48
REMARK H PARENT 41 16 39 18 37 20 35 22 12 36 22 44 33 46 31 49
REMARK Flexibility Score: inf
ROOT
ATOM      1  C   UNL     1      -0.778 -29.609 -20.670  1.00  0.00     0.221 C 
ATOM      2  C   UNL     1      -0.373 -30.187 -22.044  1.00  0.00     0.181 C 
ATOM      3  C   UNL     1      -0.667 -31.702 -22.127  1.00  0.00     0.177 C 
ATOM      4  C   UNL     1      -0.128 -32.424 -20.870  1.00  0.00     0.179 C 
ATOM      5  O   UNL     1      -0.659 -31.848 -19.685  1.00  0.00    -0.332 OA
ATOM      6  C   UNL     1      -0.235 -30.499 -19.532  1.00  0.00     0.339 C 
ENDROOT
BRANCH   1   7
ATOM      7  O   UNL     1      -0.214 -28.313 -20.519  1.00  0.00    -0.337 OA
BRANCH   7   8
ATOM      8  C   UNL     1      -1.132 -27.364 -19.999  1.00  0.00     0.282 C 
ATOM      9  C   UNL     1       0.476 -26.355 -22.435  1.00  0.00     0.041 C 
ATOM     10  C   UNL     1      -0.524 -25.621 -21.519  1.00  0.00     0.150 C 
ATOM     11  C   UNL     1       0.142 -24.783 -20.400  1.00  0.00     0.174 C 
ATOM     12  O   UNL     1      -1.554 -26.478 -21.031  1.00  0.00    -0.344 OA
ATOM     13  C   UNL     1       0.603 -25.687 -19.243  1.00  0.00     0.179 C 
ATOM     14  C   UNL     1      -0.550 -26.593 -18.789  1.00  0.00     0.202 C 
BRANCH  11  15
ATOM     15  O   UNL     1       1.227 -24.054 -20.918  1.00  0.00    -0.388 OA
ATOM     16  H   UNL     1       2.031 -24.351 -20.419  1.00  0.00     0.211 HD
ENDBRANCH  11  15
BRANCH  13  17
ATOM     17  O   UNL     1       1.101 -24.930 -18.163  1.00  0.00    -0.387 OA
ATOM     18  H   UNL     1       1.655 -24.191 -18.529  1.00  0.00     0.211 HD
ENDBRANCH  13  17
BRANCH  14  19
ATOM     19  O   UNL     1      -1.568 -25.820 -18.192  1.00  0.00    -0.385 OA
ATOM     20  H   UNL     1      -1.536 -24.926 -18.613  1.00  0.00     0.211 HD
ENDBRANCH  14  19
ENDBRANCH   7   8
ENDBRANCH   1   7
BRANCH   2  21
ATOM     21  O   UNL     1      -1.062 -29.528 -23.074  1.00  0.00    -0.387 OA
ATOM     22  H   UNL     1      -0.639 -29.810 -23.932  1.00  0.00     0.211 HD
ENDBRANCH   2  21
BRANCH   6  23
ATOM     23  O   UNL     1       1.192 -30.409 -19.465  1.00  0.00    -0.462 OA
BRANCH  23  24
ATOM     24  C   UNL     1       1.896 -29.573 -18.587  1.00  0.00     0.130 A 
ATOM     25  C   UNL     1       2.814 -28.604 -19.035  1.00  0.00     0.093 A 
ATOM     26  C   UNL     1       1.654 -29.710 -17.218  1.00  0.00     0.094 A 
ATOM     27  C   UNL     1       3.477 -27.767 -18.124  1.00  0.00     0.133 A 
ATOM     28  C   UNL     1       2.304 -28.883 -16.297  1.00  0.00     0.138 A 
ATOM     29  C   UNL     1       3.235 -27.919 -16.735  1.00  0.00     0.102 A 
ATOM     30  O   UNL     1       1.992 -29.011 -14.934  1.00  0.00    -0.484 OA
ATOM     31  C   UNL     1       3.890 -27.108 -15.687  1.00  0.00     0.174 C 
ATOM     32  C   UNL     1       2.713 -28.358 -13.879  1.00  0.00     0.211 C 
ATOM     33  O   UNL     1       5.014 -26.571 -15.869  1.00  0.00    -0.294 OA
ATOM     34  C   UNL     1       3.215 -26.974 -14.354  1.00  0.00     0.131 C 
BRANCH  27  35
ATOM     35  O   UNL     1       4.332 -26.791 -18.650  1.00  0.00    -0.507 OA
ATOM     36  H   UNL     1       4.544 -25.920 -18.190  1.00  0.00     0.293 HD
ENDBRANCH  27  35
BRANCH  32  37
ATOM     37  C   UNL     1       1.847 -28.268 -12.627  1.00  0.00    -0.007 A 
ATOM     38  C   UNL     1       0.958 -27.186 -12.434  1.00  0.00     0.011 A 
ATOM     39  C   UNL     1       1.980 -29.217 -11.590  1.00  0.00     0.011 A 
ATOM     40  C   UNL     1       0.179 -27.102 -11.275  1.00  0.00     0.046 A 
ATOM     41  C   UNL     1       1.207 -29.119 -10.428  1.00  0.00     0.046 A 
ATOM     42  C   UNL     1       0.301 -28.064 -10.272  1.00  0.00     0.115 A 
BRANCH  42  43
ATOM     43  O   UNL     1      -0.475 -27.954  -9.120  1.00  0.00    -0.508 OA
ATOM     44  H   UNL     1      -0.098 -28.153  -8.199  1.00  0.00     0.293 HD
ENDBRANCH  42  43
ENDBRANCH  32  37
ENDBRANCH  23  24
ENDBRANCH   6  23
BRANCH   3  45
ATOM     45  O   UNL     1      -2.039 -31.952 -22.326  1.00  0.00    -0.387 OA
ATOM     46  H   UNL     1      -2.331 -32.625 -21.664  1.00  0.00     0.211 HD
ENDBRANCH   3  45
BRANCH   4  47
ATOM     47  C   UNL     1      -0.470 -33.918 -20.893  1.00  0.00     0.191 C 
BRANCH  47  48
ATOM     48  O   UNL     1      -1.812 -34.116 -20.550  1.00  0.00    -0.394 OA
ATOM     49  H   UNL     1      -2.301 -34.308 -21.395  1.00  0.00     0.210 HD
ENDBRANCH  47  48
ENDBRANCH   4  47
TORSDOF 14
ENDMDL
MODEL 8
REMARK VINA RESULT:    -5.219      1.894      4.917
REMARK INTER + INTRA:         -10.122
REMARK INTER:                  -8.033
REMARK INTRA:                  -2.089
REMARK UNBOUND:                -1.852
REMARK SMILES C[C@H]1O[C@@H](O[C@@H]2[C@H](Oc3cc(O)c4c(c3)O[C@H](c3ccc(O)cc3)CC4=O)O[C@@H](CO)[C@@H](O)[C@H]2O)[C@H](O)[C@H](O)[C@H]1O
REMARK SMILES IDX 6 1 34 2 32 3 29 4 28 5 7 6 5 7 4 8 1 9 2 10 40 11 3 12
REMARK SMILES IDX 38 13 36 14 41 15 39 17 37 19 35 21 8 23 9 24 10 25 15 26
REMARK SMILES IDX 11 27 14 28 13 29 16 30 26 31 17 32 27 33 25 34 12 35 18 37
REMARK SMILES IDX 19 38 24 39 20 40 23 41 21 42 22 43 33 45 30 47 31 48
REMARK H PARENT 41 16 39 18 37 20 35 22 12 36 22 44 33 46 31 49
REMARK Flexibility Score: inf
ROOT
ATOM      1  C   UNL     1      -0.151 -29.027 -20.876  1.00  0.00     0.221 C 
ATOM      2  C   UNL     1      -1.530 -28.335 -20.792  1.00  0.00     0.181 C 
ATOM      3  C   UNL     1      -1.394 -26.797 -20.867  1.00  0.00     0.177 C 
ATOM      4  C   UNL     1      -0.295 -26.306 -19.895  1.00  0.00     0.179 C 
ATOM      5  O   UNL     1       0.940 -26.958 -20.152  1.00  0.00    -0.332 OA
ATOM      6  C   UNL     1       0.848 -28.356 -19.909  1.00  0.00     0.339 C 
ENDROOT
BRANCH   1   7
ATOM      7  O   UNL     1      -0.283 -30.389 -20.493  1.00  0.00    -0.337 OA
BRANCH   7   8
ATOM      8  C   UNL     1       0.011 -31.294 -21.545  1.00  0.00     0.282 C 
ATOM      9  C   UNL     1      -0.492 -32.657 -18.819  1.00  0.00     0.041 C 
ATOM     10  C   UNL     1      -0.043 -33.250 -20.170  1.00  0.00     0.150 C 
ATOM     11  C   UNL     1       1.487 -33.460 -20.288  1.00  0.00     0.174 C 
ATOM     12  O   UNL     1      -0.595 -32.557 -21.286  1.00  0.00    -0.344 OA
ATOM     13  C   UNL     1       2.199 -32.128 -20.589  1.00  0.00     0.179 C 
ATOM     14  C   UNL     1       1.535 -31.432 -21.785  1.00  0.00     0.202 C 
BRANCH  11  15
ATOM     15  O   UNL     1       1.993 -34.034 -19.109  1.00  0.00    -0.388 OA
ATOM     16  H   UNL     1       1.231 -34.487 -18.665  1.00  0.00     0.211 HD
ENDBRANCH  11  15
BRANCH  13  17
ATOM     17  O   UNL     1       3.576 -32.320 -20.821  1.00  0.00    -0.387 OA
ATOM     18  H   UNL     1       3.994 -31.431 -20.968  1.00  0.00     0.211 HD
ENDBRANCH  13  17
BRANCH  14  19
ATOM     19  O   UNL     1       1.758 -32.177 -22.963  1.00  0.00    -0.385 OA
ATOM     20  H   UNL     1       1.921 -31.527 -23.689  1.00  0.00     0.211 HD
ENDBRANCH  14  19
ENDBRANCH   7   8
ENDBRANCH   1   7
BRANCH   2  21
ATOM     21  O   UNL     1      -2.363 -28.775 -21.832  1.00  0.00    -0.387 OA
ATOM     22  H   UNL     1      -3.281 -28.448 -21.624  1.00  0.00     0.211 HD
ENDBRANCH   2  21
BRANCH   6  23
ATOM     23  O   UNL     1       0.482 -28.623 -18.551  1.00  0.00    -0.462 OA
BRANCH  23  24
ATOM     24  C   UNL     1       1.274 -29.334 -17.639  1.00  0.00     0.130 A 
ATOM     25  C   UNL     1       2.161 -30.353 -18.037  1.00  0.00     0.093 A 
ATOM     26  C   UNL     1       1.180 -28.995 -16.286  1.00  0.00     0.094 A 
ATOM     27  C   UNL     1       2.958 -31.021 -17.096  1.00  0.00     0.133 A 
ATOM     28  C   UNL     1       1.968 -29.649 -15.335  1.00  0.00     0.138 A 
ATOM     29  C   UNL     1       2.849 -30.680 -15.723  1.00  0.00     0.102 A 
ATOM     30  O   UNL     1       1.888 -29.242 -13.994  1.00  0.00    -0.484 OA
ATOM     31  C   UNL     1       3.624 -31.329 -14.644  1.00  0.00     0.174 C 
ATOM     32  C   UNL     1       2.500 -29.944 -12.903  1.00  0.00     0.211 C 
ATOM     33  O   UNL     1       4.067 -32.502 -14.760  1.00  0.00    -0.294 OA
ATOM     34  C   UNL     1       3.833 -30.584 -13.360  1.00  0.00     0.131 C 
BRANCH  27  35
ATOM     35  O   UNL     1       3.855 -31.983 -17.576  1.00  0.00    -0.507 OA
ATOM     36  H   UNL     1       3.799 -32.965 -17.359  1.00  0.00     0.293 HD
ENDBRANCH  27  35
BRANCH  32  37
ATOM     37  C   UNL     1       2.680 -29.009 -11.710  1.00  0.00    -0.007 A 
ATOM     38  C   UNL     1       3.855 -28.238 -11.561  1.00  0.00     0.011 A 
ATOM     39  C   UNL     1       1.713 -28.962 -10.681  1.00  0.00     0.011 A 
ATOM     40  C   UNL     1       4.019 -27.396 -10.456  1.00  0.00     0.046 A 
ATOM     41  C   UNL     1       1.891 -28.128  -9.573  1.00  0.00     0.046 A 
ATOM     42  C   UNL     1       3.042 -27.338  -9.461  1.00  0.00     0.115 A 
BRANCH  42  43
ATOM     43  O   UNL     1       3.231 -26.504  -8.363  1.00  0.00    -0.508 OA
ATOM     44  H   UNL     1       3.821 -25.680  -8.410  1.00  0.00     0.293 HD
ENDBRANCH  42  43
ENDBRANCH  32  37
ENDBRANCH  23  24
ENDBRANCH   6  23
BRANCH   3  45
ATOM     45  O   UNL     1      -1.157 -26.364 -22.186  1.00  0.00    -0.387 OA
ATOM     46  H   UNL     1      -1.998 -25.990 -22.545  1.00  0.00     0.211 HD
ENDBRANCH   3  45
BRANCH   4  47
ATOM     47  C   UNL     1      -0.090 -24.791 -20.003  1.00  0.00     0.191 C 
BRANCH  47  48
ATOM     48  O   UNL     1      -1.325 -24.134 -20.033  1.00  0.00    -0.394 OA
ATOM     49  H   UNL     1      -1.142 -23.168 -19.884  1.00  0.00     0.210 HD
ENDBRANCH  47  48
ENDBRANCH   4  47
TORSDOF 14
ENDMDL
MODEL 9
REMARK VINA RESULT:    -4.925      2.278      4.946
REMARK INTER + INTRA:          -9.657
REMARK INTER:                  -7.943
REMARK INTRA:                  -1.714
REMARK UNBOUND:                -1.852
REMARK SMILES C[C@H]1O[C@@H](O[C@@H]2[C@H](Oc3cc(O)c4c(c3)O[C@H](c3ccc(O)cc3)CC4=O)O[C@@H](CO)[C@@H](O)[C@H]2O)[C@H](O)[C@H](O)[C@H]1O
REMARK SMILES IDX 6 1 34 2 32 3 29 4 28 5 7 6 5 7 4 8 1 9 2 10 40 11 3 12
REMARK SMILES IDX 38 13 36 14 41 15 39 17 37 19 35 21 8 23 9 24 10 25 15 26
REMARK SMILES IDX 11 27 14 28 13 29 16 30 26 31 17 32 27 33 25 34 12 35 18 37
REMARK SMILES IDX 19 38 24 39 20 40 23 41 21 42 22 43 33 45 30 47 31 48
REMARK H PARENT 41 16 39 18 37 20 35 22 12 36 22 44 33 46 31 49
REMARK Flexibility Score: inf
ROOT
ATOM      1  C   UNL     1       1.881 -26.108 -20.242  1.00  0.00     0.221 C 
ATOM      2  C   UNL     1       1.588 -24.795 -19.483  1.00  0.00     0.181 C 
ATOM      3  C   UNL     1       2.863 -24.239 -18.807  1.00  0.00     0.177 C 
ATOM      4  C   UNL     1       3.591 -25.359 -18.028  1.00  0.00     0.179 C 
ATOM      5  O   UNL     1       3.881 -26.462 -18.875  1.00  0.00    -0.332 OA
ATOM      6  C   UNL     1       2.690 -27.075 -19.351  1.00  0.00     0.339 C 
ENDROOT
BRANCH   1   7
ATOM      7  O   UNL     1       0.653 -26.743 -20.575  1.00  0.00    -0.337 OA
BRANCH   7   8
ATOM      8  C   UNL     1       0.781 -27.681 -21.632  1.00  0.00     0.282 C 
ATOM      9  C   UNL     1      -1.287 -25.451 -22.172  1.00  0.00     0.041 C 
ATOM     10  C   UNL     1      -0.927 -26.706 -22.993  1.00  0.00     0.150 C 
ATOM     11  C   UNL     1      -1.884 -27.902 -22.770  1.00  0.00     0.174 C 
ATOM     12  O   UNL     1       0.447 -27.066 -22.872  1.00  0.00    -0.344 OA
ATOM     13  C   UNL     1      -1.559 -28.623 -21.450  1.00  0.00     0.179 C 
ATOM     14  C   UNL     1      -0.063 -28.956 -21.383  1.00  0.00     0.202 C 
BRANCH  11  15
ATOM     15  O   UNL     1      -3.220 -27.465 -22.778  1.00  0.00    -0.388 OA
ATOM     16  H   UNL     1      -3.764 -28.211 -22.415  1.00  0.00     0.211 HD
ENDBRANCH  11  15
BRANCH  13  17
ATOM     17  O   UNL     1      -2.340 -29.786 -21.290  1.00  0.00    -0.387 OA
ATOM     18  H   UNL     1      -1.727 -30.557 -21.163  1.00  0.00     0.211 HD
ENDBRANCH  13  17
BRANCH  14  19
ATOM     19  O   UNL     1       0.260 -29.928 -22.354  1.00  0.00    -0.385 OA
ATOM     20  H   UNL     1      -0.574 -30.410 -22.570  1.00  0.00     0.211 HD
ENDBRANCH  14  19
ENDBRANCH   7   8
ENDBRANCH   1   7
BRANCH   2  21
ATOM     21  O   UNL     1       1.072 -23.827 -20.359  1.00  0.00    -0.387 OA
ATOM     22  H   UNL     1       1.076 -22.960 -19.866  1.00  0.00     0.211 HD
ENDBRANCH   2  21
BRANCH   6  23
ATOM     23  O   UNL     1       1.882 -27.550 -18.269  1.00  0.00    -0.462 OA
BRANCH  23  24
ATOM     24  C   UNL     1       2.295 -28.501 -17.325  1.00  0.00     0.130 A 
ATOM     25  C   UNL     1       2.911 -29.713 -17.690  1.00  0.00     0.093 A 
ATOM     26  C   UNL     1       2.095 -28.210 -15.973  1.00  0.00     0.094 A 
ATOM     27  C   UNL     1       3.337 -30.625 -16.712  1.00  0.00     0.133 A 
ATOM     28  C   UNL     1       2.515 -29.106 -14.986  1.00  0.00     0.138 A 
ATOM     29  C   UNL     1       3.121 -30.330 -15.342  1.00  0.00     0.102 A 
ATOM     30  O   UNL     1       2.349 -28.755 -13.637  1.00  0.00    -0.484 OA
ATOM     31  C   UNL     1       3.509 -31.223 -14.230  1.00  0.00     0.174 C 
ATOM     32  C   UNL     1       2.567 -29.653 -12.539  1.00  0.00     0.211 C 
ATOM     33  O   UNL     1       3.619 -32.468 -14.387  1.00  0.00    -0.294 OA
ATOM     34  C   UNL     1       3.721 -30.630 -12.870  1.00  0.00     0.131 C 
BRANCH  27  35
ATOM     35  O   UNL     1       3.991 -31.783 -17.151  1.00  0.00    -0.507 OA
ATOM     36  H   UNL     1       4.941 -31.802 -17.485  1.00  0.00     0.293 HD
ENDBRANCH  27  35
BRANCH  32  37
ATOM     37  C   UNL     1       2.818 -28.865 -11.257  1.00  0.00    -0.007 A 
ATOM     38  C   UNL     1       2.105 -29.157 -10.072  1.00  0.00     0.011 A 
ATOM     39  C   UNL     1       3.704 -27.765 -11.250  1.00  0.00     0.011 A 
ATOM     40  C   UNL     1       2.328 -28.419  -8.905  1.00  0.00     0.046 A 
ATOM     41  C   UNL     1       3.912 -27.023 -10.083  1.00  0.00     0.046 A 
ATOM     42  C   UNL     1       3.228 -27.353  -8.906  1.00  0.00     0.115 A 
BRANCH  42  43
ATOM     43  O   UNL     1       3.426 -26.623  -7.737  1.00  0.00    -0.508 OA
ATOM     44  H   UNL     1       2.694 -26.512  -7.044  1.00  0.00     0.293 HD
ENDBRANCH  42  43
ENDBRANCH  32  37
ENDBRANCH  23  24
ENDBRANCH   6  23
BRANCH   3  45
ATOM     45  O   UNL     1       3.712 -23.615 -19.742  1.00  0.00    -0.387 OA
ATOM     46  H   UNL     1       4.229 -22.915 -19.272  1.00  0.00     0.211 HD
ENDBRANCH   3  45
BRANCH   4  47
ATOM     47  C   UNL     1       4.897 -24.851 -17.408  1.00  0.00     0.191 C 
BRANCH  47  48
ATOM     48  O   UNL     1       4.857 -23.460 -17.260  1.00  0.00    -0.394 OA
ATOM     49  H   UNL     1       4.964 -23.269 -16.290  1.00  0.00     0.210 HD
ENDBRANCH  47  48
ENDBRANCH   4  47
TORSDOF 14
ENDMDL
