MODEL 1
REMARK VINA RESULT:    -5.823      0.000      0.000
REMARK INTER + INTRA:          -8.823
REMARK INTER:                  -7.866
REMARK INTRA:                  -0.957
REMARK UNBOUND:                -0.957
REMARK SMILES CC(=O)CCC=C(C)CCC=C(C)C
REMARK SMILES IDX 7 1 6 2 8 3 9 4 10 5 11 6 13 7 12 8 14 9 5 10 4 11 2 12 3 13
REMARK SMILES IDX 1 14
REMARK H PARENT
REMARK Flexibility Score: inf
ROOT
ATOM      1  C   UNL     1      34.766  20.968  16.529  1.00  0.00    -0.077 C 
ATOM      2  C   UNL     1      33.507  21.108  16.055  1.00  0.00    -0.028 C 
ATOM      3  C   UNL     1      35.782  20.081  15.847  1.00  0.00     0.039 C 
ENDROOT
BRANCH   1   4
ATOM      4  C   UNL     1      35.172  21.727  17.776  1.00  0.00     0.034 C 
BRANCH   4   5
ATOM      5  C   UNL     1      33.952  22.208  18.577  1.00  0.00     0.032 C 
BRANCH   5   6
ATOM      6  C   UNL     1      33.733  21.375  19.818  1.00  0.00    -0.028 C 
ATOM      7  C   UNL     1      32.547  19.870  21.354  1.00  0.00     0.039 C 
ATOM      8  C   UNL     1      32.647  20.603  20.042  1.00  0.00    -0.080 C 
ATOM      9  C   UNL     1      31.551  20.442  19.014  1.00  0.00     0.039 C 
ENDBRANCH   5   6
ENDBRANCH   4   5
ENDBRANCH   1   4
BRANCH   2  10
ATOM     10  C   UNL     1      32.956  20.358  14.868  1.00  0.00     0.035 C 
BRANCH  10  11
ATOM     11  C   UNL     1      31.782  19.468  15.290  1.00  0.00     0.079 C 
BRANCH  11  12
ATOM     12  C   UNL     1      32.276  18.131  15.774  1.00  0.00     0.130 C 
ATOM     13  O   UNL     1      33.428  17.795  15.541  1.00  0.00    -0.300 OA
ATOM     14  C   UNL     1      31.389  17.203  16.549  1.00  0.00     0.087 C 
ENDBRANCH  11  12
ENDBRANCH  10  11
ENDBRANCH   2  10
TORSDOF 6
ENDMDL
MODEL 2
REMARK VINA RESULT:    -5.813      2.088      4.832
REMARK INTER + INTRA:          -8.809
REMARK INTER:                  -7.764
REMARK INTRA:                  -1.045
REMARK UNBOUND:                -0.957
REMARK SMILES CC(=O)CCC=C(C)CCC=C(C)C
REMARK SMILES IDX 7 1 6 2 8 3 9 4 10 5 11 6 13 7 12 8 14 9 5 10 4 11 2 12 3 13
REMARK SMILES IDX 1 14
REMARK H PARENT
REMARK Flexibility Score: inf
ROOT
ATOM      1  C   UNL     1      32.486  17.777  16.878  1.00  0.00    -0.077 C 
ATOM      2  C   UNL     1      32.567  18.456  18.045  1.00  0.00    -0.028 C 
ATOM      3  C   UNL     1      31.169  17.266  16.342  1.00  0.00     0.039 C 
ENDROOT
BRANCH   1   4
ATOM      4  C   UNL     1      33.751  17.529  16.082  1.00  0.00     0.034 C 
BRANCH   4   5
ATOM      5  C   UNL     1      34.046  18.676  15.104  1.00  0.00     0.032 C 
BRANCH   5   6
ATOM      6  C   UNL     1      34.697  19.851  15.797  1.00  0.00    -0.028 C 
ATOM      7  C   UNL     1      34.870  22.114  16.733  1.00  0.00     0.039 C 
ATOM      8  C   UNL     1      34.073  21.013  16.084  1.00  0.00    -0.080 C 
ATOM      9  C   UNL     1      32.606  21.230  15.792  1.00  0.00     0.039 C 
ENDBRANCH   5   6
ENDBRANCH   4   5
ENDBRANCH   1   4
BRANCH   2  10
ATOM     10  C   UNL     1      31.399  18.710  18.966  1.00  0.00     0.035 C 
BRANCH  10  11
ATOM     11  C   UNL     1      31.356  20.183  19.387  1.00  0.00     0.079 C 
BRANCH  11  12
ATOM     12  C   UNL     1      32.447  20.484  20.380  1.00  0.00     0.130 C 
ATOM     13  O   UNL     1      32.450  19.914  21.461  1.00  0.00    -0.300 OA
ATOM     14  C   UNL     1      33.540  21.462  20.068  1.00  0.00     0.087 C 
ENDBRANCH  11  12
ENDBRANCH  10  11
ENDBRANCH   2  10
TORSDOF 6
ENDMDL
MODEL 3
REMARK VINA RESULT:    -5.543      1.489      2.550
REMARK INTER + INTRA:          -8.445
REMARK INTER:                  -7.722
REMARK INTRA:                  -0.723
REMARK UNBOUND:                -0.957
REMARK SMILES CC(=O)CCC=C(C)CCC=C(C)C
REMARK SMILES IDX 7 1 6 2 8 3 9 4 10 5 11 6 13 7 12 8 14 9 5 10 4 11 2 12 3 13
REMARK SMILES IDX 1 14
REMARK H PARENT
REMARK Flexibility Score: inf
ROOT
ATOM      1  C   UNL     1      33.404  21.317  18.246  1.00  0.00    -0.077 C 
ATOM      2  C   UNL     1      32.611  21.028  17.189  1.00  0.00    -0.028 C 
ATOM      3  C   UNL     1      34.795  21.879  18.069  1.00  0.00     0.039 C 
ENDROOT
BRANCH   1   4
ATOM      4  C   UNL     1      32.880  21.077  19.647  1.00  0.00     0.034 C 
BRANCH   4   5
ATOM      5  C   UNL     1      32.208  19.703  19.780  1.00  0.00     0.032 C 
BRANCH   5   6
ATOM      6  C   UNL     1      30.942  19.775  20.601  1.00  0.00    -0.028 C 
ATOM      7  C   UNL     1      29.528  19.607  22.602  1.00  0.00     0.039 C 
ATOM      8  C   UNL     1      30.875  19.549  21.931  1.00  0.00    -0.080 C 
ATOM      9  C   UNL     1      32.107  19.261  22.758  1.00  0.00     0.039 C 
ENDBRANCH   5   6
ENDBRANCH   4   5
ENDBRANCH   1   4
BRANCH   2  10
ATOM     10  C   UNL     1      33.033  21.154  15.747  1.00  0.00     0.035 C 
BRANCH  10  11
ATOM     11  C   UNL     1      32.817  19.831  15.004  1.00  0.00     0.079 C 
BRANCH  11  12
ATOM     12  C   UNL     1      33.550  18.709  15.691  1.00  0.00     0.130 C 
ATOM     13  O   UNL     1      34.764  18.772  15.817  1.00  0.00    -0.300 OA
ATOM     14  C   UNL     1      32.822  17.517  16.238  1.00  0.00     0.087 C 
ENDBRANCH  11  12
ENDBRANCH  10  11
ENDBRANCH   2  10
TORSDOF 6
ENDMDL
MODEL 4
REMARK VINA RESULT:    -5.498      2.716      6.191
REMARK INTER + INTRA:          -8.383
REMARK INTER:                  -7.460
REMARK INTRA:                  -0.924
REMARK UNBOUND:                -0.957
REMARK SMILES CC(=O)CCC=C(C)CCC=C(C)C
REMARK SMILES IDX 7 1 6 2 8 3 9 4 10 5 11 6 13 7 12 8 14 9 5 10 4 11 2 12 3 13
REMARK SMILES IDX 1 14
REMARK H PARENT
REMARK Flexibility Score: inf
ROOT
ATOM      1  C   UNL     1      31.707  20.154  20.721  1.00  0.00    -0.077 C 
ATOM      2  C   UNL     1      32.872  20.678  21.164  1.00  0.00    -0.028 C 
ATOM      3  C   UNL     1      30.507  20.000  21.625  1.00  0.00     0.039 C 
ENDROOT
BRANCH   1   4
ATOM      4  C   UNL     1      31.599  19.716  19.274  1.00  0.00     0.034 C 
BRANCH   4   5
ATOM      5  C   UNL     1      31.885  20.870  18.303  1.00  0.00     0.032 C 
BRANCH   5   6
ATOM      6  C   UNL     1      32.942  20.501  17.288  1.00  0.00    -0.028 C 
ATOM      7  C   UNL     1      35.124  20.574  16.164  1.00  0.00     0.039 C 
ATOM      8  C   UNL     1      34.198  20.999  17.272  1.00  0.00    -0.080 C 
ATOM      9  C   UNL     1      34.698  21.948  18.337  1.00  0.00     0.039 C 
ENDBRANCH   5   6
ENDBRANCH   4   5
ENDBRANCH   1   4
BRANCH   2  10
ATOM     10  C   UNL     1      33.134  21.088  22.591  1.00  0.00     0.035 C 
BRANCH  10  11
ATOM     11  C   UNL     1      34.101  20.109  23.265  1.00  0.00     0.079 C 
BRANCH  11  12
ATOM     12  C   UNL     1      33.360  18.910  23.796  1.00  0.00     0.130 C 
ATOM     13  O   UNL     1      33.432  17.846  23.199  1.00  0.00    -0.300 OA
ATOM     14  C   UNL     1      32.544  18.989  25.051  1.00  0.00     0.087 C 
ENDBRANCH  11  12
ENDBRANCH  10  11
ENDBRANCH   2  10
TORSDOF 6
ENDMDL
MODEL 5
REMARK VINA RESULT:    -5.462      1.719      3.443
REMARK INTER + INTRA:          -8.334
REMARK INTER:                  -7.729
REMARK INTRA:                  -0.605
REMARK UNBOUND:                -0.957
REMARK SMILES CC(=O)CCC=C(C)CCC=C(C)C
REMARK SMILES IDX 7 1 6 2 8 3 9 4 10 5 11 6 13 7 12 8 14 9 5 10 4 11 2 12 3 13
REMARK SMILES IDX 1 14
REMARK H PARENT
REMARK Flexibility Score: inf
ROOT
ATOM      1  C   UNL     1      33.453  21.370  18.967  1.00  0.00    -0.077 C 
ATOM      2  C   UNL     1      34.472  21.777  18.177  1.00  0.00    -0.028 C 
ATOM      3  C   UNL     1      32.190  20.770  18.395  1.00  0.00     0.039 C 
ENDROOT
BRANCH   1   4
ATOM      4  C   UNL     1      33.584  21.515  20.470  1.00  0.00     0.034 C 
BRANCH   4   5
ATOM      5  C   UNL     1      32.762  20.458  21.221  1.00  0.00     0.032 C 
BRANCH   5   6
ATOM      6  C   UNL     1      32.486  20.871  22.648  1.00  0.00    -0.028 C 
ATOM      7  C   UNL     1      32.852  21.025  25.071  1.00  0.00     0.039 C 
ATOM      8  C   UNL     1      33.289  20.589  23.697  1.00  0.00    -0.080 C 
ATOM      9  C   UNL     1      34.608  19.872  23.528  1.00  0.00     0.039 C 
ENDBRANCH   5   6
ENDBRANCH   4   5
ENDBRANCH   1   4
BRANCH   2  10
ATOM     10  C   UNL     1      34.442  21.753  16.669  1.00  0.00     0.035 C 
BRANCH  10  11
ATOM     11  C   UNL     1      35.131  20.492  16.136  1.00  0.00     0.079 C 
BRANCH  11  12
ATOM     12  C   UNL     1      34.145  19.610  15.417  1.00  0.00     0.130 C 
ATOM     13  O   UNL     1      34.298  18.398  15.434  1.00  0.00    -0.300 OA
ATOM     14  C   UNL     1      32.968  20.187  14.687  1.00  0.00     0.087 C 
ENDBRANCH  11  12
ENDBRANCH  10  11
ENDBRANCH   2  10
TORSDOF 6
ENDMDL
MODEL 6
REMARK VINA RESULT:    -5.384      8.748     11.785
REMARK INTER + INTRA:          -8.230
REMARK INTER:                  -7.572
REMARK INTRA:                  -0.658
REMARK UNBOUND:                -0.957
REMARK SMILES CC(=O)CCC=C(C)CCC=C(C)C
REMARK SMILES IDX 7 1 6 2 8 3 9 4 10 5 11 6 13 7 12 8 14 9 5 10 4 11 2 12 3 13
REMARK SMILES IDX 1 14
REMARK H PARENT
REMARK Flexibility Score: inf
ROOT
ATOM      1  C   UNL     1      28.817  18.612  26.893  1.00  0.00    -0.077 C 
ATOM      2  C   UNL     1      27.983  18.105  27.828  1.00  0.00    -0.028 C 
ATOM      3  C   UNL     1      28.345  19.603  25.855  1.00  0.00     0.039 C 
ENDROOT
BRANCH   1   4
ATOM      4  C   UNL     1      30.269  18.180  26.889  1.00  0.00     0.034 C 
BRANCH   4   5
ATOM      5  C   UNL     1      30.999  18.630  25.615  1.00  0.00     0.032 C 
BRANCH   5   6
ATOM      6  C   UNL     1      32.495  18.694  25.818  1.00  0.00    -0.028 C 
ATOM      7  C   UNL     1      34.764  19.616  25.653  1.00  0.00     0.039 C 
ATOM      8  C   UNL     1      33.279  19.722  25.427  1.00  0.00    -0.080 C 
ATOM      9  C   UNL     1      32.709  20.970  24.794  1.00  0.00     0.039 C 
ENDBRANCH   5   6
ENDBRANCH   4   5
ENDBRANCH   1   4
BRANCH   2  10
ATOM     10  C   UNL     1      26.505  18.399  27.900  1.00  0.00     0.035 C 
BRANCH  10  11
ATOM     11  C   UNL     1      26.103  18.794  29.325  1.00  0.00     0.079 C 
BRANCH  11  12
ATOM     12  C   UNL     1      26.881  20.000  29.782  1.00  0.00     0.130 C 
ATOM     13  O   UNL     1      27.573  19.924  30.786  1.00  0.00    -0.300 OA
ATOM     14  C   UNL     1      26.836  21.293  29.023  1.00  0.00     0.087 C 
ENDBRANCH  11  12
ENDBRANCH  10  11
ENDBRANCH   2  10
TORSDOF 6
ENDMDL
MODEL 7
REMARK VINA RESULT:    -5.380      2.691      5.532
REMARK INTER + INTRA:          -8.224
REMARK INTER:                  -7.192
REMARK INTRA:                  -1.032
REMARK UNBOUND:                -0.957
REMARK SMILES CC(=O)CCC=C(C)CCC=C(C)C
REMARK SMILES IDX 7 1 6 2 8 3 9 4 10 5 11 6 13 7 12 8 14 9 5 10 4 11 2 12 3 13
REMARK SMILES IDX 1 14
REMARK H PARENT
REMARK Flexibility Score: inf
ROOT
ATOM      1  C   UNL     1      32.184  20.841  18.490  1.00  0.00    -0.077 C 
ATOM      2  C   UNL     1      31.374  19.919  19.057  1.00  0.00    -0.028 C 
ATOM      3  C   UNL     1      33.479  21.272  19.139  1.00  0.00     0.039 C 
ENDROOT
BRANCH   1   4
ATOM      4  C   UNL     1      31.787  21.453  17.162  1.00  0.00     0.034 C 
BRANCH   4   5
ATOM      5  C   UNL     1      32.108  20.524  15.983  1.00  0.00     0.032 C 
BRANCH   5   6
ATOM      6  C   UNL     1      33.565  20.601  15.588  1.00  0.00    -0.028 C 
ATOM      7  C   UNL     1      35.912  19.894  15.445  1.00  0.00     0.039 C 
ATOM      8  C   UNL     1      34.484  19.650  15.858  1.00  0.00    -0.080 C 
ATOM      9  C   UNL     1      34.119  18.351  16.540  1.00  0.00     0.039 C 
ENDBRANCH   5   6
ENDBRANCH   4   5
ENDBRANCH   1   4
BRANCH   2  10
ATOM     10  C   UNL     1      31.616  19.285  20.404  1.00  0.00     0.035 C 
BRANCH  10  11
ATOM     11  C   UNL     1      30.806  20.000  21.490  1.00  0.00     0.079 C 
BRANCH  11  12
ATOM     12  C   UNL     1      31.618  20.144  22.751  1.00  0.00     0.130 C 
ATOM     13  O   UNL     1      31.491  19.320  23.644  1.00  0.00    -0.300 OA
ATOM     14  C   UNL     1      32.589  21.272  22.931  1.00  0.00     0.087 C 
ENDBRANCH  11  12
ENDBRANCH  10  11
ENDBRANCH   2  10
TORSDOF 6
ENDMDL
MODEL 8
REMARK VINA RESULT:    -5.352      2.282      5.111
REMARK INTER + INTRA:          -8.186
REMARK INTER:                  -7.338
REMARK INTRA:                  -0.848
REMARK UNBOUND:                -0.957
REMARK SMILES CC(=O)CCC=C(C)CCC=C(C)C
REMARK SMILES IDX 7 1 6 2 8 3 9 4 10 5 11 6 13 7 12 8 14 9 5 10 4 11 2 12 3 13
REMARK SMILES IDX 1 14
REMARK H PARENT
REMARK Flexibility Score: inf
ROOT
ATOM      1  C   UNL     1      33.260  21.410  17.438  1.00  0.00    -0.077 C 
ATOM      2  C   UNL     1      32.593  21.091  18.570  1.00  0.00    -0.028 C 
ATOM      3  C   UNL     1      34.745  21.688  17.438  1.00  0.00     0.039 C 
ENDROOT
BRANCH   1   4
ATOM      4  C   UNL     1      32.498  21.483  16.130  1.00  0.00     0.034 C 
BRANCH   4   5
ATOM      5  C   UNL     1      32.826  20.299  15.209  1.00  0.00     0.032 C 
BRANCH   5   6
ATOM      6  C   UNL     1      31.834  19.171  15.370  1.00  0.00    -0.028 C 
ATOM      7  C   UNL     1      30.984  16.994  16.124  1.00  0.00     0.039 C 
ATOM      8  C   UNL     1      32.051  18.057  16.102  1.00  0.00    -0.080 C 
ATOM      9  C   UNL     1      33.314  17.859  16.907  1.00  0.00     0.039 C 
ENDBRANCH   5   6
ENDBRANCH   4   5
ENDBRANCH   1   4
BRANCH   2  10
ATOM     10  C   UNL     1      33.215  21.052  19.943  1.00  0.00     0.035 C 
BRANCH  10  11
ATOM     11  C   UNL     1      32.451  20.086  20.854  1.00  0.00     0.079 C 
BRANCH  11  12
ATOM     12  C   UNL     1      32.801  20.326  22.299  1.00  0.00     0.130 C 
ATOM     13  O   UNL     1      33.967  20.521  22.610  1.00  0.00    -0.300 OA
ATOM     14  C   UNL     1      31.748  20.345  23.367  1.00  0.00     0.087 C 
ENDBRANCH  11  12
ENDBRANCH  10  11
ENDBRANCH   2  10
TORSDOF 6
ENDMDL
MODEL 9
REMARK VINA RESULT:    -5.298      3.116      6.269
REMARK INTER + INTRA:          -8.114
REMARK INTER:                  -7.577
REMARK INTRA:                  -0.537
REMARK UNBOUND:                -0.957
REMARK SMILES CC(=O)CCC=C(C)CCC=C(C)C
REMARK SMILES IDX 7 1 6 2 8 3 9 4 10 5 11 6 13 7 12 8 14 9 5 10 4 11 2 12 3 13
REMARK SMILES IDX 1 14
REMARK H PARENT
REMARK Flexibility Score: inf
ROOT
ATOM      1  C   UNL     1      33.154  21.126  19.477  1.00  0.00    -0.077 C 
ATOM      2  C   UNL     1      33.630  21.152  20.742  1.00  0.00    -0.028 C 
ATOM      3  C   UNL     1      31.814  20.515  19.141  1.00  0.00     0.039 C 
ENDROOT
BRANCH   1   4
ATOM      4  C   UNL     1      33.984  21.735  18.365  1.00  0.00     0.034 C 
BRANCH   4   5
ATOM      5  C   UNL     1      34.176  20.760  17.194  1.00  0.00     0.032 C 
BRANCH   5   6
ATOM      6  C   UNL     1      33.333  21.144  16.001  1.00  0.00    -0.028 C 
ATOM      7  C   UNL     1      31.761  20.821  14.142  1.00  0.00     0.039 C 
ATOM      8  C   UNL     1      32.498  20.305  15.350  1.00  0.00    -0.080 C 
ATOM      9  C   UNL     1      32.273  18.882  15.808  1.00  0.00     0.039 C 
ENDBRANCH   5   6
ENDBRANCH   4   5
ENDBRANCH   1   4
BRANCH   2  10
ATOM     10  C   UNL     1      32.938  20.523  21.926  1.00  0.00     0.035 C 
BRANCH  10  11
ATOM     11  C   UNL     1      33.914  20.362  23.097  1.00  0.00     0.079 C 
BRANCH  11  12
ATOM     12  C   UNL     1      33.180  20.410  24.411  1.00  0.00     0.130 C 
ATOM     13  O   UNL     1      32.422  21.340  24.643  1.00  0.00    -0.300 OA
ATOM     14  C   UNL     1      33.348  19.332  25.441  1.00  0.00     0.087 C 
ENDBRANCH  11  12
ENDBRANCH  10  11
ENDBRANCH   2  10
TORSDOF 6
ENDMDL
