MODEL 1
REMARK VINA RESULT:    -3.740      0.000      0.000
REMARK INTER + INTRA:          -4.918
REMARK INTER:                  -4.615
REMARK INTRA:                  -0.303
REMARK UNBOUND:                -0.303
REMARK SMILES C=CCc1ccc(OC)c(OC)c1
REMARK SMILES IDX 7 1 10 2 13 3 4 4 5 5 6 6 8 7 9 8 11 9 12 10 3 11 2 12 1 13
REMARK H PARENT
REMARK Flexibility Score: inf
ROOT
ATOM      1  C   UNL     1       7.713 -34.590  16.896  1.00  0.00     0.160 A 
ATOM      2  C   UNL     1       8.136 -33.251  16.888  1.00  0.00     0.160 A 
ATOM      3  C   UNL     1       8.506 -32.645  15.672  1.00  0.00     0.054 A 
ATOM      4  C   UNL     1       8.461 -33.369  14.471  1.00  0.00    -0.040 A 
ATOM      5  C   UNL     1       8.028 -34.700  14.486  1.00  0.00     0.008 A 
ATOM      6  C   UNL     1       7.660 -35.309  15.688  1.00  0.00     0.051 A 
ENDROOT
BRANCH   1   7
ATOM      7  O   UNL     1       7.353 -35.168  18.124  1.00  0.00    -0.493 OA
ATOM      8  C   UNL     1       7.713 -36.483  18.533  1.00  0.00     0.278 C 
ENDBRANCH   1   7
BRANCH   2   9
ATOM      9  O   UNL     1       8.175 -32.557  18.108  1.00  0.00    -0.493 OA
ATOM     10  C   UNL     1       9.265 -31.753  18.545  1.00  0.00     0.278 C 
ENDBRANCH   2   9
BRANCH   4  11
ATOM     11  C   UNL     1       8.830 -32.703  13.171  1.00  0.00     0.062 C 
BRANCH  11  12
ATOM     12  C   UNL     1      10.317 -32.505  13.078  1.00  0.00    -0.030 C 
ATOM     13  C   UNL     1      11.161 -33.538  13.002  1.00  0.00     0.004 C 
ENDBRANCH  11  12
ENDBRANCH   4  11
TORSDOF 4
ENDMDL
MODEL 2
REMARK VINA RESULT:    -3.644      1.741      4.194
REMARK INTER + INTRA:          -4.800
REMARK INTER:                  -4.536
REMARK INTRA:                  -0.263
REMARK UNBOUND:                -0.303
REMARK SMILES C=CCc1ccc(OC)c(OC)c1
REMARK SMILES IDX 7 1 10 2 13 3 4 4 5 5 6 6 8 7 9 8 11 9 12 10 3 11 2 12 1 13
REMARK H PARENT
REMARK Flexibility Score: inf
ROOT
ATOM      1  C   UNL     1       8.550 -32.714  16.780  1.00  0.00     0.160 A 
ATOM      2  C   UNL     1       8.734 -33.029  15.424  1.00  0.00     0.160 A 
ATOM      3  C   UNL     1       7.870 -33.949  14.799  1.00  0.00     0.054 A 
ATOM      4  C   UNL     1       6.832 -34.556  15.521  1.00  0.00    -0.040 A 
ATOM      5  C   UNL     1       6.648 -34.229  16.870  1.00  0.00     0.008 A 
ATOM      6  C   UNL     1       7.501 -33.318  17.498  1.00  0.00     0.051 A 
ENDROOT
BRANCH   1   7
ATOM      7  O   UNL     1       9.429 -31.795  17.377  1.00  0.00    -0.493 OA
ATOM      8  C   UNL     1       9.497 -31.536  18.775  1.00  0.00     0.278 C 
ENDBRANCH   1   7
BRANCH   2   9
ATOM      9  O   UNL     1       9.786 -32.408  14.733  1.00  0.00    -0.493 OA
ATOM     10  C   UNL     1      10.131 -32.675  13.378  1.00  0.00     0.278 C 
ENDBRANCH   2   9
BRANCH   4  11
ATOM     11  C   UNL     1       5.894 -35.516  14.836  1.00  0.00     0.062 C 
BRANCH  11  12
ATOM     12  C   UNL     1       6.361 -36.934  15.012  1.00  0.00    -0.030 C 
ATOM     13  C   UNL     1       5.889 -37.713  15.990  1.00  0.00     0.004 C 
ENDBRANCH  11  12
ENDBRANCH   4  11
TORSDOF 4
ENDMDL
MODEL 3
REMARK VINA RESULT:    -3.572      2.320      4.305
REMARK INTER + INTRA:          -4.711
REMARK INTER:                  -4.449
REMARK INTRA:                  -0.262
REMARK UNBOUND:                -0.303
REMARK SMILES C=CCc1ccc(OC)c(OC)c1
REMARK SMILES IDX 7 1 10 2 13 3 4 4 5 5 6 6 8 7 9 8 11 9 12 10 3 11 2 12 1 13
REMARK H PARENT
REMARK Flexibility Score: inf
ROOT
ATOM      1  C   UNL     1       6.693 -35.001  14.946  1.00  0.00     0.160 A 
ATOM      2  C   UNL     1       7.049 -33.647  14.829  1.00  0.00     0.160 A 
ATOM      3  C   UNL     1       7.371 -32.909  15.984  1.00  0.00     0.054 A 
ATOM      4  C   UNL     1       7.333 -33.513  17.250  1.00  0.00    -0.040 A 
ATOM      5  C   UNL     1       6.988 -34.867  17.357  1.00  0.00     0.008 A 
ATOM      6  C   UNL     1       6.667 -35.605  16.216  1.00  0.00     0.051 A 
ENDROOT
BRANCH   1   7
ATOM      7  O   UNL     1       6.375 -35.711  13.776  1.00  0.00    -0.493 OA
ATOM      8  C   UNL     1       7.092 -36.845  13.302  1.00  0.00     0.278 C 
ENDBRANCH   1   7
BRANCH   2   9
ATOM      9  O   UNL     1       7.071 -33.072  13.548  1.00  0.00    -0.493 OA
ATOM     10  C   UNL     1       8.250 -32.646  12.875  1.00  0.00     0.278 C 
ENDBRANCH   2   9
BRANCH   4  11
ATOM     11  C   UNL     1       7.708 -32.724  18.476  1.00  0.00     0.062 C 
BRANCH  11  12
ATOM     12  C   UNL     1       9.016 -32.011  18.272  1.00  0.00    -0.030 C 
ATOM     13  C   UNL     1       9.577 -31.282  19.241  1.00  0.00     0.004 C 
ENDBRANCH  11  12
ENDBRANCH   4  11
TORSDOF 4
ENDMDL
MODEL 4
REMARK VINA RESULT:    -3.572      2.165      4.363
REMARK INTER + INTRA:          -4.710
REMARK INTER:                  -4.411
REMARK INTRA:                  -0.299
REMARK UNBOUND:                -0.303
REMARK SMILES C=CCc1ccc(OC)c(OC)c1
REMARK SMILES IDX 7 1 10 2 13 3 4 4 5 5 6 6 8 7 9 8 11 9 12 10 3 11 2 12 1 13
REMARK H PARENT
REMARK Flexibility Score: inf
ROOT
ATOM      1  C   UNL     1       8.537 -34.508  14.505  1.00  0.00     0.160 A 
ATOM      2  C   UNL     1       9.003 -33.190  14.642  1.00  0.00     0.160 A 
ATOM      3  C   UNL     1       8.849 -32.522  15.872  1.00  0.00     0.054 A 
ATOM      4  C   UNL     1       8.230 -33.159  16.958  1.00  0.00    -0.040 A 
ATOM      5  C   UNL     1       7.778 -34.477  16.816  1.00  0.00     0.008 A 
ATOM      6  C   UNL     1       7.925 -35.146  15.599  1.00  0.00     0.051 A 
ENDROOT
BRANCH   1   7
ATOM      7  O   UNL     1       8.702 -35.148  13.265  1.00  0.00    -0.493 OA
ATOM      8  C   UNL     1       9.748 -36.065  12.966  1.00  0.00     0.278 C 
ENDBRANCH   1   7
BRANCH   2   9
ATOM      9  O   UNL     1       9.612 -32.580  13.534  1.00  0.00    -0.493 OA
ATOM     10  C   UNL     1      11.015 -32.388  13.390  1.00  0.00     0.278 C 
ENDBRANCH   2   9
BRANCH   4  11
ATOM     11  C   UNL     1       8.097 -32.446  18.278  1.00  0.00     0.062 C 
BRANCH  11  12
ATOM     12  C   UNL     1       9.260 -31.522  18.504  1.00  0.00    -0.030 C 
ATOM     13  C   UNL     1       9.839 -31.401  19.702  1.00  0.00     0.004 C 
ENDBRANCH  11  12
ENDBRANCH   4  11
TORSDOF 4
ENDMDL
MODEL 5
REMARK VINA RESULT:    -3.463      1.137      2.976
REMARK INTER + INTRA:          -4.576
REMARK INTER:                  -4.264
REMARK INTRA:                  -0.312
REMARK UNBOUND:                -0.303
REMARK SMILES C=CCc1ccc(OC)c(OC)c1
REMARK SMILES IDX 7 1 10 2 13 3 4 4 5 5 6 6 8 7 9 8 11 9 12 10 3 11 2 12 1 13
REMARK H PARENT
REMARK Flexibility Score: inf
ROOT
ATOM      1  C   UNL     1       8.348 -33.053  16.857  1.00  0.00     0.160 A 
ATOM      2  C   UNL     1       7.874 -34.373  16.777  1.00  0.00     0.160 A 
ATOM      3  C   UNL     1       7.980 -35.078  15.562  1.00  0.00     0.054 A 
ATOM      4  C   UNL     1       8.549 -34.471  14.432  1.00  0.00    -0.040 A 
ATOM      5  C   UNL     1       9.028 -33.159  14.524  1.00  0.00     0.008 A 
ATOM      6  C   UNL     1       8.926 -32.452  15.724  1.00  0.00     0.051 A 
ENDROOT
BRANCH   1   7
ATOM      7  O   UNL     1       8.227 -32.374  18.081  1.00  0.00    -0.493 OA
ATOM      8  C   UNL     1       9.274 -31.635  18.699  1.00  0.00     0.278 C 
ENDBRANCH   1   7
BRANCH   2   9
ATOM      9  O   UNL     1       7.306 -34.948  17.925  1.00  0.00    -0.493 OA
ATOM     10  C   UNL     1       7.644 -36.233  18.435  1.00  0.00     0.278 C 
ENDBRANCH   2   9
BRANCH   4  11
ATOM     11  C   UNL     1       8.684 -35.244  13.146  1.00  0.00     0.062 C 
BRANCH  11  12
ATOM     12  C   UNL     1       9.781 -36.266  13.252  1.00  0.00    -0.030 C 
ATOM     13  C   UNL     1      11.070 -35.924  13.176  1.00  0.00     0.004 C 
ENDBRANCH  11  12
ENDBRANCH   4  11
TORSDOF 4
ENDMDL
MODEL 6
REMARK VINA RESULT:    -3.422      1.346      2.728
REMARK INTER + INTRA:          -4.525
REMARK INTER:                  -4.243
REMARK INTRA:                  -0.282
REMARK UNBOUND:                -0.303
REMARK SMILES C=CCc1ccc(OC)c(OC)c1
REMARK SMILES IDX 7 1 10 2 13 3 4 4 5 5 6 6 8 7 9 8 11 9 12 10 3 11 2 12 1 13
REMARK H PARENT
REMARK Flexibility Score: inf
ROOT
ATOM      1  C   UNL     1       7.461 -33.865  16.949  1.00  0.00     0.160 A 
ATOM      2  C   UNL     1       6.868 -34.439  15.813  1.00  0.00     0.160 A 
ATOM      3  C   UNL     1       7.279 -34.030  14.530  1.00  0.00     0.054 A 
ATOM      4  C   UNL     1       8.270 -33.049  14.378  1.00  0.00    -0.040 A 
ATOM      5  C   UNL     1       8.865 -32.488  15.515  1.00  0.00     0.008 A 
ATOM      6  C   UNL     1       8.463 -32.889  16.791  1.00  0.00     0.051 A 
ENDROOT
BRANCH   1   7
ATOM      7  O   UNL     1       7.030 -34.292  18.215  1.00  0.00    -0.493 OA
ATOM      8  C   UNL     1       7.337 -33.630  19.437  1.00  0.00     0.278 C 
ENDBRANCH   1   7
BRANCH   2   9
ATOM      9  O   UNL     1       5.875 -35.414  16.001  1.00  0.00    -0.493 OA
ATOM     10  C   UNL     1       5.985 -36.769  15.580  1.00  0.00     0.278 C 
ENDBRANCH   2   9
BRANCH   4  11
ATOM     11  C   UNL     1       8.724 -32.639  13.001  1.00  0.00     0.062 C 
BRANCH  11  12
ATOM     12  C   UNL     1      10.204 -32.375  12.984  1.00  0.00    -0.030 C 
ATOM     13  C   UNL     1      11.093 -33.367  12.876  1.00  0.00     0.004 C 
ENDBRANCH  11  12
ENDBRANCH   4  11
TORSDOF 4
ENDMDL
MODEL 7
REMARK VINA RESULT:    -3.269      2.211      4.512
REMARK INTER + INTRA:          -4.337
REMARK INTER:                  -4.057
REMARK INTRA:                  -0.280
REMARK UNBOUND:                -0.303
REMARK SMILES C=CCc1ccc(OC)c(OC)c1
REMARK SMILES IDX 7 1 10 2 13 3 4 4 5 5 6 6 8 7 9 8 11 9 12 10 3 11 2 12 1 13
REMARK H PARENT
REMARK Flexibility Score: inf
ROOT
ATOM      1  C   UNL     1       7.525 -34.788  14.709  1.00  0.00     0.160 A 
ATOM      2  C   UNL     1       6.841 -35.171  15.874  1.00  0.00     0.160 A 
ATOM      3  C   UNL     1       6.985 -34.408  17.049  1.00  0.00     0.054 A 
ATOM      4  C   UNL     1       7.809 -33.272  17.066  1.00  0.00    -0.040 A 
ATOM      5  C   UNL     1       8.479 -32.891  15.897  1.00  0.00     0.008 A 
ATOM      6  C   UNL     1       8.342 -33.643  14.728  1.00  0.00     0.051 A 
ENDROOT
BRANCH   1   7
ATOM      7  O   UNL     1       7.363 -35.569  13.553  1.00  0.00    -0.493 OA
ATOM      8  C   UNL     1       8.419 -36.258  12.892  1.00  0.00     0.278 C 
ENDBRANCH   1   7
BRANCH   2   9
ATOM      9  O   UNL     1       6.028 -36.315  15.824  1.00  0.00    -0.493 OA
ATOM     10  C   UNL     1       6.207 -37.468  16.639  1.00  0.00     0.278 C 
ENDBRANCH   2   9
BRANCH   4  11
ATOM     11  C   UNL     1       7.933 -32.446  18.319  1.00  0.00     0.062 C 
BRANCH  11  12
ATOM     12  C   UNL     1       9.268 -31.756  18.372  1.00  0.00    -0.030 C 
ATOM     13  C   UNL     1       9.796 -31.335  19.525  1.00  0.00     0.004 C 
ENDBRANCH  11  12
ENDBRANCH   4  11
TORSDOF 4
ENDMDL
MODEL 8
REMARK VINA RESULT:    -3.264      2.605      5.267
REMARK INTER + INTRA:          -4.330
REMARK INTER:                  -4.011
REMARK INTRA:                  -0.319
REMARK UNBOUND:                -0.303
REMARK SMILES C=CCc1ccc(OC)c(OC)c1
REMARK SMILES IDX 7 1 10 2 13 3 4 4 5 5 6 6 8 7 9 8 11 9 12 10 3 11 2 12 1 13
REMARK H PARENT
REMARK Flexibility Score: inf
ROOT
ATOM      1  C   UNL     1       9.789 -33.056  14.315  1.00  0.00     0.160 A 
ATOM      2  C   UNL     1       9.754 -34.424  13.998  1.00  0.00     0.160 A 
ATOM      3  C   UNL     1       8.918 -35.288  14.732  1.00  0.00     0.054 A 
ATOM      4  C   UNL     1       8.126 -34.795  15.780  1.00  0.00    -0.040 A 
ATOM      5  C   UNL     1       8.158 -33.428  16.083  1.00  0.00     0.008 A 
ATOM      6  C   UNL     1       8.985 -32.564  15.360  1.00  0.00     0.051 A 
ENDROOT
BRANCH   1   7
ATOM      7  O   UNL     1      10.633 -32.219  13.568  1.00  0.00    -0.493 OA
ATOM      8  C   UNL     1      11.886 -31.723  14.024  1.00  0.00     0.278 C 
ENDBRANCH   1   7
BRANCH   2   9
ATOM      9  O   UNL     1      10.563 -34.885  12.948  1.00  0.00    -0.493 OA
ATOM     10  C   UNL     1      11.661 -35.776  13.107  1.00  0.00     0.278 C 
ENDBRANCH   2   9
BRANCH   4  11
ATOM     11  C   UNL     1       7.213 -35.721  16.539  1.00  0.00     0.062 C 
BRANCH  11  12
ATOM     12  C   UNL     1       7.446 -35.603  18.019  1.00  0.00    -0.030 C 
ATOM     13  C   UNL     1       7.792 -36.658  18.763  1.00  0.00     0.004 C 
ENDBRANCH  11  12
ENDBRANCH   4  11
TORSDOF 4
ENDMDL
MODEL 9
REMARK VINA RESULT:    -3.148      2.574      4.874
REMARK INTER + INTRA:          -4.187
REMARK INTER:                  -3.895
REMARK INTRA:                  -0.292
REMARK UNBOUND:                -0.303
REMARK SMILES C=CCc1ccc(OC)c(OC)c1
REMARK SMILES IDX 7 1 10 2 13 3 4 4 5 5 6 6 8 7 9 8 11 9 12 10 3 11 2 12 1 13
REMARK H PARENT
REMARK Flexibility Score: inf
ROOT
ATOM      1  C   UNL     1       9.631 -34.966  13.722  1.00  0.00     0.160 A 
ATOM      2  C   UNL     1       8.495 -35.558  14.297  1.00  0.00     0.160 A 
ATOM      3  C   UNL     1       7.670 -34.799  15.149  1.00  0.00     0.054 A 
ATOM      4  C   UNL     1       7.977 -33.459  15.433  1.00  0.00    -0.040 A 
ATOM      5  C   UNL     1       9.106 -32.873  14.847  1.00  0.00     0.008 A 
ATOM      6  C   UNL     1       9.930 -33.620  14.001  1.00  0.00     0.051 A 
ENDROOT
BRANCH   1   7
ATOM      7  O   UNL     1      10.436 -35.748  12.878  1.00  0.00    -0.493 OA
ATOM      8  C   UNL     1      11.848 -35.875  13.000  1.00  0.00     0.278 C 
ENDBRANCH   1   7
BRANCH   2   9
ATOM      9  O   UNL     1       8.219 -36.901  13.996  1.00  0.00    -0.493 OA
ATOM     10  C   UNL     1       7.003 -37.567  14.318  1.00  0.00     0.278 C 
ENDBRANCH   2   9
BRANCH   4  11
ATOM     11  C   UNL     1       7.073 -32.647  16.322  1.00  0.00     0.062 C 
BRANCH  11  12
ATOM     12  C   UNL     1       7.373 -32.911  17.771  1.00  0.00    -0.030 C 
ATOM     13  C   UNL     1       8.363 -32.281  18.410  1.00  0.00     0.004 C 
ENDBRANCH  11  12
ENDBRANCH   4  11
TORSDOF 4
ENDMDL
