MODEL 1
REMARK VINA RESULT:    -5.224      0.000      0.000
REMARK INTER + INTRA:         -15.656
REMARK INTER:                 -11.943
REMARK INTRA:                  -3.713
REMARK UNBOUND:                -3.713
REMARK SMILES CCCCCCCCCCCCCCCCCCCCCCCC(=O)[O-]
REMARK SMILES IDX 13 1 14 2 15 3 16 4 17 5 18 6 19 7 20 8 21 9 22 10 23 11
REMARK SMILES IDX 24 12 25 13 26 14 12 15 11 16 10 17 9 18 8 19 7 20 6 21 5 22
REMARK SMILES IDX 4 23 3 24 2 25 1 26
REMARK H PARENT
REMARK Flexibility Score: inf
ROOT
ATOM      1  C   UNL     1      17.100  11.730  36.730  1.00  0.00     0.000 C 
ENDROOT
BRANCH   1   2
ATOM      2  C   UNL     1      16.485  11.035  35.498  1.00  0.00     0.000 C 
BRANCH   2   3
ATOM      3  C   UNL     1      16.630  11.814  34.177  1.00  0.00     0.000 C 
BRANCH   3   4
ATOM      4  C   UNL     1      15.826  11.242  32.992  1.00  0.00     0.000 C 
BRANCH   4   5
ATOM      5  C   UNL     1      14.512  10.536  33.376  1.00  0.00     0.000 C 
BRANCH   5   6
ATOM      6  C   UNL     1      13.265  11.279  32.876  1.00  0.00     0.000 C 
BRANCH   6   7
ATOM      7  C   UNL     1      13.440  12.798  33.013  1.00  0.00     0.000 C 
BRANCH   7   8
ATOM      8  C   UNL     1      12.758  13.366  34.269  1.00  0.00     0.000 C 
BRANCH   8   9
ATOM      9  C   UNL     1      13.721  13.772  35.403  1.00  0.00     0.000 C 
BRANCH   9  10
ATOM     10  C   UNL     1      13.504  12.990  36.716  1.00  0.00     0.006 C 
BRANCH  10  11
ATOM     11  C   UNL     1      12.291  12.053  36.642  1.00  0.00     0.053 C 
BRANCH  11  12
ATOM     12  C   UNL     1      11.618  11.961  37.975  1.00  0.00     0.041 C 
ATOM     13  O   UNL     1      12.083  11.207  38.868  1.00  0.00    -0.550 OA
ATOM     14  O   UNL     1      10.450  12.674  38.213  1.00  0.00    -0.550 OA
ENDBRANCH  11  12
ENDBRANCH  10  11
ENDBRANCH   9  10
ENDBRANCH   8   9
ENDBRANCH   7   8
ENDBRANCH   6   7
ENDBRANCH   5   6
ENDBRANCH   4   5
ENDBRANCH   3   4
ENDBRANCH   2   3
ENDBRANCH   1   2
BRANCH   1  15
ATOM     15  C   UNL     1      17.376  13.235  36.558  1.00  0.00     0.000 C 
BRANCH  15  16
ATOM     16  C   UNL     1      18.730  13.661  37.149  1.00  0.00     0.000 C 
BRANCH  16  17
ATOM     17  C   UNL     1      19.622  14.383  36.121  1.00  0.00     0.000 C 
BRANCH  17  18
ATOM     18  C   UNL     1      21.019  13.746  35.954  1.00  0.00    -0.000 C 
BRANCH  18  19
ATOM     19  C   UNL     1      21.001  12.204  35.932  1.00  0.00    -0.000 C 
BRANCH  19  20
ATOM     20  C   UNL     1      20.253  11.636  34.712  1.00  0.00    -0.000 C 
BRANCH  20  21
ATOM     21  C   UNL     1      21.010  11.887  33.396  1.00  0.00    -0.000 C 
BRANCH  21  22
ATOM     22  C   UNL     1      20.324  12.922  32.482  1.00  0.00    -0.000 C 
BRANCH  22  23
ATOM     23  C   UNL     1      21.310  13.983  31.962  1.00  0.00    -0.000 C 
BRANCH  23  24
ATOM     24  C   UNL     1      22.739  13.769  32.484  1.00  0.00    -0.000 C 
BRANCH  24  25
ATOM     25  C   UNL     1      23.347  15.041  33.093  1.00  0.00    -0.003 C 
ATOM     26  C   UNL     1      22.258  16.051  33.445  1.00  0.00     0.004 C 
ENDBRANCH  24  25
ENDBRANCH  23  24
ENDBRANCH  22  23
ENDBRANCH  21  22
ENDBRANCH  20  21
ENDBRANCH  19  20
ENDBRANCH  18  19
ENDBRANCH  17  18
ENDBRANCH  16  17
ENDBRANCH  15  16
ENDBRANCH   1  15
TORSDOF 22
ENDMDL
MODEL 2
REMARK VINA RESULT:    -5.224      3.702      7.702
REMARK INTER + INTRA:         -15.655
REMARK INTER:                 -12.158
REMARK INTRA:                  -3.497
REMARK UNBOUND:                -3.713
REMARK SMILES CCCCCCCCCCCCCCCCCCCCCCCC(=O)[O-]
REMARK SMILES IDX 13 1 14 2 15 3 16 4 17 5 18 6 19 7 20 8 21 9 22 10 23 11
REMARK SMILES IDX 24 12 25 13 26 14 12 15 11 16 10 17 9 18 8 19 7 20 6 21 5 22
REMARK SMILES IDX 4 23 3 24 2 25 1 26
REMARK H PARENT
REMARK Flexibility Score: inf
ROOT
ATOM      1  C   UNL     1      18.909  12.572  37.483  1.00  0.00     0.000 C 
ENDROOT
BRANCH   1   2
ATOM      2  C   UNL     1      19.072  11.347  36.560  1.00  0.00     0.000 C 
BRANCH   2   3
ATOM      3  C   UNL     1      20.372  11.327  35.734  1.00  0.00     0.000 C 
BRANCH   3   4
ATOM      4  C   UNL     1      20.250  10.676  34.342  1.00  0.00     0.000 C 
BRANCH   4   5
ATOM      5  C   UNL     1      20.165  11.665  33.165  1.00  0.00     0.000 C 
BRANCH   5   6
ATOM      6  C   UNL     1      21.053  12.902  33.359  1.00  0.00     0.000 C 
BRANCH   6   7
ATOM      7  C   UNL     1      21.213  13.675  32.042  1.00  0.00     0.000 C 
BRANCH   7   8
ATOM      8  C   UNL     1      21.007  15.190  32.210  1.00  0.00     0.000 C 
BRANCH   8   9
ATOM      9  C   UNL     1      21.328  15.737  33.615  1.00  0.00     0.000 C 
BRANCH   9  10
ATOM     10  C   UNL     1      20.540  17.011  33.984  1.00  0.00     0.006 C 
BRANCH  10  11
ATOM     11  C   UNL     1      20.838  18.177  33.031  1.00  0.00     0.053 C 
BRANCH  11  12
ATOM     12  C   UNL     1      19.605  18.991  32.797  1.00  0.00     0.041 C 
ATOM     13  O   UNL     1      18.963  19.462  33.772  1.00  0.00    -0.550 OA
ATOM     14  O   UNL     1      19.140  19.190  31.504  1.00  0.00    -0.550 OA
ENDBRANCH  11  12
ENDBRANCH  10  11
ENDBRANCH   9  10
ENDBRANCH   8   9
ENDBRANCH   7   8
ENDBRANCH   6   7
ENDBRANCH   5   6
ENDBRANCH   4   5
ENDBRANCH   3   4
ENDBRANCH   2   3
ENDBRANCH   1   2
BRANCH   1  15
ATOM     15  C   UNL     1      18.042  13.708  36.910  1.00  0.00     0.000 C 
BRANCH  15  16
ATOM     16  C   UNL     1      18.715  14.429  35.729  1.00  0.00     0.000 C 
BRANCH  16  17
ATOM     17  C   UNL     1      17.788  14.547  34.505  1.00  0.00     0.000 C 
BRANCH  17  18
ATOM     18  C   UNL     1      16.580  13.586  34.543  1.00  0.00    -0.000 C 
BRANCH  18  19
ATOM     19  C   UNL     1      16.794  12.285  33.745  1.00  0.00    -0.000 C 
BRANCH  19  20
ATOM     20  C   UNL     1      15.723  11.220  34.045  1.00  0.00    -0.000 C 
BRANCH  20  21
ATOM     21  C   UNL     1      14.915  10.838  32.791  1.00  0.00    -0.000 C 
BRANCH  21  22
ATOM     22  C   UNL     1      13.480  11.400  32.793  1.00  0.00    -0.000 C 
BRANCH  22  23
ATOM     23  C   UNL     1      13.083  11.974  34.164  1.00  0.00    -0.000 C 
BRANCH  23  24
ATOM     24  C   UNL     1      12.785  13.481  34.112  1.00  0.00    -0.000 C 
BRANCH  24  25
ATOM     25  C   UNL     1      12.995  14.175  35.465  1.00  0.00    -0.003 C 
ATOM     26  C   UNL     1      13.407  13.170  36.537  1.00  0.00     0.004 C 
ENDBRANCH  24  25
ENDBRANCH  23  24
ENDBRANCH  22  23
ENDBRANCH  21  22
ENDBRANCH  20  21
ENDBRANCH  19  20
ENDBRANCH  18  19
ENDBRANCH  17  18
ENDBRANCH  16  17
ENDBRANCH  15  16
ENDBRANCH   1  15
TORSDOF 22
ENDMDL
MODEL 3
REMARK VINA RESULT:    -5.152      3.175      8.501
REMARK INTER + INTRA:         -15.492
REMARK INTER:                 -11.926
REMARK INTRA:                  -3.566
REMARK UNBOUND:                -3.713
REMARK SMILES CCCCCCCCCCCCCCCCCCCCCCCC(=O)[O-]
REMARK SMILES IDX 13 1 14 2 15 3 16 4 17 5 18 6 19 7 20 8 21 9 22 10 23 11
REMARK SMILES IDX 24 12 25 13 26 14 12 15 11 16 10 17 9 18 8 19 7 20 6 21 5 22
REMARK SMILES IDX 4 23 3 24 2 25 1 26
REMARK H PARENT
REMARK Flexibility Score: inf
ROOT
ATOM      1  C   UNL     1      17.264  13.608  35.712  1.00  0.00     0.000 C 
ENDROOT
BRANCH   1   2
ATOM      2  C   UNL     1      18.569  13.665  36.533  1.00  0.00     0.000 C 
BRANCH   2   3
ATOM      3  C   UNL     1      19.862  13.625  35.696  1.00  0.00     0.000 C 
BRANCH   3   4
ATOM      4  C   UNL     1      19.846  12.629  34.519  1.00  0.00     0.000 C 
BRANCH   4   5
ATOM      5  C   UNL     1      21.094  12.664  33.619  1.00  0.00     0.000 C 
BRANCH   5   6
ATOM      6  C   UNL     1      20.848  13.380  32.284  1.00  0.00     0.000 C 
BRANCH   6   7
ATOM      7  C   UNL     1      22.117  14.101  31.807  1.00  0.00     0.000 C 
BRANCH   7   8
ATOM      8  C   UNL     1      23.054  14.489  32.964  1.00  0.00     0.000 C 
BRANCH   8   9
ATOM      9  C   UNL     1      23.021  15.980  33.354  1.00  0.00     0.000 C 
BRANCH   9  10
ATOM     10  C   UNL     1      21.913  16.336  34.368  1.00  0.00     0.006 C 
BRANCH  10  11
ATOM     11  C   UNL     1      20.973  17.429  33.844  1.00  0.00     0.053 C 
BRANCH  11  12
ATOM     12  C   UNL     1      19.718  16.825  33.298  1.00  0.00     0.041 C 
ATOM     13  O   UNL     1      18.834  16.388  34.080  1.00  0.00    -0.550 OA
ATOM     14  O   UNL     1      19.547  16.702  31.925  1.00  0.00    -0.550 OA
ENDBRANCH  11  12
ENDBRANCH  10  11
ENDBRANCH   9  10
ENDBRANCH   8   9
ENDBRANCH   7   8
ENDBRANCH   6   7
ENDBRANCH   5   6
ENDBRANCH   4   5
ENDBRANCH   3   4
ENDBRANCH   2   3
ENDBRANCH   1   2
BRANCH   1  15
ATOM     15  C   UNL     1      16.330  12.434  36.057  1.00  0.00     0.000 C 
BRANCH  15  16
ATOM     16  C   UNL     1      16.469  11.258  35.076  1.00  0.00     0.000 C 
BRANCH  16  17
ATOM     17  C   UNL     1      16.013  11.622  33.650  1.00  0.00     0.000 C 
BRANCH  17  18
ATOM     18  C   UNL     1      14.823  10.779  33.143  1.00  0.00    -0.000 C 
BRANCH  18  19
ATOM     19  C   UNL     1      13.488  11.548  33.105  1.00  0.00    -0.000 C 
BRANCH  19  20
ATOM     20  C   UNL     1      13.650  13.038  33.456  1.00  0.00    -0.000 C 
BRANCH  20  21
ATOM     21  C   UNL     1      12.535  13.540  34.393  1.00  0.00    -0.000 C 
BRANCH  21  22
ATOM     22  C   UNL     1      12.928  13.510  35.883  1.00  0.00    -0.000 C 
BRANCH  22  23
ATOM     23  C   UNL     1      11.875  12.794  36.747  1.00  0.00    -0.000 C 
BRANCH  23  24
ATOM     24  C   UNL     1      12.476  11.664  37.598  1.00  0.00    -0.000 C 
BRANCH  24  25
ATOM     25  C   UNL     1      13.183  10.595  36.753  1.00  0.00    -0.003 C 
ATOM     26  C   UNL     1      12.170   9.698  36.047  1.00  0.00     0.004 C 
ENDBRANCH  24  25
ENDBRANCH  23  24
ENDBRANCH  22  23
ENDBRANCH  21  22
ENDBRANCH  20  21
ENDBRANCH  19  20
ENDBRANCH  18  19
ENDBRANCH  17  18
ENDBRANCH  16  17
ENDBRANCH  15  16
ENDBRANCH   1  15
TORSDOF 22
ENDMDL
MODEL 4
REMARK VINA RESULT:    -5.058      2.944      7.889
REMARK INTER + INTRA:         -15.276
REMARK INTER:                 -11.207
REMARK INTRA:                  -4.069
REMARK UNBOUND:                -3.713
REMARK SMILES CCCCCCCCCCCCCCCCCCCCCCCC(=O)[O-]
REMARK SMILES IDX 13 1 14 2 15 3 16 4 17 5 18 6 19 7 20 8 21 9 22 10 23 11
REMARK SMILES IDX 24 12 25 13 26 14 12 15 11 16 10 17 9 18 8 19 7 20 6 21 5 22
REMARK SMILES IDX 4 23 3 24 2 25 1 26
REMARK H PARENT
REMARK Flexibility Score: inf
ROOT
ATOM      1  C   UNL     1      18.708  16.307  34.132  1.00  0.00     0.000 C 
ENDROOT
BRANCH   1   2
ATOM      2  C   UNL     1      19.843  16.512  33.107  1.00  0.00     0.000 C 
BRANCH   2   3
ATOM      3  C   UNL     1      20.907  17.547  33.520  1.00  0.00     0.000 C 
BRANCH   3   4
ATOM      4  C   UNL     1      22.346  17.001  33.611  1.00  0.00     0.000 C 
BRANCH   4   5
ATOM      5  C   UNL     1      22.602  16.033  34.781  1.00  0.00     0.000 C 
BRANCH   5   6
ATOM      6  C   UNL     1      23.108  14.658  34.321  1.00  0.00     0.000 C 
BRANCH   6   7
ATOM      7  C   UNL     1      23.110  14.560  32.789  1.00  0.00     0.000 C 
BRANCH   7   8
ATOM      8  C   UNL     1      22.431  13.280  32.272  1.00  0.00     0.000 C 
BRANCH   8   9
ATOM      9  C   UNL     1      20.910  13.396  32.050  1.00  0.00     0.000 C 
BRANCH   9  10
ATOM     10  C   UNL     1      20.085  12.346  32.824  1.00  0.00     0.006 C 
BRANCH  10  11
ATOM     11  C   UNL     1      20.764  11.920  34.133  1.00  0.00     0.053 C 
BRANCH  11  12
ATOM     12  C   UNL     1      20.608  10.448  34.349  1.00  0.00     0.041 C 
ATOM     13  O   UNL     1      20.901   9.639  33.431  1.00  0.00    -0.550 OA
ATOM     14  O   UNL     1      20.095   9.974  35.549  1.00  0.00    -0.550 OA
ENDBRANCH  11  12
ENDBRANCH  10  11
ENDBRANCH   9  10
ENDBRANCH   8   9
ENDBRANCH   7   8
ENDBRANCH   6   7
ENDBRANCH   5   6
ENDBRANCH   4   5
ENDBRANCH   3   4
ENDBRANCH   2   3
ENDBRANCH   1   2
BRANCH   1  15
ATOM     15  C   UNL     1      18.527  14.858  34.620  1.00  0.00     0.000 C 
BRANCH  15  16
ATOM     16  C   UNL     1      19.212  14.599  35.972  1.00  0.00     0.000 C 
BRANCH  16  17
ATOM     17  C   UNL     1      18.449  13.575  36.834  1.00  0.00     0.000 C 
BRANCH  17  18
ATOM     18  C   UNL     1      17.018  13.283  36.332  1.00  0.00    -0.000 C 
BRANCH  18  19
ATOM     19  C   UNL     1      16.749  11.792  36.051  1.00  0.00    -0.000 C 
BRANCH  19  20
ATOM     20  C   UNL     1      16.930  11.425  34.566  1.00  0.00    -0.000 C 
BRANCH  20  21
ATOM     21  C   UNL     1      15.964  12.203  33.653  1.00  0.00    -0.000 C 
BRANCH  21  22
ATOM     22  C   UNL     1      14.694  11.409  33.287  1.00  0.00    -0.000 C 
BRANCH  22  23
ATOM     23  C   UNL     1      13.411  12.112  33.766  1.00  0.00    -0.000 C 
BRANCH  23  24
ATOM     24  C   UNL     1      13.056  11.769  35.222  1.00  0.00    -0.000 C 
BRANCH  24  25
ATOM     25  C   UNL     1      13.189  12.973  36.165  1.00  0.00    -0.003 C 
ATOM     26  C   UNL     1      13.289  14.276  35.376  1.00  0.00     0.004 C 
ENDBRANCH  24  25
ENDBRANCH  23  24
ENDBRANCH  22  23
ENDBRANCH  21  22
ENDBRANCH  20  21
ENDBRANCH  19  20
ENDBRANCH  18  19
ENDBRANCH  17  18
ENDBRANCH  16  17
ENDBRANCH  15  16
ENDBRANCH   1  15
TORSDOF 22
ENDMDL
MODEL 5
REMARK VINA RESULT:    -5.053      4.329      8.575
REMARK INTER + INTRA:         -15.265
REMARK INTER:                 -11.988
REMARK INTRA:                  -3.277
REMARK UNBOUND:                -3.713
REMARK SMILES CCCCCCCCCCCCCCCCCCCCCCCC(=O)[O-]
REMARK SMILES IDX 13 1 14 2 15 3 16 4 17 5 18 6 19 7 20 8 21 9 22 10 23 11
REMARK SMILES IDX 24 12 25 13 26 14 12 15 11 16 10 17 9 18 8 19 7 20 6 21 5 22
REMARK SMILES IDX 4 23 3 24 2 25 1 26
REMARK H PARENT
REMARK Flexibility Score: inf
ROOT
ATOM      1  C   UNL     1      22.140  13.988  31.558  1.00  0.00     0.000 C 
ENDROOT
BRANCH   1   2
ATOM      2  C   UNL     1      23.305  14.041  32.568  1.00  0.00     0.000 C 
BRANCH   2   3
ATOM      3  C   UNL     1      23.271  15.244  33.532  1.00  0.00     0.000 C 
BRANCH   3   4
ATOM      4  C   UNL     1      23.469  14.891  35.020  1.00  0.00     0.000 C 
BRANCH   4   5
ATOM      5  C   UNL     1      22.347  15.373  35.958  1.00  0.00     0.000 C 
BRANCH   5   6
ATOM      6  C   UNL     1      21.255  16.167  35.227  1.00  0.00     0.000 C 
BRANCH   6   7
ATOM      7  C   UNL     1      19.970  15.337  35.093  1.00  0.00     0.000 C 
BRANCH   7   8
ATOM      8  C   UNL     1      19.027  15.870  34.001  1.00  0.00     0.000 C 
BRANCH   8   9
ATOM      9  C   UNL     1      19.664  16.885  33.031  1.00  0.00     0.000 C 
BRANCH   9  10
ATOM     10  C   UNL     1      19.399  18.359  33.407  1.00  0.00     0.006 C 
BRANCH  10  11
ATOM     11  C   UNL     1      20.426  19.313  32.782  1.00  0.00     0.053 C 
BRANCH  11  12
ATOM     12  C   UNL     1      20.021  19.680  31.390  1.00  0.00     0.041 C 
ATOM     13  O   UNL     1      20.848  20.228  30.614  1.00  0.00    -0.550 OA
ATOM     14  O   UNL     1      18.718  19.460  30.965  1.00  0.00    -0.550 OA
ENDBRANCH  11  12
ENDBRANCH  10  11
ENDBRANCH   9  10
ENDBRANCH   8   9
ENDBRANCH   7   8
ENDBRANCH   6   7
ENDBRANCH   5   6
ENDBRANCH   4   5
ENDBRANCH   3   4
ENDBRANCH   2   3
ENDBRANCH   1   2
BRANCH   1  15
ATOM     15  C   UNL     1      20.842  13.359  32.096  1.00  0.00     0.000 C 
BRANCH  15  16
ATOM     16  C   UNL     1      21.090  12.404  33.275  1.00  0.00     0.000 C 
BRANCH  16  17
ATOM     17  C   UNL     1      19.809  11.674  33.723  1.00  0.00     0.000 C 
BRANCH  17  18
ATOM     18  C   UNL     1      18.790  11.451  32.585  1.00  0.00    -0.000 C 
BRANCH  18  19
ATOM     19  C   UNL     1      17.320  11.540  33.040  1.00  0.00    -0.000 C 
BRANCH  19  20
ATOM     20  C   UNL     1      17.180  11.886  34.534  1.00  0.00    -0.000 C 
BRANCH  20  21
ATOM     21  C   UNL     1      16.532  13.266  34.754  1.00  0.00    -0.000 C 
BRANCH  21  22
ATOM     22  C   UNL     1      15.183  13.197  35.497  1.00  0.00    -0.000 C 
BRANCH  22  23
ATOM     23  C   UNL     1      13.999  13.565  34.586  1.00  0.00    -0.000 C 
BRANCH  23  24
ATOM     24  C   UNL     1      13.110  12.356  34.254  1.00  0.00    -0.000 C 
BRANCH  24  25
ATOM     25  C   UNL     1      13.607  11.570  33.033  1.00  0.00    -0.003 C 
ATOM     26  C   UNL     1      13.983  10.142  33.417  1.00  0.00     0.004 C 
ENDBRANCH  24  25
ENDBRANCH  23  24
ENDBRANCH  22  23
ENDBRANCH  21  22
ENDBRANCH  20  21
ENDBRANCH  19  20
ENDBRANCH  18  19
ENDBRANCH  17  18
ENDBRANCH  16  17
ENDBRANCH  15  16
ENDBRANCH   1  15
TORSDOF 22
ENDMDL
MODEL 6
REMARK VINA RESULT:    -5.009      1.543      2.801
REMARK INTER + INTRA:         -15.164
REMARK INTER:                 -10.871
REMARK INTRA:                  -4.292
REMARK UNBOUND:                -3.713
REMARK SMILES CCCCCCCCCCCCCCCCCCCCCCCC(=O)[O-]
REMARK SMILES IDX 13 1 14 2 15 3 16 4 17 5 18 6 19 7 20 8 21 9 22 10 23 11
REMARK SMILES IDX 24 12 25 13 26 14 12 15 11 16 10 17 9 18 8 19 7 20 6 21 5 22
REMARK SMILES IDX 4 23 3 24 2 25 1 26
REMARK H PARENT
REMARK Flexibility Score: inf
ROOT
ATOM      1  C   UNL     1      16.112  12.502  36.083  1.00  0.00     0.000 C 
ENDROOT
BRANCH   1   2
ATOM      2  C   UNL     1      16.380  11.090  35.521  1.00  0.00     0.000 C 
BRANCH   2   3
ATOM      3  C   UNL     1      15.179  10.439  34.810  1.00  0.00     0.000 C 
BRANCH   3   4
ATOM      4  C   UNL     1      15.016  10.820  33.325  1.00  0.00     0.000 C 
BRANCH   4   5
ATOM      5  C   UNL     1      13.686  11.510  32.972  1.00  0.00     0.000 C 
BRANCH   5   6
ATOM      6  C   UNL     1      13.669  13.001  33.338  1.00  0.00     0.000 C 
BRANCH   6   7
ATOM      7  C   UNL     1      12.425  13.348  34.168  1.00  0.00     0.000 C 
BRANCH   7   8
ATOM      8  C   UNL     1      12.772  13.899  35.561  1.00  0.00     0.000 C 
BRANCH   8   9
ATOM      9  C   UNL     1      12.214  13.079  36.741  1.00  0.00     0.000 C 
BRANCH   9  10
ATOM     10  C   UNL     1      12.363  11.553  36.566  1.00  0.00     0.006 C 
BRANCH  10  11
ATOM     11  C   UNL     1      12.993  10.884  37.796  1.00  0.00     0.053 C 
BRANCH  11  12
ATOM     12  C   UNL     1      12.750   9.408  37.772  1.00  0.00     0.041 C 
ATOM     13  O   UNL     1      13.698   8.614  37.535  1.00  0.00    -0.550 OA
ATOM     14  O   UNL     1      11.467   8.913  37.965  1.00  0.00    -0.550 OA
ENDBRANCH  11  12
ENDBRANCH  10  11
ENDBRANCH   9  10
ENDBRANCH   8   9
ENDBRANCH   7   8
ENDBRANCH   6   7
ENDBRANCH   5   6
ENDBRANCH   4   5
ENDBRANCH   3   4
ENDBRANCH   2   3
ENDBRANCH   1   2
BRANCH   1  15
ATOM     15  C   UNL     1      17.248  13.517  35.858  1.00  0.00     0.000 C 
BRANCH  15  16
ATOM     16  C   UNL     1      17.325  14.008  34.402  1.00  0.00     0.000 C 
BRANCH  16  17
ATOM     17  C   UNL     1      18.297  15.190  34.229  1.00  0.00     0.000 C 
BRANCH  17  18
ATOM     18  C   UNL     1      19.532  15.121  35.153  1.00  0.00    -0.000 C 
BRANCH  18  19
ATOM     19  C   UNL     1      20.873  15.039  34.396  1.00  0.00    -0.000 C 
BRANCH  19  20
ATOM     20  C   UNL     1      20.719  15.303  32.886  1.00  0.00    -0.000 C 
BRANCH  20  21
ATOM     21  C   UNL     1      20.969  14.038  32.046  1.00  0.00    -0.000 C 
BRANCH  21  22
ATOM     22  C   UNL     1      21.166  12.767  32.896  1.00  0.00    -0.000 C 
BRANCH  22  23
ATOM     23  C   UNL     1      19.908  11.880  32.914  1.00  0.00    -0.000 C 
BRANCH  23  24
ATOM     24  C   UNL     1      19.771  11.074  34.215  1.00  0.00    -0.000 C 
BRANCH  24  25
ATOM     25  C   UNL     1      20.810  11.472  35.273  1.00  0.00    -0.003 C 
ATOM     26  C   UNL     1      20.195  11.472  36.670  1.00  0.00     0.004 C 
ENDBRANCH  24  25
ENDBRANCH  23  24
ENDBRANCH  22  23
ENDBRANCH  21  22
ENDBRANCH  20  21
ENDBRANCH  19  20
ENDBRANCH  18  19
ENDBRANCH  17  18
ENDBRANCH  16  17
ENDBRANCH  15  16
ENDBRANCH   1  15
TORSDOF 22
ENDMDL
MODEL 7
REMARK VINA RESULT:    -4.968      3.599      7.876
REMARK INTER + INTRA:         -15.070
REMARK INTER:                 -10.781
REMARK INTRA:                  -4.289
REMARK UNBOUND:                -3.713
REMARK SMILES CCCCCCCCCCCCCCCCCCCCCCCC(=O)[O-]
REMARK SMILES IDX 13 1 14 2 15 3 16 4 17 5 18 6 19 7 20 8 21 9 22 10 23 11
REMARK SMILES IDX 24 12 25 13 26 14 12 15 11 16 10 17 9 18 8 19 7 20 6 21 5 22
REMARK SMILES IDX 4 23 3 24 2 25 1 26
REMARK H PARENT
REMARK Flexibility Score: inf
ROOT
ATOM      1  C   UNL     1      17.929  11.314  36.670  1.00  0.00     0.000 C 
ENDROOT
BRANCH   1   2
ATOM      2  C   UNL     1      19.251  11.725  37.349  1.00  0.00     0.000 C 
BRANCH   2   3
ATOM      3  C   UNL     1      20.493  10.948  36.870  1.00  0.00     0.000 C 
BRANCH   3   4
ATOM      4  C   UNL     1      20.303  10.161  35.558  1.00  0.00     0.000 C 
BRANCH   4   5
ATOM      5  C   UNL     1      20.772  10.890  34.286  1.00  0.00     0.000 C 
BRANCH   5   6
ATOM      6  C   UNL     1      19.628  11.175  33.303  1.00  0.00     0.000 C 
BRANCH   6   7
ATOM      7  C   UNL     1      19.507  12.680  33.023  1.00  0.00     0.000 C 
BRANCH   7   8
ATOM      8  C   UNL     1      20.414  13.530  33.928  1.00  0.00     0.000 C 
BRANCH   8   9
ATOM      9  C   UNL     1      19.667  14.429  34.935  1.00  0.00     0.000 C 
BRANCH   9  10
ATOM     10  C   UNL     1      18.765  15.491  34.273  1.00  0.00     0.006 C 
BRANCH  10  11
ATOM     11  C   UNL     1      19.502  16.289  33.189  1.00  0.00     0.053 C 
BRANCH  11  12
ATOM     12  C   UNL     1      20.067  17.550  33.760  1.00  0.00     0.041 C 
ATOM     13  O   UNL     1      19.535  18.660  33.494  1.00  0.00    -0.550 OA
ATOM     14  O   UNL     1      21.210  17.505  34.547  1.00  0.00    -0.550 OA
ENDBRANCH  11  12
ENDBRANCH  10  11
ENDBRANCH   9  10
ENDBRANCH   8   9
ENDBRANCH   7   8
ENDBRANCH   6   7
ENDBRANCH   5   6
ENDBRANCH   4   5
ENDBRANCH   3   4
ENDBRANCH   2   3
ENDBRANCH   1   2
BRANCH   1  15
ATOM     15  C   UNL     1      16.945  12.470  36.410  1.00  0.00     0.000 C 
BRANCH  15  16
ATOM     16  C   UNL     1      16.454  12.513  34.953  1.00  0.00     0.000 C 
BRANCH  16  17
ATOM     17  C   UNL     1      16.156  11.111  34.389  1.00  0.00     0.000 C 
BRANCH  17  18
ATOM     18  C   UNL     1      15.427  11.130  33.027  1.00  0.00    -0.000 C 
BRANCH  18  19
ATOM     19  C   UNL     1      13.896  11.266  33.143  1.00  0.00    -0.000 C 
BRANCH  19  20
ATOM     20  C   UNL     1      13.431  12.733  33.187  1.00  0.00    -0.000 C 
BRANCH  20  21
ATOM     21  C   UNL     1      12.338  12.965  34.246  1.00  0.00    -0.000 C 
BRANCH  21  22
ATOM     22  C   UNL     1      12.702  14.057  35.272  1.00  0.00    -0.000 C 
BRANCH  22  23
ATOM     23  C   UNL     1      13.469  13.487  36.479  1.00  0.00    -0.000 C 
BRANCH  23  24
ATOM     24  C   UNL     1      12.730  12.321  37.153  1.00  0.00    -0.000 C 
BRANCH  24  25
ATOM     25  C   UNL     1      13.603  11.065  37.292  1.00  0.00    -0.003 C 
ATOM     26  C   UNL     1      13.087   9.940  36.399  1.00  0.00     0.004 C 
ENDBRANCH  24  25
ENDBRANCH  23  24
ENDBRANCH  22  23
ENDBRANCH  21  22
ENDBRANCH  20  21
ENDBRANCH  19  20
ENDBRANCH  18  19
ENDBRANCH  17  18
ENDBRANCH  16  17
ENDBRANCH  15  16
ENDBRANCH   1  15
TORSDOF 22
ENDMDL
MODEL 8
REMARK VINA RESULT:    -4.954      3.973      8.779
REMARK INTER + INTRA:         -15.039
REMARK INTER:                 -11.296
REMARK INTRA:                  -3.743
REMARK UNBOUND:                -3.713
REMARK SMILES CCCCCCCCCCCCCCCCCCCCCCCC(=O)[O-]
REMARK SMILES IDX 13 1 14 2 15 3 16 4 17 5 18 6 19 7 20 8 21 9 22 10 23 11
REMARK SMILES IDX 24 12 25 13 26 14 12 15 11 16 10 17 9 18 8 19 7 20 6 21 5 22
REMARK SMILES IDX 4 23 3 24 2 25 1 26
REMARK H PARENT
REMARK Flexibility Score: inf
ROOT
ATOM      1  C   UNL     1      16.995  13.398  35.667  1.00  0.00     0.000 C 
ENDROOT
BRANCH   1   2
ATOM      2  C   UNL     1      18.248  13.939  36.385  1.00  0.00     0.000 C 
BRANCH   2   3
ATOM      3  C   UNL     1      19.010  12.897  37.228  1.00  0.00     0.000 C 
BRANCH   3   4
ATOM      4  C   UNL     1      18.526  11.443  37.059  1.00  0.00     0.000 C 
BRANCH   4   5
ATOM      5  C   UNL     1      19.321  10.606  36.040  1.00  0.00     0.000 C 
BRANCH   5   6
ATOM      6  C   UNL     1      20.566  11.332  35.511  1.00  0.00     0.000 C 
BRANCH   6   7
ATOM      7  C   UNL     1      20.439  11.614  34.007  1.00  0.00     0.000 C 
BRANCH   7   8
ATOM      8  C   UNL     1      20.942  13.015  33.619  1.00  0.00     0.000 C 
BRANCH   8   9
ATOM      9  C   UNL     1      21.687  13.087  32.271  1.00  0.00     0.000 C 
BRANCH   9  10
ATOM     10  C   UNL     1      22.903  14.037  32.280  1.00  0.00     0.006 C 
BRANCH  10  11
ATOM     11  C   UNL     1      22.634  15.319  33.080  1.00  0.00     0.053 C 
BRANCH  11  12
ATOM     12  C   UNL     1      23.717  15.545  34.087  1.00  0.00     0.041 C 
ATOM     13  O   UNL     1      23.723  14.897  35.166  1.00  0.00    -0.550 OA
ATOM     14  O   UNL     1      24.692  16.506  33.853  1.00  0.00    -0.550 OA
ENDBRANCH  11  12
ENDBRANCH  10  11
ENDBRANCH   9  10
ENDBRANCH   8   9
ENDBRANCH   7   8
ENDBRANCH   6   7
ENDBRANCH   5   6
ENDBRANCH   4   5
ENDBRANCH   3   4
ENDBRANCH   2   3
ENDBRANCH   1   2
BRANCH   1  15
ATOM     15  C   UNL     1      17.069  13.415  34.129  1.00  0.00     0.000 C 
BRANCH  15  16
ATOM     16  C   UNL     1      16.791  12.036  33.507  1.00  0.00     0.000 C 
BRANCH  16  17
ATOM     17  C   UNL     1      15.841  11.182  34.367  1.00  0.00     0.000 C 
BRANCH  17  18
ATOM     18  C   UNL     1      14.689  10.535  33.567  1.00  0.00    -0.000 C 
BRANCH  18  19
ATOM     19  C   UNL     1      13.338  11.260  33.727  1.00  0.00    -0.000 C 
BRANCH  19  20
ATOM     20  C   UNL     1      13.427  12.763  33.402  1.00  0.00    -0.000 C 
BRANCH  20  21
ATOM     21  C   UNL     1      12.741  13.631  34.472  1.00  0.00    -0.000 C 
BRANCH  21  22
ATOM     22  C   UNL     1      13.225  13.334  35.905  1.00  0.00    -0.000 C 
BRANCH  22  23
ATOM     23  C   UNL     1      12.086  12.839  36.813  1.00  0.00    -0.000 C 
BRANCH  23  24
ATOM     24  C   UNL     1      12.495  11.634  37.674  1.00  0.00    -0.000 C 
BRANCH  24  25
ATOM     25  C   UNL     1      13.934  11.171  37.403  1.00  0.00    -0.003 C 
ATOM     26  C   UNL     1      14.024   9.648  37.387  1.00  0.00     0.004 C 
ENDBRANCH  24  25
ENDBRANCH  23  24
ENDBRANCH  22  23
ENDBRANCH  21  22
ENDBRANCH  20  21
ENDBRANCH  19  20
ENDBRANCH  18  19
ENDBRANCH  17  18
ENDBRANCH  16  17
ENDBRANCH  15  16
ENDBRANCH   1  15
TORSDOF 22
ENDMDL
MODEL 9
REMARK VINA RESULT:    -4.950      1.523      2.376
REMARK INTER + INTRA:         -15.028
REMARK INTER:                 -10.855
REMARK INTRA:                  -4.173
REMARK UNBOUND:                -3.713
REMARK SMILES CCCCCCCCCCCCCCCCCCCCCCCC(=O)[O-]
REMARK SMILES IDX 13 1 14 2 15 3 16 4 17 5 18 6 19 7 20 8 21 9 22 10 23 11
REMARK SMILES IDX 24 12 25 13 26 14 12 15 11 16 10 17 9 18 8 19 7 20 6 21 5 22
REMARK SMILES IDX 4 23 3 24 2 25 1 26
REMARK H PARENT
REMARK Flexibility Score: inf
ROOT
ATOM      1  C   UNL     1      16.461  11.236  35.301  1.00  0.00     0.000 C 
ENDROOT
BRANCH   1   2
ATOM      2  C   UNL     1      15.965  11.249  33.841  1.00  0.00     0.000 C 
BRANCH   2   3
ATOM      3  C   UNL     1      14.629  10.519  33.605  1.00  0.00     0.000 C 
BRANCH   3   4
ATOM      4  C   UNL     1      13.514  11.385  32.985  1.00  0.00     0.000 C 
BRANCH   4   5
ATOM      5  C   UNL     1      13.607  12.890  33.299  1.00  0.00     0.000 C 
BRANCH   5   6
ATOM      6  C   UNL     1      12.405  13.409  34.100  1.00  0.00     0.000 C 
BRANCH   6   7
ATOM      7  C   UNL     1      12.759  13.556  35.587  1.00  0.00     0.000 C 
BRANCH   7   8
ATOM      8  C   UNL     1      12.295  12.358  36.432  1.00  0.00     0.000 C 
BRANCH   8   9
ATOM      9  C   UNL     1      13.333  11.836  37.444  1.00  0.00     0.000 C 
BRANCH   9  10
ATOM     10  C   UNL     1      13.510  10.303  37.423  1.00  0.00     0.006 C 
BRANCH  10  11
ATOM     11  C   UNL     1      13.363   9.680  38.818  1.00  0.00     0.053 C 
BRANCH  11  12
ATOM     12  C   UNL     1      11.981   9.141  39.009  1.00  0.00     0.041 C 
ATOM     13  O   UNL     1      10.988   9.914  38.963  1.00  0.00    -0.550 OA
ATOM     14  O   UNL     1      11.793   7.793  39.285  1.00  0.00    -0.550 OA
ENDBRANCH  11  12
ENDBRANCH  10  11
ENDBRANCH   9  10
ENDBRANCH   8   9
ENDBRANCH   7   8
ENDBRANCH   6   7
ENDBRANCH   5   6
ENDBRANCH   4   5
ENDBRANCH   3   4
ENDBRANCH   2   3
ENDBRANCH   1   2
BRANCH   1  15
ATOM     15  C   UNL     1      16.564  12.621  35.966  1.00  0.00     0.000 C 
BRANCH  15  16
ATOM     16  C   UNL     1      16.695  13.761  34.942  1.00  0.00     0.000 C 
BRANCH  16  17
ATOM     17  C   UNL     1      18.013  14.544  35.097  1.00  0.00     0.000 C 
BRANCH  17  18
ATOM     18  C   UNL     1      18.849  14.120  36.324  1.00  0.00    -0.000 C 
BRANCH  18  19
ATOM     19  C   UNL     1      20.240  13.561  35.966  1.00  0.00    -0.000 C 
BRANCH  19  20
ATOM     20  C   UNL     1      20.267  12.022  35.911  1.00  0.00    -0.000 C 
BRANCH  20  21
ATOM     21  C   UNL     1      20.651  11.496  34.516  1.00  0.00    -0.000 C 
BRANCH  21  22
ATOM     22  C   UNL     1      19.643  11.883  33.416  1.00  0.00    -0.000 C 
BRANCH  22  23
ATOM     23  C   UNL     1      20.278  12.769  32.330  1.00  0.00    -0.000 C 
BRANCH  23  24
ATOM     24  C   UNL     1      21.748  13.107  32.627  1.00  0.00    -0.000 C 
BRANCH  24  25
ATOM     25  C   UNL     1      21.983  14.611  32.823  1.00  0.00    -0.003 C 
ATOM     26  C   UNL     1      20.691  15.398  32.621  1.00  0.00     0.004 C 
ENDBRANCH  24  25
ENDBRANCH  23  24
ENDBRANCH  22  23
ENDBRANCH  21  22
ENDBRANCH  20  21
ENDBRANCH  19  20
ENDBRANCH  18  19
ENDBRANCH  17  18
ENDBRANCH  16  17
ENDBRANCH  15  16
ENDBRANCH   1  15
TORSDOF 22
ENDMDL
