MODEL 1
REMARK VINA RESULT:    -2.179      0.000      0.000
REMARK INTER + INTRA:          -2.791
REMARK INTER:                  -2.689
REMARK INTRA:                  -0.103
REMARK UNBOUND:                -0.103
REMARK SMILES CCCCCC(=O)[O-]
REMARK SMILES IDX 4 1 5 2 6 3 7 4 8 5 3 6 2 7 1 8
REMARK H PARENT
REMARK Flexibility Score: inf
ROOT
ATOM      1  C   UNL     1      15.989  -8.704  27.512  1.00  0.00     0.006 C 
ENDROOT
BRANCH   1   2
ATOM      2  C   UNL     1      17.250  -8.975  26.676  1.00  0.00     0.053 C 
BRANCH   2   3
ATOM      3  C   UNL     1      17.073  -8.571  25.245  1.00  0.00     0.041 C 
ATOM      4  O   UNL     1      15.931  -8.594  24.717  1.00  0.00    -0.550 OA
ATOM      5  O   UNL     1      18.175  -8.202  24.483  1.00  0.00    -0.550 OA
ENDBRANCH   2   3
ENDBRANCH   1   2
BRANCH   1   6
ATOM      6  C   UNL     1      16.136  -9.042  29.008  1.00  0.00     0.000 C 
BRANCH   6   7
ATOM      7  C   UNL     1      17.600  -9.201  29.440  1.00  0.00    -0.003 C 
ATOM      8  C   UNL     1      18.112  -7.936  30.125  1.00  0.00     0.004 C 
ENDBRANCH   6   7
ENDBRANCH   1   6
TORSDOF 4
ENDMDL
MODEL 2
REMARK VINA RESULT:    -1.566     10.278     11.036
REMARK INTER + INTRA:          -2.034
REMARK INTER:                  -1.945
REMARK INTRA:                  -0.090
REMARK UNBOUND:                -0.103
REMARK SMILES CCCCCC(=O)[O-]
REMARK SMILES IDX 4 1 5 2 6 3 7 4 8 5 3 6 2 7 1 8
REMARK H PARENT
REMARK Flexibility Score: inf
ROOT
ATOM      1  C   UNL     1      17.730 -19.482  26.960  1.00  0.00     0.006 C 
ENDROOT
BRANCH   1   2
ATOM      2  C   UNL     1      16.635 -19.479  28.040  1.00  0.00     0.053 C 
BRANCH   2   3
ATOM      3  C   UNL     1      16.796 -18.340  28.999  1.00  0.00     0.041 C 
ATOM      4  O   UNL     1      16.157 -17.270  28.824  1.00  0.00    -0.550 OA
ATOM      5  O   UNL     1      17.678 -18.448  30.067  1.00  0.00    -0.550 OA
ENDBRANCH   2   3
ENDBRANCH   1   2
BRANCH   1   6
ATOM      6  C   UNL     1      17.425 -18.584  25.747  1.00  0.00     0.000 C 
BRANCH   6   7
ATOM      7  C   UNL     1      18.109 -19.068  24.462  1.00  0.00    -0.003 C 
ATOM      8  C   UNL     1      17.079 -19.417  23.389  1.00  0.00     0.004 C 
ENDBRANCH   6   7
ENDBRANCH   1   6
TORSDOF 4
ENDMDL
MODEL 3
REMARK VINA RESULT:    -1.420     10.758     11.586
REMARK INTER + INTRA:          -1.855
REMARK INTER:                  -1.800
REMARK INTRA:                  -0.055
REMARK UNBOUND:                -0.103
REMARK SMILES CCCCCC(=O)[O-]
REMARK SMILES IDX 4 1 5 2 6 3 7 4 8 5 3 6 2 7 1 8
REMARK H PARENT
REMARK Flexibility Score: inf
ROOT
ATOM      1  C   UNL     1      17.652 -18.465  26.015  1.00  0.00     0.006 C 
ENDROOT
BRANCH   1   2
ATOM      2  C   UNL     1      17.737 -19.433  27.206  1.00  0.00     0.053 C 
BRANCH   2   3
ATOM      3  C   UNL     1      16.608 -19.237  28.170  1.00  0.00     0.041 C 
ATOM      4  O   UNL     1      16.338 -18.088  28.604  1.00  0.00    -0.550 OA
ATOM      5  O   UNL     1      15.875 -20.331  28.616  1.00  0.00    -0.550 OA
ENDBRANCH   2   3
ENDBRANCH   1   2
BRANCH   1   6
ATOM      6  C   UNL     1      18.077 -19.079  24.668  1.00  0.00     0.000 C 
BRANCH   6   7
ATOM      7  C   UNL     1      16.888 -19.345  23.735  1.00  0.00    -0.003 C 
ATOM      8  C   UNL     1      17.329 -20.108  22.488  1.00  0.00     0.004 C 
ENDBRANCH   6   7
ENDBRANCH   1   6
TORSDOF 4
ENDMDL
MODEL 4
REMARK VINA RESULT:    -0.427     10.753     11.104
REMARK INTER + INTRA:          -0.630
REMARK INTER:                  -0.818
REMARK INTRA:                   0.188
REMARK UNBOUND:                -0.103
REMARK SMILES CCCCCC(=O)[O-]
REMARK SMILES IDX 4 1 5 2 6 3 7 4 8 5 3 6 2 7 1 8
REMARK H PARENT
REMARK Flexibility Score: inf
ROOT
ATOM      1  C   UNL     1      17.092 -18.435  28.623  1.00  0.00     0.006 C 
ENDROOT
BRANCH   1   2
ATOM      2  C   UNL     1      16.828 -18.127  27.140  1.00  0.00     0.053 C 
BRANCH   2   3
ATOM      3  C   UNL     1      17.767 -18.866  26.237  1.00  0.00     0.041 C 
ATOM      4  O   UNL     1      17.532 -18.942  25.003  1.00  0.00    -0.550 OA
ATOM      5  O   UNL     1      18.885 -19.502  26.764  1.00  0.00    -0.550 OA
ENDBRANCH   2   3
ENDBRANCH   1   2
BRANCH   1   6
ATOM      6  C   UNL     1      16.307 -19.643  29.168  1.00  0.00     0.000 C 
BRANCH   6   7
ATOM      7  C   UNL     1      15.879 -20.620  28.065  1.00  0.00    -0.003 C 
ATOM      8  C   UNL     1      15.885 -22.060  28.574  1.00  0.00     0.004 C 
ENDBRANCH   6   7
ENDBRANCH   1   6
TORSDOF 4
ENDMDL
MODEL 5
REMARK VINA RESULT:    -0.286     10.162     10.412
REMARK INTER + INTRA:          -0.455
REMARK INTER:                  -0.346
REMARK INTRA:                  -0.109
REMARK UNBOUND:                -0.103
REMARK SMILES CCCCCC(=O)[O-]
REMARK SMILES IDX 4 1 5 2 6 3 7 4 8 5 3 6 2 7 1 8
REMARK H PARENT
REMARK Flexibility Score: inf
ROOT
ATOM      1  C   UNL     1      17.922 -19.436  26.825  1.00  0.00     0.006 C 
ENDROOT
BRANCH   1   2
ATOM      2  C   UNL     1      17.702 -18.456  25.661  1.00  0.00     0.053 C 
BRANCH   2   3
ATOM      3  C   UNL     1      17.639 -19.158  24.340  1.00  0.00     0.041 C 
ATOM      4  O   UNL     1      16.550 -19.235  23.714  1.00  0.00    -0.550 OA
ATOM      5  O   UNL     1      18.777 -19.759  23.815  1.00  0.00    -0.550 OA
ENDBRANCH   2   3
ENDBRANCH   1   2
BRANCH   1   6
ATOM      6  C   UNL     1      16.743 -19.523  27.811  1.00  0.00     0.000 C 
BRANCH   6   7
ATOM      7  C   UNL     1      16.926 -18.618  29.037  1.00  0.00    -0.003 C 
ATOM      8  C   UNL     1      16.127 -17.325  28.891  1.00  0.00     0.004 C 
ENDBRANCH   6   7
ENDBRANCH   1   6
TORSDOF 4
ENDMDL
MODEL 6
REMARK VINA RESULT:     0.329     17.113     18.668
REMARK INTER + INTRA:           0.303
REMARK INTER:                   0.420
REMARK INTRA:                  -0.116
REMARK UNBOUND:                -0.103
REMARK SMILES CCCCCC(=O)[O-]
REMARK SMILES IDX 4 1 5 2 6 3 7 4 8 5 3 6 2 7 1 8
REMARK H PARENT
REMARK Flexibility Score: inf
ROOT
ATOM      1  C   UNL     1      27.930 -16.051  15.128  1.00  0.00     0.006 C 
ENDROOT
BRANCH   1   2
ATOM      2  C   UNL     1      28.655 -14.918  15.872  1.00  0.00     0.053 C 
BRANCH   2   3
ATOM      3  C   UNL     1      29.103 -15.340  17.238  1.00  0.00     0.041 C 
ATOM      4  O   UNL     1      28.790 -16.474  17.684  1.00  0.00    -0.550 OA
ATOM      5  O   UNL     1      29.838 -14.467  18.030  1.00  0.00    -0.550 OA
ENDBRANCH   2   3
ENDBRANCH   1   2
BRANCH   1   6
ATOM      6  C   UNL     1      28.242 -16.120  13.621  1.00  0.00     0.000 C 
BRANCH   6   7
ATOM      7  C   UNL     1      29.030 -17.378  13.234  1.00  0.00    -0.003 C 
ATOM      8  C   UNL     1      30.510 -17.227  13.580  1.00  0.00     0.004 C 
ENDBRANCH   6   7
ENDBRANCH   1   6
TORSDOF 4
ENDMDL
MODEL 7
REMARK VINA RESULT:     0.511     17.153     18.427
REMARK INTER + INTRA:           0.528
REMARK INTER:                   0.533
REMARK INTRA:                  -0.005
REMARK UNBOUND:                -0.103
REMARK SMILES CCCCCC(=O)[O-]
REMARK SMILES IDX 4 1 5 2 6 3 7 4 8 5 3 6 2 7 1 8
REMARK H PARENT
REMARK Flexibility Score: inf
ROOT
ATOM      1  C   UNL     1      28.175 -15.740  15.666  1.00  0.00     0.006 C 
ENDROOT
BRANCH   1   2
ATOM      2  C   UNL     1      29.030 -15.537  14.404  1.00  0.00     0.053 C 
BRANCH   2   3
ATOM      3  C   UNL     1      29.128 -16.787  13.585  1.00  0.00     0.041 C 
ATOM      4  O   UNL     1      28.103 -17.266  13.036  1.00  0.00    -0.550 OA
ATOM      5  O   UNL     1      30.347 -17.442  13.458  1.00  0.00    -0.550 OA
ENDBRANCH   2   3
ENDBRANCH   1   2
BRANCH   1   6
ATOM      6  C   UNL     1      28.977 -16.151  16.915  1.00  0.00     0.000 C 
BRANCH   6   7
ATOM      7  C   UNL     1      29.416 -14.948  17.761  1.00  0.00    -0.003 C 
ATOM      8  C   UNL     1      28.752 -13.662  17.275  1.00  0.00     0.004 C 
ENDBRANCH   6   7
ENDBRANCH   1   6
TORSDOF 4
ENDMDL
MODEL 8
REMARK VINA RESULT:     0.616     10.429     10.965
REMARK INTER + INTRA:           0.658
REMARK INTER:                   0.774
REMARK INTRA:                  -0.116
REMARK UNBOUND:                -0.103
REMARK SMILES CCCCCC(=O)[O-]
REMARK SMILES IDX 4 1 5 2 6 3 7 4 8 5 3 6 2 7 1 8
REMARK H PARENT
REMARK Flexibility Score: inf
ROOT
ATOM      1  C   UNL     1      17.181 -18.661  26.350  1.00  0.00     0.006 C 
ENDROOT
BRANCH   1   2
ATOM      2  C   UNL     1      16.889 -19.355  27.690  1.00  0.00     0.053 C 
BRANCH   2   3
ATOM      3  C   UNL     1      16.817 -18.377  28.823  1.00  0.00     0.041 C 
ATOM      4  O   UNL     1      16.049 -17.383  28.754  1.00  0.00    -0.550 OA
ATOM      5  O   UNL     1      17.623 -18.548  29.942  1.00  0.00    -0.550 OA
ENDBRANCH   2   3
ENDBRANCH   1   2
BRANCH   1   6
ATOM      6  C   UNL     1      18.506 -19.087  25.692  1.00  0.00     0.000 C 
BRANCH   6   7
ATOM      7  C   UNL     1      19.558 -19.539  26.714  1.00  0.00    -0.003 C 
ATOM      8  C   UNL     1      20.714 -20.266  26.028  1.00  0.00     0.004 C 
ENDBRANCH   6   7
ENDBRANCH   1   6
TORSDOF 4
ENDMDL
