MODEL 1
REMARK VINA RESULT:    -0.807      0.000      0.000
REMARK INTER + INTRA:          -1.358
REMARK INTER:                  -0.995
REMARK INTRA:                  -0.363
REMARK UNBOUND:                -0.363
REMARK SMILES Oc1cc(O)c2cc(O)c(-c3cc(O)c(O)c(O)c3)[o+]c2c1.[Cl-]
REMARK SMILES IDX 10 1 20 2 21 3 22 4 2 5 3 6 4 7 6 8 7 9 8 10 11 11 12 12
REMARK SMILES IDX 13 13 19 14 15 15 17 16 14 17 16 19 18 21 9 23 1 25 5 27
REMARK H PARENT 14 18 16 20 18 22 9 24 1 26 5 28
REMARK Flexibility Score: inf
ROOT
ATOM      1  C   UNL     1      24.870  34.921  13.714  1.00  0.00     0.402 A 
ATOM      2  O   UNL     1      24.396  34.386  12.592  1.00  0.00    -0.202 OA
ATOM      3  C   UNL     1      24.936  33.322  12.006  1.00  0.00     0.368 A 
ATOM      4  C   UNL     1      24.369  32.835  10.826  1.00  0.00     0.162 A 
ATOM      5  C   UNL     1      24.916  31.722  10.188  1.00  0.00     0.128 A 
ATOM      6  C   UNL     1      26.040  31.090  10.731  1.00  0.00     0.093 A 
ATOM      7  C   UNL     1      26.628  31.559  11.912  1.00  0.00     0.136 A 
ATOM      8  C   UNL     1      26.073  32.690  12.565  1.00  0.00     0.125 A 
ATOM      9  C   UNL     1      26.587  33.221  13.759  1.00  0.00     0.078 A 
ATOM     10  C   UNL     1      25.982  34.336  14.348  1.00  0.00     0.223 A 
ENDROOT
BRANCH   1  11
ATOM     11  C   UNL     1      24.186  36.114  14.265  1.00  0.00     0.091 A 
ATOM     12  C   UNL     1      24.711  37.405  14.087  1.00  0.00     0.068 A 
ATOM     13  C   UNL     1      24.038  38.525  14.596  1.00  0.00     0.162 A 
ATOM     14  C   UNL     1      22.960  35.961  14.930  1.00  0.00     0.068 A 
ATOM     15  C   UNL     1      22.821  38.359  15.281  1.00  0.00     0.200 A 
ATOM     16  C   UNL     1      22.283  37.071  15.443  1.00  0.00     0.162 A 
BRANCH  13  17
ATOM     17  O   UNL     1      24.570  39.800  14.419  1.00  0.00    -0.504 OA
ATOM     18  H   UNL     1      25.267  40.178  15.050  1.00  0.00     0.293 HD
ENDBRANCH  13  17
BRANCH  15  19
ATOM     19  O   UNL     1      22.140  39.461  15.798  1.00  0.00    -0.502 OA
ATOM     20  H   UNL     1      21.710  39.447  16.717  1.00  0.00     0.293 HD
ENDBRANCH  15  19
BRANCH  16  21
ATOM     21  O   UNL     1      21.074  36.874  16.111  1.00  0.00    -0.504 OA
ATOM     22  H   UNL     1      20.478  37.646  16.385  1.00  0.00     0.293 HD
ENDBRANCH  16  21
ENDBRANCH   1  11
BRANCH  10  23
ATOM     23  O   UNL     1      26.462  34.834  15.559  1.00  0.00    -0.500 OA
ATOM     24  H   UNL     1      25.997  34.637  16.438  1.00  0.00     0.294 HD
ENDBRANCH  10  23
BRANCH   5  25
ATOM     25  O   UNL     1      24.335  31.250   9.012  1.00  0.00    -0.507 OA
ATOM     26  H   UNL     1      24.416  30.279   8.734  1.00  0.00     0.293 HD
ENDBRANCH   5  25
BRANCH   7  27
ATOM     27  O   UNL     1      27.751  30.876  12.387  1.00  0.00    -0.507 OA
ATOM     28  H   UNL     1      28.361  30.313  11.813  1.00  0.00     0.293 HD
ENDBRANCH   7  27
TORSDOF 7
ENDMDL
MODEL 2
REMARK VINA RESULT:    -0.672      1.353      7.279
REMARK INTER + INTRA:          -1.192
REMARK INTER:                  -0.888
REMARK INTRA:                  -0.304
REMARK UNBOUND:                -0.363
REMARK SMILES Oc1cc(O)c2cc(O)c(-c3cc(O)c(O)c(O)c3)[o+]c2c1.[Cl-]
REMARK SMILES IDX 10 1 20 2 21 3 22 4 2 5 3 6 4 7 6 8 7 9 8 10 11 11 12 12
REMARK SMILES IDX 13 13 19 14 15 15 17 16 14 17 16 19 18 21 9 23 1 25 5 27
REMARK H PARENT 14 18 16 20 18 22 9 24 1 26 5 28
REMARK Flexibility Score: inf
ROOT
ATOM      1  C   UNL     1      24.002  35.170  13.241  1.00  0.00     0.402 A 
ATOM      2  O   UNL     1      24.839  36.170  13.502  1.00  0.00    -0.202 OA
ATOM      3  C   UNL     1      24.505  37.230  14.231  1.00  0.00     0.368 A 
ATOM      4  C   UNL     1      25.453  38.233  14.447  1.00  0.00     0.162 A 
ATOM      5  C   UNL     1      25.129  39.358  15.205  1.00  0.00     0.128 A 
ATOM      6  C   UNL     1      23.847  39.484  15.752  1.00  0.00     0.093 A 
ATOM      7  C   UNL     1      22.879  38.493  15.550  1.00  0.00     0.136 A 
ATOM      8  C   UNL     1      23.205  37.347  14.780  1.00  0.00     0.125 A 
ATOM      9  C   UNL     1      22.304  36.298  14.537  1.00  0.00     0.078 A 
ATOM     10  C   UNL     1      22.699  35.196  13.773  1.00  0.00     0.223 A 
ENDROOT
BRANCH   1  11
ATOM     11  C   UNL     1      24.490  34.047  12.407  1.00  0.00     0.091 A 
ATOM     12  C   UNL     1      24.007  33.840  11.105  1.00  0.00     0.068 A 
ATOM     13  C   UNL     1      24.497  32.785  10.321  1.00  0.00     0.162 A 
ATOM     14  C   UNL     1      25.496  33.205  12.904  1.00  0.00     0.068 A 
ATOM     15  C   UNL     1      25.489  31.933  10.837  1.00  0.00     0.200 A 
ATOM     16  C   UNL     1      25.990  32.149  12.132  1.00  0.00     0.162 A 
BRANCH  13  17
ATOM     17  O   UNL     1      24.007  32.585   9.033  1.00  0.00    -0.504 OA
ATOM     18  H   UNL     1      24.609  32.282   8.276  1.00  0.00     0.293 HD
ENDBRANCH  13  17
BRANCH  15  19
ATOM     19  O   UNL     1      25.986  30.875  10.074  1.00  0.00    -0.502 OA
ATOM     20  H   UNL     1      25.918  30.860   9.063  1.00  0.00     0.293 HD
ENDBRANCH  15  19
BRANCH  16  21
ATOM     21  O   UNL     1      26.980  31.326  12.668  1.00  0.00    -0.504 OA
ATOM     22  H   UNL     1      27.589  30.764  12.085  1.00  0.00     0.293 HD
ENDBRANCH  16  21
ENDBRANCH   1  11
BRANCH  10  23
ATOM     23  O   UNL     1      21.820  34.132  13.572  1.00  0.00    -0.500 OA
ATOM     24  H   UNL     1      21.844  33.304  14.155  1.00  0.00     0.294 HD
ENDBRANCH  10  23
BRANCH   5  25
ATOM     25  O   UNL     1      26.090  40.347  15.410  1.00  0.00    -0.507 OA
ATOM     26  H   UNL     1      26.857  40.214  16.058  1.00  0.00     0.293 HD
ENDBRANCH   5  25
BRANCH   7  27
ATOM     27  O   UNL     1      21.621  38.696  16.125  1.00  0.00    -0.507 OA
ATOM     28  H   UNL     1      20.911  39.305  15.744  1.00  0.00     0.293 HD
ENDBRANCH   7  27
TORSDOF 7
ENDMDL
MODEL 3
REMARK VINA RESULT:     0.046     20.481     21.857
REMARK INTER + INTRA:          -0.306
REMARK INTER:                  -0.700
REMARK INTRA:                   0.394
REMARK UNBOUND:                -0.363
REMARK SMILES Oc1cc(O)c2cc(O)c(-c3cc(O)c(O)c(O)c3)[o+]c2c1.[Cl-]
REMARK SMILES IDX 10 1 20 2 21 3 22 4 2 5 3 6 4 7 6 8 7 9 8 10 11 11 12 12
REMARK SMILES IDX 13 13 19 14 15 15 17 16 14 17 16 19 18 21 9 23 1 25 5 27
REMARK H PARENT 14 18 16 20 18 22 9 24 1 26 5 28
REMARK Flexibility Score: inf
ROOT
ATOM      1  C   UNL     1      20.990  51.101  -0.434  1.00  0.00     0.402 A 
ATOM      2  O   UNL     1      21.968  51.123   0.468  1.00  0.00    -0.202 OA
ATOM      3  C   UNL     1      23.257  51.102   0.147  1.00  0.00     0.368 A 
ATOM      4  C   UNL     1      24.212  51.125   1.167  1.00  0.00     0.162 A 
ATOM      5  C   UNL     1      25.572  51.100   0.860  1.00  0.00     0.128 A 
ATOM      6  C   UNL     1      25.984  51.051  -0.477  1.00  0.00     0.093 A 
ATOM      7  C   UNL     1      25.047  51.027  -1.517  1.00  0.00     0.136 A 
ATOM      8  C   UNL     1      23.663  51.054  -1.208  1.00  0.00     0.125 A 
ATOM      9  C   UNL     1      22.654  51.046  -2.185  1.00  0.00     0.078 A 
ATOM     10  C   UNL     1      21.308  51.080  -1.804  1.00  0.00     0.223 A 
ENDROOT
BRANCH   1  11
ATOM     11  C   UNL     1      19.590  51.117   0.049  1.00  0.00     0.091 A 
ATOM     12  C   UNL     1      18.507  51.121  -0.845  1.00  0.00     0.068 A 
ATOM     13  C   UNL     1      17.188  51.115  -0.368  1.00  0.00     0.162 A 
ATOM     14  C   UNL     1      19.336  51.072   1.429  1.00  0.00     0.068 A 
ATOM     15  C   UNL     1      16.944  51.092   1.016  1.00  0.00     0.200 A 
ATOM     16  C   UNL     1      18.025  51.067   1.914  1.00  0.00     0.162 A 
BRANCH  13  17
ATOM     17  O   UNL     1      16.122  51.124  -1.264  1.00  0.00    -0.504 OA
ATOM     18  H   UNL     1      15.160  51.087  -0.946  1.00  0.00     0.293 HD
ENDBRANCH  13  17
BRANCH  15  19
ATOM     19  O   UNL     1      15.639  51.089   1.509  1.00  0.00    -0.502 OA
ATOM     20  H   UNL     1      15.289  50.349   2.106  1.00  0.00     0.293 HD
ENDBRANCH  15  19
BRANCH  16  21
ATOM     21  O   UNL     1      17.816  51.037   3.293  1.00  0.00    -0.504 OA
ATOM     22  H   UNL     1      18.365  50.449   3.909  1.00  0.00     0.293 HD
ENDBRANCH  16  21
ENDBRANCH   1  11
BRANCH  10  23
ATOM     23  O   UNL     1      20.308  51.121  -2.775  1.00  0.00    -0.500 OA
ATOM     24  H   UNL     1      19.984  51.997  -3.168  1.00  0.00     0.294 HD
ENDBRANCH  10  23
BRANCH   5  25
ATOM     25  O   UNL     1      26.509  51.125   1.892  1.00  0.00    -0.507 OA
ATOM     26  H   UNL     1      27.378  50.607   1.831  1.00  0.00     0.293 HD
ENDBRANCH   5  25
BRANCH   7  27
ATOM     27  O   UNL     1      25.539  50.974  -2.824  1.00  0.00    -0.507 OA
ATOM     28  H   UNL     1      26.054  51.718  -3.271  1.00  0.00     0.293 HD
ENDBRANCH   7  27
TORSDOF 7
ENDMDL
MODEL 4
REMARK VINA RESULT:     0.385      2.011      3.230
REMARK INTER + INTRA:           0.112
REMARK INTER:                   0.424
REMARK INTRA:                  -0.312
REMARK UNBOUND:                -0.363
REMARK SMILES Oc1cc(O)c2cc(O)c(-c3cc(O)c(O)c(O)c3)[o+]c2c1.[Cl-]
REMARK SMILES IDX 10 1 20 2 21 3 22 4 2 5 3 6 4 7 6 8 7 9 8 10 11 11 12 12
REMARK SMILES IDX 13 13 19 14 15 15 17 16 14 17 16 19 18 21 9 23 1 25 5 27
REMARK H PARENT 14 18 16 20 18 22 9 24 1 26 5 28
REMARK Flexibility Score: inf
ROOT
ATOM      1  C   UNL     1      23.897  35.769  14.626  1.00  0.00     0.402 A 
ATOM      2  O   UNL     1      24.675  35.003  13.866  1.00  0.00    -0.202 OA
ATOM      3  C   UNL     1      24.514  33.689  13.748  1.00  0.00     0.368 A 
ATOM      4  C   UNL     1      25.385  32.969  12.927  1.00  0.00     0.162 A 
ATOM      5  C   UNL     1      25.242  31.588  12.787  1.00  0.00     0.128 A 
ATOM      6  C   UNL     1      24.221  30.920  13.472  1.00  0.00     0.093 A 
ATOM      7  C   UNL     1      23.335  31.620  14.301  1.00  0.00     0.136 A 
ATOM      8  C   UNL     1      23.477  33.024  14.445  1.00  0.00     0.125 A 
ATOM      9  C   UNL     1      22.628  33.808  15.243  1.00  0.00     0.078 A 
ATOM     10  C   UNL     1      22.826  35.189  15.331  1.00  0.00     0.223 A 
ENDROOT
BRANCH   1  11
ATOM     11  C   UNL     1      24.184  37.221  14.684  1.00  0.00     0.091 A 
ATOM     12  C   UNL     1      25.291  37.720  15.389  1.00  0.00     0.068 A 
ATOM     13  C   UNL     1      25.559  39.097  15.414  1.00  0.00     0.162 A 
ATOM     14  C   UNL     1      23.367  38.114  13.973  1.00  0.00     0.068 A 
ATOM     15  C   UNL     1      24.722  39.986  14.718  1.00  0.00     0.200 A 
ATOM     16  C   UNL     1      23.626  39.488  13.993  1.00  0.00     0.162 A 
BRANCH  13  17
ATOM     17  O   UNL     1      26.657  39.581  16.122  1.00  0.00    -0.504 OA
ATOM     18  H   UNL     1      26.705  39.524  17.133  1.00  0.00     0.293 HD
ENDBRANCH  13  17
BRANCH  15  19
ATOM     19  O   UNL     1      24.971  41.359  14.734  1.00  0.00    -0.502 OA
ATOM     20  H   UNL     1      24.643  41.957  15.484  1.00  0.00     0.293 HD
ENDBRANCH  15  19
BRANCH  16  21
ATOM     21  O   UNL     1      22.781  40.344  13.286  1.00  0.00    -0.504 OA
ATOM     22  H   UNL     1      23.114  41.203  12.865  1.00  0.00     0.293 HD
ENDBRANCH  16  21
ENDBRANCH   1  11
BRANCH  10  23
ATOM     23  O   UNL     1      21.953  35.974  16.084  1.00  0.00    -0.500 OA
ATOM     24  H   UNL     1      22.028  36.985  16.105  1.00  0.00     0.294 HD
ENDBRANCH  10  23
BRANCH   5  25
ATOM     25  O   UNL     1      26.120  30.887  11.962  1.00  0.00    -0.507 OA
ATOM     26  H   UNL     1      26.708  30.145  12.323  1.00  0.00     0.293 HD
ENDBRANCH   5  25
BRANCH   7  27
ATOM     27  O   UNL     1      22.346  30.879  14.955  1.00  0.00    -0.507 OA
ATOM     28  H   UNL     1      21.815  30.134  14.528  1.00  0.00     0.293 HD
ENDBRANCH   7  27
TORSDOF 7
ENDMDL
MODEL 5
REMARK VINA RESULT:     0.541      2.135      3.311
REMARK INTER + INTRA:           0.305
REMARK INTER:                  -0.156
REMARK INTRA:                   0.461
REMARK UNBOUND:                -0.363
REMARK SMILES Oc1cc(O)c2cc(O)c(-c3cc(O)c(O)c(O)c3)[o+]c2c1.[Cl-]
REMARK SMILES IDX 10 1 20 2 21 3 22 4 2 5 3 6 4 7 6 8 7 9 8 10 11 11 12 12
REMARK SMILES IDX 13 13 19 14 15 15 17 16 14 17 16 19 18 21 9 23 1 25 5 27
REMARK H PARENT 14 18 16 20 18 22 9 24 1 26 5 28
REMARK Flexibility Score: inf
ROOT
ATOM      1  C   UNL     1      24.587  35.725  13.766  1.00  0.00     0.402 A 
ATOM      2  O   UNL     1      25.494  34.963  14.371  1.00  0.00    -0.202 OA
ATOM      3  C   UNL     1      25.621  33.660  14.145  1.00  0.00     0.368 A 
ATOM      4  C   UNL     1      26.602  32.943  14.833  1.00  0.00     0.162 A 
ATOM      5  C   UNL     1      26.756  31.573  14.618  1.00  0.00     0.128 A 
ATOM      6  C   UNL     1      25.921  30.913  13.708  1.00  0.00     0.093 A 
ATOM      7  C   UNL     1      24.930  31.609  13.006  1.00  0.00     0.136 A 
ATOM      8  C   UNL     1      24.772  33.003  13.222  1.00  0.00     0.125 A 
ATOM      9  C   UNL     1      23.815  33.783  12.554  1.00  0.00     0.078 A 
ATOM     10  C   UNL     1      23.722  35.154  12.815  1.00  0.00     0.223 A 
ENDROOT
BRANCH   1  11
ATOM     11  C   UNL     1      24.538  37.165  14.112  1.00  0.00     0.091 A 
ATOM     12  C   UNL     1      25.487  37.744  14.969  1.00  0.00     0.068 A 
ATOM     13  C   UNL     1      25.438  39.114  15.267  1.00  0.00     0.162 A 
ATOM     14  C   UNL     1      23.557  37.982  13.527  1.00  0.00     0.068 A 
ATOM     15  C   UNL     1      24.438  39.919  14.695  1.00  0.00     0.200 A 
ATOM     16  C   UNL     1      23.499  39.347  13.820  1.00  0.00     0.162 A 
BRANCH  13  17
ATOM     17  O   UNL     1      26.382  39.677  16.123  1.00  0.00    -0.504 OA
ATOM     18  H   UNL     1      27.273  40.020  15.781  1.00  0.00     0.293 HD
ENDBRANCH  13  17
BRANCH  15  19
ATOM     19  O   UNL     1      24.371  41.283  14.983  1.00  0.00    -0.502 OA
ATOM     20  H   UNL     1      23.726  41.658  15.669  1.00  0.00     0.293 HD
ENDBRANCH  15  19
BRANCH  16  21
ATOM     21  O   UNL     1      22.499  40.121  13.230  1.00  0.00    -0.504 OA
ATOM     22  H   UNL     1      22.677  40.711  12.426  1.00  0.00     0.293 HD
ENDBRANCH  16  21
ENDBRANCH   1  11
BRANCH  10  23
ATOM     23  O   UNL     1      22.805  35.939  12.116  1.00  0.00    -0.500 OA
ATOM     24  H   UNL     1      22.680  35.849  11.114  1.00  0.00     0.294 HD
ENDBRANCH  10  23
BRANCH   5  25
ATOM     25  O   UNL     1      27.742  30.875  15.312  1.00  0.00    -0.507 OA
ATOM     26  H   UNL     1      27.889  31.013  16.305  1.00  0.00     0.293 HD
ENDBRANCH   5  25
BRANCH   7  27
ATOM     27  O   UNL     1      24.134  30.877  12.120  1.00  0.00    -0.507 OA
ATOM     28  H   UNL     1      23.164  31.076  11.928  1.00  0.00     0.293 HD
ENDBRANCH   7  27
TORSDOF 7
ENDMDL
MODEL 6
REMARK VINA RESULT:     0.985     19.906     21.622
REMARK INTER + INTRA:           0.853
REMARK INTER:                   0.383
REMARK INTRA:                   0.470
REMARK UNBOUND:                -0.363
REMARK SMILES Oc1cc(O)c2cc(O)c(-c3cc(O)c(O)c(O)c3)[o+]c2c1.[Cl-]
REMARK SMILES IDX 10 1 20 2 21 3 22 4 2 5 3 6 4 7 6 8 7 9 8 10 11 11 12 12
REMARK SMILES IDX 13 13 19 14 15 15 17 16 14 17 16 19 18 21 9 23 1 25 5 27
REMARK H PARENT 14 18 16 20 18 22 9 24 1 26 5 28
REMARK Flexibility Score: inf
ROOT
ATOM      1  C   UNL     1      21.888  51.091   0.578  1.00  0.00     0.402 A 
ATOM      2  O   UNL     1      21.205  51.104   1.719  1.00  0.00    -0.202 OA
ATOM      3  C   UNL     1      19.877  51.092   1.776  1.00  0.00     0.368 A 
ATOM      4  C   UNL     1      19.250  51.111   3.024  1.00  0.00     0.162 A 
ATOM      5  C   UNL     1      17.858  51.103   3.113  1.00  0.00     0.128 A 
ATOM      6  C   UNL     1      17.085  51.076   1.947  1.00  0.00     0.093 A 
ATOM      7  C   UNL     1      17.690  51.057   0.685  1.00  0.00     0.136 A 
ATOM      8  C   UNL     1      19.105  51.064   0.590  1.00  0.00     0.125 A 
ATOM      9  C   UNL     1      19.797  51.033  -0.632  1.00  0.00     0.078 A 
ATOM     10  C   UNL     1      21.196  51.036  -0.646  1.00  0.00     0.223 A 
ENDROOT
BRANCH   1  11
ATOM     11  C   UNL     1      23.367  51.117   0.646  1.00  0.00     0.091 A 
ATOM     12  C   UNL     1      24.043  51.114   1.876  1.00  0.00     0.068 A 
ATOM     13  C   UNL     1      25.445  51.117   1.921  1.00  0.00     0.162 A 
ATOM     14  C   UNL     1      24.113  51.089  -0.543  1.00  0.00     0.068 A 
ATOM     15  C   UNL     1      26.183  51.111   0.724  1.00  0.00     0.200 A 
ATOM     16  C   UNL     1      25.510  51.093  -0.509  1.00  0.00     0.162 A 
BRANCH  13  17
ATOM     17  O   UNL     1      26.105  51.118   3.147  1.00  0.00    -0.504 OA
ATOM     18  H   UNL     1      27.059  51.450   3.238  1.00  0.00     0.293 HD
ENDBRANCH  13  17
BRANCH  15  19
ATOM     19  O   UNL     1      27.578  51.118   0.749  1.00  0.00    -0.502 OA
ATOM     20  H   UNL     1      28.115  51.970   0.635  1.00  0.00     0.293 HD
ENDBRANCH  15  19
BRANCH  16  21
ATOM     21  O   UNL     1      26.214  51.080  -1.713  1.00  0.00    -0.504 OA
ATOM     22  H   UNL     1      25.746  51.098  -2.612  1.00  0.00     0.293 HD
ENDBRANCH  16  21
ENDBRANCH   1  11
BRANCH  10  23
ATOM     23  O   UNL     1      21.883  50.956  -1.857  1.00  0.00    -0.500 OA
ATOM     24  H   UNL     1      21.691  50.224  -2.531  1.00  0.00     0.294 HD
ENDBRANCH  10  23
BRANCH   5  25
ATOM     25  O   UNL     1      17.250  51.120   4.368  1.00  0.00    -0.507 OA
ATOM     26  H   UNL     1      16.272  51.359   4.479  1.00  0.00     0.293 HD
ENDBRANCH   5  25
BRANCH   7  27
ATOM     27  O   UNL     1      16.848  51.035  -0.432  1.00  0.00    -0.507 OA
ATOM     28  H   UNL     1      16.227  50.274  -0.663  1.00  0.00     0.293 HD
ENDBRANCH   7  27
TORSDOF 7
ENDMDL
MODEL 7
REMARK VINA RESULT:     0.992      3.546      4.181
REMARK INTER + INTRA:           0.862
REMARK INTER:                   0.633
REMARK INTRA:                   0.229
REMARK UNBOUND:                -0.363
REMARK SMILES Oc1cc(O)c2cc(O)c(-c3cc(O)c(O)c(O)c3)[o+]c2c1.[Cl-]
REMARK SMILES IDX 10 1 20 2 21 3 22 4 2 5 3 6 4 7 6 8 7 9 8 10 11 11 12 12
REMARK SMILES IDX 13 13 19 14 15 15 17 16 14 17 16 19 18 21 9 23 1 25 5 27
REMARK H PARENT 14 18 16 20 18 22 9 24 1 26 5 28
REMARK Flexibility Score: inf
ROOT
ATOM      1  C   UNL     1      23.963  35.955  15.324  1.00  0.00     0.402 A 
ATOM      2  O   UNL     1      22.712  35.512  15.235  1.00  0.00    -0.202 OA
ATOM      3  C   UNL     1      22.377  34.236  15.395  1.00  0.00     0.368 A 
ATOM      4  C   UNL     1      21.035  33.865  15.278  1.00  0.00     0.162 A 
ATOM      5  C   UNL     1      20.654  32.533  15.437  1.00  0.00     0.128 A 
ATOM      6  C   UNL     1      21.622  31.560  15.713  1.00  0.00     0.093 A 
ATOM      7  C   UNL     1      22.974  31.905  15.834  1.00  0.00     0.136 A 
ATOM      8  C   UNL     1      23.364  33.260  15.674  1.00  0.00     0.125 A 
ATOM      9  C   UNL     1      24.692  33.700  15.791  1.00  0.00     0.078 A 
ATOM     10  C   UNL     1      25.000  35.054  15.627  1.00  0.00     0.223 A 
ENDROOT
BRANCH   1  11
ATOM     11  C   UNL     1      24.210  37.401  15.116  1.00  0.00     0.091 A 
ATOM     12  C   UNL     1      25.290  38.054  15.731  1.00  0.00     0.068 A 
ATOM     13  C   UNL     1      25.522  39.418  15.505  1.00  0.00     0.162 A 
ATOM     14  C   UNL     1      23.383  38.124  14.243  1.00  0.00     0.068 A 
ATOM     15  C   UNL     1      24.674  40.139  14.646  1.00  0.00     0.200 A 
ATOM     16  C   UNL     1      23.604  39.484  14.013  1.00  0.00     0.162 A 
BRANCH  13  17
ATOM     17  O   UNL     1      26.593  40.057  16.125  1.00  0.00    -0.504 OA
ATOM     18  H   UNL     1      27.240  39.554  16.721  1.00  0.00     0.293 HD
ENDBRANCH  13  17
BRANCH  15  19
ATOM     19  O   UNL     1      24.886  41.498  14.412  1.00  0.00    -0.502 OA
ATOM     20  H   UNL     1      24.120  42.157  14.330  1.00  0.00     0.293 HD
ENDBRANCH  15  19
BRANCH  16  21
ATOM     21  O   UNL     1      22.750  40.170  13.149  1.00  0.00    -0.504 OA
ATOM     22  H   UNL     1      22.280  41.025  13.422  1.00  0.00     0.293 HD
ENDBRANCH  16  21
ENDBRANCH   1  11
BRANCH  10  23
ATOM     23  O   UNL     1      26.312  35.498  15.791  1.00  0.00    -0.500 OA
ATOM     24  H   UNL     1      26.614  35.964  16.638  1.00  0.00     0.294 HD
ENDBRANCH  10  23
BRANCH   5  25
ATOM     25  O   UNL     1      19.310  32.184  15.319  1.00  0.00    -0.507 OA
ATOM     26  H   UNL     1      19.010  31.431  14.711  1.00  0.00     0.293 HD
ENDBRANCH   5  25
BRANCH   7  27
ATOM     27  O   UNL     1      23.879  30.875  16.105  1.00  0.00    -0.507 OA
ATOM     28  H   UNL     1      23.746  30.173  16.818  1.00  0.00     0.293 HD
ENDBRANCH   7  27
TORSDOF 7
ENDMDL
MODEL 8
REMARK VINA RESULT:     1.318     18.700     20.805
REMARK INTER + INTRA:           1.264
REMARK INTER:                   0.906
REMARK INTRA:                   0.358
REMARK UNBOUND:                -0.363
REMARK SMILES Oc1cc(O)c2cc(O)c(-c3cc(O)c(O)c(O)c3)[o+]c2c1.[Cl-]
REMARK SMILES IDX 10 1 20 2 21 3 22 4 2 5 3 6 4 7 6 8 7 9 8 10 11 11 12 12
REMARK SMILES IDX 13 13 19 14 15 15 17 16 14 17 16 19 18 21 9 23 1 25 5 27
REMARK H PARENT 14 18 16 20 18 22 9 24 1 26 5 28
REMARK Flexibility Score: inf
ROOT
ATOM      1  C   UNL     1      21.426  50.991   1.251  1.00  0.00     0.402 A 
ATOM      2  O   UNL     1      21.908  50.991   2.491  1.00  0.00    -0.202 OA
ATOM      3  C   UNL     1      23.207  51.023   2.770  1.00  0.00     0.368 A 
ATOM      4  C   UNL     1      23.616  51.017   4.105  1.00  0.00     0.162 A 
ATOM      5  C   UNL     1      24.973  51.046   4.427  1.00  0.00     0.128 A 
ATOM      6  C   UNL     1      25.931  51.082   3.407  1.00  0.00     0.093 A 
ATOM      7  C   UNL     1      25.546  51.088   2.061  1.00  0.00     0.136 A 
ATOM      8  C   UNL     1      24.167  51.060   1.730  1.00  0.00     0.125 A 
ATOM      9  C   UNL     1      23.689  51.077   0.409  1.00  0.00     0.078 A 
ATOM     10  C   UNL     1      22.313  51.053   0.161  1.00  0.00     0.223 A 
ENDROOT
BRANCH   1  11
ATOM     11  C   UNL     1      19.957  50.942   1.070  1.00  0.00     0.091 A 
ATOM     12  C   UNL     1      19.382  50.743  -0.195  1.00  0.00     0.068 A 
ATOM     13  C   UNL     1      17.989  50.678  -0.344  1.00  0.00     0.162 A 
ATOM     14  C   UNL     1      19.120  51.042   2.193  1.00  0.00     0.068 A 
ATOM     15  C   UNL     1      17.158  50.802   0.784  1.00  0.00     0.200 A 
ATOM     16  C   UNL     1      17.730  50.981   2.054  1.00  0.00     0.162 A 
BRANCH  13  17
ATOM     17  O   UNL     1      17.429  50.485  -1.605  1.00  0.00    -0.504 OA
ATOM     18  H   UNL     1      17.969  50.106  -2.374  1.00  0.00     0.293 HD
ENDBRANCH  13  17
BRANCH  15  19
ATOM     19  O   UNL     1      15.770  50.744   0.655  1.00  0.00    -0.502 OA
ATOM     20  H   UNL     1      15.314  50.673  -0.248  1.00  0.00     0.293 HD
ENDBRANCH  15  19
BRANCH  16  21
ATOM     21  O   UNL     1      16.933  51.099   3.193  1.00  0.00    -0.504 OA
ATOM     22  H   UNL     1      15.932  50.947   3.169  1.00  0.00     0.293 HD
ENDBRANCH  16  21
ENDBRANCH   1  11
BRANCH  10  23
ATOM     23  O   UNL     1      21.837  51.120  -1.149  1.00  0.00    -0.500 OA
ATOM     24  H   UNL     1      22.165  51.824  -1.799  1.00  0.00     0.294 HD
ENDBRANCH  10  23
BRANCH   5  25
ATOM     25  O   UNL     1      25.361  51.041   5.766  1.00  0.00    -0.507 OA
ATOM     26  H   UNL     1      26.044  50.380   6.117  1.00  0.00     0.293 HD
ENDBRANCH   5  25
BRANCH   7  27
ATOM     27  O   UNL     1      26.563  51.119   1.102  1.00  0.00    -0.507 OA
ATOM     28  H   UNL     1      26.429  51.388   0.138  1.00  0.00     0.293 HD
ENDBRANCH   7  27
TORSDOF 7
ENDMDL
