MODEL 1
REMARK VINA RESULT:    -4.740      0.000      0.000
REMARK INTER + INTRA:          -6.547
REMARK INTER:                  -6.679
REMARK INTRA:                   0.132
REMARK UNBOUND:                 0.132
REMARK SMILES CC1=CCC(=C(C)C)C(=O)CC(C)=CCC1
REMARK SMILES IDX 12 1 14 2 13 3 15 4 16 5 2 6 1 7 3 8 11 10 9 11 10 12 5 13
REMARK SMILES IDX 6 14 7 15 8 16 4 17
REMARK H PARENT
REMARK Flexibility Score: 60.00
ROOT
ATOM      1  C   UNL     1      -8.468  34.156  25.631  1.00  0.00    -0.070 C 
ATOM      2  C   UNL     1      -8.263  33.723  26.895  1.00  0.00    -0.027 C 
ATOM      3  C   UNL     1      -7.877  35.487  25.236  1.00  0.00     0.039 C 
ENDROOT
BRANCH   2   4
ATOM      4  C   UNL     1      -8.689  32.381  27.449  1.00  0.00     0.032 C 
BRANCH   4   5
ATOM      5  C   UNL     1      -7.757  31.206  27.088  1.00  0.00     0.034 C 
BRANCH   5   6
ATOM      6  C   UNL     1      -8.497  30.012  26.513  1.00  0.00    -0.077 C 
ATOM      7  C   UNL     1      -9.420  29.251  27.432  1.00  0.00     0.039 C 
ATOM      8  C   UNL     1      -8.434  29.626  25.215  1.00  0.00    -0.023 CG0
ATOM      9  G   UNL     1      -7.567  30.223  24.124  1.00  0.00     0.000 G0
ENDBRANCH   5   6
ENDBRANCH   4   5
ENDBRANCH   2   4
BRANCH   1  10
ATOM     10  C   UNL     1      -9.176  33.332  24.575  1.00  0.00     0.111 C 
BRANCH  10  11
ATOM     11  C   UNL     1      -8.199  32.673  23.637  1.00  0.00     0.163 C 
ATOM     12  O   UNL     1      -7.228  33.358  23.215  1.00  0.00    -0.294 OA
BRANCH  11  13
ATOM     13  C   UNL     1      -8.307  31.236  23.248  1.00  0.00    -0.002 C 
ATOM     14  C   UNL     1      -8.975  30.867  22.114  1.00  0.00    -0.069 C 
ATOM     15  C   UNL     1      -8.968  29.441  21.608  1.00  0.00     0.039 C 
ATOM     16  C   UNL     1      -9.757  31.876  21.301  1.00  0.00     0.039 C 
BRANCH  13  17
ATOM     17  C   UNL     1      -7.567  30.224  24.109  1.00  0.00     0.066 CG0
ATOM     18  G   UNL     1      -8.446  29.643  25.198  1.00  0.00     0.000 G0
ENDBRANCH  13  17
ENDBRANCH  11  13
ENDBRANCH  10  11
ENDBRANCH   1  10
TORSDOF 0
ENDMDL
MODEL 2
REMARK VINA RESULT:    -4.542      2.096      4.168
REMARK INTER + INTRA:          -6.268
REMARK INTER:                  -6.584
REMARK INTRA:                   0.315
REMARK UNBOUND:                 0.132
REMARK SMILES CC1=CCC(=C(C)C)C(=O)CC(C)=CCC1
REMARK SMILES IDX 12 1 14 2 13 3 15 4 16 5 2 6 1 7 3 8 11 10 9 11 10 12 5 13
REMARK SMILES IDX 6 14 7 15 8 16 4 17
REMARK H PARENT
REMARK Flexibility Score: 60.00
ROOT
ATOM      1  C   UNL     1      -8.100  34.574  25.306  1.00  0.00    -0.070 C 
ATOM      2  C   UNL     1      -7.866  35.319  24.203  1.00  0.00    -0.027 C 
ATOM      3  C   UNL     1      -8.823  35.226  26.458  1.00  0.00     0.039 C 
ENDROOT
BRANCH   2   4
ATOM      4  C   UNL     1      -7.246  34.822  22.916  1.00  0.00     0.032 C 
BRANCH   4   5
ATOM      5  C   UNL     1      -8.239  34.628  21.751  1.00  0.00     0.034 C 
BRANCH   5   6
ATOM      6  C   UNL     1      -8.051  33.312  21.019  1.00  0.00    -0.077 C 
ATOM      7  C   UNL     1      -7.125  33.298  19.828  1.00  0.00     0.039 C 
ATOM      8  C   UNL     1      -8.606  32.137  21.405  1.00  0.00    -0.023 CG0
ATOM      9  G   UNL     1      -9.576  31.915  22.548  1.00  0.00     0.000 G0
ENDBRANCH   5   6
ENDBRANCH   4   5
ENDBRANCH   2   4
BRANCH   1  10
ATOM     10  C   UNL     1      -7.756  33.101  25.402  1.00  0.00     0.111 C 
BRANCH  10  11
ATOM     11  C   UNL     1      -8.920  32.233  25.002  1.00  0.00     0.163 C 
ATOM     12  O   UNL     1      -9.969  32.288  25.699  1.00  0.00    -0.294 OA
BRANCH  11  13
ATOM     13  C   UNL     1      -8.893  31.368  23.785  1.00  0.00    -0.002 C 
ATOM     14  C   UNL     1      -8.340  30.119  23.827  1.00  0.00    -0.069 C 
ATOM     15  C   UNL     1      -8.438  29.160  22.661  1.00  0.00     0.039 C 
ATOM     16  C   UNL     1      -7.601  29.629  25.053  1.00  0.00     0.039 C 
BRANCH  13  17
ATOM     17  C   UNL     1      -9.586  31.898  22.539  1.00  0.00     0.066 CG0
ATOM     18  G   UNL     1      -8.617  32.139  21.400  1.00  0.00     0.000 G0
ENDBRANCH  13  17
ENDBRANCH  11  13
ENDBRANCH  10  11
ENDBRANCH   1  10
TORSDOF 0
ENDMDL
MODEL 3
REMARK VINA RESULT:    -4.402      1.720      4.216
REMARK INTER + INTRA:          -6.071
REMARK INTER:                  -6.459
REMARK INTRA:                   0.389
REMARK UNBOUND:                 0.132
REMARK SMILES CC1=CCC(=C(C)C)C(=O)CC(C)=CCC1
REMARK SMILES IDX 12 1 14 2 13 3 15 4 16 5 2 6 1 7 3 8 11 10 9 11 10 12 5 13
REMARK SMILES IDX 6 14 7 15 8 16 4 17
REMARK H PARENT
REMARK Flexibility Score: 60.00
ROOT
ATOM      1  C   UNL     1      -7.927  34.141  22.191  1.00  0.00    -0.070 C 
ATOM      2  C   UNL     1      -8.203  33.385  21.105  1.00  0.00    -0.027 C 
ATOM      3  C   UNL     1      -8.194  35.623  22.106  1.00  0.00     0.039 C 
ENDROOT
BRANCH   2   4
ATOM      4  C   UNL     1      -8.096  31.878  21.027  1.00  0.00     0.032 C 
BRANCH   4   5
ATOM      5  C   UNL     1      -9.324  31.113  21.564  1.00  0.00     0.034 C 
BRANCH   5   6
ATOM      6  C   UNL     1      -8.987  30.165  22.701  1.00  0.00    -0.077 C 
ATOM      7  C   UNL     1      -8.258  28.890  22.358  1.00  0.00     0.039 C 
ATOM      8  C   UNL     1      -9.237  30.422  24.008  1.00  0.00    -0.023 CG0
ATOM      9  G   UNL     1      -9.968  31.618  24.583  1.00  0.00     0.000 G0
ENDBRANCH   5   6
ENDBRANCH   4   5
ENDBRANCH   2   4
BRANCH   1  10
ATOM     10  C   UNL     1      -7.455  33.561  23.509  1.00  0.00     0.111 C 
BRANCH  10  11
ATOM     11  C   UNL     1      -8.488  33.731  24.592  1.00  0.00     0.163 C 
ATOM     12  O   UNL     1      -8.919  34.893  24.823  1.00  0.00    -0.294 OA
BRANCH  11  13
ATOM     13  C   UNL     1      -9.057  32.574  25.346  1.00  0.00    -0.002 C 
ATOM     14  C   UNL     1      -8.823  32.430  26.685  1.00  0.00    -0.069 C 
ATOM     15  C   UNL     1      -9.511  31.363  27.507  1.00  0.00     0.039 C 
ATOM     16  C   UNL     1      -7.860  33.340  27.416  1.00  0.00     0.039 C 
BRANCH  13  17
ATOM     17  C   UNL     1      -9.974  31.631  24.585  1.00  0.00     0.066 CG0
ATOM     18  G   UNL     1      -9.232  30.435  24.023  1.00  0.00     0.000 G0
ENDBRANCH  13  17
ENDBRANCH  11  13
ENDBRANCH  10  11
ENDBRANCH   1  10
TORSDOF 0
ENDMDL
MODEL 4
REMARK VINA RESULT:    -4.306      1.994      3.899
REMARK INTER + INTRA:          -5.936
REMARK INTER:                  -6.370
REMARK INTRA:                   0.434
REMARK UNBOUND:                 0.132
REMARK SMILES CC1=CCC(=C(C)C)C(=O)CC(C)=CCC1
REMARK SMILES IDX 12 1 14 2 13 3 15 4 16 5 2 6 1 7 3 8 11 10 9 11 10 12 5 13
REMARK SMILES IDX 6 14 7 15 8 16 4 17
REMARK H PARENT
REMARK Flexibility Score: 60.00
ROOT
ATOM      1  C   UNL     1      -8.391  33.150  26.773  1.00  0.00    -0.070 C 
ATOM      2  C   UNL     1      -7.907  34.335  26.336  1.00  0.00    -0.027 C 
ATOM      3  C   UNL     1      -7.634  32.440  27.867  1.00  0.00     0.039 C 
ENDROOT
BRANCH   2   4
ATOM      4  C   UNL     1      -8.571  35.239  25.321  1.00  0.00     0.032 C 
BRANCH   4   5
ATOM      5  C   UNL     1      -9.242  34.506  24.141  1.00  0.00     0.034 C 
BRANCH   5   6
ATOM      6  C   UNL     1      -8.246  33.954  23.137  1.00  0.00    -0.077 C 
ATOM      7  C   UNL     1      -7.246  34.914  22.542  1.00  0.00     0.039 C 
ATOM      8  C   UNL     1      -8.153  32.646  22.793  1.00  0.00    -0.023 CG0
ATOM      9  G   UNL     1      -9.054  31.515  23.245  1.00  0.00     0.000 G0
ENDBRANCH   5   6
ENDBRANCH   4   5
ENDBRANCH   2   4
BRANCH   1  10
ATOM     10  C   UNL     1      -9.695  32.555  26.285  1.00  0.00     0.111 C 
BRANCH  10  11
ATOM     11  C   UNL     1      -9.503  31.159  25.752  1.00  0.00     0.163 C 
ATOM     12  O   UNL     1     -10.120  30.217  26.318  1.00  0.00    -0.294 OA
BRANCH  11  13
ATOM     13  C   UNL     1      -8.667  30.869  24.549  1.00  0.00    -0.002 C 
ATOM     14  C   UNL     1      -7.619  29.994  24.621  1.00  0.00    -0.069 C 
ATOM     15  C   UNL     1      -6.853  29.559  23.392  1.00  0.00     0.039 C 
ATOM     16  C   UNL     1      -7.173  29.412  25.945  1.00  0.00     0.039 C 
BRANCH  13  17
ATOM     17  C   UNL     1      -9.088  31.510  23.237  1.00  0.00     0.066 CG0
ATOM     18  G   UNL     1      -8.153  32.625  22.814  1.00  0.00     0.000 G0
ENDBRANCH  13  17
ENDBRANCH  11  13
ENDBRANCH  10  11
ENDBRANCH   1  10
TORSDOF 0
ENDMDL
MODEL 5
REMARK VINA RESULT:    -4.249      1.960      3.803
REMARK INTER + INTRA:          -5.855
REMARK INTER:                  -7.402
REMARK INTRA:                   1.547
REMARK UNBOUND:                 0.132
REMARK SMILES CC1=CCC(=C(C)C)C(=O)CC(C)=CCC1
REMARK SMILES IDX 12 1 14 2 13 3 15 4 16 5 2 6 1 7 3 8 11 10 9 11 10 12 5 13
REMARK SMILES IDX 6 14 7 15 8 16 4 17
REMARK H PARENT
REMARK Flexibility Score: 60.00
ROOT
ATOM      1  C   UNL     1      -8.104  33.573  21.375  1.00  0.00    -0.070 C 
ATOM      2  C   UNL     1      -7.490  34.559  22.066  1.00  0.00    -0.027 C 
ATOM      3  C   UNL     1      -7.391  33.004  20.173  1.00  0.00     0.039 C 
ENDROOT
BRANCH   2   4
ATOM      4  C   UNL     1      -7.995  35.186  23.347  1.00  0.00     0.032 C 
BRANCH   4   5
ATOM      5  C   UNL     1      -9.163  34.435  24.019  1.00  0.00     0.034 C 
BRANCH   5   6
ATOM      6  C   UNL     1      -8.757  33.720  25.295  1.00  0.00    -0.077 C 
ATOM      7  C   UNL     1      -8.048  34.526  26.355  1.00  0.00     0.039 C 
ATOM      8  C   UNL     1      -9.049  32.426  25.571  1.00  0.00    -0.023 CG0
ATOM      9  G   UNL     1      -9.731  31.426  24.658  1.00  0.00     0.000 G0
ENDBRANCH   5   6
ENDBRANCH   4   5
ENDBRANCH   2   4
BRANCH   1  10
ATOM     10  C   UNL     1      -9.420  32.955  21.801  1.00  0.00     0.111 C 
BRANCH  10  11
ATOM     11  C   UNL     1      -9.265  31.493  22.129  1.00  0.00     0.163 C 
ATOM     12  O   UNL     1      -9.443  30.655  21.203  1.00  0.00    -0.294 OA
BRANCH  11  13
ATOM     13  C   UNL     1      -8.851  31.014  23.481  1.00  0.00    -0.002 C 
ATOM     14  C   UNL     1      -7.686  30.318  23.649  1.00  0.00    -0.069 C 
ATOM     15  C   UNL     1      -7.159  29.958  25.020  1.00  0.00     0.039 C 
ATOM     16  C   UNL     1      -6.858  29.876  22.462  1.00  0.00     0.039 C 
BRANCH  13  17
ATOM     17  C   UNL     1      -9.724  31.413  24.659  1.00  0.00     0.066 CG0
ATOM     18  G   UNL     1      -9.043  32.418  25.566  1.00  0.00     0.000 G0
ENDBRANCH  13  17
ENDBRANCH  11  13
ENDBRANCH  10  11
ENDBRANCH   1  10
TORSDOF 0
ENDMDL
MODEL 6
REMARK VINA RESULT:    -3.875     18.880     20.677
REMARK INTER + INTRA:          -5.328
REMARK INTER:                  -5.587
REMARK INTRA:                   0.259
REMARK UNBOUND:                 0.132
REMARK SMILES CC1=CCC(=C(C)C)C(=O)CC(C)=CCC1
REMARK SMILES IDX 12 1 14 2 13 3 15 4 16 5 2 6 1 7 3 8 11 10 9 11 10 12 5 13
REMARK SMILES IDX 6 14 7 15 8 16 4 17
REMARK H PARENT
REMARK Flexibility Score: 60.00
ROOT
ATOM      1  C   UNL     1      -0.305  48.985  13.355  1.00  0.00    -0.070 C 
ATOM      2  C   UNL     1      -1.099  48.952  12.261  1.00  0.00    -0.027 C 
ATOM      3  C   UNL     1       1.189  48.995  13.144  1.00  0.00     0.039 C 
ENDROOT
BRANCH   2   4
ATOM      4  C   UNL     1      -2.609  49.035  12.263  1.00  0.00     0.032 C 
BRANCH   4   5
ATOM      5  C   UNL     1      -3.328  47.749  12.724  1.00  0.00     0.034 C 
BRANCH   5   6
ATOM      6  C   UNL     1      -2.585  46.481  12.344  1.00  0.00    -0.077 C 
ATOM      7  C   UNL     1      -2.587  46.076  10.892  1.00  0.00     0.039 C 
ATOM      8  C   UNL     1      -1.865  45.728  13.212  1.00  0.00    -0.023 CG0
ATOM      9  G   UNL     1      -1.736  45.929  14.709  1.00  0.00     0.000 G0
ENDBRANCH   5   6
ENDBRANCH   4   5
ENDBRANCH   2   4
BRANCH   1  10
ATOM     10  C   UNL     1      -0.841  49.108  14.767  1.00  0.00     0.111 C 
BRANCH  10  11
ATOM     11  C   UNL     1      -0.416  47.944  15.624  1.00  0.00     0.163 C 
ATOM     12  O   UNL     1      -0.115  48.172  16.827  1.00  0.00    -0.294 OA
BRANCH  11  13
ATOM     13  C   UNL     1      -0.402  46.539  15.119  1.00  0.00    -0.002 C 
ATOM     14  C   UNL     1       0.756  45.813  15.107  1.00  0.00    -0.069 C 
ATOM     15  C   UNL     1       0.775  44.342  14.752  1.00  0.00     0.039 C 
ATOM     16  C   UNL     1       2.085  46.448  15.455  1.00  0.00     0.039 C 
BRANCH  13  17
ATOM     17  C   UNL     1      -1.735  45.932  14.713  1.00  0.00     0.066 CG0
ATOM     18  G   UNL     1      -1.844  45.731  13.215  1.00  0.00     0.000 G0
ENDBRANCH  13  17
ENDBRANCH  11  13
ENDBRANCH  10  11
ENDBRANCH   1  10
TORSDOF 0
ENDMDL
MODEL 7
REMARK VINA RESULT:    -3.755      1.910      3.831
REMARK INTER + INTRA:          -5.159
REMARK INTER:                  -6.713
REMARK INTRA:                   1.554
REMARK UNBOUND:                 0.132
REMARK SMILES CC1=CCC(=C(C)C)C(=O)CC(C)=CCC1
REMARK SMILES IDX 12 1 14 2 13 3 15 4 16 5 2 6 1 7 3 8 11 10 9 11 10 12 5 13
REMARK SMILES IDX 6 14 7 15 8 16 4 17
REMARK H PARENT
REMARK Flexibility Score: 60.00
ROOT
ATOM      1  C   UNL     1      -9.410  30.437  27.394  1.00  0.00    -0.070 C 
ATOM      2  C   UNL     1      -8.453  31.270  27.862  1.00  0.00    -0.027 C 
ATOM      3  C   UNL     1      -9.872  29.317  28.292  1.00  0.00     0.039 C 
ENDROOT
BRANCH   2   4
ATOM      4  C   UNL     1      -7.931  32.501  27.156  1.00  0.00     0.032 C 
BRANCH   4   5
ATOM      5  C   UNL     1      -9.016  33.383  26.503  1.00  0.00     0.034 C 
BRANCH   5   6
ATOM      6  C   UNL     1      -8.556  34.039  25.214  1.00  0.00    -0.077 C 
ATOM      7  C   UNL     1      -7.679  35.261  25.322  1.00  0.00     0.039 C 
ATOM      8  C   UNL     1      -8.825  33.559  23.975  1.00  0.00    -0.023 CG0
ATOM      9  G   UNL     1      -9.693  32.367  23.624  1.00  0.00     0.000 G0
ENDBRANCH   5   6
ENDBRANCH   4   5
ENDBRANCH   2   4
BRANCH   1  10
ATOM     10  C   UNL     1     -10.098  30.631  26.058  1.00  0.00     0.111 C 
BRANCH  10  11
ATOM     11  C   UNL     1      -9.233  30.170  24.915  1.00  0.00     0.163 C 
ATOM     12  O   UNL     1      -8.807  28.984  24.935  1.00  0.00    -0.294 OA
BRANCH  11  13
ATOM     13  C   UNL     1      -8.921  31.042  23.744  1.00  0.00    -0.002 C 
ATOM     14  C   UNL     1      -8.045  30.629  22.779  1.00  0.00    -0.069 C 
ATOM     15  C   UNL     1      -7.829  31.415  21.504  1.00  0.00     0.039 C 
ATOM     16  C   UNL     1      -7.248  29.353  22.937  1.00  0.00     0.039 C 
BRANCH  13  17
ATOM     17  C   UNL     1      -9.684  32.352  23.628  1.00  0.00     0.066 CG0
ATOM     18  G   UNL     1      -8.817  33.553  23.946  1.00  0.00     0.000 G0
ENDBRANCH  13  17
ENDBRANCH  11  13
ENDBRANCH  10  11
ENDBRANCH   1  10
TORSDOF 0
ENDMDL
MODEL 8
REMARK VINA RESULT:    -3.639     18.394     20.650
REMARK INTER + INTRA:          -4.996
REMARK INTER:                  -5.324
REMARK INTRA:                   0.328
REMARK UNBOUND:                 0.132
REMARK SMILES CC1=CCC(=C(C)C)C(=O)CC(C)=CCC1
REMARK SMILES IDX 12 1 14 2 13 3 15 4 16 5 2 6 1 7 3 8 11 10 9 11 10 12 5 13
REMARK SMILES IDX 6 14 7 15 8 16 4 17
REMARK H PARENT
REMARK Flexibility Score: 60.00
ROOT
ATOM      1  C   UNL     1      -0.819  47.452  15.223  1.00  0.00    -0.070 C 
ATOM      2  C   UNL     1       0.164  47.497  14.296  1.00  0.00    -0.027 C 
ATOM      3  C   UNL     1      -2.198  47.903  14.811  1.00  0.00     0.039 C 
ENDROOT
BRANCH   2   4
ATOM      4  C   UNL     1       1.580  47.000  14.485  1.00  0.00     0.032 C 
BRANCH   4   5
ATOM      5  C   UNL     1       2.542  48.015  15.137  1.00  0.00     0.034 C 
BRANCH   5   6
ATOM      6  C   UNL     1       3.204  47.487  16.397  1.00  0.00    -0.077 C 
ATOM      7  C   UNL     1       4.332  46.500  16.235  1.00  0.00     0.039 C 
ATOM      8  C   UNL     1       2.892  47.896  17.652  1.00  0.00    -0.023 CG0
ATOM      9  G   UNL     1       1.791  48.856  18.055  1.00  0.00     0.000 G0
ENDBRANCH   5   6
ENDBRANCH   4   5
ENDBRANCH   2   4
BRANCH   1  10
ATOM     10  C   UNL     1      -0.623  46.886  16.615  1.00  0.00     0.111 C 
BRANCH  10  11
ATOM     11  C   UNL     1      -0.581  47.974  17.655  1.00  0.00     0.163 C 
ATOM     12  O   UNL     1      -1.583  48.733  17.760  1.00  0.00    -0.294 OA
BRANCH  11  13
ATOM     13  C   UNL     1       0.566  48.140  18.596  1.00  0.00    -0.002 C 
ATOM     14  C   UNL     1       0.530  47.588  19.846  1.00  0.00    -0.069 C 
ATOM     15  C   UNL     1       1.734  47.602  20.763  1.00  0.00     0.039 C 
ATOM     16  C   UNL     1      -0.724  46.928  20.377  1.00  0.00     0.039 C 
BRANCH  13  17
ATOM     17  C   UNL     1       1.798  48.860  18.072  1.00  0.00     0.066 CG0
ATOM     18  G   UNL     1       2.903  47.899  17.681  1.00  0.00     0.000 G0
ENDBRANCH  13  17
ENDBRANCH  11  13
ENDBRANCH  10  11
ENDBRANCH   1  10
TORSDOF 0
ENDMDL
MODEL 9
REMARK VINA RESULT:    -3.446     18.820     20.154
REMARK INTER + INTRA:          -4.724
REMARK INTER:                  -4.943
REMARK INTRA:                   0.219
REMARK UNBOUND:                 0.132
REMARK SMILES CC1=CCC(=C(C)C)C(=O)CC(C)=CCC1
REMARK SMILES IDX 12 1 14 2 13 3 15 4 16 5 2 6 1 7 3 8 11 10 9 11 10 12 5 13
REMARK SMILES IDX 6 14 7 15 8 16 4 17
REMARK H PARENT
REMARK Flexibility Score: 60.00
ROOT
ATOM      1  C   UNL     1      -0.284  47.935  19.958  1.00  0.00    -0.070 C 
ATOM      2  C   UNL     1       1.017  48.136  20.262  1.00  0.00    -0.027 C 
ATOM      3  C   UNL     1      -1.323  48.622  20.809  1.00  0.00     0.039 C 
ENDROOT
BRANCH   2   4
ATOM      4  C   UNL     1       2.199  47.617  19.474  1.00  0.00     0.032 C 
BRANCH   4   5
ATOM      5  C   UNL     1       2.652  48.526  18.311  1.00  0.00     0.034 C 
BRANCH   5   6
ATOM      6  C   UNL     1       2.710  47.803  16.978  1.00  0.00    -0.077 C 
ATOM      7  C   UNL     1       3.864  46.862  16.740  1.00  0.00     0.039 C 
ATOM      8  C   UNL     1       1.760  47.897  16.015  1.00  0.00    -0.023 CG0
ATOM      9  G   UNL     1       0.533  48.787  16.025  1.00  0.00     0.000 G0
ENDBRANCH   5   6
ENDBRANCH   4   5
ENDBRANCH   2   4
BRANCH   1  10
ATOM     10  C   UNL     1      -0.742  47.135  18.755  1.00  0.00     0.111 C 
BRANCH  10  11
ATOM     11  C   UNL     1      -1.292  48.027  17.673  1.00  0.00     0.163 C 
ATOM     12  O   UNL     1      -2.199  48.846  17.983  1.00  0.00    -0.294 OA
BRANCH  11  13
ATOM     13  C   UNL     1      -0.760  48.016  16.278  1.00  0.00    -0.002 C 
ATOM     14  C   UNL     1      -1.451  47.402  15.271  1.00  0.00    -0.069 C 
ATOM     15  C   UNL     1      -1.021  47.508  13.824  1.00  0.00     0.039 C 
ATOM     16  C   UNL     1      -2.691  46.583  15.556  1.00  0.00     0.039 C 
BRANCH  13  17
ATOM     17  C   UNL     1       0.521  48.791  16.016  1.00  0.00     0.066 CG0
ATOM     18  G   UNL     1       1.747  47.900  16.030  1.00  0.00     0.000 G0
ENDBRANCH  13  17
ENDBRANCH  11  13
ENDBRANCH  10  11
ENDBRANCH   1  10
TORSDOF 0
ENDMDL
