MODEL 1
REMARK VINA RESULT:    -0.450      0.000      0.000
REMARK INTER + INTRA:          -1.431
REMARK INTER:                  -0.870
REMARK INTRA:                  -0.561
REMARK UNBOUND:                -0.561
REMARK SMILES CCCCCCCCCCCCCCCCCC(=O)[O-]
REMARK SMILES IDX 10 1 11 2 12 3 13 4 14 5 15 6 16 7 17 8 18 9 19 10 20 11
REMARK SMILES IDX 9 12 8 13 7 14 6 15 5 16 4 17 3 18 2 19 1 20
REMARK H PARENT
REMARK Flexibility Score: inf
ROOT
ATOM      1  C   UNL     1       1.356  20.905  16.137  1.00  0.00     0.000 C 
ENDROOT
BRANCH   1   2
ATOM      2  C   UNL     1       2.564  19.958  15.974  1.00  0.00     0.000 C 
BRANCH   2   3
ATOM      3  C   UNL     1       3.777  20.665  15.346  1.00  0.00     0.000 C 
BRANCH   3   4
ATOM      4  C   UNL     1       5.048  20.547  16.205  1.00  0.00     0.000 C 
BRANCH   4   5
ATOM      5  C   UNL     1       6.252  19.887  15.501  1.00  0.00     0.000 C 
BRANCH   5   6
ATOM      6  C   UNL     1       6.354  20.158  13.990  1.00  0.00     0.000 C 
BRANCH   6   7
ATOM      7  C   UNL     1       7.755  19.876  13.426  1.00  0.00     0.006 C 
BRANCH   7   8
ATOM      8  C   UNL     1       8.619  21.140  13.452  1.00  0.00     0.053 C 
BRANCH   8   9
ATOM      9  C   UNL     1      10.041  20.810  13.123  1.00  0.00     0.041 C 
ATOM     10  O   UNL     1      10.797  20.318  14.001  1.00  0.00    -0.550 OA
ATOM     11  O   UNL     1      10.544  21.090  11.858  1.00  0.00    -0.550 OA
ENDBRANCH   8   9
ENDBRANCH   7   8
ENDBRANCH   6   7
ENDBRANCH   5   6
ENDBRANCH   4   5
ENDBRANCH   3   4
ENDBRANCH   2   3
ENDBRANCH   1   2
BRANCH   1  12
ATOM     12  C   UNL     1       0.067  20.187  16.572  1.00  0.00     0.000 C 
BRANCH  12  13
ATOM     13  C   UNL     1      -1.111  21.149  16.779  1.00  0.00    -0.000 C 
BRANCH  13  14
ATOM     14  C   UNL     1      -2.185  21.023  15.683  1.00  0.00    -0.000 C 
BRANCH  14  15
ATOM     15  C   UNL     1      -3.187  19.876  15.932  1.00  0.00    -0.000 C 
BRANCH  15  16
ATOM     16  C   UNL     1      -4.637  20.382  16.033  1.00  0.00    -0.000 C 
BRANCH  16  17
ATOM     17  C   UNL     1      -5.264  20.664  14.659  1.00  0.00    -0.000 C 
BRANCH  17  18
ATOM     18  C   UNL     1      -6.722  21.144  14.762  1.00  0.00    -0.000 C 
BRANCH  18  19
ATOM     19  C   UNL     1      -7.317  20.934  16.162  1.00  0.00    -0.003 C 
ATOM     20  C   UNL     1      -8.475  19.936  16.173  1.00  0.00     0.004 C 
ENDBRANCH  18  19
ENDBRANCH  17  18
ENDBRANCH  16  17
ENDBRANCH  15  16
ENDBRANCH  14  15
ENDBRANCH  13  14
ENDBRANCH  12  13
ENDBRANCH   1  12
TORSDOF 16
ENDMDL
MODEL 2
REMARK VINA RESULT:    -0.368      1.697      3.174
REMARK INTER + INTRA:          -1.273
REMARK INTER:                  -0.680
REMARK INTRA:                  -0.593
REMARK UNBOUND:                -0.561
REMARK SMILES CCCCCCCCCCCCCCCCCC(=O)[O-]
REMARK SMILES IDX 10 1 11 2 12 3 13 4 14 5 15 6 16 7 17 8 18 9 19 10 20 11
REMARK SMILES IDX 9 12 8 13 7 14 6 15 5 16 4 17 3 18 2 19 1 20
REMARK H PARENT
REMARK Flexibility Score: inf
ROOT
ATOM      1  C   UNL     1      -1.669  20.990  15.934  1.00  0.00     0.000 C 
ENDROOT
BRANCH   1   2
ATOM      2  C   UNL     1      -0.485  20.047  16.235  1.00  0.00     0.000 C 
BRANCH   2   3
ATOM      3  C   UNL     1       0.848  20.805  16.347  1.00  0.00     0.000 C 
BRANCH   3   4
ATOM      4  C   UNL     1       2.073  19.877  16.264  1.00  0.00     0.000 C 
BRANCH   4   5
ATOM      5  C   UNL     1       3.266  20.440  15.465  1.00  0.00     0.000 C 
BRANCH   5   6
ATOM      6  C   UNL     1       4.645  19.905  15.888  1.00  0.00     0.000 C 
BRANCH   6   7
ATOM      7  C   UNL     1       5.764  20.946  15.729  1.00  0.00     0.006 C 
BRANCH   7   8
ATOM      8  C   UNL     1       7.113  20.267  15.479  1.00  0.00     0.053 C 
BRANCH   8   9
ATOM      9  C   UNL     1       7.430  20.252  14.017  1.00  0.00     0.041 C 
ATOM     10  O   UNL     1       8.579  20.573  13.616  1.00  0.00    -0.550 OA
ATOM     11  O   UNL     1       6.442  19.930  13.094  1.00  0.00    -0.550 OA
ENDBRANCH   8   9
ENDBRANCH   7   8
ENDBRANCH   6   7
ENDBRANCH   5   6
ENDBRANCH   4   5
ENDBRANCH   3   4
ENDBRANCH   2   3
ENDBRANCH   1   2
BRANCH   1  12
ATOM     12  C   UNL     1      -3.024  20.451  16.424  1.00  0.00     0.000 C 
BRANCH  12  13
ATOM     13  C   UNL     1      -4.039  20.269  15.286  1.00  0.00    -0.000 C 
BRANCH  13  14
ATOM     14  C   UNL     1      -5.235  21.231  15.393  1.00  0.00    -0.000 C 
BRANCH  14  15
ATOM     15  C   UNL     1      -6.415  20.851  14.473  1.00  0.00    -0.000 C 
BRANCH  15  16
ATOM     16  C   UNL     1      -7.682  20.491  15.271  1.00  0.00    -0.000 C 
BRANCH  16  17
ATOM     17  C   UNL     1      -7.476  20.596  16.790  1.00  0.00    -0.000 C 
BRANCH  17  18
ATOM     18  C   UNL     1      -8.589  21.400  17.484  1.00  0.00    -0.000 C 
BRANCH  18  19
ATOM     19  C   UNL     1      -8.154  21.955  18.848  1.00  0.00    -0.003 C 
ATOM     20  C   UNL     1      -7.010  21.158  19.477  1.00  0.00     0.004 C 
ENDBRANCH  18  19
ENDBRANCH  17  18
ENDBRANCH  16  17
ENDBRANCH  15  16
ENDBRANCH  14  15
ENDBRANCH  13  14
ENDBRANCH  12  13
ENDBRANCH   1  12
TORSDOF 16
ENDMDL
MODEL 3
REMARK VINA RESULT:    -0.061      1.108      1.801
REMARK INTER + INTRA:          -0.678
REMARK INTER:                  -0.119
REMARK INTRA:                  -0.559
REMARK UNBOUND:                -0.561
REMARK SMILES CCCCCCCCCCCCCCCCCC(=O)[O-]
REMARK SMILES IDX 10 1 11 2 12 3 13 4 14 5 15 6 16 7 17 8 18 9 19 10 20 11
REMARK SMILES IDX 9 12 8 13 7 14 6 15 5 16 4 17 3 18 2 19 1 20
REMARK H PARENT
REMARK Flexibility Score: inf
ROOT
ATOM      1  C   UNL     1      -0.195  19.923  16.335  1.00  0.00     0.000 C 
ENDROOT
BRANCH   1   2
ATOM      2  C   UNL     1       1.218  20.406  16.727  1.00  0.00     0.000 C 
BRANCH   2   3
ATOM      3  C   UNL     1       2.295  19.909  15.747  1.00  0.00     0.000 C 
BRANCH   3   4
ATOM      4  C   UNL     1       3.532  20.823  15.703  1.00  0.00     0.000 C 
BRANCH   4   5
ATOM      5  C   UNL     1       4.870  20.100  15.448  1.00  0.00     0.000 C 
BRANCH   5   6
ATOM      6  C   UNL     1       6.129  20.939  15.727  1.00  0.00     0.000 C 
BRANCH   6   7
ATOM      7  C   UNL     1       7.402  20.087  15.839  1.00  0.00     0.006 C 
BRANCH   7   8
ATOM      8  C   UNL     1       8.071  19.920  14.472  1.00  0.00     0.053 C 
BRANCH   8   9
ATOM      9  C   UNL     1       9.111  20.975  14.265  1.00  0.00     0.041 C 
ATOM     10  O   UNL     1       9.713  21.474  15.252  1.00  0.00    -0.550 OA
ATOM     11  O   UNL     1       9.382  21.444  12.984  1.00  0.00    -0.550 OA
ENDBRANCH   8   9
ENDBRANCH   7   8
ENDBRANCH   6   7
ENDBRANCH   5   6
ENDBRANCH   4   5
ENDBRANCH   3   4
ENDBRANCH   2   3
ENDBRANCH   1   2
BRANCH   1  12
ATOM     12  C   UNL     1      -1.258  20.197  17.412  1.00  0.00     0.000 C 
BRANCH  12  13
ATOM     13  C   UNL     1      -2.510  20.887  16.852  1.00  0.00    -0.000 C 
BRANCH  13  14
ATOM     14  C   UNL     1      -3.429  19.923  16.081  1.00  0.00    -0.000 C 
BRANCH  14  15
ATOM     15  C   UNL     1      -4.932  20.218  16.274  1.00  0.00    -0.000 C 
BRANCH  15  16
ATOM     16  C   UNL     1      -5.632  20.565  14.947  1.00  0.00    -0.000 C 
BRANCH  16  17
ATOM     17  C   UNL     1      -6.952  21.323  15.153  1.00  0.00    -0.000 C 
BRANCH  17  18
ATOM     18  C   UNL     1      -8.049  20.442  15.777  1.00  0.00    -0.000 C 
BRANCH  18  19
ATOM     19  C   UNL     1      -8.540  20.979  17.129  1.00  0.00    -0.003 C 
ATOM     20  C   UNL     1      -8.431  22.500  17.240  1.00  0.00     0.004 C 
ENDBRANCH  18  19
ENDBRANCH  17  18
ENDBRANCH  16  17
ENDBRANCH  15  16
ENDBRANCH  14  15
ENDBRANCH  13  14
ENDBRANCH  12  13
ENDBRANCH   1  12
TORSDOF 16
ENDMDL
MODEL 4
REMARK VINA RESULT:     0.196      1.114      2.162
REMARK INTER + INTRA:          -0.181
REMARK INTER:                   0.402
REMARK INTRA:                  -0.583
REMARK UNBOUND:                -0.561
REMARK SMILES CCCCCCCCCCCCCCCCCC(=O)[O-]
REMARK SMILES IDX 10 1 11 2 12 3 13 4 14 5 15 6 16 7 17 8 18 9 19 10 20 11
REMARK SMILES IDX 9 12 8 13 7 14 6 15 5 16 4 17 3 18 2 19 1 20
REMARK H PARENT
REMARK Flexibility Score: inf
ROOT
ATOM      1  C   UNL     1       2.993  20.941  15.644  1.00  0.00     0.000 C 
ENDROOT
BRANCH   1   2
ATOM      2  C   UNL     1       4.475  20.842  16.064  1.00  0.00     0.000 C 
BRANCH   2   3
ATOM      3  C   UNL     1       5.280  19.911  15.142  1.00  0.00     0.000 C 
BRANCH   3   4
ATOM      4  C   UNL     1       6.064  20.672  14.059  1.00  0.00     0.000 C 
BRANCH   4   5
ATOM      5  C   UNL     1       7.469  20.113  13.756  1.00  0.00     0.000 C 
BRANCH   5   6
ATOM      6  C   UNL     1       8.486  20.244  14.903  1.00  0.00     0.000 C 
BRANCH   6   7
ATOM      7  C   UNL     1       9.900  20.590  14.412  1.00  0.00     0.006 C 
BRANCH   7   8
ATOM      8  C   UNL     1      10.115  20.100  12.978  1.00  0.00     0.053 C 
BRANCH   8   9
ATOM      9  C   UNL     1      10.661  21.201  12.124  1.00  0.00     0.041 C 
ATOM     10  O   UNL     1      11.096  20.950  10.969  1.00  0.00    -0.550 OA
ATOM     11  O   UNL     1      10.733  22.496  12.621  1.00  0.00    -0.550 OA
ENDBRANCH   8   9
ENDBRANCH   7   8
ENDBRANCH   6   7
ENDBRANCH   5   6
ENDBRANCH   4   5
ENDBRANCH   3   4
ENDBRANCH   2   3
ENDBRANCH   1   2
BRANCH   1  12
ATOM     12  C   UNL     1       2.097  19.875  16.298  1.00  0.00     0.000 C 
BRANCH  12  13
ATOM     13  C   UNL     1       0.608  20.071  15.980  1.00  0.00    -0.000 C 
BRANCH  13  14
ATOM     14  C   UNL     1      -0.103  20.991  16.989  1.00  0.00    -0.000 C 
BRANCH  14  15
ATOM     15  C   UNL     1      -1.575  20.602  17.245  1.00  0.00    -0.000 C 
BRANCH  15  16
ATOM     16  C   UNL     1      -2.485  20.955  16.054  1.00  0.00    -0.000 C 
BRANCH  16  17
ATOM     17  C   UNL     1      -3.613  19.933  15.848  1.00  0.00    -0.000 C 
BRANCH  17  18
ATOM     18  C   UNL     1      -5.011  20.571  15.925  1.00  0.00    -0.000 C 
BRANCH  18  19
ATOM     19  C   UNL     1      -5.699  20.655  14.555  1.00  0.00    -0.003 C 
ATOM     20  C   UNL     1      -7.210  20.866  14.660  1.00  0.00     0.004 C 
ENDBRANCH  18  19
ENDBRANCH  17  18
ENDBRANCH  16  17
ENDBRANCH  15  16
ENDBRANCH  14  15
ENDBRANCH  13  14
ENDBRANCH  12  13
ENDBRANCH   1  12
TORSDOF 16
ENDMDL
MODEL 5
REMARK VINA RESULT:     0.201      2.189      2.715
REMARK INTER + INTRA:          -0.172
REMARK INTER:                   0.168
REMARK INTRA:                  -0.339
REMARK UNBOUND:                -0.561
REMARK SMILES CCCCCCCCCCCCCCCCCC(=O)[O-]
REMARK SMILES IDX 10 1 11 2 12 3 13 4 14 5 15 6 16 7 17 8 18 9 19 10 20 11
REMARK SMILES IDX 9 12 8 13 7 14 6 15 5 16 4 17 3 18 2 19 1 20
REMARK H PARENT
REMARK Flexibility Score: inf
ROOT
ATOM      1  C   UNL     1      -0.230  20.489  15.713  1.00  0.00     0.000 C 
ENDROOT
BRANCH   1   2
ATOM      2  C   UNL     1       1.172  20.985  16.127  1.00  0.00     0.000 C 
BRANCH   2   3
ATOM      3  C   UNL     1       2.295  20.139  15.504  1.00  0.00     0.000 C 
BRANCH   3   4
ATOM      4  C   UNL     1       3.696  20.557  15.985  1.00  0.00     0.000 C 
BRANCH   4   5
ATOM      5  C   UNL     1       4.869  19.875  15.251  1.00  0.00     0.000 C 
BRANCH   5   6
ATOM      6  C   UNL     1       6.266  20.403  15.622  1.00  0.00     0.000 C 
BRANCH   6   7
ATOM      7  C   UNL     1       7.182  20.575  14.401  1.00  0.00     0.006 C 
BRANCH   7   8
ATOM      8  C   UNL     1       8.615  20.899  14.835  1.00  0.00     0.053 C 
BRANCH   8   9
ATOM      9  C   UNL     1       9.438  21.313  13.656  1.00  0.00     0.041 C 
ATOM     10  O   UNL     1      10.150  22.350  13.714  1.00  0.00    -0.550 OA
ATOM     11  O   UNL     1       9.382  20.580  12.476  1.00  0.00    -0.550 OA
ENDBRANCH   8   9
ENDBRANCH   7   8
ENDBRANCH   6   7
ENDBRANCH   5   6
ENDBRANCH   4   5
ENDBRANCH   3   4
ENDBRANCH   2   3
ENDBRANCH   1   2
BRANCH   1  12
ATOM     12  C   UNL     1      -1.347  20.931  16.675  1.00  0.00     0.000 C 
BRANCH  12  13
ATOM     13  C   UNL     1      -2.554  19.983  16.663  1.00  0.00    -0.000 C 
BRANCH  13  14
ATOM     14  C   UNL     1      -3.374  20.044  17.964  1.00  0.00    -0.000 C 
BRANCH  14  15
ATOM     15  C   UNL     1      -4.897  19.934  17.738  1.00  0.00    -0.000 C 
BRANCH  15  16
ATOM     16  C   UNL     1      -5.704  20.491  18.925  1.00  0.00    -0.000 C 
BRANCH  16  17
ATOM     17  C   UNL     1      -7.108  19.875  19.028  1.00  0.00    -0.000 C 
BRANCH  17  18
ATOM     18  C   UNL     1      -8.213  20.939  19.144  1.00  0.00    -0.000 C 
BRANCH  18  19
ATOM     19  C   UNL     1      -8.100  21.771  20.430  1.00  0.00    -0.003 C 
ATOM     20  C   UNL     1      -9.047  22.971  20.448  1.00  0.00     0.004 C 
ENDBRANCH  18  19
ENDBRANCH  17  18
ENDBRANCH  16  17
ENDBRANCH  15  16
ENDBRANCH  14  15
ENDBRANCH  13  14
ENDBRANCH  12  13
ENDBRANCH   1  12
TORSDOF 16
ENDMDL
MODEL 6
REMARK VINA RESULT:     0.521      4.948     11.985
REMARK INTER + INTRA:           0.448
REMARK INTER:                   1.122
REMARK INTRA:                  -0.674
REMARK UNBOUND:                -0.561
REMARK SMILES CCCCCCCCCCCCCCCCCC(=O)[O-]
REMARK SMILES IDX 10 1 11 2 12 3 13 4 14 5 15 6 16 7 17 8 18 9 19 10 20 11
REMARK SMILES IDX 9 12 8 13 7 14 6 15 5 16 4 17 3 18 2 19 1 20
REMARK H PARENT
REMARK Flexibility Score: inf
ROOT
ATOM      1  C   UNL     1       4.614  21.349  16.077  1.00  0.00     0.000 C 
ENDROOT
BRANCH   1   2
ATOM      2  C   UNL     1       4.009  20.010  15.604  1.00  0.00     0.000 C 
BRANCH   2   3
ATOM      3  C   UNL     1       2.526  19.875  15.989  1.00  0.00     0.000 C 
BRANCH   3   4
ATOM      4  C   UNL     1       1.798  21.230  16.054  1.00  0.00     0.000 C 
BRANCH   4   5
ATOM      5  C   UNL     1       0.300  21.150  16.410  1.00  0.00     0.000 C 
BRANCH   5   6
ATOM      6  C   UNL     1      -0.660  21.608  15.297  1.00  0.00     0.000 C 
BRANCH   6   7
ATOM      7  C   UNL     1      -2.137  21.516  15.709  1.00  0.00     0.006 C 
BRANCH   7   8
ATOM      8  C   UNL     1      -2.522  20.073  16.048  1.00  0.00     0.053 C 
BRANCH   8   9
ATOM      9  C   UNL     1      -2.948  19.967  17.478  1.00  0.00     0.041 C 
ATOM     10  O   UNL     1      -2.085  19.895  18.392  1.00  0.00    -0.550 OA
ATOM     11  O   UNL     1      -4.299  19.899  17.799  1.00  0.00    -0.550 OA
ENDBRANCH   8   9
ENDBRANCH   7   8
ENDBRANCH   6   7
ENDBRANCH   5   6
ENDBRANCH   4   5
ENDBRANCH   3   4
ENDBRANCH   2   3
ENDBRANCH   1   2
BRANCH   1  12
ATOM     12  C   UNL     1       5.982  21.196  16.764  1.00  0.00     0.000 C 
BRANCH  12  13
ATOM     13  C   UNL     1       6.905  20.205  16.039  1.00  0.00    -0.000 C 
BRANCH  13  14
ATOM     14  C   UNL     1       7.285  20.670  14.622  1.00  0.00    -0.000 C 
BRANCH  14  15
ATOM     15  C   UNL     1       8.786  20.996  14.463  1.00  0.00    -0.000 C 
BRANCH  15  16
ATOM     16  C   UNL     1       9.355  20.482  13.128  1.00  0.00    -0.000 C 
BRANCH  16  17
ATOM     17  C   UNL     1      10.747  21.053  12.818  1.00  0.00    -0.000 C 
BRANCH  17  18
ATOM     18  C   UNL     1      10.846  22.561  13.108  1.00  0.00    -0.000 C 
BRANCH  18  19
ATOM     19  C   UNL     1      10.647  23.419  11.850  1.00  0.00    -0.003 C 
ATOM     20  C   UNL     1      11.099  22.714  10.571  1.00  0.00     0.004 C 
ENDBRANCH  18  19
ENDBRANCH  17  18
ENDBRANCH  16  17
ENDBRANCH  15  16
ENDBRANCH  14  15
ENDBRANCH  13  14
ENDBRANCH  12  13
ENDBRANCH   1  12
TORSDOF 16
ENDMDL
MODEL 7
REMARK VINA RESULT:     0.719      6.278     12.767
REMARK INTER + INTRA:           0.832
REMARK INTER:                   1.339
REMARK INTRA:                  -0.507
REMARK UNBOUND:                -0.561
REMARK SMILES CCCCCCCCCCCCCCCCCC(=O)[O-]
REMARK SMILES IDX 10 1 11 2 12 3 13 4 14 5 15 6 16 7 17 8 18 9 19 10 20 11
REMARK SMILES IDX 9 12 8 13 7 14 6 15 5 16 4 17 3 18 2 19 1 20
REMARK H PARENT
REMARK Flexibility Score: inf
ROOT
ATOM      1  C   UNL     1       0.962  20.856  15.689  1.00  0.00     0.000 C 
ENDROOT
BRANCH   1   2
ATOM      2  C   UNL     1       0.027  19.875  16.429  1.00  0.00     0.000 C 
BRANCH   2   3
ATOM      3  C   UNL     1      -1.124  20.600  17.147  1.00  0.00     0.000 C 
BRANCH   3   4
ATOM      4  C   UNL     1      -2.494  19.949  16.887  1.00  0.00     0.000 C 
BRANCH   4   5
ATOM      5  C   UNL     1      -3.313  20.584  15.745  1.00  0.00     0.000 C 
BRANCH   5   6
ATOM      6  C   UNL     1      -4.699  19.959  15.510  1.00  0.00     0.000 C 
BRANCH   6   7
ATOM      7  C   UNL     1      -5.670  20.205  16.675  1.00  0.00     0.006 C 
BRANCH   7   8
ATOM      8  C   UNL     1      -7.059  20.589  16.157  1.00  0.00     0.053 C 
BRANCH   8   9
ATOM      9  C   UNL     1      -8.030  20.698  17.291  1.00  0.00     0.041 C 
ATOM     10  O   UNL     1      -9.100  20.036  17.273  1.00  0.00    -0.550 OA
ATOM     11  O   UNL     1      -7.774  21.567  18.344  1.00  0.00    -0.550 OA
ENDBRANCH   8   9
ENDBRANCH   7   8
ENDBRANCH   6   7
ENDBRANCH   5   6
ENDBRANCH   4   5
ENDBRANCH   3   4
ENDBRANCH   2   3
ENDBRANCH   1   2
BRANCH   1  12
ATOM     12  C   UNL     1       2.383  20.913  16.278  1.00  0.00     0.000 C 
BRANCH  12  13
ATOM     13  C   UNL     1       3.332  19.886  15.644  1.00  0.00    -0.000 C 
BRANCH  13  14
ATOM     14  C   UNL     1       4.749  20.444  15.418  1.00  0.00    -0.000 C 
BRANCH  14  15
ATOM     15  C   UNL     1       5.440  19.876  14.160  1.00  0.00    -0.000 C 
BRANCH  15  16
ATOM     16  C   UNL     1       6.649  20.726  13.726  1.00  0.00    -0.000 C 
BRANCH  16  17
ATOM     17  C   UNL     1       7.940  19.904  13.609  1.00  0.00    -0.000 C 
BRANCH  17  18
ATOM     18  C   UNL     1       8.873  20.090  14.818  1.00  0.00    -0.000 C 
BRANCH  18  19
ATOM     19  C   UNL     1      10.245  20.657  14.423  1.00  0.00    -0.003 C 
ATOM     20  C   UNL     1      10.171  21.633  13.248  1.00  0.00     0.004 C 
ENDBRANCH  18  19
ENDBRANCH  17  18
ENDBRANCH  16  17
ENDBRANCH  15  16
ENDBRANCH  14  15
ENDBRANCH  13  14
ENDBRANCH  12  13
ENDBRANCH   1  12
TORSDOF 16
ENDMDL
MODEL 8
REMARK VINA RESULT:     0.902      8.339     13.123
REMARK INTER + INTRA:           1.186
REMARK INTER:                   1.336
REMARK INTRA:                  -0.150
REMARK UNBOUND:                -0.561
REMARK SMILES CCCCCCCCCCCCCCCCCC(=O)[O-]
REMARK SMILES IDX 10 1 11 2 12 3 13 4 14 5 15 6 16 7 17 8 18 9 19 10 20 11
REMARK SMILES IDX 9 12 8 13 7 14 6 15 5 16 4 17 3 18 2 19 1 20
REMARK H PARENT
REMARK Flexibility Score: inf
ROOT
ATOM      1  C   UNL     1      -6.669  21.915  16.115  1.00  0.00     0.000 C 
ENDROOT
BRANCH   1   2
ATOM      2  C   UNL     1      -7.185  20.712  16.934  1.00  0.00     0.000 C 
BRANCH   2   3
ATOM      3  C   UNL     1      -8.691  20.811  17.227  1.00  0.00     0.000 C 
BRANCH   3   4
ATOM      4  C   UNL     1      -9.107  20.036  18.490  1.00  0.00     0.000 C 
BRANCH   4   5
ATOM      5  C   UNL     1      -8.001  19.877  19.552  1.00  0.00     0.000 C 
BRANCH   5   6
ATOM      6  C   UNL     1      -7.752  21.119  20.427  1.00  0.00     0.000 C 
BRANCH   6   7
ATOM      7  C   UNL     1      -7.256  20.766  21.837  1.00  0.00     0.006 C 
BRANCH   7   8
ATOM      8  C   UNL     1      -8.266  19.876  22.566  1.00  0.00     0.053 C 
BRANCH   8   9
ATOM      9  C   UNL     1      -8.872  20.609  23.721  1.00  0.00     0.041 C 
ATOM     10  O   UNL     1      -9.115  21.841  23.633  1.00  0.00    -0.550 OA
ATOM     11  O   UNL     1      -9.125  19.941  24.913  1.00  0.00    -0.550 OA
ENDBRANCH   8   9
ENDBRANCH   7   8
ENDBRANCH   6   7
ENDBRANCH   5   6
ENDBRANCH   4   5
ENDBRANCH   3   4
ENDBRANCH   2   3
ENDBRANCH   1   2
BRANCH   1  12
ATOM     12  C   UNL     1      -6.765  21.708  14.593  1.00  0.00     0.000 C 
BRANCH  12  13
ATOM     13  C   UNL     1      -5.392  21.534  13.928  1.00  0.00    -0.000 C 
BRANCH  13  14
ATOM     14  C   UNL     1      -4.779  20.144  14.176  1.00  0.00    -0.000 C 
BRANCH  14  15
ATOM     15  C   UNL     1      -4.426  19.882  15.655  1.00  0.00    -0.000 C 
BRANCH  15  16
ATOM     16  C   UNL     1      -2.987  20.314  15.995  1.00  0.00    -0.000 C 
BRANCH  16  17
ATOM     17  C   UNL     1      -2.788  20.584  17.494  1.00  0.00    -0.000 C 
BRANCH  17  18
ATOM     18  C   UNL     1      -1.360  21.051  17.826  1.00  0.00    -0.000 C 
BRANCH  18  19
ATOM     19  C   UNL     1      -0.493  21.238  16.571  1.00  0.00    -0.003 C 
ATOM     20  C   UNL     1       0.299  19.982  16.204  1.00  0.00     0.004 C 
ENDBRANCH  18  19
ENDBRANCH  17  18
ENDBRANCH  16  17
ENDBRANCH  15  16
ENDBRANCH  14  15
ENDBRANCH  13  14
ENDBRANCH  12  13
ENDBRANCH   1  12
TORSDOF 16
ENDMDL
