MODEL 1
REMARK VINA RESULT:    -3.023      0.000      0.000
REMARK INTER + INTRA:          -3.842
REMARK INTER:                  -3.730
REMARK INTRA:                  -0.112
REMARK UNBOUND:                -0.112
REMARK SMILES CCCCCC(=O)[O-]
REMARK SMILES IDX 4 1 5 2 6 3 7 4 8 5 3 6 2 7 1 8
REMARK H PARENT
REMARK Flexibility Score: inf
ROOT
ATOM      1  C   UNL     1     -96.468 149.535 239.599  1.00  0.00     0.006 C 
ENDROOT
BRANCH   1   2
ATOM      2  C   UNL     1     -97.080 150.557 240.565  1.00  0.00     0.053 C 
BRANCH   2   3
ATOM      3  C   UNL     1     -97.756 149.859 241.704  1.00  0.00     0.041 C 
ATOM      4  O   UNL     1     -97.635 148.613 241.844  1.00  0.00    -0.550 OA
ATOM      5  O   UNL     1     -98.559 150.576 242.581  1.00  0.00    -0.550 OA
ENDBRANCH   2   3
ENDBRANCH   1   2
BRANCH   1   6
ATOM      6  C   UNL     1     -94.943 149.415 239.752  1.00  0.00     0.000 C 
BRANCH   6   7
ATOM      7  C   UNL     1     -94.256 148.950 238.460  1.00  0.00    -0.003 C 
ATOM      8  C   UNL     1     -95.011 149.442 237.229  1.00  0.00     0.004 C 
ENDBRANCH   6   7
ENDBRANCH   1   6
TORSDOF 4
ENDMDL
MODEL 2
REMARK VINA RESULT:    -2.907      3.223      4.407
REMARK INTER + INTRA:          -3.699
REMARK INTER:                  -3.559
REMARK INTRA:                  -0.139
REMARK UNBOUND:                -0.112
REMARK SMILES CCCCCC(=O)[O-]
REMARK SMILES IDX 4 1 5 2 6 3 7 4 8 5 3 6 2 7 1 8
REMARK H PARENT
REMARK Flexibility Score: inf
ROOT
ATOM      1  C   UNL     1     -95.498 148.288 240.245  1.00  0.00     0.006 C 
ENDROOT
BRANCH   1   2
ATOM      2  C   UNL     1     -94.584 149.292 239.530  1.00  0.00     0.053 C 
BRANCH   2   3
ATOM      3  C   UNL     1     -94.273 148.818 238.145  1.00  0.00     0.041 C 
ATOM      4  O   UNL     1     -93.449 147.882 237.965  1.00  0.00    -0.550 OA
ATOM      5  O   UNL     1     -94.854 149.444 237.050  1.00  0.00    -0.550 OA
ENDBRANCH   2   3
ENDBRANCH   1   2
BRANCH   1   6
ATOM      6  C   UNL     1     -96.874 148.883 240.590  1.00  0.00     0.000 C 
BRANCH   6   7
ATOM      7  C   UNL     1     -96.876 150.418 240.565  1.00  0.00    -0.003 C 
ATOM      8  C   UNL     1     -98.225 150.956 240.095  1.00  0.00     0.004 C 
ENDBRANCH   6   7
ENDBRANCH   1   6
TORSDOF 4
ENDMDL
MODEL 3
REMARK VINA RESULT:    -2.886      0.386      1.190
REMARK INTER + INTRA:          -3.673
REMARK INTER:                  -3.560
REMARK INTRA:                  -0.113
REMARK UNBOUND:                -0.112
REMARK SMILES CCCCCC(=O)[O-]
REMARK SMILES IDX 4 1 5 2 6 3 7 4 8 5 3 6 2 7 1 8
REMARK H PARENT
REMARK Flexibility Score: inf
ROOT
ATOM      1  C   UNL     1     -96.113 148.968 239.914  1.00  0.00     0.006 C 
ENDROOT
BRANCH   1   2
ATOM      2  C   UNL     1     -96.933 150.146 240.457  1.00  0.00     0.053 C 
BRANCH   2   3
ATOM      3  C   UNL     1     -97.740 149.717 241.642  1.00  0.00     0.041 C 
ATOM      4  O   UNL     1     -98.427 150.559 242.279  1.00  0.00    -0.550 OA
ATOM      5  O   UNL     1     -97.694 148.398 242.074  1.00  0.00    -0.550 OA
ENDBRANCH   2   3
ENDBRANCH   1   2
BRANCH   1   6
ATOM      6  C   UNL     1     -94.660 149.356 239.596  1.00  0.00     0.000 C 
BRANCH   6   7
ATOM      7  C   UNL     1     -94.215 148.884 238.204  1.00  0.00    -0.003 C 
ATOM      8  C   UNL     1     -95.037 149.556 237.108  1.00  0.00     0.004 C 
ENDBRANCH   6   7
ENDBRANCH   1   6
TORSDOF 4
ENDMDL
MODEL 4
REMARK VINA RESULT:    -2.882      3.467      4.970
REMARK INTER + INTRA:          -3.668
REMARK INTER:                  -3.591
REMARK INTRA:                  -0.077
REMARK UNBOUND:                -0.112
REMARK SMILES CCCCCC(=O)[O-]
REMARK SMILES IDX 4 1 5 2 6 3 7 4 8 5 3 6 2 7 1 8
REMARK H PARENT
REMARK Flexibility Score: inf
ROOT
ATOM      1  C   UNL     1     -94.697 149.109 239.471  1.00  0.00     0.006 C 
ENDROOT
BRANCH   1   2
ATOM      2  C   UNL     1     -94.633 149.148 237.939  1.00  0.00     0.053 C 
BRANCH   2   3
ATOM      3  C   UNL     1     -93.882 147.962 237.418  1.00  0.00     0.041 C 
ATOM      4  O   UNL     1     -93.862 147.719 236.182  1.00  0.00    -0.550 OA
ATOM      5  O   UNL     1     -93.248 147.098 238.300  1.00  0.00    -0.550 OA
ENDBRANCH   2   3
ENDBRANCH   1   2
BRANCH   1   6
ATOM      6  C   UNL     1     -96.139 149.098 240.003  1.00  0.00     0.000 C 
BRANCH   6   7
ATOM      7  C   UNL     1     -96.623 150.493 240.425  1.00  0.00    -0.003 C 
ATOM      8  C   UNL     1     -98.106 150.473 240.786  1.00  0.00     0.004 C 
ENDBRANCH   6   7
ENDBRANCH   1   6
TORSDOF 4
ENDMDL
MODEL 5
REMARK VINA RESULT:    -2.793      1.198      1.578
REMARK INTER + INTRA:          -3.558
REMARK INTER:                  -3.406
REMARK INTRA:                  -0.151
REMARK UNBOUND:                -0.112
REMARK SMILES CCCCCC(=O)[O-]
REMARK SMILES IDX 4 1 5 2 6 3 7 4 8 5 3 6 2 7 1 8
REMARK H PARENT
REMARK Flexibility Score: inf
ROOT
ATOM      1  C   UNL     1     -97.275 149.829 239.895  1.00  0.00     0.006 C 
ENDROOT
BRANCH   1   2
ATOM      2  C   UNL     1     -98.192 150.673 240.790  1.00  0.00     0.053 C 
BRANCH   2   3
ATOM      3  C   UNL     1     -98.296 150.064 242.153  1.00  0.00     0.041 C 
ATOM      4  O   UNL     1     -98.035 148.844 242.322  1.00  0.00    -0.550 OA
ATOM      5  O   UNL     1     -98.730 150.831 243.225  1.00  0.00    -0.550 OA
ENDBRANCH   2   3
ENDBRANCH   1   2
BRANCH   1   6
ATOM      6  C   UNL     1     -95.787 150.163 240.092  1.00  0.00     0.000 C 
BRANCH   6   7
ATOM      7  C   UNL     1     -94.863 149.012 239.668  1.00  0.00    -0.003 C 
ATOM      8  C   UNL     1     -95.217 147.724 240.407  1.00  0.00     0.004 C 
ENDBRANCH   6   7
ENDBRANCH   1   6
TORSDOF 4
ENDMDL
MODEL 6
REMARK VINA RESULT:    -2.766      3.136      4.450
REMARK INTER + INTRA:          -3.525
REMARK INTER:                  -3.321
REMARK INTRA:                  -0.204
REMARK UNBOUND:                -0.112
REMARK SMILES CCCCCC(=O)[O-]
REMARK SMILES IDX 4 1 5 2 6 3 7 4 8 5 3 6 2 7 1 8
REMARK H PARENT
REMARK Flexibility Score: inf
ROOT
ATOM      1  C   UNL     1     -94.682 149.278 239.629  1.00  0.00     0.006 C 
ENDROOT
BRANCH   1   2
ATOM      2  C   UNL     1     -93.947 148.766 238.384  1.00  0.00     0.053 C 
BRANCH   2   3
ATOM      3  C   UNL     1     -94.914 148.537 237.264  1.00  0.00     0.041 C 
ATOM      4  O   UNL     1     -95.006 147.400 236.731  1.00  0.00    -0.550 OA
ATOM      5  O   UNL     1     -95.676 149.590 236.778  1.00  0.00    -0.550 OA
ENDBRANCH   2   3
ENDBRANCH   1   2
BRANCH   1   6
ATOM      6  C   UNL     1     -95.735 148.284 240.145  1.00  0.00     0.000 C 
BRANCH   6   7
ATOM      7  C   UNL     1     -96.904 148.979 240.857  1.00  0.00    -0.003 C 
ATOM      8  C   UNL     1     -96.954 150.465 240.508  1.00  0.00     0.004 C 
ENDBRANCH   6   7
ENDBRANCH   1   6
TORSDOF 4
ENDMDL
MODEL 7
REMARK VINA RESULT:    -2.658      1.666      2.306
REMARK INTER + INTRA:          -3.392
REMARK INTER:                  -3.195
REMARK INTRA:                  -0.197
REMARK UNBOUND:                -0.112
REMARK SMILES CCCCCC(=O)[O-]
REMARK SMILES IDX 4 1 5 2 6 3 7 4 8 5 3 6 2 7 1 8
REMARK H PARENT
REMARK Flexibility Score: inf
ROOT
ATOM      1  C   UNL     1     -94.260 149.118 238.963  1.00  0.00     0.006 C 
ENDROOT
BRANCH   1   2
ATOM      2  C   UNL     1     -95.166 148.486 240.027  1.00  0.00     0.053 C 
BRANCH   2   3
ATOM      3  C   UNL     1     -96.459 149.234 240.124  1.00  0.00     0.041 C 
ATOM      4  O   UNL     1     -97.544 148.664 239.833  1.00  0.00    -0.550 OA
ATOM      5  O   UNL     1     -96.460 150.574 240.488  1.00  0.00    -0.550 OA
ENDBRANCH   2   3
ENDBRANCH   1   2
BRANCH   1   6
ATOM      6  C   UNL     1     -93.930 148.150 237.816  1.00  0.00     0.000 C 
BRANCH   6   7
ATOM      7  C   UNL     1     -94.984 148.174 236.700  1.00  0.00    -0.003 C 
ATOM      8  C   UNL     1     -95.508 149.589 236.472  1.00  0.00     0.004 C 
ENDBRANCH   6   7
ENDBRANCH   1   6
TORSDOF 4
ENDMDL
MODEL 8
REMARK VINA RESULT:    -2.616      4.175      5.403
REMARK INTER + INTRA:          -3.340
REMARK INTER:                  -3.220
REMARK INTRA:                  -0.120
REMARK UNBOUND:                -0.112
REMARK SMILES CCCCCC(=O)[O-]
REMARK SMILES IDX 4 1 5 2 6 3 7 4 8 5 3 6 2 7 1 8
REMARK H PARENT
REMARK Flexibility Score: inf
ROOT
ATOM      1  C   UNL     1     -94.587 149.166 237.605  1.00  0.00     0.006 C 
ENDROOT
BRANCH   1   2
ATOM      2  C   UNL     1     -95.572 149.517 236.482  1.00  0.00     0.053 C 
BRANCH   2   3
ATOM      3  C   UNL     1     -95.201 148.802 235.221  1.00  0.00     0.041 C 
ATOM      4  O   UNL     1     -94.389 147.839 235.254  1.00  0.00    -0.550 OA
ATOM      5  O   UNL     1     -95.713 149.229 234.003  1.00  0.00    -0.550 OA
ENDBRANCH   2   3
ENDBRANCH   1   2
BRANCH   1   6
ATOM      6  C   UNL     1     -95.293 148.651 238.870  1.00  0.00     0.000 C 
BRANCH   6   7
ATOM      7  C   UNL     1     -95.223 149.650 240.033  1.00  0.00    -0.003 C 
ATOM      8  C   UNL     1     -96.598 150.244 240.329  1.00  0.00     0.004 C 
ENDBRANCH   6   7
ENDBRANCH   1   6
TORSDOF 4
ENDMDL
