MODEL 1
REMARK VINA RESULT:    -4.063      0.000      0.000
REMARK INTER + INTRA:          -5.370
REMARK INTER:                  -4.776
REMARK INTRA:                  -0.594
REMARK UNBOUND:                -0.594
REMARK SMILES C=CC(C)=CCC=C(C)C
REMARK SMILES IDX 5 1 3 2 4 3 6 4 7 5 9 6 8 7 10 8 2 9 1 10
REMARK H PARENT
REMARK Flexibility Score: inf
ROOT
ATOM      1  C   UNL     1      31.888   8.734  32.806  1.00  0.00    -0.020 C 
ATOM      2  C   UNL     1      32.002  10.078  32.773  1.00  0.00    -0.055 C 
ATOM      3  C   UNL     1      33.122  10.725  33.550  1.00  0.00     0.044 C 
ENDROOT
BRANCH   1   4
ATOM      4  C   UNL     1      30.803   7.943  32.124  1.00  0.00     0.055 C 
BRANCH   4   5
ATOM      5  C   UNL     1      31.335   7.155  30.951  1.00  0.00    -0.024 C 
ATOM      6  C   UNL     1      30.060   8.498  29.266  1.00  0.00     0.039 C 
ATOM      7  C   UNL     1      31.013   7.394  29.660  1.00  0.00    -0.080 C 
ATOM      8  C   UNL     1      31.620   6.520  28.594  1.00  0.00     0.039 C 
ENDBRANCH   4   5
ENDBRANCH   1   4
BRANCH   2   9
ATOM      9  C   UNL     1      31.036  10.925  32.020  1.00  0.00    -0.005 C 
ATOM     10  C   UNL     1      31.412  11.878  31.165  1.00  0.00     0.009 C 
ENDBRANCH   2   9
TORSDOF 3
ENDMDL
MODEL 2
REMARK VINA RESULT:    -3.812      0.705      4.341
REMARK INTER + INTRA:          -5.074
REMARK INTER:                  -4.522
REMARK INTRA:                  -0.553
REMARK UNBOUND:                -0.594
REMARK SMILES C=CC(C)=CCC=C(C)C
REMARK SMILES IDX 5 1 3 2 4 3 6 4 7 5 9 6 8 7 10 8 2 9 1 10
REMARK H PARENT
REMARK Flexibility Score: inf
ROOT
ATOM      1  C   UNL     1      31.243   6.973  30.491  1.00  0.00    -0.020 C 
ATOM      2  C   UNL     1      30.894   7.251  29.217  1.00  0.00    -0.055 C 
ATOM      3  C   UNL     1      31.650   6.577  28.099  1.00  0.00     0.044 C 
ENDROOT
BRANCH   1   4
ATOM      4  C   UNL     1      30.620   7.596  31.712  1.00  0.00     0.055 C 
BRANCH   4   5
ATOM      5  C   UNL     1      31.627   8.379  32.519  1.00  0.00    -0.024 C 
ATOM      6  C   UNL     1      30.908  10.583  31.575  1.00  0.00     0.039 C 
ATOM      7  C   UNL     1      31.767   9.722  32.471  1.00  0.00    -0.080 C 
ATOM      8  C   UNL     1      32.822  10.367  33.332  1.00  0.00     0.039 C 
ENDBRANCH   4   5
ENDBRANCH   1   4
BRANCH   2   9
ATOM      9  C   UNL     1      29.813   8.225  28.899  1.00  0.00    -0.005 C 
ATOM     10  C   UNL     1      29.787   8.946  27.777  1.00  0.00     0.009 C 
ENDBRANCH   2   9
TORSDOF 3
ENDMDL
MODEL 3
REMARK VINA RESULT:    -3.737      1.460      2.963
REMARK INTER + INTRA:          -4.987
REMARK INTER:                  -4.693
REMARK INTRA:                  -0.294
REMARK UNBOUND:                -0.594
REMARK SMILES C=CC(C)=CCC=C(C)C
REMARK SMILES IDX 5 1 3 2 4 3 6 4 7 5 9 6 8 7 10 8 2 9 1 10
REMARK H PARENT
REMARK Flexibility Score: inf
ROOT
ATOM      1  C   UNL     1      31.034   8.636  31.462  1.00  0.00    -0.020 C 
ATOM      2  C   UNL     1      31.657   8.465  32.647  1.00  0.00    -0.055 C 
ATOM      3  C   UNL     1      32.160   9.685  33.380  1.00  0.00     0.044 C 
ENDROOT
BRANCH   1   4
ATOM      4  C   UNL     1      30.518   7.522  30.590  1.00  0.00     0.055 C 
BRANCH   4   5
ATOM      5  C   UNL     1      30.161   8.011  29.206  1.00  0.00    -0.024 C 
ATOM      6  C   UNL     1      31.855   6.552  28.081  1.00  0.00     0.039 C 
ATOM      7  C   UNL     1      30.751   7.583  28.069  1.00  0.00    -0.080 C 
ATOM      8  C   UNL     1      30.293   8.166  26.758  1.00  0.00     0.039 C 
ENDBRANCH   4   5
ENDBRANCH   1   4
BRANCH   2   9
ATOM      9  C   UNL     1      31.884   7.110  33.221  1.00  0.00    -0.005 C 
ATOM     10  C   UNL     1      31.286   6.678  34.332  1.00  0.00     0.009 C 
ENDBRANCH   2   9
TORSDOF 3
ENDMDL
MODEL 4
REMARK VINA RESULT:    -3.654      1.461      4.875
REMARK INTER + INTRA:          -4.889
REMARK INTER:                  -4.649
REMARK INTRA:                  -0.240
REMARK UNBOUND:                -0.594
REMARK SMILES C=CC(C)=CCC=C(C)C
REMARK SMILES IDX 5 1 3 2 4 3 6 4 7 5 9 6 8 7 10 8 2 9 1 10
REMARK H PARENT
REMARK Flexibility Score: inf
ROOT
ATOM      1  C   UNL     1      30.795   8.570  31.154  1.00  0.00    -0.020 C 
ATOM      2  C   UNL     1      30.648   8.082  29.905  1.00  0.00    -0.055 C 
ATOM      3  C   UNL     1      29.769   8.834  28.936  1.00  0.00     0.044 C 
ENDROOT
BRANCH   1   4
ATOM      4  C   UNL     1      31.597   7.915  32.248  1.00  0.00     0.055 C 
BRANCH   4   5
ATOM      5  C   UNL     1      31.275   8.494  33.605  1.00  0.00    -0.024 C 
ATOM      6  C   UNL     1      32.910  10.374  33.368  1.00  0.00     0.039 C 
ATOM      7  C   UNL     1      31.854   9.600  34.121  1.00  0.00    -0.080 C 
ATOM      8  C   UNL     1      31.433  10.059  35.493  1.00  0.00     0.039 C 
ENDBRANCH   4   5
ENDBRANCH   1   4
BRANCH   2   9
ATOM      9  C   UNL     1      31.303   6.814  29.480  1.00  0.00    -0.005 C 
ATOM     10  C   UNL     1      31.731   6.594  28.236  1.00  0.00     0.009 C 
ENDBRANCH   2   9
TORSDOF 3
ENDMDL
MODEL 5
REMARK VINA RESULT:    -3.627      1.242      2.014
REMARK INTER + INTRA:          -4.858
REMARK INTER:                  -4.579
REMARK INTRA:                  -0.279
REMARK UNBOUND:                -0.594
REMARK SMILES C=CC(C)=CCC=C(C)C
REMARK SMILES IDX 5 1 3 2 4 3 6 4 7 5 9 6 8 7 10 8 2 9 1 10
REMARK H PARENT
REMARK Flexibility Score: inf
ROOT
ATOM      1  C   UNL     1      31.731   9.260  32.323  1.00  0.00    -0.020 C 
ATOM      2  C   UNL     1      32.001   9.736  33.557  1.00  0.00    -0.055 C 
ATOM      3  C   UNL     1      33.046  10.815  33.700  1.00  0.00     0.044 C 
ENDROOT
BRANCH   1   4
ATOM      4  C   UNL     1      30.752   8.155  32.020  1.00  0.00     0.055 C 
BRANCH   4   5
ATOM      5  C   UNL     1      31.242   7.262  30.905  1.00  0.00    -0.024 C 
ATOM      6  C   UNL     1      30.005   8.526  29.134  1.00  0.00     0.039 C 
ATOM      7  C   UNL     1      30.918   7.417  29.603  1.00  0.00    -0.080 C 
ATOM      8  C   UNL     1      31.480   6.443  28.601  1.00  0.00     0.039 C 
ENDBRANCH   4   5
ENDBRANCH   1   4
BRANCH   2   9
ATOM      9  C   UNL     1      31.319   9.199  34.767  1.00  0.00    -0.005 C 
ATOM     10  C   UNL     1      31.584   9.625  36.003  1.00  0.00     0.009 C 
ENDBRANCH   2   9
TORSDOF 3
ENDMDL
MODEL 6
REMARK VINA RESULT:    -3.627      2.568      4.467
REMARK INTER + INTRA:          -4.857
REMARK INTER:                  -4.300
REMARK INTRA:                  -0.557
REMARK UNBOUND:                -0.594
REMARK SMILES C=CC(C)=CCC=C(C)C
REMARK SMILES IDX 5 1 3 2 4 3 6 4 7 5 9 6 8 7 10 8 2 9 1 10
REMARK H PARENT
REMARK Flexibility Score: inf
ROOT
ATOM      1  C   UNL     1      31.254   7.856  32.412  1.00  0.00    -0.020 C 
ATOM      2  C   UNL     1      31.220   9.203  32.344  1.00  0.00    -0.055 C 
ATOM      3  C   UNL     1      30.541   9.849  31.161  1.00  0.00     0.044 C 
ENDROOT
BRANCH   1   4
ATOM      4  C   UNL     1      31.930   7.064  33.500  1.00  0.00     0.055 C 
BRANCH   4   5
ATOM      5  C   UNL     1      30.930   6.371  34.395  1.00  0.00    -0.024 C 
ATOM      6  C   UNL     1      31.390   7.879  36.340  1.00  0.00     0.039 C 
ATOM      7  C   UNL     1      30.674   6.728  35.673  1.00  0.00    -0.080 C 
ATOM      8  C   UNL     1      29.651   5.940  36.448  1.00  0.00     0.039 C 
ENDBRANCH   4   5
ENDBRANCH   1   4
BRANCH   2   9
ATOM      9  C   UNL     1      31.862  10.054  33.385  1.00  0.00    -0.005 C 
ATOM     10  C   UNL     1      33.082  10.578  33.249  1.00  0.00     0.009 C 
ENDBRANCH   2   9
TORSDOF 3
ENDMDL
MODEL 7
REMARK VINA RESULT:    -3.559      2.758      4.377
REMARK INTER + INTRA:          -4.778
REMARK INTER:                  -4.287
REMARK INTRA:                  -0.490
REMARK UNBOUND:                -0.594
REMARK SMILES C=CC(C)=CCC=C(C)C
REMARK SMILES IDX 5 1 3 2 4 3 6 4 7 5 9 6 8 7 10 8 2 9 1 10
REMARK H PARENT
REMARK Flexibility Score: inf
ROOT
ATOM      1  C   UNL     1      31.126   6.617  34.463  1.00  0.00    -0.020 C 
ATOM      2  C   UNL     1      30.819   7.223  35.629  1.00  0.00    -0.055 C 
ATOM      3  C   UNL     1      29.889   6.518  36.585  1.00  0.00     0.044 C 
ENDROOT
BRANCH   1   4
ATOM      4  C   UNL     1      31.999   7.208  33.387  1.00  0.00     0.055 C 
BRANCH   4   5
ATOM      5  C   UNL     1      31.215   8.100  32.455  1.00  0.00    -0.024 C 
ATOM      6  C   UNL     1      32.601  10.121  32.965  1.00  0.00     0.039 C 
ATOM      7  C   UNL     1      31.475   9.410  32.252  1.00  0.00    -0.080 C 
ATOM      8  C   UNL     1      30.602  10.177  31.292  1.00  0.00     0.039 C 
ENDBRANCH   4   5
ENDBRANCH   1   4
BRANCH   2   9
ATOM      9  C   UNL     1      31.347   8.574  35.970  1.00  0.00    -0.005 C 
ATOM     10  C   UNL     1      31.689   8.932  37.208  1.00  0.00     0.009 C 
ENDBRANCH   2   9
TORSDOF 3
ENDMDL
MODEL 8
REMARK VINA RESULT:    -3.544      3.789      6.217
REMARK INTER + INTRA:          -4.759
REMARK INTER:                  -4.512
REMARK INTRA:                  -0.247
REMARK UNBOUND:                -0.594
REMARK SMILES C=CC(C)=CCC=C(C)C
REMARK SMILES IDX 5 1 3 2 4 3 6 4 7 5 9 6 8 7 10 8 2 9 1 10
REMARK H PARENT
REMARK Flexibility Score: inf
ROOT
ATOM      1  C   UNL     1      31.345   8.953  34.738  1.00  0.00    -0.020 C 
ATOM      2  C   UNL     1      31.831   9.230  33.509  1.00  0.00    -0.055 C 
ATOM      3  C   UNL     1      31.420   8.348  32.356  1.00  0.00     0.044 C 
ENDROOT
BRANCH   1   4
ATOM      4  C   UNL     1      31.695   9.707  35.994  1.00  0.00     0.055 C 
BRANCH   4   5
ATOM      5  C   UNL     1      31.299   8.944  37.235  1.00  0.00    -0.024 C 
ATOM      6  C   UNL     1      30.970  11.018  38.597  1.00  0.00     0.039 C 
ATOM      7  C   UNL     1      30.967   9.519  38.412  1.00  0.00    -0.080 C 
ATOM      8  C   UNL     1      30.597   8.628  39.569  1.00  0.00     0.039 C 
ENDBRANCH   4   5
ENDBRANCH   1   4
BRANCH   2   9
ATOM      9  C   UNL     1      32.779  10.356  33.280  1.00  0.00    -0.005 C 
ATOM     10  C   UNL     1      32.447  11.467  32.622  1.00  0.00     0.009 C 
ENDBRANCH   2   9
TORSDOF 3
ENDMDL
MODEL 9
REMARK VINA RESULT:    -3.514      2.728      4.070
REMARK INTER + INTRA:          -4.724
REMARK INTER:                  -4.143
REMARK INTRA:                  -0.581
REMARK UNBOUND:                -0.594
REMARK SMILES C=CC(C)=CCC=C(C)C
REMARK SMILES IDX 5 1 3 2 4 3 6 4 7 5 9 6 8 7 10 8 2 9 1 10
REMARK H PARENT
REMARK Flexibility Score: inf
ROOT
ATOM      1  C   UNL     1      30.925  10.456  34.562  1.00  0.00    -0.020 C 
ATOM      2  C   UNL     1      30.743  10.212  35.877  1.00  0.00    -0.055 C 
ATOM      3  C   UNL     1      29.546  10.820  36.564  1.00  0.00     0.044 C 
ENDROOT
BRANCH   1   4
ATOM      4  C   UNL     1      32.090   9.962  33.746  1.00  0.00     0.055 C 
BRANCH   4   5
ATOM      5  C   UNL     1      31.637   9.292  32.470  1.00  0.00    -0.024 C 
ATOM      6  C   UNL     1      31.692   6.997  33.469  1.00  0.00     0.039 C 
ATOM      7  C   UNL     1      31.451   7.961  32.331  1.00  0.00    -0.080 C 
ATOM      8  C   UNL     1      31.000   7.434  30.994  1.00  0.00     0.039 C 
ENDBRANCH   4   5
ENDBRANCH   1   4
BRANCH   2   9
ATOM      9  C   UNL     1      31.708   9.390  36.658  1.00  0.00    -0.005 C 
ATOM     10  C   UNL     1      31.448   8.145  37.062  1.00  0.00     0.009 C 
ENDBRANCH   2   9
TORSDOF 3
ENDMDL
