MODEL 1
REMARK VINA RESULT:    -2.354      0.000      0.000
REMARK INTER + INTRA:          -2.881
REMARK INTER:                  -2.766
REMARK INTRA:                  -0.114
REMARK UNBOUND:                -0.114
REMARK SMILES O=C([O-])CCC(=O)[O-]
REMARK SMILES IDX 4 1 2 2 1 3 3 4 5 5 6 6 7 7 8 8
REMARK H PARENT
REMARK Flexibility Score: inf
ROOT
ATOM      1  C   UNL     1      14.005  64.601  16.936  1.00  0.00     0.059 C 
ENDROOT
BRANCH   1   2
ATOM      2  C   UNL     1      15.398  65.147  16.912  1.00  0.00     0.042 C 
ATOM      3  O   UNL     1      16.271  64.689  17.696  1.00  0.00    -0.550 OA
ATOM      4  O   UNL     1      15.746  66.124  15.989  1.00  0.00    -0.550 OA
ENDBRANCH   1   2
BRANCH   1   5
ATOM      5  C   UNL     1      13.239  65.037  15.685  1.00  0.00     0.059 C 
BRANCH   5   6
ATOM      6  C   UNL     1      13.376  64.012  14.604  1.00  0.00     0.042 C 
ATOM      7  O   UNL     1      12.940  62.843  14.780  1.00  0.00    -0.550 OA
ATOM      8  O   UNL     1      14.030  64.331  13.421  1.00  0.00    -0.550 OA
ENDBRANCH   5   6
ENDBRANCH   1   5
TORSDOF 3
ENDMDL
MODEL 2
REMARK VINA RESULT:    -2.307     16.945     17.702
REMARK INTER + INTRA:          -2.826
REMARK INTER:                  -2.725
REMARK INTRA:                  -0.101
REMARK UNBOUND:                -0.114
REMARK SMILES O=C([O-])CCC(=O)[O-]
REMARK SMILES IDX 4 1 2 2 1 3 3 4 5 5 6 6 7 7 8 8
REMARK H PARENT
REMARK Flexibility Score: inf
ROOT
ATOM      1  C   UNL     1      32.585  64.234  17.313  1.00  0.00     0.059 C 
ENDROOT
BRANCH   1   2
ATOM      2  C   UNL     1      31.589  64.100  18.422  1.00  0.00     0.042 C 
ATOM      3  O   UNL     1      30.495  64.721  18.369  1.00  0.00    -0.550 OA
ATOM      4  O   UNL     1      31.848  63.250  19.490  1.00  0.00    -0.550 OA
ENDBRANCH   1   2
BRANCH   1   5
ATOM      5  C   UNL     1      32.608  62.965  16.459  1.00  0.00     0.059 C 
BRANCH   5   6
ATOM      6  C   UNL     1      32.103  63.253  15.081  1.00  0.00     0.042 C 
ATOM      7  O   UNL     1      32.901  63.281  14.107  1.00  0.00    -0.550 OA
ATOM      8  O   UNL     1      30.760  63.541  14.878  1.00  0.00    -0.550 OA
ENDBRANCH   5   6
ENDBRANCH   1   5
TORSDOF 3
ENDMDL
MODEL 3
REMARK VINA RESULT:    -2.306     18.038     18.866
REMARK INTER + INTRA:          -2.824
REMARK INTER:                  -2.708
REMARK INTRA:                  -0.116
REMARK UNBOUND:                -0.114
REMARK SMILES O=C([O-])CCC(=O)[O-]
REMARK SMILES IDX 4 1 2 2 1 3 3 4 5 5 6 6 7 7 8 8
REMARK H PARENT
REMARK Flexibility Score: inf
ROOT
ATOM      1  C   UNL     1      32.080  62.715  20.114  1.00  0.00     0.059 C 
ENDROOT
BRANCH   1   2
ATOM      2  C   UNL     1      32.594  61.452  20.731  1.00  0.00     0.042 C 
ATOM      3  O   UNL     1      32.669  61.344  21.983  1.00  0.00    -0.550 OA
ATOM      4  O   UNL     1      32.941  60.375  19.925  1.00  0.00    -0.550 OA
ENDBRANCH   1   2
BRANCH   1   5
ATOM      5  C   UNL     1      33.125  63.312  19.170  1.00  0.00     0.059 C 
BRANCH   5   6
ATOM      6  C   UNL     1      32.673  63.194  17.748  1.00  0.00     0.042 C 
ATOM      7  O   UNL     1      31.850  64.021  17.275  1.00  0.00    -0.550 OA
ATOM      8  O   UNL     1      33.121  62.141  16.961  1.00  0.00    -0.550 OA
ENDBRANCH   5   6
ENDBRANCH   1   5
TORSDOF 3
ENDMDL
MODEL 4
REMARK VINA RESULT:    -2.237      1.426      1.924
REMARK INTER + INTRA:          -2.744
REMARK INTER:                  -2.634
REMARK INTRA:                  -0.110
REMARK UNBOUND:                -0.114
REMARK SMILES O=C([O-])CCC(=O)[O-]
REMARK SMILES IDX 4 1 2 2 1 3 3 4 5 5 6 6 7 7 8 8
REMARK H PARENT
REMARK Flexibility Score: inf
ROOT
ATOM      1  C   UNL     1      13.753  64.238  15.539  1.00  0.00     0.059 C 
ENDROOT
BRANCH   1   2
ATOM      2  C   UNL     1      14.564  64.866  16.629  1.00  0.00     0.042 C 
ATOM      3  O   UNL     1      14.317  64.602  17.835  1.00  0.00    -0.550 OA
ATOM      4  O   UNL     1      15.626  65.703  16.310  1.00  0.00    -0.550 OA
ENDBRANCH   1   2
BRANCH   1   5
ATOM      5  C   UNL     1      13.655  65.177  14.336  1.00  0.00     0.059 C 
BRANCH   5   6
ATOM      6  C   UNL     1      14.445  64.637  13.186  1.00  0.00     0.042 C 
ATOM      7  O   UNL     1      15.614  65.052  12.970  1.00  0.00    -0.550 OA
ATOM      8  O   UNL     1      13.872  63.713  12.322  1.00  0.00    -0.550 OA
ENDBRANCH   5   6
ENDBRANCH   1   5
TORSDOF 3
ENDMDL
MODEL 5
REMARK VINA RESULT:    -2.233     17.156     18.068
REMARK INTER + INTRA:          -2.739
REMARK INTER:                  -2.632
REMARK INTRA:                  -0.106
REMARK UNBOUND:                -0.114
REMARK SMILES O=C([O-])CCC(=O)[O-]
REMARK SMILES IDX 4 1 2 2 1 3 3 4 5 5 6 6 7 7 8 8
REMARK H PARENT
REMARK Flexibility Score: inf
ROOT
ATOM      1  C   UNL     1      32.739  62.742  16.477  1.00  0.00     0.059 C 
ENDROOT
BRANCH   1   2
ATOM      2  C   UNL     1      32.229  63.111  15.119  1.00  0.00     0.042 C 
ATOM      3  O   UNL     1      30.992  63.241  14.921  1.00  0.00    -0.550 OA
ATOM      4  O   UNL     1      33.122  63.360  14.085  1.00  0.00    -0.550 OA
ENDBRANCH   1   2
BRANCH   1   5
ATOM      5  C   UNL     1      32.860  63.987  17.358  1.00  0.00     0.059 C 
BRANCH   5   6
ATOM      6  C   UNL     1      31.810  63.976  18.424  1.00  0.00     0.042 C 
ATOM      7  O   UNL     1      31.944  63.241  19.438  1.00  0.00    -0.550 OA
ATOM      8  O   UNL     1      30.660  64.739  18.274  1.00  0.00    -0.550 OA
ENDBRANCH   5   6
ENDBRANCH   1   5
TORSDOF 3
ENDMDL
MODEL 6
REMARK VINA RESULT:    -2.193      1.158      3.547
REMARK INTER + INTRA:          -2.692
REMARK INTER:                  -2.573
REMARK INTRA:                  -0.119
REMARK UNBOUND:                -0.114
REMARK SMILES O=C([O-])CCC(=O)[O-]
REMARK SMILES IDX 4 1 2 2 1 3 3 4 5 5 6 6 7 7 8 8
REMARK H PARENT
REMARK Flexibility Score: inf
ROOT
ATOM      1  C   UNL     1      13.413  63.918  15.126  1.00  0.00     0.059 C 
ENDROOT
BRANCH   1   2
ATOM      2  C   UNL     1      13.600  64.573  13.793  1.00  0.00     0.042 C 
ATOM      3  O   UNL     1      13.442  65.817  13.671  1.00  0.00    -0.550 OA
ATOM      4  O   UNL     1      13.999  63.819  12.697  1.00  0.00    -0.550 OA
ENDBRANCH   1   2
BRANCH   1   5
ATOM      5  C   UNL     1      13.478  64.958  16.246  1.00  0.00     0.059 C 
BRANCH   5   6
ATOM      6  C   UNL     1      14.854  65.006  16.834  1.00  0.00     0.042 C 
ATOM      7  O   UNL     1      15.114  64.368  17.888  1.00  0.00    -0.550 OA
ATOM      8  O   UNL     1      15.834  65.796  16.247  1.00  0.00    -0.550 OA
ENDBRANCH   5   6
ENDBRANCH   1   5
TORSDOF 3
ENDMDL
MODEL 7
REMARK VINA RESULT:    -2.190     17.119     18.705
REMARK INTER + INTRA:          -2.688
REMARK INTER:                  -2.639
REMARK INTRA:                  -0.049
REMARK UNBOUND:                -0.114
REMARK SMILES O=C([O-])CCC(=O)[O-]
REMARK SMILES IDX 4 1 2 2 1 3 3 4 5 5 6 6 7 7 8 8
REMARK H PARENT
REMARK Flexibility Score: inf
ROOT
ATOM      1  C   UNL     1      32.028  63.621  20.168  1.00  0.00     0.059 C 
ENDROOT
BRANCH   1   2
ATOM      2  C   UNL     1      31.614  63.931  18.764  1.00  0.00     0.042 C 
ATOM      3  O   UNL     1      30.591  64.631  18.546  1.00  0.00    -0.550 OA
ATOM      4  O   UNL     1      32.386  63.489  17.698  1.00  0.00    -0.550 OA
ENDBRANCH   1   2
BRANCH   1   5
ATOM      5  C   UNL     1      33.051  62.483  20.185  1.00  0.00     0.059 C 
BRANCH   5   6
ATOM      6  C   UNL     1      32.689  61.471  21.227  1.00  0.00     0.042 C 
ATOM      7  O   UNL     1      31.964  60.486  20.928  1.00  0.00    -0.550 OA
ATOM      8  O   UNL     1      33.111  61.643  22.539  1.00  0.00    -0.550 OA
ENDBRANCH   5   6
ENDBRANCH   1   5
TORSDOF 3
ENDMDL
MODEL 8
REMARK VINA RESULT:    -2.137     16.887     18.476
REMARK INTER + INTRA:          -2.625
REMARK INTER:                  -2.583
REMARK INTRA:                  -0.042
REMARK UNBOUND:                -0.114
REMARK SMILES O=C([O-])CCC(=O)[O-]
REMARK SMILES IDX 4 1 2 2 1 3 3 4 5 5 6 6 7 7 8 8
REMARK H PARENT
REMARK Flexibility Score: inf
ROOT
ATOM      1  C   UNL     1      32.978  62.494  19.802  1.00  0.00     0.059 C 
ENDROOT
BRANCH   1   2
ATOM      2  C   UNL     1      32.814  61.304  20.695  1.00  0.00     0.042 C 
ATOM      3  O   UNL     1      32.728  60.149  20.200  1.00  0.00    -0.550 OA
ATOM      4  O   UNL     1      32.808  61.465  22.074  1.00  0.00    -0.550 OA
ENDBRANCH   1   2
BRANCH   1   5
ATOM      5  C   UNL     1      31.929  63.557  20.133  1.00  0.00     0.059 C 
BRANCH   5   6
ATOM      6  C   UNL     1      31.371  64.149  18.876  1.00  0.00     0.042 C 
ATOM      7  O   UNL     1      31.934  63.934  17.771  1.00  0.00    -0.550 OA
ATOM      8  O   UNL     1      30.260  64.981  18.933  1.00  0.00    -0.550 OA
ENDBRANCH   5   6
ENDBRANCH   1   5
TORSDOF 3
ENDMDL
