MODEL 1
REMARK VINA RESULT:    -4.203      0.000      0.000
REMARK INTER + INTRA:         -12.481
REMARK INTER:                  -9.117
REMARK INTRA:                  -3.364
REMARK UNBOUND:                -3.364
REMARK SMILES CCCCCCCCCCCCCCCCCCCCCC(=O)[O-]
REMARK SMILES IDX 12 1 11 2 10 3 9 4 8 5 7 6 6 7 5 8 4 9 3 10 2 11 1 12 13 13
REMARK SMILES IDX 14 14 15 15 16 16 17 17 18 18 19 19 20 20 21 21 22 22 23 23
REMARK SMILES IDX 24 24
REMARK H PARENT
REMARK Flexibility Score: inf
ROOT
ATOM      1  C   UNL     1      46.725  -3.246  75.684  1.00  0.00     0.000 C 
ENDROOT
BRANCH   1   2
ATOM      2  C   UNL     1      47.200  -4.621  75.194  1.00  0.00     0.000 C 
BRANCH   2   3
ATOM      3  C   UNL     1      46.746  -4.926  73.757  1.00  0.00     0.000 C 
BRANCH   3   4
ATOM      4  C   UNL     1      47.751  -4.439  72.702  1.00  0.00    -0.000 C 
BRANCH   4   5
ATOM      5  C   UNL     1      49.194  -4.637  73.188  1.00  0.00    -0.000 C 
BRANCH   5   6
ATOM      6  C   UNL     1      50.232  -4.006  72.245  1.00  0.00    -0.000 C 
BRANCH   6   7
ATOM      7  C   UNL     1      51.512  -3.499  72.936  1.00  0.00    -0.000 C 
BRANCH   7   8
ATOM      8  C   UNL     1      51.753  -1.984  72.767  1.00  0.00    -0.000 C 
BRANCH   8   9
ATOM      9  C   UNL     1      50.606  -1.291  72.016  1.00  0.00    -0.000 C 
BRANCH   9  10
ATOM     10  C   UNL     1      50.038  -0.124  72.831  1.00  0.00    -0.000 C 
BRANCH  10  11
ATOM     11  C   UNL     1      48.522  -0.005  72.640  1.00  0.00    -0.003 C 
ATOM     12  C   UNL     1      48.058  -0.781  71.411  1.00  0.00     0.004 C 
ENDBRANCH  10  11
ENDBRANCH   9  10
ENDBRANCH   8   9
ENDBRANCH   7   8
ENDBRANCH   6   7
ENDBRANCH   5   6
ENDBRANCH   4   5
ENDBRANCH   3   4
ENDBRANCH   2   3
ENDBRANCH   1   2
BRANCH   1  13
ATOM     13  C   UNL     1      47.797  -2.175  75.437  1.00  0.00     0.000 C 
BRANCH  13  14
ATOM     14  C   UNL     1      48.787  -2.035  76.608  1.00  0.00     0.000 C 
BRANCH  14  15
ATOM     15  C   UNL     1      50.130  -2.769  76.420  1.00  0.00     0.000 C 
BRANCH  15  16
ATOM     16  C   UNL     1      50.289  -4.057  77.248  1.00  0.00     0.000 C 
BRANCH  16  17
ATOM     17  C   UNL     1      49.327  -4.113  78.448  1.00  0.00     0.000 C 
BRANCH  17  18
ATOM     18  C   UNL     1      48.591  -5.458  78.555  1.00  0.00     0.000 C 
BRANCH  18  19
ATOM     19  C   UNL     1      49.463  -6.644  78.110  1.00  0.00     0.000 C 
BRANCH  19  20
ATOM     20  C   UNL     1      48.705  -7.986  78.134  1.00  0.00     0.006 C 
BRANCH  20  21
ATOM     21  C   UNL     1      47.175  -7.836  78.201  1.00  0.00     0.053 C 
BRANCH  21  22
ATOM     22  C   UNL     1      46.488  -8.420  77.007  1.00  0.00     0.041 C 
ATOM     23  O   UNL     1      46.633  -9.638  76.725  1.00  0.00    -0.550 OA
ATOM     24  O   UNL     1      45.682  -7.620  76.206  1.00  0.00    -0.550 OA
ENDBRANCH  21  22
ENDBRANCH  20  21
ENDBRANCH  19  20
ENDBRANCH  18  19
ENDBRANCH  17  18
ENDBRANCH  16  17
ENDBRANCH  15  16
ENDBRANCH  14  15
ENDBRANCH  13  14
ENDBRANCH   1  13
TORSDOF 20
ENDMDL
MODEL 2
REMARK VINA RESULT:    -4.197      2.415      4.278
REMARK INTER + INTRA:         -12.468
REMARK INTER:                  -8.984
REMARK INTRA:                  -3.485
REMARK UNBOUND:                -3.364
REMARK SMILES CCCCCCCCCCCCCCCCCCCCCC(=O)[O-]
REMARK SMILES IDX 12 1 11 2 10 3 9 4 8 5 7 6 6 7 5 8 4 9 3 10 2 11 1 12 13 13
REMARK SMILES IDX 14 14 15 15 16 16 17 17 18 18 19 19 20 20 21 21 22 22 23 23
REMARK SMILES IDX 24 24
REMARK H PARENT
REMARK Flexibility Score: inf
ROOT
ATOM      1  C   UNL     1      47.412  -5.989  74.859  1.00  0.00     0.000 C 
ENDROOT
BRANCH   1   2
ATOM      2  C   UNL     1      46.407  -4.841  75.030  1.00  0.00     0.000 C 
BRANCH   2   3
ATOM      3  C   UNL     1      46.995  -3.646  75.796  1.00  0.00     0.000 C 
BRANCH   3   4
ATOM      4  C   UNL     1      48.101  -2.925  75.010  1.00  0.00    -0.000 C 
BRANCH   4   5
ATOM      5  C   UNL     1      49.285  -2.577  75.924  1.00  0.00    -0.000 C 
BRANCH   5   6
ATOM      6  C   UNL     1      50.629  -3.082  75.375  1.00  0.00    -0.000 C 
BRANCH   6   7
ATOM      7  C   UNL     1      50.523  -4.245  74.369  1.00  0.00    -0.000 C 
BRANCH   7   8
ATOM      8  C   UNL     1      51.146  -3.935  72.991  1.00  0.00    -0.000 C 
BRANCH   8   9
ATOM      9  C   UNL     1      50.235  -3.054  72.124  1.00  0.00    -0.000 C 
BRANCH   9  10
ATOM     10  C   UNL     1      50.748  -1.610  72.075  1.00  0.00    -0.000 C 
BRANCH  10  11
ATOM     11  C   UNL     1      49.665  -0.625  72.529  1.00  0.00    -0.003 C 
ATOM     12  C   UNL     1      48.470  -0.643  71.582  1.00  0.00     0.004 C 
ENDBRANCH  10  11
ENDBRANCH   9  10
ENDBRANCH   8   9
ENDBRANCH   7   8
ENDBRANCH   6   7
ENDBRANCH   5   6
ENDBRANCH   4   5
ENDBRANCH   3   4
ENDBRANCH   2   3
ENDBRANCH   1   2
BRANCH   1  13
ATOM     13  C   UNL     1      46.706  -7.273  74.402  1.00  0.00     0.000 C 
BRANCH  13  14
ATOM     14  C   UNL     1      45.396  -7.540  75.165  1.00  0.00     0.000 C 
BRANCH  14  15
ATOM     15  C   UNL     1      45.401  -8.803  76.052  1.00  0.00     0.000 C 
BRANCH  15  16
ATOM     16  C   UNL     1      46.753  -9.127  76.713  1.00  0.00     0.000 C 
BRANCH  16  17
ATOM     17  C   UNL     1      46.885  -8.521  78.121  1.00  0.00     0.000 C 
BRANCH  17  18
ATOM     18  C   UNL     1      48.109  -7.601  78.258  1.00  0.00     0.000 C 
BRANCH  18  19
ATOM     19  C   UNL     1      47.722  -6.154  78.605  1.00  0.00     0.000 C 
BRANCH  19  20
ATOM     20  C   UNL     1      48.919  -5.184  78.548  1.00  0.00     0.006 C 
BRANCH  20  21
ATOM     21  C   UNL     1      50.193  -5.804  77.948  1.00  0.00     0.053 C 
BRANCH  21  22
ATOM     22  C   UNL     1      51.443  -5.241  78.548  1.00  0.00     0.041 C 
ATOM     23  O   UNL     1      51.458  -4.063  78.993  1.00  0.00    -0.550 OA
ATOM     24  O   UNL     1      52.592  -6.019  78.622  1.00  0.00    -0.550 OA
ENDBRANCH  21  22
ENDBRANCH  20  21
ENDBRANCH  19  20
ENDBRANCH  18  19
ENDBRANCH  17  18
ENDBRANCH  16  17
ENDBRANCH  15  16
ENDBRANCH  14  15
ENDBRANCH  13  14
ENDBRANCH   1  13
TORSDOF 20
ENDMDL
MODEL 3
REMARK VINA RESULT:    -4.113      1.043      1.600
REMARK INTER + INTRA:         -12.287
REMARK INTER:                  -9.357
REMARK INTRA:                  -2.930
REMARK UNBOUND:                -3.364
REMARK SMILES CCCCCCCCCCCCCCCCCCCCCC(=O)[O-]
REMARK SMILES IDX 12 1 11 2 10 3 9 4 8 5 7 6 6 7 5 8 4 9 3 10 2 11 1 12 13 13
REMARK SMILES IDX 14 14 15 15 16 16 17 17 18 18 19 19 20 20 21 21 22 22 23 23
REMARK SMILES IDX 24 24
REMARK H PARENT
REMARK Flexibility Score: inf
ROOT
ATOM      1  C   UNL     1      47.597  -3.930  75.438  1.00  0.00     0.000 C 
ENDROOT
BRANCH   1   2
ATOM      2  C   UNL     1      47.123  -4.468  74.080  1.00  0.00     0.000 C 
BRANCH   2   3
ATOM      3  C   UNL     1      47.901  -3.864  72.899  1.00  0.00     0.000 C 
BRANCH   3   4
ATOM      4  C   UNL     1      48.997  -4.801  72.371  1.00  0.00    -0.000 C 
BRANCH   4   5
ATOM      5  C   UNL     1      50.086  -4.008  71.632  1.00  0.00    -0.000 C 
BRANCH   5   6
ATOM      6  C   UNL     1      51.123  -3.391  72.585  1.00  0.00    -0.000 C 
BRANCH   6   7
ATOM      7  C   UNL     1      51.513  -1.935  72.263  1.00  0.00    -0.000 C 
BRANCH   7   8
ATOM      8  C   UNL     1      50.428  -0.903  72.637  1.00  0.00    -0.000 C 
BRANCH   8   9
ATOM      9  C   UNL     1      49.379  -0.732  71.528  1.00  0.00    -0.000 C 
BRANCH   9  10
ATOM     10  C   UNL     1      48.068  -0.173  72.091  1.00  0.00    -0.000 C 
BRANCH  10  11
ATOM     11  C   UNL     1      48.337   0.890  73.163  1.00  0.00    -0.003 C 
ATOM     12  C   UNL     1      47.415   2.093  72.992  1.00  0.00     0.004 C 
ENDBRANCH  10  11
ENDBRANCH   9  10
ENDBRANCH   8   9
ENDBRANCH   7   8
ENDBRANCH   6   7
ENDBRANCH   5   6
ENDBRANCH   4   5
ENDBRANCH   3   4
ENDBRANCH   2   3
ENDBRANCH   1   2
BRANCH   1  13
ATOM     13  C   UNL     1      48.424  -2.649  75.261  1.00  0.00     0.000 C 
BRANCH  13  14
ATOM     14  C   UNL     1      49.766  -2.693  76.014  1.00  0.00     0.000 C 
BRANCH  14  15
ATOM     15  C   UNL     1      50.441  -4.079  76.067  1.00  0.00     0.000 C 
BRANCH  15  16
ATOM     16  C   UNL     1      50.869  -4.540  77.472  1.00  0.00     0.000 C 
BRANCH  16  17
ATOM     17  C   UNL     1      49.673  -4.747  78.418  1.00  0.00     0.000 C 
BRANCH  17  18
ATOM     18  C   UNL     1      49.175  -6.201  78.433  1.00  0.00     0.000 C 
BRANCH  18  19
ATOM     19  C   UNL     1      47.641  -6.298  78.461  1.00  0.00     0.000 C 
BRANCH  19  20
ATOM     20  C   UNL     1      47.133  -7.753  78.495  1.00  0.00     0.006 C 
BRANCH  20  21
ATOM     21  C   UNL     1      48.123  -8.771  77.903  1.00  0.00     0.053 C 
BRANCH  21  22
ATOM     22  C   UNL     1      47.577  -9.469  76.697  1.00  0.00     0.041 C 
ATOM     23  O   UNL     1      48.353 -10.066  75.906  1.00  0.00    -0.550 OA
ATOM     24  O   UNL     1      46.210  -9.466  76.450  1.00  0.00    -0.550 OA
ENDBRANCH  21  22
ENDBRANCH  20  21
ENDBRANCH  19  20
ENDBRANCH  18  19
ENDBRANCH  17  18
ENDBRANCH  16  17
ENDBRANCH  15  16
ENDBRANCH  14  15
ENDBRANCH  13  14
ENDBRANCH   1  13
TORSDOF 20
ENDMDL
MODEL 4
REMARK VINA RESULT:    -4.106      3.301      7.120
REMARK INTER + INTRA:         -12.271
REMARK INTER:                  -8.718
REMARK INTRA:                  -3.553
REMARK UNBOUND:                -3.364
REMARK SMILES CCCCCCCCCCCCCCCCCCCCCC(=O)[O-]
REMARK SMILES IDX 12 1 11 2 10 3 9 4 8 5 7 6 6 7 5 8 4 9 3 10 2 11 1 12 13 13
REMARK SMILES IDX 14 14 15 15 16 16 17 17 18 18 19 19 20 20 21 21 22 22 23 23
REMARK SMILES IDX 24 24
REMARK H PARENT
REMARK Flexibility Score: inf
ROOT
ATOM      1  C   UNL     1      47.628  -4.557  75.230  1.00  0.00     0.000 C 
ENDROOT
BRANCH   1   2
ATOM      2  C   UNL     1      46.726  -4.676  73.993  1.00  0.00     0.000 C 
BRANCH   2   3
ATOM      3  C   UNL     1      47.494  -5.128  72.741  1.00  0.00     0.000 C 
BRANCH   3   4
ATOM      4  C   UNL     1      46.931  -6.423  72.136  1.00  0.00    -0.000 C 
BRANCH   4   5
ATOM      5  C   UNL     1      47.392  -7.649  72.939  1.00  0.00    -0.000 C 
BRANCH   5   6
ATOM      6  C   UNL     1      46.220  -8.504  73.446  1.00  0.00    -0.000 C 
BRANCH   6   7
ATOM      7  C   UNL     1      45.750  -8.177  74.877  1.00  0.00    -0.000 C 
BRANCH   7   8
ATOM      8  C   UNL     1      46.902  -8.062  75.898  1.00  0.00    -0.000 C 
BRANCH   8   9
ATOM      9  C   UNL     1      46.479  -8.506  77.307  1.00  0.00    -0.000 C 
BRANCH   9  10
ATOM     10  C   UNL     1      47.623  -8.321  78.310  1.00  0.00    -0.000 C 
BRANCH  10  11
ATOM     11  C   UNL     1      48.624  -7.270  77.816  1.00  0.00    -0.003 C 
ATOM     12  C   UNL     1      48.464  -5.957  78.576  1.00  0.00     0.004 C 
ENDBRANCH  10  11
ENDBRANCH   9  10
ENDBRANCH   8   9
ENDBRANCH   7   8
ENDBRANCH   6   7
ENDBRANCH   5   6
ENDBRANCH   4   5
ENDBRANCH   3   4
ENDBRANCH   2   3
ENDBRANCH   1   2
BRANCH   1  13
ATOM     13  C   UNL     1      49.094  -4.835  74.868  1.00  0.00     0.000 C 
BRANCH  13  14
ATOM     14  C   UNL     1      50.037  -3.681  75.258  1.00  0.00     0.000 C 
BRANCH  14  15
ATOM     15  C   UNL     1      49.452  -2.672  76.267  1.00  0.00     0.000 C 
BRANCH  15  16
ATOM     16  C   UNL     1      49.260  -1.245  75.721  1.00  0.00     0.000 C 
BRANCH  16  17
ATOM     17  C   UNL     1      48.072  -1.137  74.750  1.00  0.00     0.000 C 
BRANCH  17  18
ATOM     18  C   UNL     1      48.477  -0.568  73.381  1.00  0.00     0.000 C 
BRANCH  18  19
ATOM     19  C   UNL     1      48.548  -1.651  72.291  1.00  0.00     0.000 C 
BRANCH  19  20
ATOM     20  C   UNL     1      49.995  -2.041  71.927  1.00  0.00     0.006 C 
BRANCH  20  21
ATOM     21  C   UNL     1      51.033  -0.954  72.256  1.00  0.00     0.053 C 
BRANCH  21  22
ATOM     22  C   UNL     1      52.429  -1.489  72.306  1.00  0.00     0.041 C 
ATOM     23  O   UNL     1      52.699  -2.492  73.018  1.00  0.00    -0.550 OA
ATOM     24  O   UNL     1      53.434  -0.885  71.560  1.00  0.00    -0.550 OA
ENDBRANCH  21  22
ENDBRANCH  20  21
ENDBRANCH  19  20
ENDBRANCH  18  19
ENDBRANCH  17  18
ENDBRANCH  16  17
ENDBRANCH  15  16
ENDBRANCH  14  15
ENDBRANCH  13  14
ENDBRANCH   1  13
TORSDOF 20
ENDMDL
MODEL 5
REMARK VINA RESULT:    -4.098      1.838      5.657
REMARK INTER + INTRA:         -12.254
REMARK INTER:                  -8.476
REMARK INTRA:                  -3.779
REMARK UNBOUND:                -3.364
REMARK SMILES CCCCCCCCCCCCCCCCCCCCCC(=O)[O-]
REMARK SMILES IDX 12 1 11 2 10 3 9 4 8 5 7 6 6 7 5 8 4 9 3 10 2 11 1 12 13 13
REMARK SMILES IDX 14 14 15 15 16 16 17 17 18 18 19 19 20 20 21 21 22 22 23 23
REMARK SMILES IDX 24 24
REMARK H PARENT
REMARK Flexibility Score: inf
ROOT
ATOM      1  C   UNL     1      49.717  -1.841  71.621  1.00  0.00     0.000 C 
ENDROOT
BRANCH   1   2
ATOM      2  C   UNL     1      48.794  -0.638  71.861  1.00  0.00     0.000 C 
BRANCH   2   3
ATOM      3  C   UNL     1      49.440   0.438  72.748  1.00  0.00     0.000 C 
BRANCH   3   4
ATOM      4  C   UNL     1      48.609   0.749  74.003  1.00  0.00    -0.000 C 
BRANCH   4   5
ATOM      5  C   UNL     1      48.001  -0.535  74.588  1.00  0.00    -0.000 C 
BRANCH   5   6
ATOM      6  C   UNL     1      47.819  -0.465  76.114  1.00  0.00    -0.000 C 
BRANCH   6   7
ATOM      7  C   UNL     1      47.514  -1.815  76.792  1.00  0.00    -0.000 C 
BRANCH   7   8
ATOM      8  C   UNL     1      48.137  -1.960  78.197  1.00  0.00    -0.000 C 
BRANCH   8   9
ATOM      9  C   UNL     1      47.714  -3.263  78.891  1.00  0.00    -0.000 C 
BRANCH   9  10
ATOM     10  C   UNL     1      48.818  -4.323  78.794  1.00  0.00    -0.000 C 
BRANCH  10  11
ATOM     11  C   UNL     1      48.222  -5.720  78.582  1.00  0.00    -0.003 C 
ATOM     12  C   UNL     1      49.283  -6.705  78.102  1.00  0.00     0.004 C 
ENDBRANCH  10  11
ENDBRANCH   9  10
ENDBRANCH   8   9
ENDBRANCH   7   8
ENDBRANCH   6   7
ENDBRANCH   5   6
ENDBRANCH   4   5
ENDBRANCH   3   4
ENDBRANCH   2   3
ENDBRANCH   1   2
BRANCH   1  13
ATOM     13  C   UNL     1      51.061  -1.651  72.340  1.00  0.00     0.000 C 
BRANCH  13  14
ATOM     14  C   UNL     1      51.386  -2.798  73.314  1.00  0.00     0.000 C 
BRANCH  14  15
ATOM     15  C   UNL     1      51.213  -2.455  74.808  1.00  0.00     0.000 C 
BRANCH  15  16
ATOM     16  C   UNL     1      50.410  -3.486  75.623  1.00  0.00     0.000 C 
BRANCH  16  17
ATOM     17  C   UNL     1      50.111  -4.768  74.827  1.00  0.00     0.000 C 
BRANCH  17  18
ATOM     18  C   UNL     1      48.607  -5.081  74.754  1.00  0.00     0.000 C 
BRANCH  18  19
ATOM     19  C   UNL     1      47.836  -4.072  73.886  1.00  0.00     0.000 C 
BRANCH  19  20
ATOM     20  C   UNL     1      47.468  -4.634  72.499  1.00  0.00     0.006 C 
BRANCH  20  21
ATOM     21  C   UNL     1      47.724  -6.144  72.352  1.00  0.00     0.053 C 
BRANCH  21  22
ATOM     22  C   UNL     1      46.457  -6.932  72.229  1.00  0.00     0.041 C 
ATOM     23  O   UNL     1      46.334  -7.797  71.324  1.00  0.00    -0.550 OA
ATOM     24  O   UNL     1      45.413  -6.713  73.119  1.00  0.00    -0.550 OA
ENDBRANCH  21  22
ENDBRANCH  20  21
ENDBRANCH  19  20
ENDBRANCH  18  19
ENDBRANCH  17  18
ENDBRANCH  16  17
ENDBRANCH  15  16
ENDBRANCH  14  15
ENDBRANCH  13  14
ENDBRANCH   1  13
TORSDOF 20
ENDMDL
MODEL 6
REMARK VINA RESULT:    -4.069      2.789      3.706
REMARK INTER + INTRA:         -12.192
REMARK INTER:                  -8.472
REMARK INTRA:                  -3.720
REMARK UNBOUND:                -3.364
REMARK SMILES CCCCCCCCCCCCCCCCCCCCCC(=O)[O-]
REMARK SMILES IDX 12 1 11 2 10 3 9 4 8 5 7 6 6 7 5 8 4 9 3 10 2 11 1 12 13 13
REMARK SMILES IDX 14 14 15 15 16 16 17 17 18 18 19 19 20 20 21 21 22 22 23 23
REMARK SMILES IDX 24 24
REMARK H PARENT
REMARK Flexibility Score: inf
ROOT
ATOM      1  C   UNL     1      48.781  -1.768  76.114  1.00  0.00     0.000 C 
ENDROOT
BRANCH   1   2
ATOM      2  C   UNL     1      47.802  -2.374  75.099  1.00  0.00     0.000 C 
BRANCH   2   3
ATOM      3  C   UNL     1      47.485  -3.849  75.389  1.00  0.00     0.000 C 
BRANCH   3   4
ATOM      4  C   UNL     1      47.429  -4.705  74.114  1.00  0.00    -0.000 C 
BRANCH   4   5
ATOM      5  C   UNL     1      47.928  -3.909  72.899  1.00  0.00    -0.000 C 
BRANCH   5   6
ATOM      6  C   UNL     1      49.032  -4.643  72.119  1.00  0.00    -0.000 C 
BRANCH   6   7
ATOM      7  C   UNL     1      50.299  -3.808  71.849  1.00  0.00    -0.000 C 
BRANCH   7   8
ATOM      8  C   UNL     1      50.420  -2.555  72.741  1.00  0.00    -0.000 C 
BRANCH   8   9
ATOM      9  C   UNL     1      50.367  -1.253  71.928  1.00  0.00    -0.000 C 
BRANCH   9  10
ATOM     10  C   UNL     1      49.726  -0.122  72.740  1.00  0.00    -0.000 C 
BRANCH  10  11
ATOM     11  C   UNL     1      48.264   0.090  72.330  1.00  0.00    -0.003 C 
ATOM     12  C   UNL     1      47.480   0.800  73.429  1.00  0.00     0.004 C 
ENDBRANCH  10  11
ENDBRANCH   9  10
ENDBRANCH   8   9
ENDBRANCH   7   8
ENDBRANCH   6   7
ENDBRANCH   5   6
ENDBRANCH   4   5
ENDBRANCH   3   4
ENDBRANCH   2   3
ENDBRANCH   1   2
BRANCH   1  13
ATOM     13  C   UNL     1      48.329  -2.059  77.552  1.00  0.00     0.000 C 
BRANCH  13  14
ATOM     14  C   UNL     1      49.500  -2.106  78.551  1.00  0.00     0.000 C 
BRANCH  14  15
ATOM     15  C   UNL     1      49.779  -3.493  79.166  1.00  0.00     0.000 C 
BRANCH  15  16
ATOM     16  C   UNL     1      48.777  -4.592  78.771  1.00  0.00     0.000 C 
BRANCH  16  17
ATOM     17  C   UNL     1      49.463  -5.832  78.171  1.00  0.00     0.000 C 
BRANCH  17  18
ATOM     18  C   UNL     1      50.987  -5.818  78.367  1.00  0.00     0.000 C 
BRANCH  18  19
ATOM     19  C   UNL     1      51.753  -5.888  77.035  1.00  0.00     0.000 C 
BRANCH  19  20
ATOM     20  C   UNL     1      50.939  -5.337  75.847  1.00  0.00     0.006 C 
BRANCH  20  21
ATOM     21  C   UNL     1      51.393  -5.876  74.479  1.00  0.00     0.053 C 
BRANCH  21  22
ATOM     22  C   UNL     1      52.844  -5.623  74.215  1.00  0.00     0.041 C 
ATOM     23  O   UNL     1      53.250  -4.456  73.975  1.00  0.00    -0.550 OA
ATOM     24  O   UNL     1      53.751  -6.675  74.239  1.00  0.00    -0.550 OA
ENDBRANCH  21  22
ENDBRANCH  20  21
ENDBRANCH  19  20
ENDBRANCH  18  19
ENDBRANCH  17  18
ENDBRANCH  16  17
ENDBRANCH  15  16
ENDBRANCH  14  15
ENDBRANCH  13  14
ENDBRANCH   1  13
TORSDOF 20
ENDMDL
MODEL 7
REMARK VINA RESULT:    -4.062      3.388      6.612
REMARK INTER + INTRA:         -12.176
REMARK INTER:                  -8.296
REMARK INTRA:                  -3.879
REMARK UNBOUND:                -3.364
REMARK SMILES CCCCCCCCCCCCCCCCCCCCCC(=O)[O-]
REMARK SMILES IDX 12 1 11 2 10 3 9 4 8 5 7 6 6 7 5 8 4 9 3 10 2 11 1 12 13 13
REMARK SMILES IDX 14 14 15 15 16 16 17 17 18 18 19 19 20 20 21 21 22 22 23 23
REMARK SMILES IDX 24 24
REMARK H PARENT
REMARK Flexibility Score: inf
ROOT
ATOM      1  C   UNL     1      47.190  -1.902  75.770  1.00  0.00     0.000 C 
ENDROOT
BRANCH   1   2
ATOM      2  C   UNL     1      46.777  -2.902  76.859  1.00  0.00     0.000 C 
BRANCH   2   3
ATOM      3  C   UNL     1      47.499  -2.657  78.193  1.00  0.00     0.000 C 
BRANCH   3   4
ATOM      4  C   UNL     1      48.020  -3.953  78.832  1.00  0.00    -0.000 C 
BRANCH   4   5
ATOM      5  C   UNL     1      49.546  -4.059  78.689  1.00  0.00    -0.000 C 
BRANCH   5   6
ATOM      6  C   UNL     1      49.973  -4.933  77.499  1.00  0.00    -0.000 C 
BRANCH   6   7
ATOM      7  C   UNL     1      50.476  -4.151  76.269  1.00  0.00    -0.000 C 
BRANCH   7   8
ATOM      8  C   UNL     1      49.781  -4.551  74.950  1.00  0.00    -0.000 C 
BRANCH   8   9
ATOM      9  C   UNL     1      48.636  -5.549  75.174  1.00  0.00    -0.000 C 
BRANCH   9  10
ATOM     10  C   UNL     1      47.923  -5.875  73.856  1.00  0.00    -0.000 C 
BRANCH  10  11
ATOM     11  C   UNL     1      46.778  -4.890  73.591  1.00  0.00    -0.003 C 
ATOM     12  C   UNL     1      45.523  -5.283  74.363  1.00  0.00     0.004 C 
ENDBRANCH  10  11
ENDBRANCH   9  10
ENDBRANCH   8   9
ENDBRANCH   7   8
ENDBRANCH   6   7
ENDBRANCH   5   6
ENDBRANCH   4   5
ENDBRANCH   3   4
ENDBRANCH   2   3
ENDBRANCH   1   2
BRANCH   1  13
ATOM     13  C   UNL     1      48.462  -1.145  76.176  1.00  0.00     0.000 C 
BRANCH  13  14
ATOM     14  C   UNL     1      48.595   0.222  75.479  1.00  0.00     0.000 C 
BRANCH  14  15
ATOM     15  C   UNL     1      47.290   0.773  74.868  1.00  0.00     0.000 C 
BRANCH  15  16
ATOM     16  C   UNL     1      47.400   1.221  73.399  1.00  0.00     0.000 C 
BRANCH  16  17
ATOM     17  C   UNL     1      48.598   0.585  72.673  1.00  0.00     0.000 C 
BRANCH  17  18
ATOM     18  C   UNL     1      48.194  -0.622  71.810  1.00  0.00     0.000 C 
BRANCH  18  19
ATOM     19  C   UNL     1      48.695  -1.955  72.392  1.00  0.00     0.000 C 
BRANCH  19  20
ATOM     20  C   UNL     1      50.128  -2.304  71.940  1.00  0.00     0.006 C 
BRANCH  20  21
ATOM     21  C   UNL     1      51.223  -1.769  72.877  1.00  0.00     0.053 C 
BRANCH  21  22
ATOM     22  C   UNL     1      52.591  -1.868  72.277  1.00  0.00     0.041 C 
ATOM     23  O   UNL     1      53.140  -0.850  71.781  1.00  0.00    -0.550 OA
ATOM     24  O   UNL     1      53.262  -3.084  72.271  1.00  0.00    -0.550 OA
ENDBRANCH  21  22
ENDBRANCH  20  21
ENDBRANCH  19  20
ENDBRANCH  18  19
ENDBRANCH  17  18
ENDBRANCH  16  17
ENDBRANCH  15  16
ENDBRANCH  14  15
ENDBRANCH  13  14
ENDBRANCH   1  13
TORSDOF 20
ENDMDL
MODEL 8
REMARK VINA RESULT:    -3.990      2.029      4.466
REMARK INTER + INTRA:         -12.020
REMARK INTER:                  -8.252
REMARK INTRA:                  -3.768
REMARK UNBOUND:                -3.364
REMARK SMILES CCCCCCCCCCCCCCCCCCCCCC(=O)[O-]
REMARK SMILES IDX 12 1 11 2 10 3 9 4 8 5 7 6 6 7 5 8 4 9 3 10 2 11 1 12 13 13
REMARK SMILES IDX 14 14 15 15 16 16 17 17 18 18 19 19 20 20 21 21 22 22 23 23
REMARK SMILES IDX 24 24
REMARK H PARENT
REMARK Flexibility Score: inf
ROOT
ATOM      1  C   UNL     1      48.685  -3.483  79.113  1.00  0.00     0.000 C 
ENDROOT
BRANCH   1   2
ATOM      2  C   UNL     1      48.190  -2.378  78.170  1.00  0.00     0.000 C 
BRANCH   2   3
ATOM      3  C   UNL     1      49.295  -1.377  77.796  1.00  0.00     0.000 C 
BRANCH   3   4
ATOM      4  C   UNL     1      48.763  -0.177  76.998  1.00  0.00    -0.000 C 
BRANCH   4   5
ATOM      5  C   UNL     1      47.505  -0.562  76.205  1.00  0.00    -0.000 C 
BRANCH   5   6
ATOM      6  C   UNL     1      47.608  -0.200  74.714  1.00  0.00    -0.000 C 
BRANCH   6   7
ATOM      7  C   UNL     1      48.998  -0.420  74.088  1.00  0.00    -0.000 C 
BRANCH   7   8
ATOM      8  C   UNL     1      49.025  -0.247  72.555  1.00  0.00    -0.000 C 
BRANCH   8   9
ATOM      9  C   UNL     1      50.082  -1.137  71.885  1.00  0.00    -0.000 C 
BRANCH   9  10
ATOM     10  C   UNL     1      51.487  -0.547  72.053  1.00  0.00    -0.000 C 
BRANCH  10  11
ATOM     11  C   UNL     1      52.505  -1.639  72.403  1.00  0.00    -0.003 C 
ATOM     12  C   UNL     1      51.818  -2.983  72.625  1.00  0.00     0.004 C 
ENDBRANCH  10  11
ENDBRANCH   9  10
ENDBRANCH   8   9
ENDBRANCH   7   8
ENDBRANCH   6   7
ENDBRANCH   5   6
ENDBRANCH   4   5
ENDBRANCH   3   4
ENDBRANCH   2   3
ENDBRANCH   1   2
BRANCH   1  13
ATOM     13  C   UNL     1      48.005  -4.821  78.795  1.00  0.00     0.000 C 
BRANCH  13  14
ATOM     14  C   UNL     1      48.997  -5.905  78.335  1.00  0.00     0.000 C 
BRANCH  14  15
ATOM     15  C   UNL     1      50.467  -5.446  78.237  1.00  0.00     0.000 C 
BRANCH  15  16
ATOM     16  C   UNL     1      51.030  -5.373  76.806  1.00  0.00     0.000 C 
BRANCH  16  17
ATOM     17  C   UNL     1      49.932  -5.449  75.732  1.00  0.00     0.000 C 
BRANCH  17  18
ATOM     18  C   UNL     1      49.507  -4.063  75.220  1.00  0.00     0.000 C 
BRANCH  18  19
ATOM     19  C   UNL     1      48.030  -4.019  74.794  1.00  0.00     0.000 C 
BRANCH  19  20
ATOM     20  C   UNL     1      47.849  -3.743  73.288  1.00  0.00     0.006 C 
BRANCH  20  21
ATOM     21  C   UNL     1      48.447  -4.832  72.381  1.00  0.00     0.053 C 
BRANCH  21  22
ATOM     22  C   UNL     1      47.722  -6.137  72.494  1.00  0.00     0.041 C 
ATOM     23  O   UNL     1      48.305  -7.145  72.974  1.00  0.00    -0.550 OA
ATOM     24  O   UNL     1      46.402  -6.239  72.076  1.00  0.00    -0.550 OA
ENDBRANCH  21  22
ENDBRANCH  20  21
ENDBRANCH  19  20
ENDBRANCH  18  19
ENDBRANCH  17  18
ENDBRANCH  16  17
ENDBRANCH  15  16
ENDBRANCH  14  15
ENDBRANCH  13  14
ENDBRANCH   1  13
TORSDOF 20
ENDMDL
MODEL 9
REMARK VINA RESULT:    -3.988      1.627      4.272
REMARK INTER + INTRA:         -12.014
REMARK INTER:                  -8.581
REMARK INTRA:                  -3.433
REMARK UNBOUND:                -3.364
REMARK SMILES CCCCCCCCCCCCCCCCCCCCCC(=O)[O-]
REMARK SMILES IDX 12 1 11 2 10 3 9 4 8 5 7 6 6 7 5 8 4 9 3 10 2 11 1 12 13 13
REMARK SMILES IDX 14 14 15 15 16 16 17 17 18 18 19 19 20 20 21 21 22 22 23 23
REMARK SMILES IDX 24 24
REMARK H PARENT
REMARK Flexibility Score: inf
ROOT
ATOM      1  C   UNL     1      48.564  -3.817  77.570  1.00  0.00     0.000 C 
ENDROOT
BRANCH   1   2
ATOM      2  C   UNL     1      47.305  -3.660  76.706  1.00  0.00     0.000 C 
BRANCH   2   3
ATOM      3  C   UNL     1      47.481  -2.622  75.586  1.00  0.00     0.000 C 
BRANCH   3   4
ATOM      4  C   UNL     1      48.906  -2.051  75.526  1.00  0.00    -0.000 C 
BRANCH   4   5
ATOM      5  C   UNL     1      48.878  -0.517  75.459  1.00  0.00    -0.000 C 
BRANCH   5   6
ATOM      6  C   UNL     1      47.635   0.025  74.734  1.00  0.00    -0.000 C 
BRANCH   6   7
ATOM      7  C   UNL     1      47.916   0.668  73.361  1.00  0.00    -0.000 C 
BRANCH   7   8
ATOM      8  C   UNL     1      48.178  -0.355  72.236  1.00  0.00    -0.000 C 
BRANCH   8   9
ATOM      9  C   UNL     1      49.670  -0.480  71.897  1.00  0.00    -0.000 C 
BRANCH   9  10
ATOM     10  C   UNL     1      50.143  -1.933  72.015  1.00  0.00    -0.000 C 
BRANCH  10  11
ATOM     11  C   UNL     1      51.495  -2.016  72.732  1.00  0.00    -0.003 C 
ATOM     12  C   UNL     1      52.534  -1.128  72.056  1.00  0.00     0.004 C 
ENDBRANCH  10  11
ENDBRANCH   9  10
ENDBRANCH   8   9
ENDBRANCH   7   8
ENDBRANCH   6   7
ENDBRANCH   5   6
ENDBRANCH   4   5
ENDBRANCH   3   4
ENDBRANCH   2   3
ENDBRANCH   1   2
BRANCH   1  13
ATOM     13  C   UNL     1      48.304  -4.765  78.749  1.00  0.00     0.000 C 
BRANCH  13  14
ATOM     14  C   UNL     1      48.130  -6.232  78.313  1.00  0.00     0.000 C 
BRANCH  14  15
ATOM     15  C   UNL     1      49.148  -6.726  77.265  1.00  0.00     0.000 C 
BRANCH  15  16
ATOM     16  C   UNL     1      48.532  -7.228  75.946  1.00  0.00     0.000 C 
BRANCH  16  17
ATOM     17  C   UNL     1      49.452  -6.996  74.735  1.00  0.00     0.000 C 
BRANCH  17  18
ATOM     18  C   UNL     1      49.528  -5.517  74.324  1.00  0.00     0.000 C 
BRANCH  18  19
ATOM     19  C   UNL     1      49.049  -5.282  72.881  1.00  0.00     0.000 C 
BRANCH  19  20
ATOM     20  C   UNL     1      47.559  -4.893  72.800  1.00  0.00     0.006 C 
BRANCH  20  21
ATOM     21  C   UNL     1      46.629  -6.065  72.444  1.00  0.00     0.053 C 
BRANCH  21  22
ATOM     22  C   UNL     1      45.614  -6.338  73.509  1.00  0.00     0.041 C 
ATOM     23  O   UNL     1      45.366  -5.469  74.385  1.00  0.00    -0.550 OA
ATOM     24  O   UNL     1      44.937  -7.551  73.532  1.00  0.00    -0.550 OA
ENDBRANCH  21  22
ENDBRANCH  20  21
ENDBRANCH  19  20
ENDBRANCH  18  19
ENDBRANCH  17  18
ENDBRANCH  16  17
ENDBRANCH  15  16
ENDBRANCH  14  15
ENDBRANCH  13  14
ENDBRANCH   1  13
TORSDOF 20
ENDMDL
