MODEL 1
REMARK VINA RESULT:    -3.330      0.000      0.000
REMARK INTER + INTRA:          -5.917
REMARK INTER:                  -5.082
REMARK INTRA:                  -0.836
REMARK UNBOUND:                -0.836
REMARK SMILES CCCCCCCCCCC(=O)[O-]
REMARK SMILES IDX 7 1 8 2 9 3 10 4 11 5 12 6 13 7 6 8 5 9 4 10 3 11 2 12 1 13
REMARK H PARENT
REMARK Flexibility Score: inf
ROOT
ATOM      1  C   UNL     1       4.370  23.955   8.958  1.00  0.00     0.000 C 
ENDROOT
BRANCH   1   2
ATOM      2  C   UNL     1       4.562  24.236  10.457  1.00  0.00     0.000 C 
BRANCH   2   3
ATOM      3  C   UNL     1       3.229  24.377  11.208  1.00  0.00     0.006 C 
BRANCH   3   4
ATOM      4  C   UNL     1       3.074  25.785  11.789  1.00  0.00     0.053 C 
BRANCH   4   5
ATOM      5  C   UNL     1       3.404  25.788  13.248  1.00  0.00     0.041 C 
ATOM      6  O   UNL     1       2.505  26.006  14.102  1.00  0.00    -0.550 OA
ATOM      7  O   UNL     1       4.697  25.503  13.669  1.00  0.00    -0.550 OA
ENDBRANCH   4   5
ENDBRANCH   3   4
ENDBRANCH   2   3
ENDBRANCH   1   2
BRANCH   1   8
ATOM      8  C   UNL     1       4.950  25.069   8.069  1.00  0.00     0.000 C 
BRANCH   8   9
ATOM      9  C   UNL     1       4.505  24.943   6.604  1.00  0.00    -0.000 C 
BRANCH   9  10
ATOM     10  C   UNL     1       3.024  24.552   6.467  1.00  0.00    -0.000 C 
BRANCH  10  11
ATOM     11  C   UNL     1       2.122  25.773   6.185  1.00  0.00    -0.000 C 
BRANCH  11  12
ATOM     12  C   UNL     1       0.854  25.816   7.054  1.00  0.00    -0.003 C 
ATOM     13  C   UNL     1       1.154  25.863   8.551  1.00  0.00     0.004 C 
ENDBRANCH  11  12
ENDBRANCH  10  11
ENDBRANCH   9  10
ENDBRANCH   8   9
ENDBRANCH   1   8
TORSDOF 9
ENDMDL
MODEL 2
REMARK VINA RESULT:    -3.293      0.877      2.564
REMARK INTER + INTRA:          -5.862
REMARK INTER:                  -4.781
REMARK INTRA:                  -1.081
REMARK UNBOUND:                -0.836
REMARK SMILES CCCCCCCCCCC(=O)[O-]
REMARK SMILES IDX 7 1 8 2 9 3 10 4 11 5 12 6 13 7 6 8 5 9 4 10 3 11 2 12 1 13
REMARK H PARENT
REMARK Flexibility Score: inf
ROOT
ATOM      1  C   UNL     1       1.539  25.820   9.319  1.00  0.00     0.000 C 
ENDROOT
BRANCH   1   2
ATOM      2  C   UNL     1       1.716  24.457  10.006  1.00  0.00     0.000 C 
BRANCH   2   3
ATOM      3  C   UNL     1       2.855  24.457  11.036  1.00  0.00     0.006 C 
BRANCH   3   4
ATOM      4  C   UNL     1       3.063  25.856  11.622  1.00  0.00     0.053 C 
BRANCH   4   5
ATOM      5  C   UNL     1       3.576  25.765  13.025  1.00  0.00     0.041 C 
ATOM      6  O   UNL     1       2.936  26.298  13.969  1.00  0.00    -0.550 OA
ATOM      7  O   UNL     1       4.735  25.050  13.296  1.00  0.00    -0.550 OA
ENDBRANCH   4   5
ENDBRANCH   3   4
ENDBRANCH   2   3
ENDBRANCH   1   2
BRANCH   1   8
ATOM      8  C   UNL     1       0.994  25.693   7.885  1.00  0.00     0.000 C 
BRANCH   8   9
ATOM      9  C   UNL     1       1.783  24.677   7.044  1.00  0.00    -0.000 C 
BRANCH   9  10
ATOM     10  C   UNL     1       2.779  25.351   6.084  1.00  0.00    -0.000 C 
BRANCH  10  11
ATOM     11  C   UNL     1       4.186  24.723   6.168  1.00  0.00    -0.000 C 
BRANCH  11  12
ATOM     12  C   UNL     1       4.603  24.338   7.598  1.00  0.00    -0.003 C 
ATOM     13  C   UNL     1       5.378  25.441   8.315  1.00  0.00     0.004 C 
ENDBRANCH  11  12
ENDBRANCH  10  11
ENDBRANCH   9  10
ENDBRANCH   8   9
ENDBRANCH   1   8
TORSDOF 9
ENDMDL
MODEL 3
REMARK VINA RESULT:    -3.283      0.856      1.216
REMARK INTER + INTRA:          -5.846
REMARK INTER:                  -4.943
REMARK INTRA:                  -0.903
REMARK UNBOUND:                -0.836
REMARK SMILES CCCCCCCCCCC(=O)[O-]
REMARK SMILES IDX 7 1 8 2 9 3 10 4 11 5 12 6 13 7 6 8 5 9 4 10 3 11 2 12 1 13
REMARK H PARENT
REMARK Flexibility Score: inf
ROOT
ATOM      1  C   UNL     1       4.290  24.000   9.143  1.00  0.00     0.000 C 
ENDROOT
BRANCH   1   2
ATOM      2  C   UNL     1       4.048  24.297  10.632  1.00  0.00     0.000 C 
BRANCH   2   3
ATOM      3  C   UNL     1       3.001  25.401  10.851  1.00  0.00     0.006 C 
BRANCH   3   4
ATOM      4  C   UNL     1       2.202  25.149  12.132  1.00  0.00     0.053 C 
BRANCH   4   5
ATOM      5  C   UNL     1       2.759  25.954  13.264  1.00  0.00     0.041 C 
ATOM      6  O   UNL     1       3.611  26.853  13.043  1.00  0.00    -0.550 OA
ATOM      7  O   UNL     1       2.301  25.742  14.558  1.00  0.00    -0.550 OA
ENDBRANCH   4   5
ENDBRANCH   3   4
ENDBRANCH   2   3
ENDBRANCH   1   2
BRANCH   1   8
ATOM      8  C   UNL     1       5.151  25.077   8.458  1.00  0.00     0.000 C 
BRANCH   8   9
ATOM      9  C   UNL     1       4.794  25.258   6.975  1.00  0.00    -0.000 C 
BRANCH   9  10
ATOM     10  C   UNL     1       3.966  24.087   6.418  1.00  0.00    -0.000 C 
BRANCH  10  11
ATOM     11  C   UNL     1       2.640  24.561   5.785  1.00  0.00    -0.000 C 
BRANCH  11  12
ATOM     12  C   UNL     1       2.004  25.757   6.512  1.00  0.00    -0.003 C 
ATOM     13  C   UNL     1       1.045  25.341   7.626  1.00  0.00     0.004 C 
ENDBRANCH  11  12
ENDBRANCH  10  11
ENDBRANCH   9  10
ENDBRANCH   8   9
ENDBRANCH   1   8
TORSDOF 9
ENDMDL
MODEL 4
REMARK VINA RESULT:    -3.148      1.236      2.097
REMARK INTER + INTRA:          -5.639
REMARK INTER:                  -4.784
REMARK INTRA:                  -0.855
REMARK UNBOUND:                -0.836
REMARK SMILES CCCCCCCCCCC(=O)[O-]
REMARK SMILES IDX 7 1 8 2 9 3 10 4 11 5 12 6 13 7 6 8 5 9 4 10 3 11 2 12 1 13
REMARK H PARENT
REMARK Flexibility Score: inf
ROOT
ATOM      1  C   UNL     1       3.041  25.313  10.240  1.00  0.00     0.000 C 
ENDROOT
BRANCH   1   2
ATOM      2  C   UNL     1       1.726  24.557  10.487  1.00  0.00     0.000 C 
BRANCH   2   3
ATOM      3  C   UNL     1       1.206  24.728  11.923  1.00  0.00     0.006 C 
BRANCH   3   4
ATOM      4  C   UNL     1       2.310  24.435  12.943  1.00  0.00     0.053 C 
BRANCH   4   5
ATOM      5  C   UNL     1       2.455  25.577  13.900  1.00  0.00     0.041 C 
ATOM      6  O   UNL     1       3.168  26.569  13.599  1.00  0.00    -0.550 OA
ATOM      7  O   UNL     1       1.762  25.566  15.104  1.00  0.00    -0.550 OA
ENDBRANCH   4   5
ENDBRANCH   3   4
ENDBRANCH   2   3
ENDBRANCH   1   2
BRANCH   1   8
ATOM      8  C   UNL     1       4.165  24.394   9.730  1.00  0.00     0.000 C 
BRANCH   8   9
ATOM      9  C   UNL     1       4.959  25.022   8.574  1.00  0.00    -0.000 C 
BRANCH   9  10
ATOM     10  C   UNL     1       4.758  24.275   7.244  1.00  0.00    -0.000 C 
BRANCH  10  11
ATOM     11  C   UNL     1       3.848  25.053   6.270  1.00  0.00    -0.000 C 
BRANCH  11  12
ATOM     12  C   UNL     1       2.366  24.652   6.361  1.00  0.00    -0.003 C 
ATOM     13  C   UNL     1       1.468  25.783   6.856  1.00  0.00     0.004 C 
ENDBRANCH  11  12
ENDBRANCH  10  11
ENDBRANCH   9  10
ENDBRANCH   8   9
ENDBRANCH   1   8
TORSDOF 9
ENDMDL
MODEL 5
REMARK VINA RESULT:    -3.147      1.212      2.684
REMARK INTER + INTRA:          -5.638
REMARK INTER:                  -4.821
REMARK INTRA:                  -0.817
REMARK UNBOUND:                -0.836
REMARK SMILES CCCCCCCCCCC(=O)[O-]
REMARK SMILES IDX 7 1 8 2 9 3 10 4 11 5 12 6 13 7 6 8 5 9 4 10 3 11 2 12 1 13
REMARK H PARENT
REMARK Flexibility Score: inf
ROOT
ATOM      1  C   UNL     1       2.624  25.581  10.314  1.00  0.00     0.000 C 
ENDROOT
BRANCH   1   2
ATOM      2  C   UNL     1       3.678  24.633  10.910  1.00  0.00     0.000 C 
BRANCH   2   3
ATOM      3  C   UNL     1       3.873  24.840  12.419  1.00  0.00     0.006 C 
BRANCH   3   4
ATOM      4  C   UNL     1       3.156  26.106  12.896  1.00  0.00     0.053 C 
BRANCH   4   5
ATOM      5  C   UNL     1       2.109  25.765  13.909  1.00  0.00     0.041 C 
ATOM      6  O   UNL     1       2.388  25.774  15.136  1.00  0.00    -0.550 OA
ATOM      7  O   UNL     1       0.812  25.484  13.500  1.00  0.00    -0.550 OA
ENDBRANCH   4   5
ENDBRANCH   3   4
ENDBRANCH   2   3
ENDBRANCH   1   2
BRANCH   1   8
ATOM      8  C   UNL     1       1.576  24.840   9.465  1.00  0.00     0.000 C 
BRANCH   8   9
ATOM      9  C   UNL     1       0.794  25.786   8.540  1.00  0.00    -0.000 C 
BRANCH   9  10
ATOM     10  C   UNL     1       1.424  25.897   7.140  1.00  0.00    -0.000 C 
BRANCH  10  11
ATOM     11  C   UNL     1       2.255  24.649   6.774  1.00  0.00    -0.000 C 
BRANCH  11  12
ATOM     12  C   UNL     1       3.675  24.978   6.284  1.00  0.00    -0.003 C 
ATOM     13  C   UNL     1       4.753  24.678   7.324  1.00  0.00     0.004 C 
ENDBRANCH  11  12
ENDBRANCH  10  11
ENDBRANCH   9  10
ENDBRANCH   8   9
ENDBRANCH   1   8
TORSDOF 9
ENDMDL
MODEL 6
REMARK VINA RESULT:    -3.002      2.089      3.763
REMARK INTER + INTRA:          -5.418
REMARK INTER:                  -4.995
REMARK INTRA:                  -0.423
REMARK UNBOUND:                -0.836
REMARK SMILES CCCCCCCCCCC(=O)[O-]
REMARK SMILES IDX 7 1 8 2 9 3 10 4 11 5 12 6 13 7 6 8 5 9 4 10 3 11 2 12 1 13
REMARK H PARENT
REMARK Flexibility Score: inf
ROOT
ATOM      1  C   UNL     1       4.230  24.887  12.956  1.00  0.00     0.000 C 
ENDROOT
BRANCH   1   2
ATOM      2  C   UNL     1       3.060  25.848  13.224  1.00  0.00     0.000 C 
BRANCH   2   3
ATOM      3  C   UNL     1       2.577  25.798  14.682  1.00  0.00     0.006 C 
BRANCH   3   4
ATOM      4  C   UNL     1       1.877  24.470  14.981  1.00  0.00     0.053 C 
BRANCH   4   5
ATOM      5  C   UNL     1       0.408  24.683  15.172  1.00  0.00     0.041 C 
ATOM      6  O   UNL     1      -0.101  24.599  16.320  1.00  0.00    -0.550 OA
ATOM      7  O   UNL     1      -0.390  25.023  14.087  1.00  0.00    -0.550 OA
ENDBRANCH   4   5
ENDBRANCH   3   4
ENDBRANCH   2   3
ENDBRANCH   1   2
BRANCH   1   8
ATOM      8  C   UNL     1       4.120  24.190  11.588  1.00  0.00     0.000 C 
BRANCH   8   9
ATOM      9  C   UNL     1       3.436  25.072  10.532  1.00  0.00    -0.000 C 
BRANCH   9  10
ATOM     10  C   UNL     1       3.482  24.452   9.125  1.00  0.00    -0.000 C 
BRANCH  10  11
ATOM     11  C   UNL     1       4.766  24.839   8.359  1.00  0.00    -0.000 C 
BRANCH  11  12
ATOM     12  C   UNL     1       4.539  25.068   6.856  1.00  0.00    -0.003 C 
ATOM     13  C   UNL     1       3.062  25.126   6.473  1.00  0.00     0.004 C 
ENDBRANCH  11  12
ENDBRANCH  10  11
ENDBRANCH   9  10
ENDBRANCH   8   9
ENDBRANCH   1   8
TORSDOF 9
ENDMDL
MODEL 7
REMARK VINA RESULT:    -2.997      3.546      5.232
REMARK INTER + INTRA:          -5.410
REMARK INTER:                  -4.250
REMARK INTRA:                  -1.160
REMARK UNBOUND:                -0.836
REMARK SMILES CCCCCCCCCCC(=O)[O-]
REMARK SMILES IDX 7 1 8 2 9 3 10 4 11 5 12 6 13 7 6 8 5 9 4 10 3 11 2 12 1 13
REMARK H PARENT
REMARK Flexibility Score: inf
ROOT
ATOM      1  C   UNL     1       4.542  25.044   6.658  1.00  0.00     0.000 C 
ENDROOT
BRANCH   1   2
ATOM      2  C   UNL     1       3.432  24.001   6.450  1.00  0.00     0.000 C 
BRANCH   2   3
ATOM      3  C   UNL     1       2.245  24.554   5.647  1.00  0.00     0.006 C 
BRANCH   3   4
ATOM      4  C   UNL     1       1.690  25.826   6.294  1.00  0.00     0.053 C 
BRANCH   4   5
ATOM      5  C   UNL     1       0.198  25.856   6.196  1.00  0.00     0.041 C 
ATOM      6  O   UNL     1      -0.448  26.834   6.656  1.00  0.00    -0.550 OA
ATOM      7  O   UNL     1      -0.477  24.826   5.554  1.00  0.00    -0.550 OA
ENDBRANCH   4   5
ENDBRANCH   3   4
ENDBRANCH   2   3
ENDBRANCH   1   2
BRANCH   1   8
ATOM      8  C   UNL     1       5.068  25.066   8.105  1.00  0.00     0.000 C 
BRANCH   8   9
ATOM      9  C   UNL     1       4.358  24.042   9.004  1.00  0.00    -0.000 C 
BRANCH   9  10
ATOM     10  C   UNL     1       3.793  24.674  10.287  1.00  0.00    -0.000 C 
BRANCH  10  11
ATOM     11  C   UNL     1       2.435  25.367  10.046  1.00  0.00    -0.000 C 
BRANCH  11  12
ATOM     12  C   UNL     1       1.305  24.393   9.672  1.00  0.00    -0.003 C 
ATOM     13  C   UNL     1      -0.087  25.007   9.810  1.00  0.00     0.004 C 
ENDBRANCH  11  12
ENDBRANCH  10  11
ENDBRANCH   9  10
ENDBRANCH   8   9
ENDBRANCH   1   8
TORSDOF 9
ENDMDL
MODEL 8
REMARK VINA RESULT:    -2.946      3.235      5.383
REMARK INTER + INTRA:          -5.331
REMARK INTER:                  -4.446
REMARK INTRA:                  -0.885
REMARK UNBOUND:                -0.836
REMARK SMILES CCCCCCCCCCC(=O)[O-]
REMARK SMILES IDX 7 1 8 2 9 3 10 4 11 5 12 6 13 7 6 8 5 9 4 10 3 11 2 12 1 13
REMARK H PARENT
REMARK Flexibility Score: inf
ROOT
ATOM      1  C   UNL     1       4.774  25.274   7.020  1.00  0.00     0.000 C 
ENDROOT
BRANCH   1   2
ATOM      2  C   UNL     1       4.393  24.014   6.226  1.00  0.00     0.000 C 
BRANCH   2   3
ATOM      3  C   UNL     1       2.988  24.105   5.611  1.00  0.00     0.006 C 
BRANCH   3   4
ATOM      4  C   UNL     1       2.385  25.495   5.827  1.00  0.00     0.053 C 
BRANCH   4   5
ATOM      5  C   UNL     1       0.978  25.385   6.326  1.00  0.00     0.041 C 
ATOM      6  O   UNL     1       0.223  24.474   5.896  1.00  0.00    -0.550 OA
ATOM      7  O   UNL     1       0.517  26.259   7.302  1.00  0.00    -0.550 OA
ENDBRANCH   4   5
ENDBRANCH   3   4
ENDBRANCH   2   3
ENDBRANCH   1   2
BRANCH   1   8
ATOM      8  C   UNL     1       5.083  24.970   8.497  1.00  0.00     0.000 C 
BRANCH   8   9
ATOM      9  C   UNL     1       4.100  23.959   9.108  1.00  0.00    -0.000 C 
BRANCH   9  10
ATOM     10  C   UNL     1       2.779  24.611   9.548  1.00  0.00    -0.000 C 
BRANCH  10  11
ATOM     11  C   UNL     1       2.973  25.578  10.736  1.00  0.00    -0.000 C 
BRANCH  11  12
ATOM     12  C   UNL     1       2.921  24.885  12.108  1.00  0.00    -0.003 C 
ATOM     13  C   UNL     1       4.296  24.723  12.751  1.00  0.00     0.004 C 
ENDBRANCH  11  12
ENDBRANCH  10  11
ENDBRANCH   9  10
ENDBRANCH   8   9
ENDBRANCH   1   8
TORSDOF 9
ENDMDL
MODEL 9
REMARK VINA RESULT:    -2.877      3.094      5.704
REMARK INTER + INTRA:          -5.226
REMARK INTER:                  -4.731
REMARK INTRA:                  -0.495
REMARK UNBOUND:                -0.836
REMARK SMILES CCCCCCCCCCC(=O)[O-]
REMARK SMILES IDX 7 1 8 2 9 3 10 4 11 5 12 6 13 7 6 8 5 9 4 10 3 11 2 12 1 13
REMARK H PARENT
REMARK Flexibility Score: inf
ROOT
ATOM      1  C   UNL     1       4.913  25.072   8.467  1.00  0.00     0.000 C 
ENDROOT
BRANCH   1   2
ATOM      2  C   UNL     1       4.626  24.591   7.036  1.00  0.00     0.000 C 
BRANCH   2   3
ATOM      3  C   UNL     1       3.132  24.335   6.786  1.00  0.00     0.006 C 
BRANCH   3   4
ATOM      4  C   UNL     1       2.478  25.538   6.101  1.00  0.00     0.053 C 
BRANCH   4   5
ATOM      5  C   UNL     1       1.132  25.811   6.695  1.00  0.00     0.041 C 
ATOM      6  O   UNL     1       1.026  26.118   7.912  1.00  0.00    -0.550 OA
ATOM      7  O   UNL     1      -0.002  25.774   5.893  1.00  0.00    -0.550 OA
ENDBRANCH   4   5
ENDBRANCH   3   4
ENDBRANCH   2   3
ENDBRANCH   1   2
BRANCH   1   8
ATOM      8  C   UNL     1       4.074  24.326   9.520  1.00  0.00     0.000 C 
BRANCH   8   9
ATOM      9  C   UNL     1       3.230  25.278  10.381  1.00  0.00    -0.000 C 
BRANCH   9  10
ATOM     10  C   UNL     1       3.175  24.849  11.858  1.00  0.00    -0.000 C 
BRANCH  10  11
ATOM     11  C   UNL     1       3.318  26.049  12.819  1.00  0.00    -0.000 C 
BRANCH  11  12
ATOM     12  C   UNL     1       2.547  25.875  14.138  1.00  0.00    -0.003 C 
ATOM     13  C   UNL     1       2.273  24.413  14.485  1.00  0.00     0.004 C 
ENDBRANCH  11  12
ENDBRANCH  10  11
ENDBRANCH   9  10
ENDBRANCH   8   9
ENDBRANCH   1   8
TORSDOF 9
ENDMDL
