MODEL 1
REMARK VINA RESULT:    -3.446      0.000      0.000
REMARK INTER + INTRA:          -3.943
REMARK INTER:                  -3.950
REMARK INTRA:                   0.007
REMARK UNBOUND:                 0.007
REMARK SMILES CC(C)[C@@H]([NH3+])C(=O)[O-]
REMARK SMILES IDX 4 1 5 2 6 6 7 7 8 8 2 9 1 10 3 11
REMARK H PARENT 5 3 5 4 5 5
REMARK Flexibility Score: inf
ROOT
ATOM      1  C   UNL     1      24.701  29.047  27.439  1.00  0.00     0.230 C 
ENDROOT
BRANCH   1   2
ATOM      2  N   UNL     1      25.842  28.280  26.919  1.00  0.00    -0.350 N 
ATOM      3  H   UNL     1      26.730  28.615  27.357  1.00  0.00     0.345 HD
ATOM      4  H   UNL     1      25.732  27.257  27.105  1.00  0.00     0.345 HD
ATOM      5  H   UNL     1      25.916  28.423  25.886  1.00  0.00     0.345 HD
ENDBRANCH   1   2
BRANCH   1   6
ATOM      6  C   UNL     1      23.793  29.482  26.313  1.00  0.00     0.099 C 
ATOM      7  O   UNL     1      23.959  29.016  25.156  1.00  0.00    -0.544 OA
ATOM      8  O   UNL     1      22.790  30.419  26.533  1.00  0.00    -0.544 OA
ENDBRANCH   1   6
BRANCH   1   9
ATOM      9  C   UNL     1      23.942  28.268  28.556  1.00  0.00     0.047 C 
ATOM     10  C   UNL     1      22.712  27.500  28.044  1.00  0.00     0.014 C 
ATOM     11  C   UNL     1      23.541  29.197  29.711  1.00  0.00     0.014 C 
ENDBRANCH   1   9
TORSDOF 3
ENDMDL
MODEL 2
REMARK VINA RESULT:    -3.367      1.237      1.644
REMARK INTER + INTRA:          -3.852
REMARK INTER:                  -3.775
REMARK INTRA:                  -0.076
REMARK UNBOUND:                 0.007
REMARK SMILES CC(C)[C@@H]([NH3+])C(=O)[O-]
REMARK SMILES IDX 4 1 5 2 6 6 7 7 8 8 2 9 1 10 3 11
REMARK H PARENT 5 3 5 4 5 5
REMARK Flexibility Score: inf
ROOT
ATOM      1  C   UNL     1      24.499  28.820  26.759  1.00  0.00     0.230 C 
ENDROOT
BRANCH   1   2
ATOM      2  N   UNL     1      25.835  28.264  27.018  1.00  0.00    -0.350 N 
ATOM      3  H   UNL     1      26.139  28.499  27.991  1.00  0.00     0.345 HD
ATOM      4  H   UNL     1      25.848  27.227  26.896  1.00  0.00     0.345 HD
ATOM      5  H   UNL     1      26.523  28.686  26.353  1.00  0.00     0.345 HD
ENDBRANCH   1   2
BRANCH   1   6
ATOM      6  C   UNL     1      23.948  28.296  25.454  1.00  0.00     0.099 C 
ATOM      7  O   UNL     1      23.795  29.075  24.477  1.00  0.00    -0.544 OA
ATOM      8  O   UNL     1      23.578  26.962  25.326  1.00  0.00    -0.544 OA
ENDBRANCH   1   6
BRANCH   1   9
ATOM      9  C   UNL     1      23.532  28.580  27.959  1.00  0.00     0.047 C 
ATOM     10  C   UNL     1      22.124  29.161  27.741  1.00  0.00     0.014 C 
ATOM     11  C   UNL     1      24.125  29.115  29.270  1.00  0.00     0.014 C 
ENDBRANCH   1   9
TORSDOF 3
ENDMDL
MODEL 3
REMARK VINA RESULT:    -3.277      2.039      3.085
REMARK INTER + INTRA:          -3.749
REMARK INTER:                  -3.834
REMARK INTRA:                   0.086
REMARK UNBOUND:                 0.007
REMARK SMILES CC(C)[C@@H]([NH3+])C(=O)[O-]
REMARK SMILES IDX 4 1 5 2 6 6 7 7 8 8 2 9 1 10 3 11
REMARK H PARENT 5 3 5 4 5 5
REMARK Flexibility Score: inf
ROOT
ATOM      1  C   UNL     1      24.460  28.259  27.025  1.00  0.00     0.230 C 
ENDROOT
BRANCH   1   2
ATOM      2  N   UNL     1      25.928  28.216  27.081  1.00  0.00    -0.350 N 
ATOM      3  H   UNL     1      26.272  28.762  27.904  1.00  0.00     0.345 HD
ATOM      4  H   UNL     1      26.280  27.235  27.148  1.00  0.00     0.345 HD
ATOM      5  H   UNL     1      26.323  28.652  26.216  1.00  0.00     0.345 HD
ENDBRANCH   1   2
BRANCH   1   6
ATOM      6  C   UNL     1      23.877  28.367  28.415  1.00  0.00     0.099 C 
ATOM      7  O   UNL     1      22.908  27.638  28.749  1.00  0.00    -0.544 OA
ATOM      8  O   UNL     1      24.381  29.289  29.324  1.00  0.00    -0.544 OA
ENDBRANCH   1   6
BRANCH   1   9
ATOM      9  C   UNL     1      23.951  29.382  26.071  1.00  0.00     0.047 C 
ATOM     10  C   UNL     1      22.690  30.100  26.581  1.00  0.00     0.014 C 
ATOM     11  C   UNL     1      23.712  28.844  24.652  1.00  0.00     0.014 C 
ENDBRANCH   1   9
TORSDOF 3
ENDMDL
MODEL 4
REMARK VINA RESULT:    -3.169      1.798      2.335
REMARK INTER + INTRA:          -3.625
REMARK INTER:                  -3.578
REMARK INTRA:                  -0.046
REMARK UNBOUND:                 0.007
REMARK SMILES CC(C)[C@@H]([NH3+])C(=O)[O-]
REMARK SMILES IDX 4 1 5 2 6 6 7 7 8 8 2 9 1 10 3 11
REMARK H PARENT 5 3 5 4 5 5
REMARK Flexibility Score: inf
ROOT
ATOM      1  C   UNL     1      23.403  29.931  26.882  1.00  0.00     0.230 C 
ENDROOT
BRANCH   1   2
ATOM      2  N   UNL     1      24.038  29.869  25.558  1.00  0.00    -0.350 N 
ATOM      3  H   UNL     1      24.574  28.977  25.458  1.00  0.00     0.345 HD
ATOM      4  H   UNL     1      23.332  29.933  24.791  1.00  0.00     0.345 HD
ATOM      5  H   UNL     1      24.711  30.664  25.457  1.00  0.00     0.345 HD
ENDBRANCH   1   2
BRANCH   1   6
ATOM      6  C   UNL     1      21.904  30.069  26.747  1.00  0.00     0.099 C 
ATOM      7  O   UNL     1      21.206  29.070  26.433  1.00  0.00    -0.544 OA
ATOM      8  O   UNL     1      21.286  31.299  26.939  1.00  0.00    -0.544 OA
ENDBRANCH   1   6
BRANCH   1   9
ATOM      9  C   UNL     1      23.817  28.725  27.779  1.00  0.00     0.047 C 
ATOM     10  C   UNL     1      24.074  29.107  29.246  1.00  0.00     0.014 C 
ATOM     11  C   UNL     1      25.040  27.996  27.203  1.00  0.00     0.014 C 
ENDBRANCH   1   9
TORSDOF 3
ENDMDL
MODEL 5
REMARK VINA RESULT:    -3.115      1.689      1.973
REMARK INTER + INTRA:          -3.563
REMARK INTER:                  -3.516
REMARK INTRA:                  -0.047
REMARK UNBOUND:                 0.007
REMARK SMILES CC(C)[C@@H]([NH3+])C(=O)[O-]
REMARK SMILES IDX 4 1 5 2 6 6 7 7 8 8 2 9 1 10 3 11
REMARK H PARENT 5 3 5 4 5 5
REMARK Flexibility Score: inf
ROOT
ATOM      1  C   UNL     1      23.055  28.946  26.822  1.00  0.00     0.230 C 
ENDROOT
BRANCH   1   2
ATOM      2  N   UNL     1      23.497  30.345  26.917  1.00  0.00    -0.350 N 
ATOM      3  H   UNL     1      22.813  30.971  26.432  1.00  0.00     0.345 HD
ATOM      4  H   UNL     1      23.595  30.649  27.911  1.00  0.00     0.345 HD
ATOM      5  H   UNL     1      24.424  30.451  26.444  1.00  0.00     0.345 HD
ENDBRANCH   1   2
BRANCH   1   6
ATOM      6  C   UNL     1      23.573  28.309  25.554  1.00  0.00     0.099 C 
ATOM      7  O   UNL     1      23.874  29.027  24.566  1.00  0.00    -0.544 OA
ATOM      8  O   UNL     1      23.693  26.927  25.454  1.00  0.00    -0.544 OA
ENDBRANCH   1   6
BRANCH   1   9
ATOM      9  C   UNL     1      23.432  28.135  28.099  1.00  0.00     0.047 C 
ATOM     10  C   UNL     1      22.253  27.353  28.703  1.00  0.00     0.014 C 
ATOM     11  C   UNL     1      24.067  29.037  29.167  1.00  0.00     0.014 C 
ENDBRANCH   1   9
TORSDOF 3
ENDMDL
MODEL 6
REMARK VINA RESULT:    -3.088      1.812      2.040
REMARK INTER + INTRA:          -3.532
REMARK INTER:                  -3.529
REMARK INTRA:                  -0.003
REMARK UNBOUND:                 0.007
REMARK SMILES CC(C)[C@@H]([NH3+])C(=O)[O-]
REMARK SMILES IDX 4 1 5 2 6 6 7 7 8 8 2 9 1 10 3 11
REMARK H PARENT 5 3 5 4 5 5
REMARK Flexibility Score: inf
ROOT
ATOM      1  C   UNL     1      23.560  29.959  26.882  1.00  0.00     0.230 C 
ENDROOT
BRANCH   1   2
ATOM      2  N   UNL     1      24.000  29.878  25.481  1.00  0.00    -0.350 N 
ATOM      3  H   UNL     1      23.236  29.482  24.887  1.00  0.00     0.345 HD
ATOM      4  H   UNL     1      24.270  30.817  25.110  1.00  0.00     0.345 HD
ATOM      5  H   UNL     1      24.827  29.243  25.412  1.00  0.00     0.345 HD
ENDBRANCH   1   2
BRANCH   1   6
ATOM      6  C   UNL     1      22.159  29.414  27.032  1.00  0.00     0.099 C 
ATOM      7  O   UNL     1      21.861  28.298  26.533  1.00  0.00    -0.544 OA
ATOM      8  O   UNL     1      21.182  30.147  27.695  1.00  0.00    -0.544 OA
ENDBRANCH   1   6
BRANCH   1   9
ATOM      9  C   UNL     1      24.577  29.277  27.846  1.00  0.00     0.047 C 
ATOM     10  C   UNL     1      25.112  27.931  27.328  1.00  0.00     0.014 C 
ATOM     11  C   UNL     1      23.983  29.102  29.252  1.00  0.00     0.014 C 
ENDBRANCH   1   9
TORSDOF 3
ENDMDL
MODEL 7
REMARK VINA RESULT:    -2.812      1.860      2.183
REMARK INTER + INTRA:          -3.216
REMARK INTER:                  -3.148
REMARK INTRA:                  -0.068
REMARK UNBOUND:                 0.007
REMARK SMILES CC(C)[C@@H]([NH3+])C(=O)[O-]
REMARK SMILES IDX 4 1 5 2 6 6 7 7 8 8 2 9 1 10 3 11
REMARK H PARENT 5 3 5 4 5 5
REMARK Flexibility Score: inf
ROOT
ATOM      1  C   UNL     1      23.183  29.123  28.531  1.00  0.00     0.230 C 
ENDROOT
BRANCH   1   2
ATOM      2  N   UNL     1      23.971  29.549  29.697  1.00  0.00    -0.350 N 
ATOM      3  H   UNL     1      23.854  28.865  30.479  1.00  0.00     0.345 HD
ATOM      4  H   UNL     1      24.986  29.632  29.463  1.00  0.00     0.345 HD
ATOM      5  H   UNL     1      23.630  30.480  30.027  1.00  0.00     0.345 HD
ENDBRANCH   1   2
BRANCH   1   6
ATOM      6  C   UNL     1      23.984  29.279  27.260  1.00  0.00     0.099 C 
ATOM      7  O   UNL     1      23.541  29.988  26.319  1.00  0.00    -0.544 OA
ATOM      8  O   UNL     1      25.200  28.623  27.104  1.00  0.00    -0.544 OA
ENDBRANCH   1   6
BRANCH   1   9
ATOM      9  C   UNL     1      22.618  27.681  28.712  1.00  0.00     0.047 C 
ATOM     10  C   UNL     1      21.620  27.268  27.617  1.00  0.00     0.014 C 
ATOM     11  C   UNL     1      21.983  27.500  30.099  1.00  0.00     0.014 C 
ENDBRANCH   1   9
TORSDOF 3
ENDMDL
MODEL 8
REMARK VINA RESULT:    -2.750      2.793      2.985
REMARK INTER + INTRA:          -3.145
REMARK INTER:                  -3.089
REMARK INTRA:                  -0.056
REMARK UNBOUND:                 0.007
REMARK SMILES CC(C)[C@@H]([NH3+])C(=O)[O-]
REMARK SMILES IDX 4 1 5 2 6 6 7 7 8 8 2 9 1 10 3 11
REMARK H PARENT 5 3 5 4 5 5
REMARK Flexibility Score: inf
ROOT
ATOM      1  C   UNL     1      22.725  29.440  27.458  1.00  0.00     0.230 C 
ENDROOT
BRANCH   1   2
ATOM      2  N   UNL     1      23.192  30.575  26.649  1.00  0.00    -0.350 N 
ATOM      3  H   UNL     1      23.540  30.236  25.723  1.00  0.00     0.345 HD
ATOM      4  H   UNL     1      22.431  31.274  26.495  1.00  0.00     0.345 HD
ATOM      5  H   UNL     1      23.985  31.050  27.139  1.00  0.00     0.345 HD
ENDBRANCH   1   2
BRANCH   1   6
ATOM      6  C   UNL     1      23.860  28.864  28.273  1.00  0.00     0.099 C 
ATOM      7  O   UNL     1      24.588  27.960  27.786  1.00  0.00    -0.544 OA
ATOM      8  O   UNL     1      24.093  29.302  29.571  1.00  0.00    -0.544 OA
ENDBRANCH   1   6
BRANCH   1   9
ATOM      9  C   UNL     1      21.492  29.822  28.332  1.00  0.00     0.047 C 
ATOM     10  C   UNL     1      20.545  28.643  28.611  1.00  0.00     0.014 C 
ATOM     11  C   UNL     1      20.711  30.992  27.715  1.00  0.00     0.014 C 
ENDBRANCH   1   9
TORSDOF 3
ENDMDL
MODEL 9
REMARK VINA RESULT:    -1.116     10.308     10.893
REMARK INTER + INTRA:          -1.272
REMARK INTER:                  -1.250
REMARK INTRA:                  -0.022
REMARK UNBOUND:                 0.007
REMARK SMILES CC(C)[C@@H]([NH3+])C(=O)[O-]
REMARK SMILES IDX 4 1 5 2 6 6 7 7 8 8 2 9 1 10 3 11
REMARK H PARENT 5 3 5 4 5 5
REMARK Flexibility Score: inf
ROOT
ATOM      1  C   UNL     1      29.038  29.947  18.117  1.00  0.00     0.230 C 
ENDROOT
BRANCH   1   2
ATOM      2  N   UNL     1      27.947  30.690  18.765  1.00  0.00    -0.350 N 
ATOM      3  H   UNL     1      27.218  30.027  19.113  1.00  0.00     0.345 HD
ATOM      4  H   UNL     1      28.298  31.265  19.564  1.00  0.00     0.345 HD
ATOM      5  H   UNL     1      27.498  31.328  18.068  1.00  0.00     0.345 HD
ENDBRANCH   1   2
BRANCH   1   6
ATOM      6  C   UNL     1      29.698  30.790  17.051  1.00  0.00     0.099 C 
ATOM      7  O   UNL     1      30.002  30.278  15.943  1.00  0.00    -0.544 OA
ATOM      8  O   UNL     1      30.002  32.125  17.292  1.00  0.00    -0.544 OA
ENDBRANCH   1   6
BRANCH   1   9
ATOM      9  C   UNL     1      30.056  29.391  19.159  1.00  0.00     0.047 C 
ATOM     10  C   UNL     1      29.628  28.053  19.786  1.00  0.00     0.014 C 
ATOM     11  C   UNL     1      30.346  30.420  20.261  1.00  0.00     0.014 C 
ENDBRANCH   1   9
TORSDOF 3
ENDMDL
