MODEL 1
REMARK VINA RESULT:    -5.623      0.000      0.000
REMARK INTER + INTRA:          -8.168
REMARK INTER:                  -7.596
REMARK INTRA:                  -0.572
REMARK UNBOUND:                -0.572
REMARK SMILES CC(=O)CCC=C(C)CCC=C(C)C
REMARK SMILES IDX 7 1 6 2 8 3 9 4 10 5 11 6 13 7 12 8 14 9 5 10 4 11 2 12 3 13
REMARK SMILES IDX 1 14
REMARK H PARENT
REMARK Flexibility Score: inf
ROOT
ATOM      1  C   UNL     1      21.363  28.255  37.013  1.00  0.00    -0.077 C 
ATOM      2  C   UNL     1      20.487  29.070  36.382  1.00  0.00    -0.028 C 
ATOM      3  C   UNL     1      21.084  26.783  37.208  1.00  0.00     0.039 C 
ENDROOT
BRANCH   1   4
ATOM      4  C   UNL     1      22.667  28.832  37.522  1.00  0.00     0.034 C 
BRANCH   4   5
ATOM      5  C   UNL     1      22.547  29.237  38.995  1.00  0.00     0.032 C 
BRANCH   5   6
ATOM      6  C   UNL     1      23.717  28.725  39.800  1.00  0.00    -0.028 C 
ATOM      7  C   UNL     1      24.809  27.481  41.619  1.00  0.00     0.039 C 
ATOM      8  C   UNL     1      23.573  27.936  40.886  1.00  0.00    -0.080 C 
ATOM      9  C   UNL     1      22.210  27.505  41.376  1.00  0.00     0.039 C 
ENDBRANCH   5   6
ENDBRANCH   4   5
ENDBRANCH   1   4
BRANCH   2  10
ATOM     10  C   UNL     1      19.140  28.635  35.858  1.00  0.00     0.035 C 
BRANCH  10  11
ATOM     11  C   UNL     1      18.017  29.117  36.782  1.00  0.00     0.079 C 
BRANCH  11  12
ATOM     12  C   UNL     1      16.798  29.494  35.986  1.00  0.00     0.130 C 
ATOM     13  O   UNL     1      16.787  29.325  34.775  1.00  0.00    -0.300 OA
ATOM     14  C   UNL     1      15.604  30.095  36.664  1.00  0.00     0.087 C 
ENDBRANCH  11  12
ENDBRANCH  10  11
ENDBRANCH   2  10
TORSDOF 6
ENDMDL
MODEL 2
REMARK VINA RESULT:    -5.423      2.452      4.035
REMARK INTER + INTRA:          -7.898
REMARK INTER:                  -7.221
REMARK INTRA:                  -0.678
REMARK UNBOUND:                -0.572
REMARK SMILES CC(=O)CCC=C(C)CCC=C(C)C
REMARK SMILES IDX 7 1 6 2 8 3 9 4 10 5 11 6 13 7 12 8 14 9 5 10 4 11 2 12 3 13
REMARK SMILES IDX 1 14
REMARK H PARENT
REMARK Flexibility Score: inf
ROOT
ATOM      1  C   UNL     1      23.618  28.531  39.704  1.00  0.00    -0.077 C 
ATOM      2  C   UNL     1      23.473  29.256  38.571  1.00  0.00    -0.028 C 
ATOM      3  C   UNL     1      22.440  27.884  40.394  1.00  0.00     0.039 C 
ENDROOT
BRANCH   1   4
ATOM      4  C   UNL     1      25.004  28.348  40.285  1.00  0.00     0.034 C 
BRANCH   4   5
ATOM      5  C   UNL     1      24.934  27.691  41.668  1.00  0.00     0.032 C 
BRANCH   5   6
ATOM      6  C   UNL     1      26.167  26.867  41.945  1.00  0.00    -0.028 C 
ATOM      7  C   UNL     1      27.413  24.885  42.700  1.00  0.00     0.039 C 
ATOM      8  C   UNL     1      26.119  25.620  42.461  1.00  0.00    -0.080 C 
ATOM      9  C   UNL     1      24.806  24.955  42.799  1.00  0.00     0.039 C 
ENDBRANCH   5   6
ENDBRANCH   4   5
ENDBRANCH   1   4
BRANCH   2  10
ATOM     10  C   UNL     1      22.149  29.546  37.906  1.00  0.00     0.035 C 
BRANCH  10  11
ATOM     11  C   UNL     1      22.059  28.842  36.548  1.00  0.00     0.079 C 
BRANCH  11  12
ATOM     12  C   UNL     1      20.868  27.924  36.502  1.00  0.00     0.130 C 
ATOM     13  O   UNL     1      19.892  28.229  35.832  1.00  0.00    -0.300 OA
ATOM     14  C   UNL     1      20.861  26.649  37.290  1.00  0.00     0.087 C 
ENDBRANCH  11  12
ENDBRANCH  10  11
ENDBRANCH   2  10
TORSDOF 6
ENDMDL
MODEL 3
REMARK VINA RESULT:    -5.352      3.807      7.548
REMARK INTER + INTRA:          -7.801
REMARK INTER:                  -7.236
REMARK INTRA:                  -0.565
REMARK UNBOUND:                -0.572
REMARK SMILES CC(=O)CCC=C(C)CCC=C(C)C
REMARK SMILES IDX 7 1 6 2 8 3 9 4 10 5 11 6 13 7 12 8 14 9 5 10 4 11 2 12 3 13
REMARK SMILES IDX 1 14
REMARK H PARENT
REMARK Flexibility Score: inf
ROOT
ATOM      1  C   UNL     1      24.327  29.863  39.220  1.00  0.00    -0.077 C 
ATOM      2  C   UNL     1      24.381  28.626  39.763  1.00  0.00    -0.028 C 
ATOM      3  C   UNL     1      25.451  30.859  39.390  1.00  0.00     0.039 C 
ENDROOT
BRANCH   1   4
ATOM      4  C   UNL     1      23.113  30.254  38.404  1.00  0.00     0.034 C 
BRANCH   4   5
ATOM      5  C   UNL     1      21.904  29.389  38.775  1.00  0.00     0.032 C 
BRANCH   5   6
ATOM      6  C   UNL     1      20.858  29.417  37.687  1.00  0.00    -0.028 C 
ATOM      7  C   UNL     1      19.465  28.468  35.896  1.00  0.00     0.039 C 
ATOM      8  C   UNL     1      20.523  28.329  36.960  1.00  0.00    -0.080 C 
ATOM      9  C   UNL     1      21.183  26.991  37.191  1.00  0.00     0.039 C 
ENDBRANCH   5   6
ENDBRANCH   4   5
ENDBRANCH   1   4
BRANCH   2  10
ATOM     10  C   UNL     1      25.512  28.119  40.625  1.00  0.00     0.035 C 
BRANCH  10  11
ATOM     11  C   UNL     1      24.972  27.301  41.802  1.00  0.00     0.079 C 
BRANCH  11  12
ATOM     12  C   UNL     1      25.847  26.105  42.064  1.00  0.00     0.130 C 
ATOM     13  O   UNL     1      26.890  25.967  41.441  1.00  0.00    -0.300 OA
ATOM     14  C   UNL     1      25.439  25.071  43.070  1.00  0.00     0.087 C 
ENDBRANCH  11  12
ENDBRANCH  10  11
ENDBRANCH   2  10
TORSDOF 6
ENDMDL
MODEL 4
REMARK VINA RESULT:    -5.279      2.258      3.597
REMARK INTER + INTRA:          -7.704
REMARK INTER:                  -6.638
REMARK INTRA:                  -1.065
REMARK UNBOUND:                -0.572
REMARK SMILES CC(=O)CCC=C(C)CCC=C(C)C
REMARK SMILES IDX 7 1 6 2 8 3 9 4 10 5 11 6 13 7 12 8 14 9 5 10 4 11 2 12 3 13
REMARK SMILES IDX 1 14
REMARK H PARENT
REMARK Flexibility Score: inf
ROOT
ATOM      1  C   UNL     1      19.063  29.087  36.480  1.00  0.00    -0.077 C 
ATOM      2  C   UNL     1      19.281  30.102  37.347  1.00  0.00    -0.028 C 
ATOM      3  C   UNL     1      18.023  29.182  35.387  1.00  0.00     0.039 C 
ENDROOT
BRANCH   1   4
ATOM      4  C   UNL     1      19.897  27.829  36.596  1.00  0.00     0.034 C 
BRANCH   4   5
ATOM      5  C   UNL     1      21.386  28.170  36.719  1.00  0.00     0.032 C 
BRANCH   5   6
ATOM      6  C   UNL     1      21.924  27.789  38.076  1.00  0.00    -0.028 C 
ATOM      7  C   UNL     1      23.043  28.179  40.232  1.00  0.00     0.039 C 
ATOM      8  C   UNL     1      22.542  28.666  38.897  1.00  0.00    -0.080 C 
ATOM      9  C   UNL     1      22.738  30.111  38.504  1.00  0.00     0.039 C 
ENDBRANCH   5   6
ENDBRANCH   4   5
ENDBRANCH   1   4
BRANCH   2  10
ATOM     10  C   UNL     1      18.501  31.393  37.366  1.00  0.00     0.035 C 
BRANCH  10  11
ATOM     11  C   UNL     1      19.422  32.588  37.097  1.00  0.00     0.079 C 
BRANCH  11  12
ATOM     12  C   UNL     1      20.097  32.448  35.760  1.00  0.00     0.130 C 
ATOM     13  O   UNL     1      19.430  32.483  34.736  1.00  0.00    -0.300 OA
ATOM     14  C   UNL     1      21.580  32.247  35.675  1.00  0.00     0.087 C 
ENDBRANCH  11  12
ENDBRANCH  10  11
ENDBRANCH   2  10
TORSDOF 6
ENDMDL
MODEL 5
REMARK VINA RESULT:    -5.232      1.479      2.309
REMARK INTER + INTRA:          -7.639
REMARK INTER:                  -6.930
REMARK INTRA:                  -0.710
REMARK UNBOUND:                -0.572
REMARK SMILES CC(=O)CCC=C(C)CCC=C(C)C
REMARK SMILES IDX 7 1 6 2 8 3 9 4 10 5 11 6 13 7 12 8 14 9 5 10 4 11 2 12 3 13
REMARK SMILES IDX 1 14
REMARK H PARENT
REMARK Flexibility Score: inf
ROOT
ATOM      1  C   UNL     1      21.216  27.792  37.316  1.00  0.00    -0.077 C 
ATOM      2  C   UNL     1      20.655  28.915  36.812  1.00  0.00    -0.028 C 
ATOM      3  C   UNL     1      20.600  26.428  37.101  1.00  0.00     0.039 C 
ENDROOT
BRANCH   1   4
ATOM      4  C   UNL     1      22.506  27.903  38.100  1.00  0.00     0.034 C 
BRANCH   4   5
ATOM      5  C   UNL     1      22.393  28.977  39.187  1.00  0.00     0.032 C 
BRANCH   5   6
ATOM      6  C   UNL     1      23.607  29.873  39.198  1.00  0.00    -0.028 C 
ATOM      7  C   UNL     1      24.831  31.990  38.924  1.00  0.00     0.039 C 
ATOM      8  C   UNL     1      23.557  31.185  38.882  1.00  0.00    -0.080 C 
ATOM      9  C   UNL     1      22.260  31.854  38.490  1.00  0.00     0.039 C 
ENDBRANCH   5   6
ENDBRANCH   4   5
ENDBRANCH   1   4
BRANCH   2  10
ATOM     10  C   UNL     1      19.357  28.952  36.043  1.00  0.00     0.035 C 
BRANCH  10  11
ATOM     11  C   UNL     1      18.324  29.823  36.764  1.00  0.00     0.079 C 
BRANCH  11  12
ATOM     12  C   UNL     1      16.947  29.588  36.206  1.00  0.00     0.130 C 
ATOM     13  O   UNL     1      16.810  29.311  35.023  1.00  0.00    -0.300 OA
ATOM     14  C   UNL     1      15.740  29.711  37.086  1.00  0.00     0.087 C 
ENDBRANCH  11  12
ENDBRANCH  10  11
ENDBRANCH   2  10
TORSDOF 6
ENDMDL
MODEL 6
REMARK VINA RESULT:    -5.219      3.119      6.804
REMARK INTER + INTRA:          -7.621
REMARK INTER:                  -6.678
REMARK INTRA:                  -0.943
REMARK UNBOUND:                -0.572
REMARK SMILES CC(=O)CCC=C(C)CCC=C(C)C
REMARK SMILES IDX 7 1 6 2 8 3 9 4 10 5 11 6 13 7 12 8 14 9 5 10 4 11 2 12 3 13
REMARK SMILES IDX 1 14
REMARK H PARENT
REMARK Flexibility Score: inf
ROOT
ATOM      1  C   UNL     1      22.361  28.245  38.674  1.00  0.00    -0.077 C 
ATOM      2  C   UNL     1      23.192  29.215  38.227  1.00  0.00    -0.028 C 
ATOM      3  C   UNL     1      22.220  27.931  40.146  1.00  0.00     0.039 C 
ENDROOT
BRANCH   1   4
ATOM      4  C   UNL     1      21.537  27.465  37.672  1.00  0.00     0.034 C 
BRANCH   4   5
ATOM      5  C   UNL     1      21.138  28.350  36.486  1.00  0.00     0.032 C 
BRANCH   5   6
ATOM      6  C   UNL     1      19.638  28.431  36.344  1.00  0.00    -0.028 C 
ATOM      7  C   UNL     1      17.406  29.408  36.686  1.00  0.00     0.039 C 
ATOM      8  C   UNL     1      18.900  29.423  36.887  1.00  0.00    -0.080 C 
ATOM      9  C   UNL     1      19.537  30.536  37.685  1.00  0.00     0.039 C 
ENDBRANCH   5   6
ENDBRANCH   4   5
ENDBRANCH   1   4
BRANCH   2  10
ATOM     10  C   UNL     1      24.093  30.042  39.110  1.00  0.00     0.035 C 
BRANCH  10  11
ATOM     11  C   UNL     1      25.563  29.675  38.880  1.00  0.00     0.079 C 
BRANCH  11  12
ATOM     12  C   UNL     1      25.880  28.339  39.494  1.00  0.00     0.130 C 
ATOM     13  O   UNL     1      26.326  27.440  38.795  1.00  0.00    -0.300 OA
ATOM     14  C   UNL     1      25.633  28.094  40.952  1.00  0.00     0.087 C 
ENDBRANCH  11  12
ENDBRANCH  10  11
ENDBRANCH   2  10
TORSDOF 6
ENDMDL
MODEL 7
REMARK VINA RESULT:    -5.178      2.227      3.662
REMARK INTER + INTRA:          -7.566
REMARK INTER:                  -6.271
REMARK INTRA:                  -1.296
REMARK UNBOUND:                -0.572
REMARK SMILES CC(=O)CCC=C(C)CCC=C(C)C
REMARK SMILES IDX 7 1 6 2 8 3 9 4 10 5 11 6 13 7 12 8 14 9 5 10 4 11 2 12 3 13
REMARK SMILES IDX 1 14
REMARK H PARENT
REMARK Flexibility Score: inf
ROOT
ATOM      1  C   UNL     1      19.685  31.944  37.711  1.00  0.00    -0.077 C 
ATOM      2  C   UNL     1      18.463  31.551  38.137  1.00  0.00    -0.028 C 
ATOM      3  C   UNL     1      19.977  32.201  36.251  1.00  0.00     0.039 C 
ENDROOT
BRANCH   1   4
ATOM      4  C   UNL     1      20.786  32.150  38.730  1.00  0.00     0.034 C 
BRANCH   4   5
ATOM      5  C   UNL     1      22.020  31.311  38.378  1.00  0.00     0.032 C 
BRANCH   5   6
ATOM      6  C   UNL     1      21.728  29.834  38.496  1.00  0.00    -0.028 C 
ATOM      7  C   UNL     1      21.693  27.493  37.743  1.00  0.00     0.039 C 
ATOM      8  C   UNL     1      22.028  28.946  37.524  1.00  0.00    -0.080 C 
ATOM      9  C   UNL     1      22.686  29.377  36.235  1.00  0.00     0.039 C 
ENDBRANCH   5   6
ENDBRANCH   4   5
ENDBRANCH   1   4
BRANCH   2  10
ATOM     10  C   UNL     1      17.289  31.276  37.228  1.00  0.00     0.035 C 
BRANCH  10  11
ATOM     11  C   UNL     1      17.057  29.768  37.082  1.00  0.00     0.079 C 
BRANCH  11  12
ATOM     12  C   UNL     1      17.572  29.276  35.757  1.00  0.00     0.130 C 
ATOM     13  O   UNL     1      16.869  29.368  34.761  1.00  0.00    -0.300 OA
ATOM     14  C   UNL     1      18.932  28.656  35.653  1.00  0.00     0.087 C 
ENDBRANCH  11  12
ENDBRANCH  10  11
ENDBRANCH   2  10
TORSDOF 6
ENDMDL
MODEL 8
REMARK VINA RESULT:    -5.141      1.477      2.054
REMARK INTER + INTRA:          -7.517
REMARK INTER:                  -6.787
REMARK INTRA:                  -0.731
REMARK UNBOUND:                -0.572
REMARK SMILES CC(=O)CCC=C(C)CCC=C(C)C
REMARK SMILES IDX 7 1 6 2 8 3 9 4 10 5 11 6 13 7 12 8 14 9 5 10 4 11 2 12 3 13
REMARK SMILES IDX 1 14
REMARK H PARENT
REMARK Flexibility Score: inf
ROOT
ATOM      1  C   UNL     1      21.345  28.480  37.094  1.00  0.00    -0.077 C 
ATOM      2  C   UNL     1      20.093  28.007  36.899  1.00  0.00    -0.028 C 
ATOM      3  C   UNL     1      21.886  29.654  36.310  1.00  0.00     0.039 C 
ENDROOT
BRANCH   1   4
ATOM      4  C   UNL     1      22.222  27.827  38.140  1.00  0.00     0.034 C 
BRANCH   4   5
ATOM      5  C   UNL     1      22.659  28.844  39.200  1.00  0.00     0.032 C 
BRANCH   5   6
ATOM      6  C   UNL     1      23.272  28.159  40.397  1.00  0.00    -0.028 C 
ATOM      7  C   UNL     1      25.110  27.410  41.850  1.00  0.00     0.039 C 
ATOM      8  C   UNL     1      24.603  28.124  40.624  1.00  0.00    -0.080 C 
ATOM      9  C   UNL     1      25.582  28.782  39.680  1.00  0.00     0.039 C 
ENDBRANCH   5   6
ENDBRANCH   4   5
ENDBRANCH   1   4
BRANCH   2  10
ATOM     10  C   UNL     1      19.129  28.541  35.868  1.00  0.00     0.035 C 
BRANCH  10  11
ATOM     11  C   UNL     1      18.030  29.375  36.533  1.00  0.00     0.079 C 
BRANCH  11  12
ATOM     12  C   UNL     1      18.484  30.797  36.725  1.00  0.00     0.130 C 
ATOM     13  O   UNL     1      18.662  31.514  35.752  1.00  0.00    -0.300 OA
ATOM     14  C   UNL     1      18.739  31.333  38.101  1.00  0.00     0.087 C 
ENDBRANCH  11  12
ENDBRANCH  10  11
ENDBRANCH   2  10
TORSDOF 6
ENDMDL
MODEL 9
REMARK VINA RESULT:    -5.043      1.416      2.009
REMARK INTER + INTRA:          -7.384
REMARK INTER:                  -6.601
REMARK INTRA:                  -0.783
REMARK UNBOUND:                -0.572
REMARK SMILES CC(=O)CCC=C(C)CCC=C(C)C
REMARK SMILES IDX 7 1 6 2 8 3 9 4 10 5 11 6 13 7 12 8 14 9 5 10 4 11 2 12 3 13
REMARK SMILES IDX 1 14
REMARK H PARENT
REMARK Flexibility Score: inf
ROOT
ATOM      1  C   UNL     1      20.844  28.451  37.171  1.00  0.00    -0.077 C 
ATOM      2  C   UNL     1      20.609  29.781  37.245  1.00  0.00    -0.028 C 
ATOM      3  C   UNL     1      19.985  27.534  36.331  1.00  0.00     0.039 C 
ENDROOT
BRANCH   1   4
ATOM      4  C   UNL     1      22.012  27.869  37.938  1.00  0.00     0.034 C 
BRANCH   4   5
ATOM      5  C   UNL     1      22.268  28.657  39.227  1.00  0.00     0.032 C 
BRANCH   5   6
ATOM      6  C   UNL     1      23.745  28.842  39.471  1.00  0.00    -0.028 C 
ATOM      7  C   UNL     1      25.859  30.096  39.567  1.00  0.00     0.039 C 
ATOM      8  C   UNL     1      24.379  30.022  39.296  1.00  0.00    -0.080 C 
ATOM      9  C   UNL     1      23.638  31.255  38.836  1.00  0.00     0.039 C 
ENDBRANCH   5   6
ENDBRANCH   4   5
ENDBRANCH   1   4
BRANCH   2  10
ATOM     10  C   UNL     1      19.462  30.486  36.562  1.00  0.00     0.035 C 
BRANCH  10  11
ATOM     11  C   UNL     1      18.195  30.417  37.420  1.00  0.00     0.079 C 
BRANCH  11  12
ATOM     12  C   UNL     1      17.043  29.864  36.624  1.00  0.00     0.130 C 
ATOM     13  O   UNL     1      17.190  29.613  35.437  1.00  0.00    -0.300 OA
ATOM     14  C   UNL     1      15.711  29.638  37.273  1.00  0.00     0.087 C 
ENDBRANCH  11  12
ENDBRANCH  10  11
ENDBRANCH   2  10
TORSDOF 6
ENDMDL
