MODEL 1
REMARK VINA RESULT:    -0.865      0.000      0.000
REMARK INTER + INTRA:          -0.940
REMARK INTER:                  -0.940
REMARK INTRA:                   0.000
REMARK UNBOUND:                 0.000
REMARK SMILES Cc1cc(O)c2c(c1)C(=O)c1cc(O)cc(O)c1C2=O
REMARK SMILES IDX 1 1 2 2 8 3 7 4 6 5 4 6 3 7 19 8 20 9 18 10 11 11 9 12 10 13
REMARK SMILES IDX 12 14 13 15 15 16 16 17 5 18 17 20 14 22
REMARK H PARENT 5 19 17 21 14 23
REMARK Flexibility Score: inf
ROOT
ATOM      1  C   UNL     1      -0.524  19.900  16.747  1.00  0.00     0.044 C 
ATOM      2  C   UNL     1      -2.018  20.023  16.798  1.00  0.00    -0.047 A 
ATOM      3  C   UNL     1      -2.684  20.009  18.028  1.00  0.00     0.016 A 
ATOM      4  C   UNL     1      -4.080  20.152  18.089  1.00  0.00     0.038 A 
ATOM      5  C   UNL     1      -4.823  20.314  16.897  1.00  0.00     0.076 A 
ATOM      6  C   UNL     1      -4.134  20.412  15.661  1.00  0.00     0.127 A 
ATOM      7  C   UNL     1      -2.746  20.246  15.624  1.00  0.00     0.050 A 
ATOM      8  C   UNL     1      -6.305  20.313  16.988  1.00  0.00     0.201 C 
ATOM      9  O   UNL     1      -6.992  19.888  16.022  1.00  0.00    -0.288 OA
ATOM     10  C   UNL     1      -6.966  20.637  18.279  1.00  0.00     0.076 A 
ATOM     11  C   UNL     1      -6.220  20.477  19.469  1.00  0.00     0.041 A 
ATOM     12  C   UNL     1      -4.778  20.143  19.396  1.00  0.00     0.194 C 
ATOM     13  O   UNL     1      -4.138  19.876  20.451  1.00  0.00    -0.289 OA
ATOM     14  C   UNL     1      -6.848  20.639  20.715  1.00  0.00     0.059 A 
ATOM     15  C   UNL     1      -8.203  20.973  20.788  1.00  0.00     0.120 A 
ATOM     16  C   UNL     1      -8.933  21.170  19.616  1.00  0.00     0.093 A 
ATOM     17  C   UNL     1      -8.325  21.035  18.364  1.00  0.00     0.131 A 
ENDROOT
BRANCH   6  18
ATOM     18  O   UNL     1      -4.778  20.709  14.459  1.00  0.00    -0.507 OA
ATOM     19  H   UNL     1      -4.444  20.403  13.555  1.00  0.00     0.293 HD
ENDBRANCH   6  18
BRANCH  17  20
ATOM     20  O   UNL     1      -9.096  21.338  17.238  1.00  0.00    -0.507 OA
ATOM     21  H   UNL     1      -9.489  22.251  17.059  1.00  0.00     0.293 HD
ENDBRANCH  17  20
BRANCH  15  22
ATOM     22  O   UNL     1      -8.833  21.122  22.022  1.00  0.00    -0.508 OA
ATOM     23  H   UNL     1      -9.718  20.671  22.223  1.00  0.00     0.293 HD
ENDBRANCH  15  22
TORSDOF 3
ENDMDL
MODEL 2
REMARK VINA RESULT:    -0.472     10.562     15.274
REMARK INTER + INTRA:          -0.513
REMARK INTER:                  -0.513
REMARK INTRA:                   0.000
REMARK UNBOUND:                 0.000
REMARK SMILES Cc1cc(O)c2c(c1)C(=O)c1cc(O)cc(O)c1C2=O
REMARK SMILES IDX 1 1 2 2 8 3 7 4 6 5 4 6 3 7 19 8 20 9 18 10 11 11 9 12 10 13
REMARK SMILES IDX 12 14 13 15 15 16 16 17 5 18 17 20 14 22
REMARK H PARENT 5 19 17 21 14 23
REMARK Flexibility Score: inf
ROOT
ATOM      1  C   UNL     1       3.139  20.905  16.009  1.00  0.00     0.044 C 
ATOM      2  C   UNL     1       4.527  20.768  15.458  1.00  0.00    -0.047 A 
ATOM      3  C   UNL     1       4.722  20.510  14.097  1.00  0.00     0.016 A 
ATOM      4  C   UNL     1       6.018  20.408  13.565  1.00  0.00     0.038 A 
ATOM      5  C   UNL     1       7.140  20.568  14.410  1.00  0.00     0.076 A 
ATOM      6  C   UNL     1       6.936  20.914  15.771  1.00  0.00     0.127 A 
ATOM      7  C   UNL     1       5.637  20.989  16.281  1.00  0.00     0.050 A 
ATOM      8  C   UNL     1       8.488  20.308  13.844  1.00  0.00     0.201 C 
ATOM      9  O   UNL     1       9.408  19.878  14.590  1.00  0.00    -0.288 OA
ATOM     10  C   UNL     1       8.698  20.375  12.375  1.00  0.00     0.076 A 
ATOM     11  C   UNL     1       7.574  20.216  11.532  1.00  0.00     0.041 A 
ATOM     12  C   UNL     1       6.216  20.141  12.120  1.00  0.00     0.194 C 
ATOM     13  O   UNL     1       5.224  19.875  11.387  1.00  0.00    -0.289 OA
ATOM     14  C   UNL     1       7.749  20.136  10.140  1.00  0.00     0.059 A 
ATOM     15  C   UNL     1       9.026  20.227   9.580  1.00  0.00     0.120 A 
ATOM     16  C   UNL     1      10.133  20.422  10.406  1.00  0.00     0.093 A 
ATOM     17  C   UNL     1       9.983  20.527  11.792  1.00  0.00     0.131 A 
ENDROOT
BRANCH   6  18
ATOM     18  O   UNL     1       7.987  21.224  16.636  1.00  0.00    -0.507 OA
ATOM     19  H   UNL     1       7.915  21.905  17.380  1.00  0.00     0.293 HD
ENDBRANCH   6  18
BRANCH  17  20
ATOM     20  O   UNL     1      11.125  20.814  12.544  1.00  0.00    -0.507 OA
ATOM     21  H   UNL     1      12.012  21.075  12.137  1.00  0.00     0.293 HD
ENDBRANCH  17  20
BRANCH  15  22
ATOM     22  O   UNL     1       9.205  20.135   8.202  1.00  0.00    -0.508 OA
ATOM     23  H   UNL     1       9.072  20.936   7.595  1.00  0.00     0.293 HD
ENDBRANCH  15  22
TORSDOF 3
ENDMDL
MODEL 3
REMARK VINA RESULT:    -0.211     10.653     14.355
REMARK INTER + INTRA:          -0.230
REMARK INTER:                  -0.230
REMARK INTRA:                   0.000
REMARK UNBOUND:                 0.000
REMARK SMILES Cc1cc(O)c2c(c1)C(=O)c1cc(O)cc(O)c1C2=O
REMARK SMILES IDX 1 1 2 2 8 3 7 4 6 5 4 6 3 7 19 8 20 9 18 10 11 11 9 12 10 13
REMARK SMILES IDX 12 14 13 15 15 16 16 17 5 18 17 20 14 22
REMARK H PARENT 5 19 17 21 14 23
REMARK Flexibility Score: inf
ROOT
ATOM      1  C   UNL     1       8.968  19.890   7.959  1.00  0.00     0.044 C 
ATOM      2  C   UNL     1       8.852  20.057   9.445  1.00  0.00    -0.047 A 
ATOM      3  C   UNL     1       7.592  20.097  10.052  1.00  0.00     0.016 A 
ATOM      4  C   UNL     1       7.473  20.226  11.446  1.00  0.00     0.038 A 
ATOM      5  C   UNL     1       8.634  20.313  12.247  1.00  0.00     0.076 A 
ATOM      6  C   UNL     1       9.907  20.186  11.634  1.00  0.00     0.127 A 
ATOM      7  C   UNL     1      10.001  20.081  10.243  1.00  0.00     0.050 A 
ATOM      8  C   UNL     1       8.469  20.596  13.695  1.00  0.00     0.201 C 
ATOM      9  O   UNL     1       9.364  21.228  14.317  1.00  0.00    -0.288 OA
ATOM     10  C   UNL     1       7.174  20.300  14.363  1.00  0.00     0.076 A 
ATOM     11  C   UNL     1       6.014  20.211  13.559  1.00  0.00     0.041 A 
ATOM     12  C   UNL     1       6.134  20.260  12.083  1.00  0.00     0.194 C 
ATOM     13  O   UNL     1       5.096  20.307  11.366  1.00  0.00    -0.289 OA
ATOM     14  C   UNL     1       4.754  20.070  14.164  1.00  0.00     0.059 A 
ATOM     15  C   UNL     1       4.639  20.002  15.555  1.00  0.00     0.120 A 
ATOM     16  C   UNL     1       5.785  20.051  16.349  1.00  0.00     0.093 A 
ATOM     17  C   UNL     1       7.052  20.170  15.770  1.00  0.00     0.131 A 
ENDROOT
BRANCH   6  18
ATOM     18  O   UNL     1      11.095  20.124  12.366  1.00  0.00    -0.507 OA
ATOM     19  H   UNL     1      11.128  19.983  13.366  1.00  0.00     0.293 HD
ENDBRANCH   6  18
BRANCH  17  20
ATOM     20  O   UNL     1       8.157  20.120  16.624  1.00  0.00    -0.507 OA
ATOM     21  H   UNL     1       9.039  20.571  16.424  1.00  0.00     0.293 HD
ENDBRANCH  17  20
BRANCH  15  22
ATOM     22  O   UNL     1       3.390  19.875  16.159  1.00  0.00    -0.508 OA
ATOM     23  H   UNL     1       2.871  20.685  16.479  1.00  0.00     0.293 HD
ENDBRANCH  15  22
TORSDOF 3
ENDMDL
MODEL 4
REMARK VINA RESULT:     1.585      1.863      6.315
REMARK INTER + INTRA:           1.724
REMARK INTER:                   1.724
REMARK INTRA:                   0.000
REMARK UNBOUND:                 0.000
REMARK SMILES Cc1cc(O)c2c(c1)C(=O)c1cc(O)cc(O)c1C2=O
REMARK SMILES IDX 1 1 2 2 8 3 7 4 6 5 4 6 3 7 19 8 20 9 18 10 11 11 9 12 10 13
REMARK SMILES IDX 12 14 13 15 15 16 16 17 5 18 17 20 14 22
REMARK H PARENT 5 19 17 21 14 23
REMARK Flexibility Score: inf
ROOT
ATOM      1  C   UNL     1      -9.124  20.078  16.412  1.00  0.00     0.044 C 
ATOM      2  C   UNL     1      -7.766  20.159  17.043  1.00  0.00    -0.047 A 
ATOM      3  C   UNL     1      -6.617  20.128  16.245  1.00  0.00     0.016 A 
ATOM      4  C   UNL     1      -5.341  20.231  16.823  1.00  0.00     0.038 A 
ATOM      5  C   UNL     1      -5.212  20.368  18.223  1.00  0.00     0.076 A 
ATOM      6  C   UNL     1      -6.382  20.484  19.017  1.00  0.00     0.127 A 
ATOM      7  C   UNL     1      -7.640  20.357  18.422  1.00  0.00     0.050 A 
ATOM      8  C   UNL     1      -3.848  20.325  18.811  1.00  0.00     0.201 C 
ATOM      9  O   UNL     1      -3.682  19.877  19.977  1.00  0.00    -0.288 OA
ATOM     10  C   UNL     1      -2.668  20.633  17.962  1.00  0.00     0.076 A 
ATOM     11  C   UNL     1      -2.800  20.497  16.561  1.00  0.00     0.041 A 
ATOM     12  C   UNL     1      -4.128  20.205  15.970  1.00  0.00     0.194 C 
ATOM     13  O   UNL     1      -4.230  19.959  14.736  1.00  0.00    -0.289 OA
ATOM     14  C   UNL     1      -1.674  20.644  15.734  1.00  0.00     0.059 A 
ATOM     15  C   UNL     1      -0.424  20.939  16.285  1.00  0.00     0.120 A 
ATOM     16  C   UNL     1      -0.297  21.112  17.664  1.00  0.00     0.093 A 
ATOM     17  C   UNL     1      -1.408  20.992  18.505  1.00  0.00     0.131 A 
ENDROOT
BRANCH   6  18
ATOM     18  O   UNL     1      -6.342  20.759  20.385  1.00  0.00    -0.507 OA
ATOM     19  H   UNL     1      -7.019  21.342  20.859  1.00  0.00     0.293 HD
ENDBRANCH   6  18
BRANCH  17  20
ATOM     20  O   UNL     1      -1.221  21.270  19.862  1.00  0.00    -0.507 OA
ATOM     21  H   UNL     1      -1.679  22.030  20.345  1.00  0.00     0.293 HD
ENDBRANCH  17  20
BRANCH  15  22
ATOM     22  O   UNL     1       0.698  21.073  15.471  1.00  0.00    -0.508 OA
ATOM     23  H   UNL     1       1.565  20.592  15.679  1.00  0.00     0.293 HD
ENDBRANCH  15  22
TORSDOF 3
ENDMDL
