MODEL 1
REMARK VINA RESULT:    -3.096      0.000      0.000
REMARK INTER + INTRA:          -3.525
REMARK INTER:                  -3.458
REMARK INTRA:                  -0.067
REMARK UNBOUND:                -0.067
REMARK SMILES CCCC(=O)[O-]
REMARK SMILES IDX 3 1 4 2 5 3 6 4 2 5 1 6
REMARK H PARENT
REMARK Flexibility Score: inf
ROOT
ATOM      1  C   UNL     1      53.231  14.538  -0.791  1.00  0.00     0.052 C 
ENDROOT
BRANCH   1   2
ATOM      2  C   UNL     1      53.589  15.053   0.569  1.00  0.00     0.041 C 
ATOM      3  O   UNL     1      54.773  15.395   0.826  1.00  0.00    -0.550 OA
ATOM      4  O   UNL     1      52.607  15.187   1.543  1.00  0.00    -0.550 OA
ENDBRANCH   1   2
BRANCH   1   5
ATOM      5  C   UNL     1      53.510  15.577  -1.884  1.00  0.00     0.003 C 
ATOM      6  C   UNL     1      52.516  16.738  -1.851  1.00  0.00     0.004 C 
ENDBRANCH   1   5
TORSDOF 2
ENDMDL
MODEL 2
REMARK VINA RESULT:    -3.087      2.858      3.867
REMARK INTER + INTRA:          -3.515
REMARK INTER:                  -3.461
REMARK INTRA:                  -0.054
REMARK UNBOUND:                -0.067
REMARK SMILES CCCC(=O)[O-]
REMARK SMILES IDX 3 1 4 2 5 3 6 4 2 5 1 6
REMARK H PARENT
REMARK Flexibility Score: inf
ROOT
ATOM      1  C   UNL     1      55.250  17.870   1.381  1.00  0.00     0.052 C 
ENDROOT
BRANCH   1   2
ATOM      2  C   UNL     1      55.046  17.207   0.054  1.00  0.00     0.041 C 
ATOM      3  O   UNL     1      54.661  17.879  -0.939  1.00  0.00    -0.550 OA
ATOM      4  O   UNL     1      55.315  15.852  -0.096  1.00  0.00    -0.550 OA
ENDBRANCH   1   2
BRANCH   1   5
ATOM      5  C   UNL     1      54.512  17.132   2.504  1.00  0.00     0.003 C 
ATOM      6  C   UNL     1      53.030  17.500   2.567  1.00  0.00     0.004 C 
ENDBRANCH   1   5
TORSDOF 2
ENDMDL
MODEL 3
REMARK VINA RESULT:    -3.086      1.909      2.948
REMARK INTER + INTRA:          -3.514
REMARK INTER:                  -3.453
REMARK INTRA:                  -0.061
REMARK UNBOUND:                -0.067
REMARK SMILES CCCC(=O)[O-]
REMARK SMILES IDX 3 1 4 2 5 3 6 4 2 5 1 6
REMARK H PARENT
REMARK Flexibility Score: inf
ROOT
ATOM      1  C   UNL     1      53.583  15.611  -1.880  1.00  0.00     0.052 C 
ENDROOT
BRANCH   1   2
ATOM      2  C   UNL     1      54.104  16.775  -1.095  1.00  0.00     0.041 C 
ATOM      3  O   UNL     1      53.325  17.457  -0.379  1.00  0.00    -0.550 OA
ATOM      4  O   UNL     1      55.458  17.087  -1.129  1.00  0.00    -0.550 OA
ENDBRANCH   1   2
BRANCH   1   5
ATOM      5  C   UNL     1      53.160  14.453  -0.968  1.00  0.00     0.003 C 
ATOM      6  C   UNL     1      54.358  13.690  -0.403  1.00  0.00     0.004 C 
ENDBRANCH   1   5
TORSDOF 2
ENDMDL
MODEL 4
REMARK VINA RESULT:    -3.074      2.707      3.651
REMARK INTER + INTRA:          -3.500
REMARK INTER:                  -3.431
REMARK INTRA:                  -0.069
REMARK UNBOUND:                -0.067
REMARK SMILES CCCC(=O)[O-]
REMARK SMILES IDX 3 1 4 2 5 3 6 4 2 5 1 6
REMARK H PARENT
REMARK Flexibility Score: inf
ROOT
ATOM      1  C   UNL     1      53.241  17.523   2.499  1.00  0.00     0.052 C 
ENDROOT
BRANCH   1   2
ATOM      2  C   UNL     1      52.563  16.763   1.402  1.00  0.00     0.041 C 
ATOM      3  O   UNL     1      52.038  17.376   0.436  1.00  0.00    -0.550 OA
ATOM      4  O   UNL     1      52.539  15.374   1.429  1.00  0.00    -0.550 OA
ENDBRANCH   1   2
BRANCH   1   5
ATOM      5  C   UNL     1      54.739  17.200   2.573  1.00  0.00     0.003 C 
ATOM      6  C   UNL     1      55.500  17.683   1.339  1.00  0.00     0.004 C 
ENDBRANCH   1   5
TORSDOF 2
ENDMDL
MODEL 5
REMARK VINA RESULT:    -2.996      9.483     10.252
REMARK INTER + INTRA:          -3.413
REMARK INTER:                  -3.370
REMARK INTRA:                  -0.043
REMARK UNBOUND:                -0.067
REMARK SMILES CCCC(=O)[O-]
REMARK SMILES IDX 3 1 4 2 5 3 6 4 2 5 1 6
REMARK H PARENT
REMARK Flexibility Score: inf
ROOT
ATOM      1  C   UNL     1      60.490   8.541  -0.160  1.00  0.00     0.052 C 
ENDROOT
BRANCH   1   2
ATOM      2  C   UNL     1      60.302   9.618   0.864  1.00  0.00     0.041 C 
ATOM      3  O   UNL     1      61.096  10.594   0.910  1.00  0.00    -0.550 OA
ATOM      4  O   UNL     1      59.230   9.560   1.746  1.00  0.00    -0.550 OA
ENDBRANCH   1   2
BRANCH   1   5
ATOM      5  C   UNL     1      61.141   7.290   0.443  1.00  0.00     0.003 C 
ATOM      6  C   UNL     1      62.667   7.376   0.453  1.00  0.00     0.004 C 
ENDBRANCH   1   5
TORSDOF 2
ENDMDL
MODEL 6
REMARK VINA RESULT:    -2.968      1.220      1.595
REMARK INTER + INTRA:          -3.382
REMARK INTER:                  -3.311
REMARK INTRA:                  -0.071
REMARK UNBOUND:                -0.067
REMARK SMILES CCCC(=O)[O-]
REMARK SMILES IDX 3 1 4 2 5 3 6 4 2 5 1 6
REMARK H PARENT
REMARK Flexibility Score: inf
ROOT
ATOM      1  C   UNL     1      54.587  14.195  -0.202  1.00  0.00     0.052 C 
ENDROOT
BRANCH   1   2
ATOM      2  C   UNL     1      55.123  15.378   0.543  1.00  0.00     0.041 C 
ATOM      3  O   UNL     1      56.244  15.864   0.240  1.00  0.00    -0.550 OA
ATOM      4  O   UNL     1      54.368  15.967   1.550  1.00  0.00    -0.550 OA
ENDBRANCH   1   2
BRANCH   1   5
ATOM      5  C   UNL     1      53.249  14.509  -0.882  1.00  0.00     0.003 C 
ATOM      6  C   UNL     1      53.356  15.671  -1.869  1.00  0.00     0.004 C 
ENDBRANCH   1   5
TORSDOF 2
ENDMDL
MODEL 7
REMARK VINA RESULT:    -2.958      9.679     10.517
REMARK INTER + INTRA:          -3.371
REMARK INTER:                  -3.324
REMARK INTRA:                  -0.047
REMARK UNBOUND:                -0.067
REMARK SMILES CCCC(=O)[O-]
REMARK SMILES IDX 3 1 4 2 5 3 6 4 2 5 1 6
REMARK H PARENT
REMARK Flexibility Score: inf
ROOT
ATOM      1  C   UNL     1      45.221  21.245   3.923  1.00  0.00     0.052 C 
ENDROOT
BRANCH   1   2
ATOM      2  C   UNL     1      46.334  20.860   2.999  1.00  0.00     0.041 C 
ATOM      3  O   UNL     1      46.168  19.939   2.156  1.00  0.00    -0.550 OA
ATOM      4  O   UNL     1      47.545  21.541   3.045  1.00  0.00    -0.550 OA
ENDBRANCH   1   2
BRANCH   1   5
ATOM      5  C   UNL     1      44.053  21.893   3.169  1.00  0.00     0.003 C 
ATOM      6  C   UNL     1      44.510  23.026   2.250  1.00  0.00     0.004 C 
ENDBRANCH   1   5
TORSDOF 2
ENDMDL
MODEL 8
REMARK VINA RESULT:    -2.957     10.174     11.025
REMARK INTER + INTRA:          -3.370
REMARK INTER:                  -3.316
REMARK INTRA:                  -0.054
REMARK UNBOUND:                -0.067
REMARK SMILES CCCC(=O)[O-]
REMARK SMILES IDX 3 1 4 2 5 3 6 4 2 5 1 6
REMARK H PARENT
REMARK Flexibility Score: inf
ROOT
ATOM      1  C   UNL     1      44.876  22.976   2.396  1.00  0.00     0.052 C 
ENDROOT
BRANCH   1   2
ATOM      2  C   UNL     1      46.081  22.288   1.833  1.00  0.00     0.041 C 
ATOM      3  O   UNL     1      47.235  22.613   2.219  1.00  0.00    -0.550 OA
ATOM      4  O   UNL     1      45.929  21.264   0.907  1.00  0.00    -0.550 OA
ENDBRANCH   1   2
BRANCH   1   5
ATOM      5  C   UNL     1      43.977  22.005   3.171  1.00  0.00     0.003 C 
ATOM      6  C   UNL     1      44.750  21.211   4.225  1.00  0.00     0.004 C 
ENDBRANCH   1   5
TORSDOF 2
ENDMDL
MODEL 9
REMARK VINA RESULT:    -2.920      3.306      3.864
REMARK INTER + INTRA:          -3.328
REMARK INTER:                  -3.309
REMARK INTRA:                  -0.019
REMARK UNBOUND:                -0.067
REMARK SMILES CCCC(=O)[O-]
REMARK SMILES IDX 3 1 4 2 5 3 6 4 2 5 1 6
REMARK H PARENT
REMARK Flexibility Score: inf
ROOT
ATOM      1  C   UNL     1      56.453  17.224   0.955  1.00  0.00     0.052 C 
ENDROOT
BRANCH   1   2
ATOM      2  C   UNL     1      56.625  15.885   0.308  1.00  0.00     0.041 C 
ATOM      3  O   UNL     1      57.778  15.444   0.059  1.00  0.00    -0.550 OA
ATOM      4  O   UNL     1      55.513  15.108   0.010  1.00  0.00    -0.550 OA
ENDBRANCH   1   2
BRANCH   1   5
ATOM      5  C   UNL     1      54.973  17.580   1.140  1.00  0.00     0.003 C 
ATOM      6  C   UNL     1      54.458  17.224   2.534  1.00  0.00     0.004 C 
ENDBRANCH   1   5
TORSDOF 2
ENDMDL
