MODEL 1
REMARK VINA RESULT:    -3.956      0.000      0.000
REMARK INTER + INTRA:          -5.021
REMARK INTER:                  -4.881
REMARK INTRA:                  -0.140
REMARK UNBOUND:                -0.140
REMARK SMILES CCCCCC(=O)[O-]
REMARK SMILES IDX 4 1 5 2 6 3 7 4 8 5 3 6 2 7 1 8
REMARK H PARENT
REMARK Flexibility Score: inf
ROOT
ATOM      1  C   UNL     1      10.054 -14.791  38.150  1.00  0.00     0.006 C 
ENDROOT
BRANCH   1   2
ATOM      2  C   UNL     1      10.775 -15.034  36.814  1.00  0.00     0.053 C 
BRANCH   2   3
ATOM      3  C   UNL     1      11.973 -14.150  36.654  1.00  0.00     0.041 C 
ATOM      4  O   UNL     1      11.964 -13.218  35.809  1.00  0.00    -0.550 OA
ATOM      5  O   UNL     1      13.113 -14.378  37.415  1.00  0.00    -0.550 OA
ENDBRANCH   2   3
ENDBRANCH   1   2
BRANCH   1   6
ATOM      6  C   UNL     1       9.153 -13.540  38.172  1.00  0.00     0.000 C 
BRANCH   6   7
ATOM      7  C   UNL     1       7.663 -13.810  37.895  1.00  0.00    -0.003 C 
ATOM      8  C   UNL     1       7.235 -13.416  36.482  1.00  0.00     0.004 C 
ENDBRANCH   6   7
ENDBRANCH   1   6
TORSDOF 4
ENDMDL
MODEL 2
REMARK VINA RESULT:    -3.941      4.280      5.369
REMARK INTER + INTRA:          -5.003
REMARK INTER:                  -4.923
REMARK INTRA:                  -0.080
REMARK UNBOUND:                -0.140
REMARK SMILES CCCCCC(=O)[O-]
REMARK SMILES IDX 4 1 5 2 6 3 7 4 8 5 3 6 2 7 1 8
REMARK H PARENT
REMARK Flexibility Score: inf
ROOT
ATOM      1  C   UNL     1      12.837 -12.267  37.363  1.00  0.00     0.006 C 
ENDROOT
BRANCH   1   2
ATOM      2  C   UNL     1      13.212 -10.843  37.803  1.00  0.00     0.053 C 
BRANCH   2   3
ATOM      3  C   UNL     1      12.611 -10.489  39.128  1.00  0.00     0.041 C 
ATOM      4  O   UNL     1      13.350 -10.153  40.090  1.00  0.00    -0.550 OA
ATOM      5  O   UNL     1      11.236 -10.565  39.311  1.00  0.00    -0.550 OA
ENDBRANCH   2   3
ENDBRANCH   1   2
BRANCH   1   6
ATOM      6  C   UNL     1      12.584 -12.424  35.849  1.00  0.00     0.000 C 
BRANCH   6   7
ATOM      7  C   UNL     1      12.893 -11.173  35.008  1.00  0.00    -0.003 C 
ATOM      8  C   UNL     1      14.293 -11.194  34.396  1.00  0.00     0.004 C 
ENDBRANCH   6   7
ENDBRANCH   1   6
TORSDOF 4
ENDMDL
MODEL 3
REMARK VINA RESULT:    -3.921      2.892      4.151
REMARK INTER + INTRA:          -4.978
REMARK INTER:                  -4.825
REMARK INTRA:                  -0.152
REMARK UNBOUND:                -0.140
REMARK SMILES CCCCCC(=O)[O-]
REMARK SMILES IDX 4 1 5 2 6 3 7 4 8 5 3 6 2 7 1 8
REMARK H PARENT
REMARK Flexibility Score: inf
ROOT
ATOM      1  C   UNL     1       7.948 -13.505  38.006  1.00  0.00     0.006 C 
ENDROOT
BRANCH   1   2
ATOM      2  C   UNL     1       7.277 -13.513  36.623  1.00  0.00     0.053 C 
BRANCH   2   3
ATOM      3  C   UNL     1       7.367 -12.179  35.949  1.00  0.00     0.041 C 
ATOM      4  O   UNL     1       7.628 -12.106  34.719  1.00  0.00    -0.550 OA
ATOM      5  O   UNL     1       7.196 -11.014  36.685  1.00  0.00    -0.550 OA
ENDBRANCH   2   3
ENDBRANCH   1   2
BRANCH   1   6
ATOM      6  C   UNL     1       9.489 -13.449  37.969  1.00  0.00     0.000 C 
BRANCH   6   7
ATOM      7  C   UNL     1      10.188 -14.819  38.028  1.00  0.00    -0.003 C 
ATOM      8  C   UNL     1      10.763 -15.255  36.680  1.00  0.00     0.004 C 
ENDBRANCH   6   7
ENDBRANCH   1   6
TORSDOF 4
ENDMDL
MODEL 4
REMARK VINA RESULT:    -3.907      1.558      2.486
REMARK INTER + INTRA:          -4.961
REMARK INTER:                  -4.731
REMARK INTRA:                  -0.230
REMARK UNBOUND:                -0.140
REMARK SMILES CCCCCC(=O)[O-]
REMARK SMILES IDX 4 1 5 2 6 3 7 4 8 5 3 6 2 7 1 8
REMARK H PARENT
REMARK Flexibility Score: inf
ROOT
ATOM      1  C   UNL     1       8.073 -13.286  37.763  1.00  0.00     0.006 C 
ENDROOT
BRANCH   1   2
ATOM      2  C   UNL     1       9.195 -14.284  38.094  1.00  0.00     0.053 C 
BRANCH   2   3
ATOM      3  C   UNL     1      10.260 -14.300  37.041  1.00  0.00     0.041 C 
ATOM      4  O   UNL     1      10.643 -15.391  36.544  1.00  0.00    -0.550 OA
ATOM      5  O   UNL     1      10.853 -13.112  36.632  1.00  0.00    -0.550 OA
ENDBRANCH   2   3
ENDBRANCH   1   2
BRANCH   1   6
ATOM      6  C   UNL     1       7.284 -13.615  36.479  1.00  0.00     0.000 C 
BRANCH   6   7
ATOM      7  C   UNL     1       7.476 -12.614  35.326  1.00  0.00    -0.003 C 
ATOM      8  C   UNL     1       7.887 -13.284  34.015  1.00  0.00     0.004 C 
ENDBRANCH   6   7
ENDBRANCH   1   6
TORSDOF 4
ENDMDL
MODEL 5
REMARK VINA RESULT:    -3.905      3.465      5.061
REMARK INTER + INTRA:          -4.959
REMARK INTER:                  -4.820
REMARK INTRA:                  -0.139
REMARK UNBOUND:                -0.140
REMARK SMILES CCCCCC(=O)[O-]
REMARK SMILES IDX 4 1 5 2 6 3 7 4 8 5 3 6 2 7 1 8
REMARK H PARENT
REMARK Flexibility Score: inf
ROOT
ATOM      1  C   UNL     1      12.973 -11.239  38.048  1.00  0.00     0.006 C 
ENDROOT
BRANCH   1   2
ATOM      2  C   UNL     1      11.511 -10.879  38.358  1.00  0.00     0.053 C 
BRANCH   2   3
ATOM      3  C   UNL     1      10.588 -12.035  38.124  1.00  0.00     0.041 C 
ATOM      4  O   UNL     1       9.385 -11.969  38.489  1.00  0.00    -0.550 OA
ATOM      5  O   UNL     1      11.066 -13.199  37.535  1.00  0.00    -0.550 OA
ENDBRANCH   2   3
ENDBRANCH   1   2
BRANCH   1   6
ATOM      6  C   UNL     1      13.593 -10.448  36.878  1.00  0.00     0.000 C 
BRANCH   6   7
ATOM      7  C   UNL     1      13.140 -10.901  35.478  1.00  0.00    -0.003 C 
ATOM      8  C   UNL     1      14.308 -11.186  34.534  1.00  0.00     0.004 C 
ENDBRANCH   6   7
ENDBRANCH   1   6
TORSDOF 4
ENDMDL
MODEL 6
REMARK VINA RESULT:    -3.904      3.373      4.514
REMARK INTER + INTRA:          -4.957
REMARK INTER:                  -4.719
REMARK INTRA:                  -0.238
REMARK UNBOUND:                -0.140
REMARK SMILES CCCCCC(=O)[O-]
REMARK SMILES IDX 4 1 5 2 6 3 7 4 8 5 3 6 2 7 1 8
REMARK H PARENT
REMARK Flexibility Score: inf
ROOT
ATOM      1  C   UNL     1      13.002 -11.289  35.430  1.00  0.00     0.006 C 
ENDROOT
BRANCH   1   2
ATOM      2  C   UNL     1      13.298 -12.797  35.419  1.00  0.00     0.053 C 
BRANCH   2   3
ATOM      3  C   UNL     1      12.677 -13.498  36.588  1.00  0.00     0.041 C 
ATOM      4  O   UNL     1      11.483 -13.262  36.908  1.00  0.00    -0.550 OA
ATOM      5  O   UNL     1      13.429 -14.386  37.347  1.00  0.00    -0.550 OA
ENDBRANCH   2   3
ENDBRANCH   1   2
BRANCH   1   6
ATOM      6  C   UNL     1      13.651 -10.518  36.598  1.00  0.00     0.000 C 
BRANCH   6   7
ATOM      7  C   UNL     1      12.660  -9.954  37.632  1.00  0.00    -0.003 C 
ATOM      8  C   UNL     1      12.893 -10.496  39.042  1.00  0.00     0.004 C 
ENDBRANCH   6   7
ENDBRANCH   1   6
TORSDOF 4
ENDMDL
MODEL 7
REMARK VINA RESULT:    -3.872      2.360      3.464
REMARK INTER + INTRA:          -4.918
REMARK INTER:                  -4.659
REMARK INTRA:                  -0.259
REMARK UNBOUND:                -0.140
REMARK SMILES CCCCCC(=O)[O-]
REMARK SMILES IDX 4 1 5 2 6 3 7 4 8 5 3 6 2 7 1 8
REMARK H PARENT
REMARK Flexibility Score: inf
ROOT
ATOM      1  C   UNL     1       7.225 -13.177  36.566  1.00  0.00     0.006 C 
ENDROOT
BRANCH   1   2
ATOM      2  C   UNL     1       7.724 -13.804  37.878  1.00  0.00     0.053 C 
BRANCH   2   3
ATOM      3  C   UNL     1       9.128 -13.391  38.198  1.00  0.00     0.041 C 
ATOM      4  O   UNL     1       9.401 -12.180  38.405  1.00  0.00    -0.550 OA
ATOM      5  O   UNL     1      10.142 -14.340  38.233  1.00  0.00    -0.550 OA
ENDBRANCH   2   3
ENDBRANCH   1   2
BRANCH   1   6
ATOM      6  C   UNL     1       8.009 -13.611  35.310  1.00  0.00     0.000 C 
BRANCH   6   7
ATOM      7  C   UNL     1       8.553 -12.454  34.454  1.00  0.00    -0.003 C 
ATOM      8  C   UNL     1       9.961 -12.019  34.860  1.00  0.00     0.004 C 
ENDBRANCH   6   7
ENDBRANCH   1   6
TORSDOF 4
ENDMDL
MODEL 8
REMARK VINA RESULT:    -3.863      2.741      4.491
REMARK INTER + INTRA:          -4.907
REMARK INTER:                  -4.786
REMARK INTRA:                  -0.122
REMARK UNBOUND:                -0.140
REMARK SMILES CCCCCC(=O)[O-]
REMARK SMILES IDX 4 1 5 2 6 3 7 4 8 5 3 6 2 7 1 8
REMARK H PARENT
REMARK Flexibility Score: inf
ROOT
ATOM      1  C   UNL     1      12.898 -12.605  37.350  1.00  0.00     0.006 C 
ENDROOT
BRANCH   1   2
ATOM      2  C   UNL     1      12.765 -14.135  37.292  1.00  0.00     0.053 C 
BRANCH   2   3
ATOM      3  C   UNL     1      11.334 -14.571  37.229  1.00  0.00     0.041 C 
ATOM      4  O   UNL     1      10.976 -15.453  36.405  1.00  0.00    -0.550 OA
ATOM      5  O   UNL     1      10.389 -13.979  38.056  1.00  0.00    -0.550 OA
ENDBRANCH   2   3
ENDBRANCH   1   2
BRANCH   1   6
ATOM      6  C   UNL     1      12.534 -11.881  36.037  1.00  0.00     0.000 C 
BRANCH   6   7
ATOM      7  C   UNL     1      13.528 -10.789  35.603  1.00  0.00    -0.003 C 
ATOM      8  C   UNL     1      14.355 -11.185  34.380  1.00  0.00     0.004 C 
ENDBRANCH   6   7
ENDBRANCH   1   6
TORSDOF 4
ENDMDL
MODEL 9
REMARK VINA RESULT:    -3.857      3.067      3.892
REMARK INTER + INTRA:          -4.899
REMARK INTER:                  -4.788
REMARK INTRA:                  -0.111
REMARK UNBOUND:                -0.140
REMARK SMILES CCCCCC(=O)[O-]
REMARK SMILES IDX 4 1 5 2 6 3 7 4 8 5 3 6 2 7 1 8
REMARK H PARENT
REMARK Flexibility Score: inf
ROOT
ATOM      1  C   UNL     1       8.777 -13.917  36.156  1.00  0.00     0.006 C 
ENDROOT
BRANCH   1   2
ATOM      2  C   UNL     1       7.677 -13.230  35.330  1.00  0.00     0.053 C 
BRANCH   2   3
ATOM      3  C   UNL     1       8.100 -13.004  33.912  1.00  0.00     0.041 C 
ATOM      4  O   UNL     1       8.886 -12.063  33.627  1.00  0.00    -0.550 OA
ATOM      5  O   UNL     1       7.599 -13.812  32.899  1.00  0.00    -0.550 OA
ENDBRANCH   2   3
ENDBRANCH   1   2
BRANCH   1   6
ATOM      6  C   UNL     1       9.330 -13.067  37.319  1.00  0.00     0.000 C 
BRANCH   6   7
ATOM      7  C   UNL     1       8.378 -12.912  38.518  1.00  0.00    -0.003 C 
ATOM      8  C   UNL     1       7.653 -14.209  38.877  1.00  0.00     0.004 C 
ENDBRANCH   6   7
ENDBRANCH   1   6
TORSDOF 4
ENDMDL
