MODEL 1
REMARK VINA RESULT:    -4.635      0.000      0.000
REMARK INTER + INTRA:          -6.652
REMARK INTER:                  -7.073
REMARK INTRA:                   0.421
REMARK UNBOUND:                 0.421
REMARK SMILES OC[C@@H]1O[C@@H](O[C@@]2(CO)O[C@@H](CO)[C@H](O)[C@@H]2O)[C@H](O)[C@@H](O)[C@@H]1O
REMARK SMILES IDX 6 1 5 2 3 3 22 4 4 5 20 6 18 7 2 8 1 9 23 11 21 13 19 15
REMARK SMILES IDX 7 17 16 18 10 19 14 20 11 21 8 22 9 23 17 25 15 27 12 29
REMARK SMILES IDX 13 30
REMARK H PARENT 1 10 23 12 21 14 19 16 9 24 17 26 15 28 13 31
REMARK Flexibility Score: inf
ROOT
ATOM      1  O   UNL     1      12.820  13.305  21.186  1.00  0.00    -0.313 OA
ENDROOT
BRANCH   1   2
ATOM      2  C   UNL     1      12.280  14.422  21.887  1.00  0.00     0.285 C 
ATOM      3  C   UNL     1      14.362  15.513  21.951  1.00  0.00     0.178 C 
ATOM      4  C   UNL     1      14.501  15.379  23.484  1.00  0.00     0.177 C 
ATOM      5  O   UNL     1      12.998  15.606  21.569  1.00  0.00    -0.341 OA
ATOM      6  C   UNL     1      13.728  14.132  23.961  1.00  0.00     0.179 C 
ATOM      7  C   UNL     1      12.294  14.141  23.408  1.00  0.00     0.202 C 
BRANCH   3   8
ATOM      8  C   UNL     1      15.125  16.734  21.412  1.00  0.00     0.191 C 
BRANCH   8   9
ATOM      9  O   UNL     1      15.003  16.842  20.017  1.00  0.00    -0.394 OA
ATOM     10  H   UNL     1      15.634  16.186  19.626  1.00  0.00     0.210 HD
ENDBRANCH   8   9
ENDBRANCH   3   8
BRANCH   4  11
ATOM     11  O   UNL     1      14.000  16.528  24.119  1.00  0.00    -0.387 OA
ATOM     12  H   UNL     1      13.029  16.368  24.271  1.00  0.00     0.211 HD
ENDBRANCH   4  11
BRANCH   6  13
ATOM     13  O   UNL     1      14.386  12.965  23.538  1.00  0.00    -0.387 OA
ATOM     14  H   UNL     1      13.721  12.429  23.035  1.00  0.00     0.211 HD
ENDBRANCH   6  13
BRANCH   7  15
ATOM     15  O   UNL     1      11.543  15.117  24.083  1.00  0.00    -0.385 OA
ATOM     16  H   UNL     1      11.050  15.632  23.393  1.00  0.00     0.211 HD
ENDBRANCH   7  15
ENDBRANCH   1   2
BRANCH   1  17
ATOM     17  C   UNL     1      12.823  13.425  19.765  1.00  0.00     0.224 C 
ATOM     18  C   UNL     1      12.073  14.707  19.314  1.00  0.00     0.208 C 
ATOM     19  O   UNL     1      12.080  12.324  19.273  1.00  0.00    -0.337 OA
ATOM     20  C   UNL     1      10.641  14.235  19.367  1.00  0.00     0.180 C 
ATOM     21  C   UNL     1      10.762  12.753  18.997  1.00  0.00     0.179 C 
BRANCH  17  22
ATOM     22  C   UNL     1      14.262  13.297  19.197  1.00  0.00     0.225 C 
BRANCH  22  23
ATOM     23  O   UNL     1      14.881  12.130  19.677  1.00  0.00    -0.391 OA
ATOM     24  H   UNL     1      14.157  11.566  20.052  1.00  0.00     0.210 HD
ENDBRANCH  22  23
ENDBRANCH  17  22
BRANCH  18  25
ATOM     25  O   UNL     1      12.418  15.071  18.001  1.00  0.00    -0.385 OA
ATOM     26  H   UNL     1      11.998  15.954  17.833  1.00  0.00     0.211 HD
ENDBRANCH  18  25
BRANCH  20  27
ATOM     27  O   UNL     1       9.779  14.959  18.521  1.00  0.00    -0.387 OA
ATOM     28  H   UNL     1       9.890  14.627  17.592  1.00  0.00     0.211 HD
ENDBRANCH  20  27
BRANCH  21  29
ATOM     29  C   UNL     1       9.753  11.875  19.743  1.00  0.00     0.191 C 
BRANCH  29  30
ATOM     30  O   UNL     1       9.886  12.045  21.128  1.00  0.00    -0.394 OA
ATOM     31  H   UNL     1       9.855  11.135  21.521  1.00  0.00     0.210 HD
ENDBRANCH  29  30
ENDBRANCH  21  29
ENDBRANCH   1  17
TORSDOF 13
ENDMDL
MODEL 2
REMARK VINA RESULT:    -2.368      1.466      5.149
REMARK INTER + INTRA:          -3.193
REMARK INTER:                  -2.528
REMARK INTRA:                  -0.665
REMARK UNBOUND:                 0.421
REMARK SMILES OC[C@@H]1O[C@@H](O[C@@]2(CO)O[C@@H](CO)[C@H](O)[C@@H]2O)[C@H](O)[C@@H](O)[C@@H]1O
REMARK SMILES IDX 6 1 5 2 3 3 22 4 4 5 20 6 18 7 2 8 1 9 23 11 21 13 19 15
REMARK SMILES IDX 7 17 16 18 10 19 14 20 11 21 8 22 9 23 17 25 15 27 12 29
REMARK SMILES IDX 13 30
REMARK H PARENT 1 10 23 12 21 14 19 16 9 24 17 26 15 28 13 31
REMARK Flexibility Score: inf
ROOT
ATOM      1  O   UNL     1      12.423  14.410  21.581  1.00  0.00    -0.313 OA
ENDROOT
BRANCH   1   2
ATOM      2  C   UNL     1      11.965  13.153  21.090  1.00  0.00     0.285 C 
ATOM      3  C   UNL     1      12.708  13.622  18.909  1.00  0.00     0.178 C 
ATOM      4  C   UNL     1      11.278  13.695  18.327  1.00  0.00     0.177 C 
ATOM      5  O   UNL     1      12.768  12.718  20.002  1.00  0.00    -0.341 OA
ATOM      6  C   UNL     1      10.296  14.130  19.433  1.00  0.00     0.179 C 
ATOM      7  C   UNL     1      10.475  13.260  20.688  1.00  0.00     0.202 C 
BRANCH   3   8
ATOM      8  C   UNL     1      13.738  13.205  17.847  1.00  0.00     0.191 C 
BRANCH   8   9
ATOM      9  O   UNL     1      15.037  13.166  18.377  1.00  0.00    -0.394 OA
ATOM     10  H   UNL     1      14.957  12.807  19.298  1.00  0.00     0.210 HD
ENDBRANCH   8   9
ENDBRANCH   3   8
BRANCH   4  11
ATOM     11  O   UNL     1      10.899  12.442  17.813  1.00  0.00    -0.387 OA
ATOM     12  H   UNL     1       9.910  12.465  17.711  1.00  0.00     0.211 HD
ENDBRANCH   4  11
BRANCH   6  13
ATOM     13  O   UNL     1      10.509  15.479  19.764  1.00  0.00    -0.387 OA
ATOM     14  H   UNL     1      10.750  15.945  18.922  1.00  0.00     0.211 HD
ENDBRANCH   6  13
BRANCH   7  15
ATOM     15  O   UNL     1       9.950  11.980  20.443  1.00  0.00    -0.385 OA
ATOM     16  H   UNL     1      10.345  11.371  21.120  1.00  0.00     0.211 HD
ENDBRANCH   7  15
ENDBRANCH   1   2
BRANCH   1  17
ATOM     17  C   UNL     1      13.681  14.377  22.251  1.00  0.00     0.224 C 
ATOM     18  C   UNL     1      13.877  15.644  23.126  1.00  0.00     0.208 C 
ATOM     19  O   UNL     1      14.670  14.423  21.239  1.00  0.00    -0.337 OA
ATOM     20  C   UNL     1      14.346  16.637  22.092  1.00  0.00     0.180 C 
ATOM     21  C   UNL     1      15.124  15.756  21.109  1.00  0.00     0.179 C 
BRANCH  17  22
ATOM     22  C   UNL     1      13.871  13.039  23.016  1.00  0.00     0.225 C 
BRANCH  22  23
ATOM     23  O   UNL     1      14.837  12.240  22.382  1.00  0.00    -0.391 OA
ATOM     24  H   UNL     1      14.751  12.419  21.410  1.00  0.00     0.210 HD
ENDBRANCH  22  23
ENDBRANCH  17  22
BRANCH  18  25
ATOM     25  O   UNL     1      14.871  15.448  24.100  1.00  0.00    -0.385 OA
ATOM     26  H   UNL     1      15.295  14.574  23.901  1.00  0.00     0.211 HD
ENDBRANCH  18  25
BRANCH  20  27
ATOM     27  O   UNL     1      15.110  17.691  22.630  1.00  0.00    -0.387 OA
ATOM     28  H   UNL     1      14.650  18.039  23.438  1.00  0.00     0.211 HD
ENDBRANCH  20  27
BRANCH  21  29
ATOM     29  C   UNL     1      14.981  16.224  19.657  1.00  0.00     0.191 C 
BRANCH  29  30
ATOM     30  O   UNL     1      15.026  17.622  19.587  1.00  0.00    -0.394 OA
ATOM     31  H   UNL     1      14.372  17.952  20.256  1.00  0.00     0.210 HD
ENDBRANCH  29  30
ENDBRANCH  21  29
ENDBRANCH   1  17
TORSDOF 13
ENDMDL
MODEL 3
REMARK VINA RESULT:    -2.316      1.710      5.472
REMARK INTER + INTRA:          -3.113
REMARK INTER:                  -3.007
REMARK INTRA:                  -0.107
REMARK UNBOUND:                 0.421
REMARK SMILES OC[C@@H]1O[C@@H](O[C@@]2(CO)O[C@@H](CO)[C@H](O)[C@@H]2O)[C@H](O)[C@@H](O)[C@@H]1O
REMARK SMILES IDX 6 1 5 2 3 3 22 4 4 5 20 6 18 7 2 8 1 9 23 11 21 13 19 15
REMARK SMILES IDX 7 17 16 18 10 19 14 20 11 21 8 22 9 23 17 25 15 27 12 29
REMARK SMILES IDX 13 30
REMARK H PARENT 1 10 23 12 21 14 19 16 9 24 17 26 15 28 13 31
REMARK Flexibility Score: inf
ROOT
ATOM      1  O   UNL     1      11.545  12.738  21.429  1.00  0.00    -0.313 OA
ENDROOT
BRANCH   1   2
ATOM      2  C   UNL     1      10.650  13.763  21.005  1.00  0.00     0.285 C 
ATOM      3  C   UNL     1      10.112  12.611  19.027  1.00  0.00     0.178 C 
ATOM      4  C   UNL     1      10.791  13.656  18.113  1.00  0.00     0.177 C 
ATOM      5  O   UNL     1       9.609  13.218  20.208  1.00  0.00    -0.341 OA
ATOM      6  C   UNL     1      11.933  14.348  18.885  1.00  0.00     0.179 C 
ATOM      7  C   UNL     1      11.432  14.860  20.246  1.00  0.00     0.202 C 
BRANCH   3   8
ATOM      8  C   UNL     1       8.971  11.875  18.307  1.00  0.00     0.191 C 
BRANCH   8   9
ATOM      9  O   UNL     1       7.759  12.575  18.413  1.00  0.00    -0.394 OA
ATOM     10  H   UNL     1       7.947  13.389  18.947  1.00  0.00     0.210 HD
ENDBRANCH   8   9
ENDBRANCH   3   8
BRANCH   4  11
ATOM     11  O   UNL     1       9.852  14.610  17.686  1.00  0.00    -0.387 OA
ATOM     12  H   UNL     1       9.141  14.111  17.199  1.00  0.00     0.211 HD
ENDBRANCH   4  11
BRANCH   6  13
ATOM     13  O   UNL     1      12.994  13.449  19.084  1.00  0.00    -0.387 OA
ATOM     14  H   UNL     1      12.596  12.542  19.125  1.00  0.00     0.211 HD
ENDBRANCH   6  13
BRANCH   7  15
ATOM     15  O   UNL     1      10.612  15.983  20.045  1.00  0.00    -0.385 OA
ATOM     16  H   UNL     1      10.278  15.933  19.112  1.00  0.00     0.211 HD
ENDBRANCH   7  15
ENDBRANCH   1   2
BRANCH   1  17
ATOM     17  C   UNL     1      12.146  12.948  22.706  1.00  0.00     0.224 C 
ATOM     18  C   UNL     1      12.792  14.356  22.791  1.00  0.00     0.208 C 
ATOM     19  O   UNL     1      13.200  12.008  22.806  1.00  0.00    -0.337 OA
ATOM     20  C   UNL     1      14.112  14.107  22.105  1.00  0.00     0.180 C 
ATOM     21  C   UNL     1      14.414  12.651  22.475  1.00  0.00     0.179 C 
BRANCH  17  22
ATOM     22  C   UNL     1      11.144  12.637  23.851  1.00  0.00     0.225 C 
BRANCH  22  23
ATOM     23  O   UNL     1      10.342  13.757  24.124  1.00  0.00    -0.391 OA
ATOM     24  H   UNL     1       9.428  13.526  23.818  1.00  0.00     0.210 HD
ENDBRANCH  22  23
ENDBRANCH  17  22
BRANCH  18  25
ATOM     25  O   UNL     1      13.003  14.747  24.125  1.00  0.00    -0.385 OA
ATOM     26  H   UNL     1      13.541  15.579  24.094  1.00  0.00     0.211 HD
ENDBRANCH  18  25
BRANCH  20  27
ATOM     27  O   UNL     1      15.125  15.008  22.489  1.00  0.00    -0.387 OA
ATOM     28  H   UNL     1      15.078  15.810  21.905  1.00  0.00     0.211 HD
ENDBRANCH  20  27
BRANCH  21  29
ATOM     29  C   UNL     1      15.124  11.892  21.349  1.00  0.00     0.191 C 
BRANCH  29  30
ATOM     30  O   UNL     1      14.937  12.545  20.124  1.00  0.00    -0.394 OA
ATOM     31  H   UNL     1      15.611  12.165  19.504  1.00  0.00     0.210 HD
ENDBRANCH  29  30
ENDBRANCH  21  29
ENDBRANCH   1  17
TORSDOF 13
ENDMDL
MODEL 4
REMARK VINA RESULT:    -2.091      1.393      5.318
REMARK INTER + INTRA:          -2.770
REMARK INTER:                  -2.643
REMARK INTRA:                  -0.127
REMARK UNBOUND:                 0.421
REMARK SMILES OC[C@@H]1O[C@@H](O[C@@]2(CO)O[C@@H](CO)[C@H](O)[C@@H]2O)[C@H](O)[C@@H](O)[C@@H]1O
REMARK SMILES IDX 6 1 5 2 3 3 22 4 4 5 20 6 18 7 2 8 1 9 23 11 21 13 19 15
REMARK SMILES IDX 7 17 16 18 10 19 14 20 11 21 8 22 9 23 17 25 15 27 12 29
REMARK SMILES IDX 13 30
REMARK H PARENT 1 10 23 12 21 14 19 16 9 24 17 26 15 28 13 31
REMARK Flexibility Score: inf
ROOT
ATOM      1  O   UNL     1      11.989  14.518  21.751  1.00  0.00    -0.313 OA
ENDROOT
BRANCH   1   2
ATOM      2  C   UNL     1      12.314  13.968  20.478  1.00  0.00     0.285 C 
ATOM      3  C   UNL     1      10.084  14.094  19.744  1.00  0.00     0.178 C 
ATOM      4  C   UNL     1       9.906  12.560  19.694  1.00  0.00     0.177 C 
ATOM      5  O   UNL     1      11.430  14.460  19.481  1.00  0.00    -0.341 OA
ATOM      6  C   UNL     1      10.848  11.901  20.722  1.00  0.00     0.179 C 
ATOM      7  C   UNL     1      12.284  12.424  20.551  1.00  0.00     0.202 C 
BRANCH   3   8
ATOM      8  C   UNL     1       9.158  14.811  18.748  1.00  0.00     0.191 C 
BRANCH   8   9
ATOM      9  O   UNL     1       9.499  14.510  17.420  1.00  0.00    -0.394 OA
ATOM     10  H   UNL     1      10.483  14.396  17.399  1.00  0.00     0.210 HD
ENDBRANCH   8   9
ENDBRANCH   3   8
BRANCH   4  11
ATOM     11  O   UNL     1      10.190  12.080  18.404  1.00  0.00    -0.387 OA
ATOM     12  H   UNL     1      10.657  11.209  18.521  1.00  0.00     0.211 HD
ENDBRANCH   4  11
BRANCH   6  13
ATOM     13  O   UNL     1      10.403  12.171  22.027  1.00  0.00    -0.387 OA
ATOM     14  H   UNL     1      11.189  12.068  22.623  1.00  0.00     0.211 HD
ENDBRANCH   6  13
BRANCH   7  15
ATOM     15  O   UNL     1      12.841  11.875  19.384  1.00  0.00    -0.385 OA
ATOM     16  H   UNL     1      13.513  11.204  19.672  1.00  0.00     0.211 HD
ENDBRANCH   7  15
ENDBRANCH   1   2
BRANCH   1  17
ATOM     17  C   UNL     1      13.089  14.661  22.648  1.00  0.00     0.224 C 
ATOM     18  C   UNL     1      13.365  16.158  22.954  1.00  0.00     0.208 C 
ATOM     19  O   UNL     1      14.226  14.168  21.963  1.00  0.00    -0.337 OA
ATOM     20  C   UNL     1      14.176  16.552  21.745  1.00  0.00     0.180 C 
ATOM     21  C   UNL     1      14.933  15.262  21.413  1.00  0.00     0.179 C 
BRANCH  17  22
ATOM     22  C   UNL     1      12.897  13.779  23.911  1.00  0.00     0.225 C 
BRANCH  22  23
ATOM     23  O   UNL     1      11.550  13.403  24.051  1.00  0.00    -0.391 OA
ATOM     24  H   UNL     1      11.089  13.707  23.228  1.00  0.00     0.210 HD
ENDBRANCH  22  23
ENDBRANCH  17  22
BRANCH  18  25
ATOM     25  O   UNL     1      14.127  16.313  24.125  1.00  0.00    -0.385 OA
ATOM     26  H   UNL     1      14.511  17.227  24.094  1.00  0.00     0.211 HD
ENDBRANCH  18  25
BRANCH  20  27
ATOM     27  O   UNL     1      15.020  17.658  21.970  1.00  0.00    -0.387 OA
ATOM     28  H   UNL     1      15.388  17.961  21.099  1.00  0.00     0.211 HD
ENDBRANCH  20  27
BRANCH  21  29
ATOM     29  C   UNL     1      15.125  15.062  19.906  1.00  0.00     0.191 C 
BRANCH  29  30
ATOM     30  O   UNL     1      14.874  16.256  19.218  1.00  0.00    -0.394 OA
ATOM     31  H   UNL     1      13.917  16.228  18.959  1.00  0.00     0.210 HD
ENDBRANCH  29  30
ENDBRANCH  21  29
ENDBRANCH   1  17
TORSDOF 13
ENDMDL
MODEL 5
REMARK VINA RESULT:    -1.745      1.584      2.160
REMARK INTER + INTRA:          -2.242
REMARK INTER:                  -2.815
REMARK INTRA:                   0.573
REMARK UNBOUND:                 0.421
REMARK SMILES OC[C@@H]1O[C@@H](O[C@@]2(CO)O[C@@H](CO)[C@H](O)[C@@H]2O)[C@H](O)[C@@H](O)[C@@H]1O
REMARK SMILES IDX 6 1 5 2 3 3 22 4 4 5 20 6 18 7 2 8 1 9 23 11 21 13 19 15
REMARK SMILES IDX 7 17 16 18 10 19 14 20 11 21 8 22 9 23 17 25 15 27 12 29
REMARK SMILES IDX 13 30
REMARK H PARENT 1 10 23 12 21 14 19 16 9 24 17 26 15 28 13 31
REMARK Flexibility Score: inf
ROOT
ATOM      1  O   UNL     1      12.278  14.274  20.678  1.00  0.00    -0.313 OA
ENDROOT
BRANCH   1   2
ATOM      2  C   UNL     1      12.471  13.911  22.043  1.00  0.00     0.285 C 
ATOM      3  C   UNL     1      13.617  15.909  22.515  1.00  0.00     0.178 C 
ATOM      4  C   UNL     1      14.967  15.198  22.758  1.00  0.00     0.177 C 
ATOM      5  O   UNL     1      12.528  15.068  22.865  1.00  0.00    -0.341 OA
ATOM      6  C   UNL     1      15.015  13.895  21.935  1.00  0.00     0.179 C 
ATOM      7  C   UNL     1      13.751  13.054  22.181  1.00  0.00     0.202 C 
BRANCH   3   8
ATOM      8  C   UNL     1      13.515  17.227  23.300  1.00  0.00     0.191 C 
BRANCH   8   9
ATOM      9  O   UNL     1      14.779  17.798  23.514  1.00  0.00    -0.394 OA
ATOM     10  H   UNL     1      14.625  18.754  23.728  1.00  0.00     0.210 HD
ENDBRANCH   8   9
ENDBRANCH   3   8
BRANCH   4  11
ATOM     11  O   UNL     1      15.125  14.910  24.125  1.00  0.00    -0.387 OA
ATOM     12  H   UNL     1      14.785  15.702  24.623  1.00  0.00     0.211 HD
ENDBRANCH   4  11
BRANCH   6  13
ATOM     13  O   UNL     1      15.122  14.192  20.566  1.00  0.00    -0.387 OA
ATOM     14  H   UNL     1      14.795  13.394  20.075  1.00  0.00     0.211 HD
ENDBRANCH   6  13
BRANCH   7  15
ATOM     15  O   UNL     1      13.814  12.487  23.464  1.00  0.00    -0.385 OA
ATOM     16  H   UNL     1      14.210  13.171  24.064  1.00  0.00     0.211 HD
ENDBRANCH   7  15
ENDBRANCH   1   2
BRANCH   1  17
ATOM     17  C   UNL     1      12.073  13.183  19.784  1.00  0.00     0.224 C 
ATOM     18  C   UNL     1      10.846  13.438  18.869  1.00  0.00     0.208 C 
ATOM     19  O   UNL     1      11.754  12.063  20.591  1.00  0.00    -0.337 OA
ATOM     20  C   UNL     1       9.717  13.026  19.781  1.00  0.00     0.180 C 
ATOM     21  C   UNL     1      10.350  11.906  20.613  1.00  0.00     0.179 C 
BRANCH  17  22
ATOM     22  C   UNL     1      13.378  12.837  19.016  1.00  0.00     0.225 C 
BRANCH  22  23
ATOM     23  O   UNL     1      13.647  13.808  18.037  1.00  0.00    -0.391 OA
ATOM     24  H   UNL     1      13.483  13.374  17.162  1.00  0.00     0.210 HD
ENDBRANCH  22  23
ENDBRANCH  17  22
BRANCH  18  25
ATOM     25  O   UNL     1      10.874  12.618  17.728  1.00  0.00    -0.385 OA
ATOM     26  H   UNL     1       9.988  12.174  17.676  1.00  0.00     0.211 HD
ENDBRANCH  18  25
BRANCH  20  27
ATOM     27  O   UNL     1       8.554  12.630  19.094  1.00  0.00    -0.387 OA
ATOM     28  H   UNL     1       8.443  13.206  18.293  1.00  0.00     0.211 HD
ENDBRANCH  20  27
BRANCH  21  29
ATOM     29  C   UNL     1       9.844  11.887  22.059  1.00  0.00     0.191 C 
BRANCH  29  30
ATOM     30  O   UNL     1       9.094  13.039  22.330  1.00  0.00    -0.394 OA
ATOM     31  H   UNL     1       8.144  12.785  22.204  1.00  0.00     0.210 HD
ENDBRANCH  29  30
ENDBRANCH  21  29
ENDBRANCH   1  17
TORSDOF 13
ENDMDL
