MODEL 1
REMARK VINA RESULT:    -4.568      0.000      0.000
REMARK INTER + INTRA:          -4.568
REMARK INTER:                  -4.568
REMARK INTRA:                   0.000
REMARK UNBOUND:                 0.000
REMARK SMILES CC(C)=C1CC[C@H](C)CC1=O
REMARK SMILES IDX 8 1 7 2 6 3 5 4 4 5 2 6 1 7 3 8 10 9 11 10 9 11
REMARK H PARENT
REMARK Flexibility Score: inf
ROOT
ATOM      1  C   UNL     1      -2.514  10.959   0.586  1.00  0.00     0.008 C 
ATOM      2  C   UNL     1      -2.463  12.492   0.600  1.00  0.00    -0.006 C 
ATOM      3  C   UNL     1      -1.575  12.993   1.749  1.00  0.00     0.008 C 
ATOM      4  C   UNL     1      -1.595  14.525   1.842  1.00  0.00     0.039 C 
ATOM      5  C   UNL     1      -1.264  15.193   0.515  1.00  0.00    -0.006 C 
ATOM      6  C   UNL     1      -0.617  16.395   0.467  1.00  0.00    -0.070 C 
ATOM      7  C   UNL     1      -0.216  17.120   1.732  1.00  0.00     0.039 C 
ATOM      8  C   UNL     1      -0.233  17.041  -0.845  1.00  0.00     0.039 C 
ATOM      9  C   UNL     1      -1.790  14.518  -0.709  1.00  0.00     0.159 C 
ATOM     10  O   UNL     1      -2.128  15.179  -1.727  1.00  0.00    -0.295 OA
ATOM     11  C   UNL     1      -1.935  13.024  -0.740  1.00  0.00     0.084 C 
ENDROOT
TORSDOF 0
ENDMDL
MODEL 2
REMARK VINA RESULT:    -4.289      2.116      3.551
REMARK INTER + INTRA:          -4.289
REMARK INTER:                  -4.289
REMARK INTRA:                   0.000
REMARK UNBOUND:                 0.000
REMARK SMILES CC(C)=C1CC[C@H](C)CC1=O
REMARK SMILES IDX 8 1 7 2 6 3 5 4 4 5 2 6 1 7 3 8 10 9 11 10 9 11
REMARK H PARENT
REMARK Flexibility Score: inf
ROOT
ATOM      1  C   UNL     1      -2.192  13.343  -2.514  1.00  0.00     0.008 C 
ATOM      2  C   UNL     1      -1.742  13.449  -1.052  1.00  0.00    -0.006 C 
ATOM      3  C   UNL     1      -1.979  14.869  -0.516  1.00  0.00     0.008 C 
ATOM      4  C   UNL     1      -1.439  15.023   0.913  1.00  0.00     0.039 C 
ATOM      5  C   UNL     1      -1.965  13.948   1.853  1.00  0.00    -0.006 C 
ATOM      6  C   UNL     1      -2.168  14.202   3.180  1.00  0.00    -0.070 C 
ATOM      7  C   UNL     1      -1.864  15.559   3.773  1.00  0.00     0.039 C 
ATOM      8  C   UNL     1      -2.743  13.160   4.111  1.00  0.00     0.039 C 
ATOM      9  C   UNL     1      -2.128  12.585   1.265  1.00  0.00     0.159 C 
ATOM     10  O   UNL     1      -1.961  11.547   1.961  1.00  0.00    -0.295 OA
ATOM     11  C   UNL     1      -2.490  12.429  -0.183  1.00  0.00     0.084 C 
ENDROOT
TORSDOF 0
ENDMDL
MODEL 3
REMARK VINA RESULT:    -4.268      9.826     11.556
REMARK INTER + INTRA:          -4.268
REMARK INTER:                  -4.268
REMARK INTRA:                   0.000
REMARK UNBOUND:                 0.000
REMARK SMILES CC(C)=C1CC[C@H](C)CC1=O
REMARK SMILES IDX 8 1 7 2 6 3 5 4 4 5 2 6 1 7 3 8 10 9 11 10 9 11
REMARK H PARENT
REMARK Flexibility Score: inf
ROOT
ATOM      1  C   UNL     1     -10.766   6.138   4.726  1.00  0.00     0.008 C 
ATOM      2  C   UNL     1     -10.006   6.930   5.796  1.00  0.00    -0.006 C 
ATOM      3  C   UNL     1      -9.060   6.007   6.580  1.00  0.00     0.008 C 
ATOM      4  C   UNL     1      -8.366   6.761   7.723  1.00  0.00     0.039 C 
ATOM      5  C   UNL     1      -7.680   8.035   7.249  1.00  0.00    -0.006 C 
ATOM      6  C   UNL     1      -6.545   8.497   7.852  1.00  0.00    -0.070 C 
ATOM      7  C   UNL     1      -5.931   7.769   9.027  1.00  0.00     0.039 C 
ATOM      8  C   UNL     1      -5.824   9.728   7.355  1.00  0.00     0.039 C 
ATOM      9  C   UNL     1      -8.385   8.800   6.177  1.00  0.00     0.159 C 
ATOM     10  O   UNL     1      -8.311  10.056   6.112  1.00  0.00    -0.295 OA
ATOM     11  C   UNL     1      -9.208   8.074   5.153  1.00  0.00     0.084 C 
ENDROOT
TORSDOF 0
ENDMDL
MODEL 4
REMARK VINA RESULT:    -4.137      2.217      4.092
REMARK INTER + INTRA:          -4.137
REMARK INTER:                  -4.137
REMARK INTRA:                   0.000
REMARK UNBOUND:                 0.000
REMARK SMILES CC(C)=C1CC[C@H](C)CC1=O
REMARK SMILES IDX 8 1 7 2 6 3 5 4 4 5 2 6 1 7 3 8 10 9 11 10 9 11
REMARK H PARENT
REMARK Flexibility Score: inf
ROOT
ATOM      1  C   UNL     1       0.327  15.020   4.905  1.00  0.00     0.008 C 
ATOM      2  C   UNL     1      -0.656  14.731   3.764  1.00  0.00    -0.006 C 
ATOM      3  C   UNL     1      -0.365  15.637   2.558  1.00  0.00     0.008 C 
ATOM      4  C   UNL     1      -1.402  15.434   1.445  1.00  0.00     0.039 C 
ATOM      5  C   UNL     1      -1.559  13.971   1.053  1.00  0.00    -0.006 C 
ATOM      6  C   UNL     1      -1.875  13.608  -0.225  1.00  0.00    -0.070 C 
ATOM      7  C   UNL     1      -2.099  14.646  -1.301  1.00  0.00     0.039 C 
ATOM      8  C   UNL     1      -1.978  12.157  -0.638  1.00  0.00     0.039 C 
ATOM      9  C   UNL     1      -1.463  12.980   2.167  1.00  0.00     0.159 C 
ATOM     10  O   UNL     1      -2.122  11.906   2.146  1.00  0.00    -0.295 OA
ATOM     11  C   UNL     1      -0.574  13.256   3.345  1.00  0.00     0.084 C 
ENDROOT
TORSDOF 0
ENDMDL
MODEL 5
REMARK VINA RESULT:    -3.866      1.902      3.821
REMARK INTER + INTRA:          -3.866
REMARK INTER:                  -3.866
REMARK INTRA:                   0.000
REMARK UNBOUND:                 0.000
REMARK SMILES CC(C)=C1CC[C@H](C)CC1=O
REMARK SMILES IDX 8 1 7 2 6 3 5 4 4 5 2 6 1 7 3 8 10 9 11 10 9 11
REMARK H PARENT
REMARK Flexibility Score: inf
ROOT
ATOM      1  C   UNL     1      -1.675  14.864   5.573  1.00  0.00     0.008 C 
ATOM      2  C   UNL     1      -1.279  14.485   4.141  1.00  0.00    -0.006 C 
ATOM      3  C   UNL     1      -1.959  13.173   3.721  1.00  0.00     0.008 C 
ATOM      4  C   UNL     1      -1.493  12.724   2.329  1.00  0.00     0.039 C 
ATOM      5  C   UNL     1      -1.643  13.820   1.284  1.00  0.00    -0.006 C 
ATOM      6  C   UNL     1      -1.914  13.524  -0.022  1.00  0.00    -0.070 C 
ATOM      7  C   UNL     1      -2.061  12.092  -0.486  1.00  0.00     0.039 C 
ATOM      8  C   UNL     1      -2.120  14.605  -1.057  1.00  0.00     0.039 C 
ATOM      9  C   UNL     1      -1.360  15.211   1.747  1.00  0.00     0.159 C 
ATOM     10  O   UNL     1      -0.867  16.073   0.970  1.00  0.00    -0.295 OA
ATOM     11  C   UNL     1      -1.657  15.607   3.164  1.00  0.00     0.084 C 
ENDROOT
TORSDOF 0
ENDMDL
MODEL 6
REMARK VINA RESULT:    -3.747     11.261     13.857
REMARK INTER + INTRA:          -3.747
REMARK INTER:                  -3.747
REMARK INTRA:                   0.000
REMARK UNBOUND:                 0.000
REMARK SMILES CC(C)=C1CC[C@H](C)CC1=O
REMARK SMILES IDX 8 1 7 2 6 3 5 4 4 5 2 6 1 7 3 8 10 9 11 10 9 11
REMARK H PARENT
REMARK Flexibility Score: inf
ROOT
ATOM      1  C   UNL     1      -9.076   9.219   5.815  1.00  0.00     0.008 C 
ATOM      2  C   UNL     1      -8.668   7.772   6.115  1.00  0.00    -0.006 C 
ATOM      3  C   UNL     1      -8.850   7.457   7.608  1.00  0.00     0.008 C 
ATOM      4  C   UNL     1      -8.350   6.046   7.946  1.00  0.00     0.039 C 
ATOM      5  C   UNL     1      -8.959   4.980   7.045  1.00  0.00    -0.006 C 
ATOM      6  C   UNL     1      -9.191   3.714   7.501  1.00  0.00    -0.070 C 
ATOM      7  C   UNL     1      -8.839   3.313   8.916  1.00  0.00     0.039 C 
ATOM      8  C   UNL     1      -9.847   2.664   6.634  1.00  0.00     0.039 C 
ATOM      9  C   UNL     1      -9.171   5.370   5.619  1.00  0.00     0.159 C 
ATOM     10  O   UNL     1      -9.078   4.525   4.689  1.00  0.00    -0.295 OA
ATOM     11  C   UNL     1      -9.494   6.793   5.268  1.00  0.00     0.084 C 
ENDROOT
TORSDOF 0
ENDMDL
MODEL 7
REMARK VINA RESULT:    -3.741      8.233      8.545
REMARK INTER + INTRA:          -3.741
REMARK INTER:                  -3.741
REMARK INTRA:                   0.000
REMARK UNBOUND:                 0.000
REMARK SMILES CC(C)=C1CC[C@H](C)CC1=O
REMARK SMILES IDX 8 1 7 2 6 3 5 4 4 5 2 6 1 7 3 8 10 9 11 10 9 11
REMARK H PARENT
REMARK Flexibility Score: inf
ROOT
ATOM      1  C   UNL     1      -1.715   6.100  -3.263  1.00  0.00     0.008 C 
ATOM      2  C   UNL     1      -0.835   7.278  -3.697  1.00  0.00    -0.006 C 
ATOM      3  C   UNL     1       0.627   6.833  -3.852  1.00  0.00     0.008 C 
ATOM      4  C   UNL     1       1.539   8.022  -4.186  1.00  0.00     0.039 C 
ATOM      5  C   UNL     1       1.041   8.820  -5.383  1.00  0.00    -0.006 C 
ATOM      6  C   UNL     1       1.911   9.451  -6.227  1.00  0.00    -0.070 C 
ATOM      7  C   UNL     1       3.404   9.395  -5.997  1.00  0.00     0.039 C 
ATOM      8  C   UNL     1       1.432  10.199  -7.449  1.00  0.00     0.039 C 
ATOM      9  C   UNL     1      -0.440   8.966  -5.504  1.00  0.00     0.159 C 
ATOM     10  O   UNL     1      -0.957  10.000  -6.004  1.00  0.00    -0.295 OA
ATOM     11  C   UNL     1      -1.345   7.871  -5.018  1.00  0.00     0.084 C 
ENDROOT
TORSDOF 0
ENDMDL
MODEL 8
REMARK VINA RESULT:    -3.732      8.116      9.143
REMARK INTER + INTRA:          -3.732
REMARK INTER:                  -3.732
REMARK INTRA:                   0.000
REMARK UNBOUND:                 0.000
REMARK SMILES CC(C)=C1CC[C@H](C)CC1=O
REMARK SMILES IDX 8 1 7 2 6 3 5 4 4 5 2 6 1 7 3 8 10 9 11 10 9 11
REMARK H PARENT
REMARK Flexibility Score: inf
ROOT
ATOM      1  C   UNL     1      -1.388   3.645  -1.891  1.00  0.00     0.008 C 
ATOM      2  C   UNL     1      -0.808   4.644  -2.899  1.00  0.00    -0.006 C 
ATOM      3  C   UNL     1      -1.843   5.726  -3.244  1.00  0.00     0.008 C 
ATOM      4  C   UNL     1      -1.317   6.675  -4.329  1.00  0.00     0.039 C 
ATOM      5  C   UNL     1       0.045   7.260  -3.981  1.00  0.00    -0.006 C 
ATOM      6  C   UNL     1       0.406   8.512  -4.392  1.00  0.00    -0.070 C 
ATOM      7  C   UNL     1      -0.527   9.363  -5.223  1.00  0.00     0.039 C 
ATOM      8  C   UNL     1       1.732   9.124  -4.005  1.00  0.00     0.039 C 
ATOM      9  C   UNL     1       0.990   6.345  -3.275  1.00  0.00     0.159 C 
ATOM     10  O   UNL     1       2.236   6.427  -3.452  1.00  0.00    -0.295 OA
ATOM     11  C   UNL     1       0.464   5.296  -2.339  1.00  0.00     0.084 C 
ENDROOT
TORSDOF 0
ENDMDL
MODEL 9
REMARK VINA RESULT:    -3.730      8.984     10.987
REMARK INTER + INTRA:          -3.730
REMARK INTER:                  -3.730
REMARK INTRA:                   0.000
REMARK UNBOUND:                 0.000
REMARK SMILES CC(C)=C1CC[C@H](C)CC1=O
REMARK SMILES IDX 8 1 7 2 6 3 5 4 4 5 2 6 1 7 3 8 10 9 11 10 9 11
REMARK H PARENT
REMARK Flexibility Score: inf
ROOT
ATOM      1  C   UNL     1      -0.966   8.609  -5.896  1.00  0.00     0.008 C 
ATOM      2  C   UNL     1      -0.552   7.388  -5.066  1.00  0.00    -0.006 C 
ATOM      3  C   UNL     1      -1.403   7.287  -3.791  1.00  0.00     0.008 C 
ATOM      4  C   UNL     1      -0.934   6.131  -2.897  1.00  0.00     0.039 C 
ATOM      5  C   UNL     1      -0.851   4.810  -3.650  1.00  0.00    -0.006 C 
ATOM      6  C   UNL     1      -1.090   3.620  -3.024  1.00  0.00    -0.070 C 
ATOM      7  C   UNL     1      -1.431   3.564  -1.551  1.00  0.00     0.039 C 
ATOM      8  C   UNL     1      -1.065   2.307  -3.773  1.00  0.00     0.039 C 
ATOM      9  C   UNL     1      -0.382   4.890  -5.065  1.00  0.00     0.159 C 
ATOM     10  O   UNL     1       0.284   3.956  -5.588  1.00  0.00    -0.295 OA
ATOM     11  C   UNL     1      -0.694   6.102  -5.894  1.00  0.00     0.084 C 
ENDROOT
TORSDOF 0
ENDMDL
