MODEL 1
REMARK VINA RESULT:    -3.829      0.000      0.000
REMARK INTER + INTRA:          -5.273
REMARK INTER:                  -4.948
REMARK INTRA:                  -0.325
REMARK UNBOUND:                -0.325
REMARK SMILES CCCCCCC(=O)[O-]
REMARK SMILES IDX 5 1 6 2 7 3 8 4 9 5 4 6 3 7 2 8 1 9
REMARK H PARENT
REMARK Flexibility Score: inf
ROOT
ATOM      1  C   UNL     1      26.704  35.467  33.836  1.00  0.00     0.006 C 
ENDROOT
BRANCH   1   2
ATOM      2  C   UNL     1      26.848  33.992  34.238  1.00  0.00     0.053 C 
BRANCH   2   3
ATOM      3  C   UNL     1      25.539  33.402  34.665  1.00  0.00     0.041 C 
ATOM      4  O   UNL     1      24.964  32.546  33.943  1.00  0.00    -0.550 OA
ATOM      5  O   UNL     1      24.936  33.823  35.844  1.00  0.00    -0.550 OA
ENDBRANCH   2   3
ENDBRANCH   1   2
BRANCH   1   6
ATOM      6  C   UNL     1      27.012  35.696  32.349  1.00  0.00     0.000 C 
BRANCH   6   7
ATOM      7  C   UNL     1      27.827  34.533  31.771  1.00  0.00    -0.000 C 
BRANCH   7   8
ATOM      8  C   UNL     1      27.180  33.991  30.491  1.00  0.00    -0.003 C 
ATOM      9  C   UNL     1      25.691  34.322  30.443  1.00  0.00     0.004 C 
ENDBRANCH   7   8
ENDBRANCH   6   7
ENDBRANCH   1   6
TORSDOF 5
ENDMDL
MODEL 2
REMARK VINA RESULT:    -3.819      0.718      1.207
REMARK INTER + INTRA:          -5.260
REMARK INTER:                  -5.014
REMARK INTRA:                  -0.247
REMARK UNBOUND:                -0.325
REMARK SMILES CCCCCCC(=O)[O-]
REMARK SMILES IDX 5 1 6 2 7 3 8 4 9 5 4 6 3 7 2 8 1 9
REMARK H PARENT
REMARK Flexibility Score: inf
ROOT
ATOM      1  C   UNL     1      26.643  35.254  34.046  1.00  0.00     0.006 C 
ENDROOT
BRANCH   1   2
ATOM      2  C   UNL     1      26.154  33.808  34.217  1.00  0.00     0.053 C 
BRANCH   2   3
ATOM      3  C   UNL     1      25.112  33.698  35.288  1.00  0.00     0.041 C 
ATOM      4  O   UNL     1      25.240  34.334  36.366  1.00  0.00    -0.550 OA
ATOM      5  O   UNL     1      24.013  32.867  35.107  1.00  0.00    -0.550 OA
ENDBRANCH   2   3
ENDBRANCH   1   2
BRANCH   1   6
ATOM      6  C   UNL     1      26.760  35.657  32.569  1.00  0.00     0.000 C 
BRANCH   6   7
ATOM      7  C   UNL     1      27.888  34.883  31.877  1.00  0.00    -0.000 C 
BRANCH   7   8
ATOM      8  C   UNL     1      27.345  34.040  30.716  1.00  0.00    -0.003 C 
ATOM      9  C   UNL     1      25.896  34.402  30.403  1.00  0.00     0.004 C 
ENDBRANCH   7   8
ENDBRANCH   6   7
ENDBRANCH   1   6
TORSDOF 5
ENDMDL
MODEL 3
REMARK VINA RESULT:    -3.771      2.003      3.933
REMARK INTER + INTRA:          -5.199
REMARK INTER:                  -4.840
REMARK INTRA:                  -0.359
REMARK UNBOUND:                -0.325
REMARK SMILES CCCCCCC(=O)[O-]
REMARK SMILES IDX 5 1 6 2 7 3 8 4 9 5 4 6 3 7 2 8 1 9
REMARK H PARENT
REMARK Flexibility Score: inf
ROOT
ATOM      1  C   UNL     1      26.750  35.228  33.550  1.00  0.00     0.006 C 
ENDROOT
BRANCH   1   2
ATOM      2  C   UNL     1      27.011  35.490  32.060  1.00  0.00     0.053 C 
BRANCH   2   3
ATOM      3  C   UNL     1      26.872  34.241  31.244  1.00  0.00     0.041 C 
ATOM      4  O   UNL     1      27.815  33.860  30.502  1.00  0.00    -0.550 OA
ATOM      5  O   UNL     1      25.689  33.515  31.279  1.00  0.00    -0.550 OA
ENDBRANCH   2   3
ENDBRANCH   1   2
BRANCH   1   6
ATOM      6  C   UNL     1      27.715  34.186  34.135  1.00  0.00     0.000 C 
BRANCH   6   7
ATOM      7  C   UNL     1      26.951  33.099  34.899  1.00  0.00    -0.000 C 
BRANCH   7   8
ATOM      8  C   UNL     1      25.436  33.306  34.781  1.00  0.00    -0.003 C 
ATOM      9  C   UNL     1      24.791  33.457  36.155  1.00  0.00     0.004 C 
ENDBRANCH   7   8
ENDBRANCH   6   7
ENDBRANCH   1   6
TORSDOF 5
ENDMDL
MODEL 4
REMARK VINA RESULT:    -3.753      1.864      3.811
REMARK INTER + INTRA:          -5.175
REMARK INTER:                  -4.831
REMARK INTRA:                  -0.344
REMARK UNBOUND:                -0.325
REMARK SMILES CCCCCCC(=O)[O-]
REMARK SMILES IDX 5 1 6 2 7 3 8 4 9 5 4 6 3 7 2 8 1 9
REMARK H PARENT
REMARK Flexibility Score: inf
ROOT
ATOM      1  C   UNL     1      27.917  34.126  32.023  1.00  0.00     0.006 C 
ENDROOT
BRANCH   1   2
ATOM      2  C   UNL     1      27.378  34.027  30.589  1.00  0.00     0.053 C 
BRANCH   2   3
ATOM      3  C   UNL     1      25.890  33.850  30.566  1.00  0.00     0.041 C 
ATOM      4  O   UNL     1      25.324  33.133  31.432  1.00  0.00    -0.550 OA
ATOM      5  O   UNL     1      25.133  34.451  29.568  1.00  0.00    -0.550 OA
ENDBRANCH   2   3
ENDBRANCH   1   2
BRANCH   1   6
ATOM      6  C   UNL     1      27.672  35.510  32.643  1.00  0.00     0.000 C 
BRANCH   6   7
ATOM      7  C   UNL     1      26.670  35.423  33.800  1.00  0.00    -0.000 C 
BRANCH   7   8
ATOM      8  C   UNL     1      26.771  34.069  34.513  1.00  0.00    -0.003 C 
ATOM      9  C   UNL     1      25.485  33.746  35.269  1.00  0.00     0.004 C 
ENDBRANCH   7   8
ENDBRANCH   6   7
ENDBRANCH   1   6
TORSDOF 5
ENDMDL
MODEL 5
REMARK VINA RESULT:    -3.737      1.579      1.621
REMARK INTER + INTRA:          -5.154
REMARK INTER:                  -4.826
REMARK INTRA:                  -0.328
REMARK UNBOUND:                -0.325
REMARK SMILES CCCCCCC(=O)[O-]
REMARK SMILES IDX 5 1 6 2 7 3 8 4 9 5 4 6 3 7 2 8 1 9
REMARK H PARENT
REMARK Flexibility Score: inf
ROOT
ATOM      1  C   UNL     1      26.600  35.175  34.071  1.00  0.00     0.006 C 
ENDROOT
BRANCH   1   2
ATOM      2  C   UNL     1      26.224  33.692  34.206  1.00  0.00     0.053 C 
BRANCH   2   3
ATOM      3  C   UNL     1      27.200  32.948  35.067  1.00  0.00     0.041 C 
ATOM      4  O   UNL     1      26.888  31.832  35.558  1.00  0.00    -0.550 OA
ATOM      5  O   UNL     1      28.441  33.503  35.352  1.00  0.00    -0.550 OA
ENDBRANCH   2   3
ENDBRANCH   1   2
BRANCH   1   6
ATOM      6  C   UNL     1      26.729  35.610  32.603  1.00  0.00     0.000 C 
BRANCH   6   7
ATOM      7  C   UNL     1      27.887  34.879  31.914  1.00  0.00    -0.000 C 
BRANCH   7   8
ATOM      8  C   UNL     1      27.388  34.072  30.710  1.00  0.00    -0.003 C 
ATOM      9  C   UNL     1      25.926  34.383  30.405  1.00  0.00     0.004 C 
ENDBRANCH   7   8
ENDBRANCH   6   7
ENDBRANCH   1   6
TORSDOF 5
ENDMDL
MODEL 6
REMARK VINA RESULT:    -3.472      2.420      4.138
REMARK INTER + INTRA:          -4.812
REMARK INTER:                  -4.490
REMARK INTRA:                  -0.321
REMARK UNBOUND:                -0.325
REMARK SMILES CCCCCCC(=O)[O-]
REMARK SMILES IDX 5 1 6 2 7 3 8 4 9 5 4 6 3 7 2 8 1 9
REMARK H PARENT
REMARK Flexibility Score: inf
ROOT
ATOM      1  C   UNL     1      27.161  35.281  33.335  1.00  0.00     0.006 C 
ENDROOT
BRANCH   1   2
ATOM      2  C   UNL     1      26.608  35.404  31.908  1.00  0.00     0.053 C 
BRANCH   2   3
ATOM      3  C   UNL     1      26.912  34.188  31.088  1.00  0.00     0.041 C 
ATOM      4  O   UNL     1      25.999  33.617  30.437  1.00  0.00    -0.550 OA
ATOM      5  O   UNL     1      28.200  33.667  31.067  1.00  0.00    -0.550 OA
ENDBRANCH   2   3
ENDBRANCH   1   2
BRANCH   1   6
ATOM      6  C   UNL     1      26.406  34.230  34.162  1.00  0.00     0.000 C 
BRANCH   6   7
ATOM      7  C   UNL     1      27.351  33.515  35.135  1.00  0.00    -0.000 C 
BRANCH   7   8
ATOM      8  C   UNL     1      28.771  33.433  34.561  1.00  0.00    -0.003 C 
ATOM      9  C   UNL     1      29.818  33.480  35.670  1.00  0.00     0.004 C 
ENDBRANCH   7   8
ENDBRANCH   6   7
ENDBRANCH   1   6
TORSDOF 5
ENDMDL
MODEL 7
REMARK VINA RESULT:    -3.132      2.277      2.712
REMARK INTER + INTRA:          -4.373
REMARK INTER:                  -4.220
REMARK INTRA:                  -0.153
REMARK UNBOUND:                -0.325
REMARK SMILES CCCCCCC(=O)[O-]
REMARK SMILES IDX 5 1 6 2 7 3 8 4 9 5 4 6 3 7 2 8 1 9
REMARK H PARENT
REMARK Flexibility Score: inf
ROOT
ATOM      1  C   UNL     1      28.352  33.681  34.144  1.00  0.00     0.006 C 
ENDROOT
BRANCH   1   2
ATOM      2  C   UNL     1      28.420  33.142  35.580  1.00  0.00     0.053 C 
BRANCH   2   3
ATOM      3  C   UNL     1      27.951  31.722  35.664  1.00  0.00     0.041 C 
ATOM      4  O   UNL     1      26.834  31.453  36.177  1.00  0.00    -0.550 OA
ATOM      5  O   UNL     1      28.762  30.692  35.204  1.00  0.00    -0.550 OA
ENDBRANCH   2   3
ENDBRANCH   1   2
BRANCH   1   6
ATOM      6  C   UNL     1      27.130  34.584  33.919  1.00  0.00     0.000 C 
BRANCH   6   7
ATOM      7  C   UNL     1      27.357  35.529  32.733  1.00  0.00    -0.000 C 
BRANCH   7   8
ATOM      8  C   UNL     1      26.473  35.139  31.543  1.00  0.00    -0.003 C 
ATOM      9  C   UNL     1      27.164  34.106  30.657  1.00  0.00     0.004 C 
ENDBRANCH   7   8
ENDBRANCH   6   7
ENDBRANCH   1   6
TORSDOF 5
ENDMDL
MODEL 8
REMARK VINA RESULT:    -2.771      2.118      3.495
REMARK INTER + INTRA:          -3.906
REMARK INTER:                  -3.787
REMARK INTRA:                  -0.119
REMARK UNBOUND:                -0.325
REMARK SMILES CCCCCCC(=O)[O-]
REMARK SMILES IDX 5 1 6 2 7 3 8 4 9 5 4 6 3 7 2 8 1 9
REMARK H PARENT
REMARK Flexibility Score: inf
ROOT
ATOM      1  C   UNL     1      26.347  34.039  33.881  1.00  0.00     0.006 C 
ENDROOT
BRANCH   1   2
ATOM      2  C   UNL     1      25.754  34.483  35.226  1.00  0.00     0.053 C 
BRANCH   2   3
ATOM      3  C   UNL     1      24.769  33.485  35.754  1.00  0.00     0.041 C 
ATOM      4  O   UNL     1      24.061  32.811  34.961  1.00  0.00    -0.550 OA
ATOM      5  O   UNL     1      24.610  33.322  37.125  1.00  0.00    -0.550 OA
ENDBRANCH   2   3
ENDBRANCH   1   2
BRANCH   1   6
ATOM      6  C   UNL     1      27.850  34.344  33.780  1.00  0.00     0.000 C 
BRANCH   6   7
ATOM      7  C   UNL     1      28.684  33.165  34.294  1.00  0.00    -0.000 C 
BRANCH   7   8
ATOM      8  C   UNL     1      29.097  33.379  35.755  1.00  0.00    -0.003 C 
ATOM      9  C   UNL     1      30.607  33.560  35.881  1.00  0.00     0.004 C 
ENDBRANCH   7   8
ENDBRANCH   6   7
ENDBRANCH   1   6
TORSDOF 5
ENDMDL
MODEL 9
REMARK VINA RESULT:    -2.746      2.699      4.521
REMARK INTER + INTRA:          -3.874
REMARK INTER:                  -3.498
REMARK INTRA:                  -0.376
REMARK UNBOUND:                -0.325
REMARK SMILES CCCCCCC(=O)[O-]
REMARK SMILES IDX 5 1 6 2 7 3 8 4 9 5 4 6 3 7 2 8 1 9
REMARK H PARENT
REMARK Flexibility Score: inf
ROOT
ATOM      1  C   UNL     1      25.921  33.201  34.385  1.00  0.00     0.006 C 
ENDROOT
BRANCH   1   2
ATOM      2  C   UNL     1      26.379  34.664  34.481  1.00  0.00     0.053 C 
BRANCH   2   3
ATOM      3  C   UNL     1      27.123  35.095  33.254  1.00  0.00     0.041 C 
ATOM      4  O   UNL     1      28.115  34.434  32.849  1.00  0.00    -0.550 OA
ATOM      5  O   UNL     1      26.740  36.246  32.577  1.00  0.00    -0.550 OA
ENDBRANCH   2   3
ENDBRANCH   1   2
BRANCH   1   6
ATOM      6  C   UNL     1      26.342  32.378  35.612  1.00  0.00     0.000 C 
BRANCH   6   7
ATOM      7  C   UNL     1      27.208  33.214  36.562  1.00  0.00    -0.000 C 
BRANCH   7   8
ATOM      8  C   UNL     1      28.608  32.607  36.706  1.00  0.00    -0.003 C 
ATOM      9  C   UNL     1      29.623  33.352  35.844  1.00  0.00     0.004 C 
ENDBRANCH   7   8
ENDBRANCH   6   7
ENDBRANCH   1   6
TORSDOF 5
ENDMDL
