MODEL 1
REMARK VINA RESULT:    -6.083      0.000      0.000
REMARK INTER + INTRA:         -13.501
REMARK INTER:                 -11.773
REMARK INTRA:                  -1.729
REMARK UNBOUND:                -1.729
REMARK SMILES CCCCCCCCCCCCCCCCCC(=O)[O-]
REMARK SMILES IDX 10 1 11 2 12 3 13 4 14 5 15 6 16 7 17 8 18 9 19 10 20 11
REMARK SMILES IDX 9 12 8 13 7 14 6 15 5 16 4 17 3 18 2 19 1 20
REMARK H PARENT
REMARK Flexibility Score: inf
ROOT
ATOM      1  C   UNL     1       5.054  14.572   0.439  1.00  0.00     0.000 C 
ENDROOT
BRANCH   1   2
ATOM      2  C   UNL     1       4.806  13.208   1.112  1.00  0.00     0.000 C 
BRANCH   2   3
ATOM      3  C   UNL     1       3.480  13.141   1.901  1.00  0.00     0.000 C 
BRANCH   3   4
ATOM      4  C   UNL     1       2.432  14.133   1.370  1.00  0.00     0.000 C 
BRANCH   4   5
ATOM      5  C   UNL     1       1.027  13.868   1.934  1.00  0.00     0.000 C 
BRANCH   5   6
ATOM      6  C   UNL     1       0.733  14.688   3.202  1.00  0.00     0.000 C 
BRANCH   6   7
ATOM      7  C   UNL     1      -0.614  14.321   3.843  1.00  0.00     0.006 C 
BRANCH   7   8
ATOM      8  C   UNL     1      -1.752  14.235   2.816  1.00  0.00     0.053 C 
BRANCH   8   9
ATOM      9  C   UNL     1      -3.081  14.315   3.499  1.00  0.00     0.041 C 
ATOM     10  O   UNL     1      -4.128  13.975   2.889  1.00  0.00    -0.550 OA
ATOM     11  O   UNL     1      -3.167  14.812   4.793  1.00  0.00    -0.550 OA
ENDBRANCH   8   9
ENDBRANCH   7   8
ENDBRANCH   6   7
ENDBRANCH   5   6
ENDBRANCH   4   5
ENDBRANCH   3   4
ENDBRANCH   2   3
ENDBRANCH   1   2
BRANCH   1  12
ATOM     12  C   UNL     1       6.524  14.854   0.078  1.00  0.00     0.000 C 
BRANCH  12  13
ATOM     13  C   UNL     1       7.535  13.815   0.605  1.00  0.00    -0.000 C 
BRANCH  13  14
ATOM     14  C   UNL     1       8.919  14.376   0.984  1.00  0.00    -0.000 C 
BRANCH  14  15
ATOM     15  C   UNL     1       9.006  14.995   2.390  1.00  0.00    -0.000 C 
BRANCH  15  16
ATOM     16  C   UNL     1       7.761  14.703   3.245  1.00  0.00    -0.000 C 
BRANCH  16  17
ATOM     17  C   UNL     1       7.150  15.976   3.853  1.00  0.00    -0.000 C 
BRANCH  17  18
ATOM     18  C   UNL     1       5.664  16.142   3.503  1.00  0.00    -0.000 C 
BRANCH  18  19
ATOM     19  C   UNL     1       4.791  15.222   4.364  1.00  0.00    -0.003 C 
ATOM     20  C   UNL     1       3.927  16.027   5.331  1.00  0.00     0.004 C 
ENDBRANCH  18  19
ENDBRANCH  17  18
ENDBRANCH  16  17
ENDBRANCH  15  16
ENDBRANCH  14  15
ENDBRANCH  13  14
ENDBRANCH  12  13
ENDBRANCH   1  12
TORSDOF 16
ENDMDL
MODEL 2
REMARK VINA RESULT:    -6.028      6.218      9.674
REMARK INTER + INTRA:         -13.395
REMARK INTER:                 -12.191
REMARK INTRA:                  -1.204
REMARK UNBOUND:                -1.729
REMARK SMILES CCCCCCCCCCCCCCCCCC(=O)[O-]
REMARK SMILES IDX 10 1 11 2 12 3 13 4 14 5 15 6 16 7 17 8 18 9 19 10 20 11
REMARK SMILES IDX 9 12 8 13 7 14 6 15 5 16 4 17 3 18 2 19 1 20
REMARK H PARENT
REMARK Flexibility Score: inf
ROOT
ATOM      1  C   UNL     1       8.969  14.245   1.778  1.00  0.00     0.000 C 
ENDROOT
BRANCH   1   2
ATOM      2  C   UNL     1      10.413  13.767   1.535  1.00  0.00     0.000 C 
BRANCH   2   3
ATOM      3  C   UNL     1      11.355  14.878   1.025  1.00  0.00     0.000 C 
BRANCH   3   4
ATOM      4  C   UNL     1      10.688  16.265   1.045  1.00  0.00     0.000 C 
BRANCH   4   5
ATOM      5  C   UNL     1      11.642  17.373   1.521  1.00  0.00     0.000 C 
BRANCH   5   6
ATOM      6  C   UNL     1      11.008  18.281   2.589  1.00  0.00     0.000 C 
BRANCH   6   7
ATOM      7  C   UNL     1      12.053  19.103   3.360  1.00  0.00     0.006 C 
BRANCH   7   8
ATOM      8  C   UNL     1      11.785  19.130   4.871  1.00  0.00     0.053 C 
BRANCH   8   9
ATOM      9  C   UNL     1      12.971  19.674   5.603  1.00  0.00     0.041 C 
ATOM     10  O   UNL     1      12.810  20.458   6.574  1.00  0.00    -0.550 OA
ATOM     11  O   UNL     1      14.255  19.354   5.180  1.00  0.00    -0.550 OA
ENDBRANCH   8   9
ENDBRANCH   7   8
ENDBRANCH   6   7
ENDBRANCH   5   6
ENDBRANCH   4   5
ENDBRANCH   3   4
ENDBRANCH   2   3
ENDBRANCH   1   2
BRANCH   1  12
ATOM     12  C   UNL     1       7.941  13.741   0.747  1.00  0.00     0.000 C 
BRANCH  12  13
ATOM     13  C   UNL     1       6.703  14.643   0.568  1.00  0.00    -0.000 C 
BRANCH  13  14
ATOM     14  C   UNL     1       5.377  13.899   0.312  1.00  0.00    -0.000 C 
BRANCH  14  15
ATOM     15  C   UNL     1       4.842  13.096   1.511  1.00  0.00    -0.000 C 
BRANCH  15  16
ATOM     16  C   UNL     1       3.532  13.673   2.074  1.00  0.00    -0.000 C 
BRANCH  16  17
ATOM     17  C   UNL     1       3.680  15.130   2.540  1.00  0.00    -0.000 C 
BRANCH  17  18
ATOM     18  C   UNL     1       3.510  15.283   4.059  1.00  0.00    -0.000 C 
BRANCH  18  19
ATOM     19  C   UNL     1       4.656  16.107   4.659  1.00  0.00    -0.003 C 
ATOM     20  C   UNL     1       5.982  15.787   3.975  1.00  0.00     0.004 C 
ENDBRANCH  18  19
ENDBRANCH  17  18
ENDBRANCH  16  17
ENDBRANCH  15  16
ENDBRANCH  14  15
ENDBRANCH  13  14
ENDBRANCH  12  13
ENDBRANCH   1  12
TORSDOF 16
ENDMDL
MODEL 3
REMARK VINA RESULT:    -5.998      1.480      2.027
REMARK INTER + INTRA:         -13.336
REMARK INTER:                 -11.834
REMARK INTRA:                  -1.502
REMARK UNBOUND:                -1.729
REMARK SMILES CCCCCCCCCCCCCCCCCC(=O)[O-]
REMARK SMILES IDX 10 1 11 2 12 3 13 4 14 5 15 6 16 7 17 8 18 9 19 10 20 11
REMARK SMILES IDX 9 12 8 13 7 14 6 15 5 16 4 17 3 18 2 19 1 20
REMARK H PARENT
REMARK Flexibility Score: inf
ROOT
ATOM      1  C   UNL     1       5.347  13.162   0.403  1.00  0.00     0.000 C 
ENDROOT
BRANCH   1   2
ATOM      2  C   UNL     1       4.240  13.202   1.474  1.00  0.00     0.000 C 
BRANCH   2   3
ATOM      3  C   UNL     1       3.134  14.238   1.181  1.00  0.00     0.000 C 
BRANCH   3   4
ATOM      4  C   UNL     1       1.736  13.727   1.570  1.00  0.00     0.000 C 
BRANCH   4   5
ATOM      5  C   UNL     1       1.015  14.664   2.553  1.00  0.00     0.000 C 
BRANCH   5   6
ATOM      6  C   UNL     1      -0.504  14.427   2.591  1.00  0.00     0.000 C 
BRANCH   6   7
ATOM      7  C   UNL     1      -1.038  14.253   4.021  1.00  0.00     0.006 C 
BRANCH   7   8
ATOM      8  C   UNL     1       0.081  14.243   5.071  1.00  0.00     0.053 C 
BRANCH   8   9
ATOM      9  C   UNL     1      -0.484  14.456   6.440  1.00  0.00     0.041 C 
ATOM     10  O   UNL     1      -1.477  15.212   6.605  1.00  0.00    -0.550 OA
ATOM     11  O   UNL     1       0.118  13.860   7.541  1.00  0.00    -0.550 OA
ENDBRANCH   8   9
ENDBRANCH   7   8
ENDBRANCH   6   7
ENDBRANCH   5   6
ENDBRANCH   4   5
ENDBRANCH   3   4
ENDBRANCH   2   3
ENDBRANCH   1   2
BRANCH   1  12
ATOM     12  C   UNL     1       6.389  14.290   0.511  1.00  0.00     0.000 C 
BRANCH  12  13
ATOM     13  C   UNL     1       7.851  13.816   0.642  1.00  0.00    -0.000 C 
BRANCH  13  14
ATOM     14  C   UNL     1       8.649  14.453   1.797  1.00  0.00    -0.000 C 
BRANCH  14  15
ATOM     15  C   UNL     1       7.916  14.486   3.150  1.00  0.00    -0.000 C 
BRANCH  15  16
ATOM     16  C   UNL     1       7.709  15.916   3.678  1.00  0.00    -0.000 C 
BRANCH  16  17
ATOM     17  C   UNL     1       6.255  16.186   4.096  1.00  0.00    -0.000 C 
BRANCH  17  18
ATOM     18  C   UNL     1       5.338  14.976   3.859  1.00  0.00    -0.000 C 
BRANCH  18  19
ATOM     19  C   UNL     1       4.094  15.046   4.753  1.00  0.00    -0.003 C 
ATOM     20  C   UNL     1       3.895  16.452   5.313  1.00  0.00     0.004 C 
ENDBRANCH  18  19
ENDBRANCH  17  18
ENDBRANCH  16  17
ENDBRANCH  15  16
ENDBRANCH  14  15
ENDBRANCH  13  14
ENDBRANCH  12  13
ENDBRANCH   1  12
TORSDOF 16
ENDMDL
MODEL 4
REMARK VINA RESULT:    -5.995      4.123      5.836
REMARK INTER + INTRA:         -13.331
REMARK INTER:                 -12.133
REMARK INTRA:                  -1.199
REMARK UNBOUND:                -1.729
REMARK SMILES CCCCCCCCCCCCCCCCCC(=O)[O-]
REMARK SMILES IDX 10 1 11 2 12 3 13 4 14 5 15 6 16 7 17 8 18 9 19 10 20 11
REMARK SMILES IDX 9 12 8 13 7 14 6 15 5 16 4 17 3 18 2 19 1 20
REMARK H PARENT
REMARK Flexibility Score: inf
ROOT
ATOM      1  C   UNL     1       8.389  13.461   0.614  1.00  0.00     0.000 C 
ENDROOT
BRANCH   1   2
ATOM      2  C   UNL     1       7.478  14.239   1.584  1.00  0.00     0.000 C 
BRANCH   2   3
ATOM      3  C   UNL     1       6.146  14.694   0.951  1.00  0.00     0.000 C 
BRANCH   3   4
ATOM      4  C   UNL     1       5.259  13.508   0.536  1.00  0.00     0.000 C 
BRANCH   4   5
ATOM      5  C   UNL     1       4.077  13.289   1.495  1.00  0.00     0.000 C 
BRANCH   5   6
ATOM      6  C   UNL     1       3.234  14.560   1.695  1.00  0.00     0.000 C 
BRANCH   6   7
ATOM      7  C   UNL     1       3.044  14.915   3.178  1.00  0.00     0.006 C 
BRANCH   7   8
ATOM      8  C   UNL     1       4.262  14.541   4.034  1.00  0.00     0.053 C 
BRANCH   8   9
ATOM      9  C   UNL     1       4.893  15.770   4.611  1.00  0.00     0.041 C 
ATOM     10  O   UNL     1       6.030  16.142   4.218  1.00  0.00    -0.550 OA
ATOM     11  O   UNL     1       4.246  16.474   5.618  1.00  0.00    -0.550 OA
ENDBRANCH   8   9
ENDBRANCH   7   8
ENDBRANCH   6   7
ENDBRANCH   5   6
ENDBRANCH   4   5
ENDBRANCH   3   4
ENDBRANCH   2   3
ENDBRANCH   1   2
BRANCH   1  12
ATOM     12  C   UNL     1       9.731  14.147   0.301  1.00  0.00     0.000 C 
BRANCH  12  13
ATOM     13  C   UNL     1      10.039  15.396   1.153  1.00  0.00    -0.000 C 
BRANCH  13  14
ATOM     14  C   UNL     1      11.427  16.023   0.924  1.00  0.00    -0.000 C 
BRANCH  14  15
ATOM     15  C   UNL     1      11.534  17.515   1.290  1.00  0.00    -0.000 C 
BRANCH  15  16
ATOM     16  C   UNL     1      10.867  17.844   2.637  1.00  0.00    -0.000 C 
BRANCH  16  17
ATOM     17  C   UNL     1      11.397  19.148   3.254  1.00  0.00    -0.000 C 
BRANCH  17  18
ATOM     18  C   UNL     1      11.545  19.061   4.781  1.00  0.00    -0.000 C 
BRANCH  18  19
ATOM     19  C   UNL     1      12.974  19.407   5.215  1.00  0.00    -0.003 C 
ATOM     20  C   UNL     1      13.764  20.029   4.067  1.00  0.00     0.004 C 
ENDBRANCH  18  19
ENDBRANCH  17  18
ENDBRANCH  16  17
ENDBRANCH  15  16
ENDBRANCH  14  15
ENDBRANCH  13  14
ENDBRANCH  12  13
ENDBRANCH   1  12
TORSDOF 16
ENDMDL
MODEL 5
REMARK VINA RESULT:    -5.990      2.296      6.673
REMARK INTER + INTRA:         -13.322
REMARK INTER:                 -11.684
REMARK INTRA:                  -1.638
REMARK UNBOUND:                -1.729
REMARK SMILES CCCCCCCCCCCCCCCCCC(=O)[O-]
REMARK SMILES IDX 10 1 11 2 12 3 13 4 14 5 15 6 16 7 17 8 18 9 19 10 20 11
REMARK SMILES IDX 9 12 8 13 7 14 6 15 5 16 4 17 3 18 2 19 1 20
REMARK H PARENT
REMARK Flexibility Score: inf
ROOT
ATOM      1  C   UNL     1       5.370  14.647   0.072  1.00  0.00     0.000 C 
ENDROOT
BRANCH   1   2
ATOM      2  C   UNL     1       6.163  13.563   0.826  1.00  0.00     0.000 C 
BRANCH   2   3
ATOM      3  C   UNL     1       7.694  13.728   0.717  1.00  0.00     0.000 C 
BRANCH   3   4
ATOM      4  C   UNL     1       8.242  14.771   1.706  1.00  0.00     0.000 C 
BRANCH   4   5
ATOM      5  C   UNL     1       7.708  14.571   3.134  1.00  0.00     0.000 C 
BRANCH   5   6
ATOM      6  C   UNL     1       7.294  15.893   3.802  1.00  0.00     0.000 C 
BRANCH   6   7
ATOM      7  C   UNL     1       5.794  16.190   3.644  1.00  0.00     0.006 C 
BRANCH   7   8
ATOM      8  C   UNL     1       4.909  15.057   4.181  1.00  0.00     0.053 C 
BRANCH   8   9
ATOM      9  C   UNL     1       3.879  15.599   5.121  1.00  0.00     0.041 C 
ATOM     10  O   UNL     1       2.719  15.109   5.140  1.00  0.00    -0.550 OA
ATOM     11  O   UNL     1       4.186  16.677   5.940  1.00  0.00    -0.550 OA
ENDBRANCH   8   9
ENDBRANCH   7   8
ENDBRANCH   6   7
ENDBRANCH   5   6
ENDBRANCH   4   5
ENDBRANCH   3   4
ENDBRANCH   2   3
ENDBRANCH   1   2
BRANCH   1  12
ATOM     12  C   UNL     1       4.025  15.028   0.717  1.00  0.00     0.000 C 
BRANCH  12  13
ATOM     13  C   UNL     1       2.940  13.933   0.654  1.00  0.00    -0.000 C 
BRANCH  13  14
ATOM     14  C   UNL     1       2.132  13.732   1.951  1.00  0.00    -0.000 C 
BRANCH  14  15
ATOM     15  C   UNL     1       0.610  13.900   1.799  1.00  0.00    -0.000 C 
BRANCH  15  16
ATOM     16  C   UNL     1      -0.017  14.705   2.951  1.00  0.00    -0.000 C 
BRANCH  16  17
ATOM     17  C   UNL     1      -0.842  13.826   3.904  1.00  0.00    -0.000 C 
BRANCH  17  18
ATOM     18  C   UNL     1      -2.281  14.333   4.077  1.00  0.00    -0.000 C 
BRANCH  18  19
ATOM     19  C   UNL     1      -3.027  14.336   2.737  1.00  0.00    -0.003 C 
ATOM     20  C   UNL     1      -4.514  14.617   2.934  1.00  0.00     0.004 C 
ENDBRANCH  18  19
ENDBRANCH  17  18
ENDBRANCH  16  17
ENDBRANCH  15  16
ENDBRANCH  14  15
ENDBRANCH  13  14
ENDBRANCH  12  13
ENDBRANCH   1  12
TORSDOF 16
ENDMDL
MODEL 6
REMARK VINA RESULT:    -5.936      6.029      9.537
REMARK INTER + INTRA:         -13.218
REMARK INTER:                 -11.146
REMARK INTRA:                  -2.072
REMARK UNBOUND:                -1.729
REMARK SMILES CCCCCCCCCCCCCCCCCC(=O)[O-]
REMARK SMILES IDX 10 1 11 2 12 3 13 4 14 5 15 6 16 7 17 8 18 9 19 10 20 11
REMARK SMILES IDX 9 12 8 13 7 14 6 15 5 16 4 17 3 18 2 19 1 20
REMARK H PARENT
REMARK Flexibility Score: inf
ROOT
ATOM      1  C   UNL     1       8.424  14.648   1.392  1.00  0.00     0.000 C 
ENDROOT
BRANCH   1   2
ATOM      2  C   UNL     1       9.679  13.893   0.914  1.00  0.00     0.000 C 
BRANCH   2   3
ATOM      3  C   UNL     1      10.996  14.658   1.169  1.00  0.00     0.000 C 
BRANCH   3   4
ATOM      4  C   UNL     1      11.001  16.047   0.509  1.00  0.00     0.000 C 
BRANCH   4   5
ATOM      5  C   UNL     1      11.494  17.152   1.458  1.00  0.00     0.000 C 
BRANCH   5   6
ATOM      6  C   UNL     1      10.467  17.494   2.551  1.00  0.00     0.000 C 
BRANCH   6   7
ATOM      7  C   UNL     1      10.834  18.769   3.327  1.00  0.00     0.006 C 
BRANCH   7   8
ATOM      8  C   UNL     1      12.322  19.122   3.210  1.00  0.00     0.053 C 
BRANCH   8   9
ATOM      9  C   UNL     1      12.789  19.833   4.442  1.00  0.00     0.041 C 
ATOM     10  O   UNL     1      13.691  20.708   4.364  1.00  0.00    -0.550 OA
ATOM     11  O   UNL     1      12.264  19.491   5.681  1.00  0.00    -0.550 OA
ENDBRANCH   8   9
ENDBRANCH   7   8
ENDBRANCH   6   7
ENDBRANCH   5   6
ENDBRANCH   4   5
ENDBRANCH   3   4
ENDBRANCH   2   3
ENDBRANCH   1   2
BRANCH   1  12
ATOM     12  C   UNL     1       8.147  14.547   2.903  1.00  0.00     0.000 C 
BRANCH  12  13
ATOM     13  C   UNL     1       7.452  15.777   3.521  1.00  0.00    -0.000 C 
BRANCH  13  14
ATOM     14  C   UNL     1       6.010  15.541   4.012  1.00  0.00    -0.000 C 
BRANCH  14  15
ATOM     15  C   UNL     1       4.933  16.362   3.281  1.00  0.00    -0.000 C 
BRANCH  15  16
ATOM     16  C   UNL     1       5.168  16.431   1.762  1.00  0.00    -0.000 C 
BRANCH  16  17
ATOM     17  C   UNL     1       4.266  15.464   0.980  1.00  0.00    -0.000 C 
BRANCH  17  18
ATOM     18  C   UNL     1       5.064  14.385   0.233  1.00  0.00    -0.000 C 
BRANCH  18  19
ATOM     19  C   UNL     1       5.145  13.094   1.056  1.00  0.00    -0.003 C 
ATOM     20  C   UNL     1       4.019  13.023   2.084  1.00  0.00     0.004 C 
ENDBRANCH  18  19
ENDBRANCH  17  18
ENDBRANCH  16  17
ENDBRANCH  15  16
ENDBRANCH  14  15
ENDBRANCH  13  14
ENDBRANCH  12  13
ENDBRANCH   1  12
TORSDOF 16
ENDMDL
MODEL 7
REMARK VINA RESULT:    -5.840      2.752      7.443
REMARK INTER + INTRA:         -13.031
REMARK INTER:                 -11.551
REMARK INTRA:                  -1.481
REMARK UNBOUND:                -1.729
REMARK SMILES CCCCCCCCCCCCCCCCCC(=O)[O-]
REMARK SMILES IDX 10 1 11 2 12 3 13 4 14 5 15 6 16 7 17 8 18 9 19 10 20 11
REMARK SMILES IDX 9 12 8 13 7 14 6 15 5 16 4 17 3 18 2 19 1 20
REMARK H PARENT
REMARK Flexibility Score: inf
ROOT
ATOM      1  C   UNL     1       4.469  13.667   0.605  1.00  0.00     0.000 C 
ENDROOT
BRANCH   1   2
ATOM      2  C   UNL     1       5.925  13.198   0.793  1.00  0.00     0.000 C 
BRANCH   2   3
ATOM      3  C   UNL     1       6.972  14.277   0.446  1.00  0.00     0.000 C 
BRANCH   3   4
ATOM      4  C   UNL     1       8.401  13.849   0.823  1.00  0.00     0.000 C 
BRANCH   4   5
ATOM      5  C   UNL     1       9.035  14.768   1.880  1.00  0.00     0.000 C 
BRANCH   5   6
ATOM      6  C   UNL     1       8.423  14.573   3.278  1.00  0.00     0.000 C 
BRANCH   6   7
ATOM      7  C   UNL     1       7.462  15.708   3.665  1.00  0.00     0.006 C 
BRANCH   7   8
ATOM      8  C   UNL     1       6.027  15.215   3.890  1.00  0.00     0.053 C 
BRANCH   8   9
ATOM      9  C   UNL     1       5.043  16.278   3.514  1.00  0.00     0.041 C 
ATOM     10  O   UNL     1       5.043  16.758   2.350  1.00  0.00    -0.550 OA
ATOM     11  O   UNL     1       4.161  16.775   4.465  1.00  0.00    -0.550 OA
ENDBRANCH   8   9
ENDBRANCH   7   8
ENDBRANCH   6   7
ENDBRANCH   5   6
ENDBRANCH   4   5
ENDBRANCH   3   4
ENDBRANCH   2   3
ENDBRANCH   1   2
BRANCH   1  12
ATOM     12  C   UNL     1       3.527  13.332   1.776  1.00  0.00     0.000 C 
BRANCH  12  13
ATOM     13  C   UNL     1       2.100  13.903   1.647  1.00  0.00    -0.000 C 
BRANCH  13  14
ATOM     14  C   UNL     1       1.616  14.743   2.845  1.00  0.00    -0.000 C 
BRANCH  14  15
ATOM     15  C   UNL     1       0.216  14.379   3.369  1.00  0.00    -0.000 C 
BRANCH  15  16
ATOM     16  C   UNL     1      -0.655  13.687   2.306  1.00  0.00    -0.000 C 
BRANCH  16  17
ATOM     17  C   UNL     1      -2.122  14.141   2.359  1.00  0.00    -0.000 C 
BRANCH  17  18
ATOM     18  C   UNL     1      -2.634  14.320   3.796  1.00  0.00    -0.000 C 
BRANCH  18  19
ATOM     19  C   UNL     1      -4.011  14.992   3.808  1.00  0.00    -0.003 C 
ATOM     20  C   UNL     1      -4.785  14.690   2.528  1.00  0.00     0.004 C 
ENDBRANCH  18  19
ENDBRANCH  17  18
ENDBRANCH  16  17
ENDBRANCH  15  16
ENDBRANCH  14  15
ENDBRANCH  13  14
ENDBRANCH  12  13
ENDBRANCH   1  12
TORSDOF 16
ENDMDL
MODEL 8
REMARK VINA RESULT:    -5.801      5.746      9.419
REMARK INTER + INTRA:         -12.956
REMARK INTER:                 -11.090
REMARK INTRA:                  -1.866
REMARK UNBOUND:                -1.729
REMARK SMILES CCCCCCCCCCCCCCCCCC(=O)[O-]
REMARK SMILES IDX 10 1 11 2 12 3 13 4 14 5 15 6 16 7 17 8 18 9 19 10 20 11
REMARK SMILES IDX 9 12 8 13 7 14 6 15 5 16 4 17 3 18 2 19 1 20
REMARK H PARENT
REMARK Flexibility Score: inf
ROOT
ATOM      1  C   UNL     1       8.533  14.696   3.230  1.00  0.00     0.000 C 
ENDROOT
BRANCH   1   2
ATOM      2  C   UNL     1       8.486  14.769   1.692  1.00  0.00     0.000 C 
BRANCH   2   3
ATOM      3  C   UNL     1       9.756  14.221   1.007  1.00  0.00     0.000 C 
BRANCH   3   4
ATOM      4  C   UNL     1      10.466  15.286   0.154  1.00  0.00     0.000 C 
BRANCH   4   5
ATOM      5  C   UNL     1      11.627  15.964   0.899  1.00  0.00     0.000 C 
BRANCH   5   6
ATOM      6  C   UNL     1      11.354  17.449   1.193  1.00  0.00     0.000 C 
BRANCH   6   7
ATOM      7  C   UNL     1      10.847  17.684   2.625  1.00  0.00     0.006 C 
BRANCH   7   8
ATOM      8  C   UNL     1      11.034  19.136   3.086  1.00  0.00     0.053 C 
BRANCH   8   9
ATOM      9  C   UNL     1      12.272  19.266   3.916  1.00  0.00     0.041 C 
ATOM     10  O   UNL     1      12.186  19.510   5.148  1.00  0.00    -0.550 OA
ATOM     11  O   UNL     1      13.522  19.167   3.318  1.00  0.00    -0.550 OA
ENDBRANCH   8   9
ENDBRANCH   7   8
ENDBRANCH   6   7
ENDBRANCH   5   6
ENDBRANCH   4   5
ENDBRANCH   3   4
ENDBRANCH   2   3
ENDBRANCH   1   2
BRANCH   1  12
ATOM     12  C   UNL     1       7.677  15.754   3.952  1.00  0.00     0.000 C 
BRANCH  12  13
ATOM     13  C   UNL     1       6.235  15.893   3.425  1.00  0.00    -0.000 C 
BRANCH  13  14
ATOM     14  C   UNL     1       5.137  15.913   4.507  1.00  0.00    -0.000 C 
BRANCH  14  15
ATOM     15  C   UNL     1       4.043  14.844   4.341  1.00  0.00    -0.000 C 
BRANCH  15  16
ATOM     16  C   UNL     1       3.051  15.180   3.214  1.00  0.00    -0.000 C 
BRANCH  16  17
ATOM     17  C   UNL     1       3.043  14.123   2.099  1.00  0.00    -0.000 C 
BRANCH  17  18
ATOM     18  C   UNL     1       3.481  14.693   0.742  1.00  0.00    -0.000 C 
BRANCH  18  19
ATOM     19  C   UNL     1       4.908  14.253   0.395  1.00  0.00    -0.003 C 
ATOM     20  C   UNL     1       5.319  13.027   1.206  1.00  0.00     0.004 C 
ENDBRANCH  18  19
ENDBRANCH  17  18
ENDBRANCH  16  17
ENDBRANCH  15  16
ENDBRANCH  14  15
ENDBRANCH  13  14
ENDBRANCH  12  13
ENDBRANCH   1  12
TORSDOF 16
ENDMDL
MODEL 9
REMARK VINA RESULT:    -5.762      0.972      1.883
REMARK INTER + INTRA:         -12.881
REMARK INTER:                 -11.135
REMARK INTRA:                  -1.746
REMARK UNBOUND:                -1.729
REMARK SMILES CCCCCCCCCCCCCCCCCC(=O)[O-]
REMARK SMILES IDX 10 1 11 2 12 3 13 4 14 5 15 6 16 7 17 8 18 9 19 10 20 11
REMARK SMILES IDX 9 12 8 13 7 14 6 15 5 16 4 17 3 18 2 19 1 20
REMARK H PARENT
REMARK Flexibility Score: inf
ROOT
ATOM      1  C   UNL     1       7.189  13.381   0.534  1.00  0.00     0.000 C 
ENDROOT
BRANCH   1   2
ATOM      2  C   UNL     1       6.421  14.682   0.236  1.00  0.00     0.000 C 
BRANCH   2   3
ATOM      3  C   UNL     1       4.888  14.536   0.353  1.00  0.00     0.000 C 
BRANCH   3   4
ATOM      4  C   UNL     1       4.476  13.208   1.009  1.00  0.00     0.000 C 
BRANCH   4   5
ATOM      5  C   UNL     1       3.323  13.376   2.012  1.00  0.00     0.000 C 
BRANCH   5   6
ATOM      6  C   UNL     1       2.057  13.965   1.365  1.00  0.00     0.000 C 
BRANCH   6   7
ATOM      7  C   UNL     1       0.977  14.321   2.399  1.00  0.00     0.006 C 
BRANCH   7   8
ATOM      8  C   UNL     1      -0.403  13.762   2.028  1.00  0.00     0.053 C 
BRANCH   8   9
ATOM      9  C   UNL     1      -1.412  14.123   3.072  1.00  0.00     0.041 C 
ATOM     10  O   UNL     1      -2.622  14.269   2.758  1.00  0.00    -0.550 OA
ATOM     11  O   UNL     1      -1.006  14.348   4.381  1.00  0.00    -0.550 OA
ENDBRANCH   8   9
ENDBRANCH   7   8
ENDBRANCH   6   7
ENDBRANCH   5   6
ENDBRANCH   4   5
ENDBRANCH   3   4
ENDBRANCH   2   3
ENDBRANCH   1   2
BRANCH   1  12
ATOM     12  C   UNL     1       8.715  13.474   0.343  1.00  0.00     0.000 C 
BRANCH  12  13
ATOM     13  C   UNL     1       9.304  14.891   0.498  1.00  0.00    -0.000 C 
BRANCH  13  14
ATOM     14  C   UNL     1       9.670  15.298   1.938  1.00  0.00    -0.000 C 
BRANCH  14  15
ATOM     15  C   UNL     1       8.770  14.695   3.032  1.00  0.00    -0.000 C 
BRANCH  15  16
ATOM     16  C   UNL     1       8.055  15.768   3.871  1.00  0.00    -0.000 C 
BRANCH  16  17
ATOM     17  C   UNL     1       6.662  16.114   3.323  1.00  0.00    -0.000 C 
BRANCH  17  18
ATOM     18  C   UNL     1       5.546  15.298   3.992  1.00  0.00    -0.000 C 
BRANCH  18  19
ATOM     19  C   UNL     1       4.302  16.161   4.233  1.00  0.00    -0.003 C 
ATOM     20  C   UNL     1       3.301  15.448   5.137  1.00  0.00     0.004 C 
ENDBRANCH  18  19
ENDBRANCH  17  18
ENDBRANCH  16  17
ENDBRANCH  15  16
ENDBRANCH  14  15
ENDBRANCH  13  14
ENDBRANCH  12  13
ENDBRANCH   1  12
TORSDOF 16
ENDMDL
