MODEL 1
REMARK VINA RESULT:    -2.529      0.000      0.000
REMARK INTER + INTRA:          -6.807
REMARK INTER:                  -4.599
REMARK INTRA:                  -2.208
REMARK UNBOUND:                -2.208
REMARK SMILES CCCCCCCCCCCCCC[C@H](C)C(=O)[O-]
REMARK SMILES IDX 9 1 10 2 11 3 12 4 13 5 14 6 15 7 16 8 17 9 18 10 19 11 8 12
REMARK SMILES IDX 7 13 6 14 5 15 4 16 3 17 2 18 1 19
REMARK H PARENT
REMARK Flexibility Score: inf
ROOT
ATOM      1  C   UNL     1      74.564  91.019  73.279  1.00  0.00     0.000 C 
ENDROOT
BRANCH   1   2
ATOM      2  C   UNL     1      76.009  91.166  73.807  1.00  0.00     0.000 C 
BRANCH   2   3
ATOM      3  C   UNL     1      76.135  92.125  75.006  1.00  0.00     0.000 C 
BRANCH   3   4
ATOM      4  C   UNL     1      75.206  91.806  76.188  1.00  0.00     0.000 C 
BRANCH   4   5
ATOM      5  C   UNL     1      75.972  91.557  77.497  1.00  0.00     0.001 C 
BRANCH   5   6
ATOM      6  C   UNL     1      75.094  91.876  78.716  1.00  0.00     0.009 C 
BRANCH   6   7
ATOM      7  C   UNL     1      75.148  90.760  79.780  1.00  0.00     0.032 C 
ATOM      8  C   UNL     1      75.744  89.478  79.189  1.00  0.00     0.014 C 
BRANCH   7   9
ATOM      9  C   UNL     1      73.783  90.476  80.350  1.00  0.00     0.044 C 
ATOM     10  O   UNL     1      73.496  89.329  80.785  1.00  0.00    -0.550 OA
ATOM     11  O   UNL     1      72.828  91.484  80.395  1.00  0.00    -0.550 OA
ENDBRANCH   7   9
ENDBRANCH   6   7
ENDBRANCH   5   6
ENDBRANCH   4   5
ENDBRANCH   3   4
ENDBRANCH   2   3
ENDBRANCH   1   2
BRANCH   1  12
ATOM     12  C   UNL     1      74.151  89.545  73.119  1.00  0.00     0.000 C 
BRANCH  12  13
ATOM     13  C   UNL     1      75.282  88.567  73.478  1.00  0.00    -0.000 C 
BRANCH  13  14
ATOM     14  C   UNL     1      74.952  87.709  74.711  1.00  0.00    -0.000 C 
BRANCH  14  15
ATOM     15  C   UNL     1      75.823  88.067  75.928  1.00  0.00    -0.000 C 
BRANCH  15  16
ATOM     16  C   UNL     1      77.324  87.890  75.657  1.00  0.00    -0.000 C 
BRANCH  16  17
ATOM     17  C   UNL     1      78.102  89.158  76.038  1.00  0.00    -0.000 C 
BRANCH  17  18
ATOM     18  C   UNL     1      79.266  88.871  76.999  1.00  0.00    -0.003 C 
ATOM     19  C   UNL     1      78.902  87.860  78.085  1.00  0.00     0.004 C 
ENDBRANCH  17  18
ENDBRANCH  16  17
ENDBRANCH  15  16
ENDBRANCH  14  15
ENDBRANCH  13  14
ENDBRANCH  12  13
ENDBRANCH   1  12
TORSDOF 14
ENDMDL
MODEL 2
REMARK VINA RESULT:    -2.440     12.942     15.808
REMARK INTER + INTRA:          -6.644
REMARK INTER:                  -4.091
REMARK INTRA:                  -2.553
REMARK UNBOUND:                -2.208
REMARK SMILES CCCCCCCCCCCCCC[C@H](C)C(=O)[O-]
REMARK SMILES IDX 9 1 10 2 11 3 12 4 13 5 14 6 15 7 16 8 17 9 18 10 19 11 8 12
REMARK SMILES IDX 7 13 6 14 5 15 4 16 3 17 2 18 1 19
REMARK H PARENT
REMARK Flexibility Score: inf
ROOT
ATOM      1  C   UNL     1      76.263  90.530  92.602  1.00  0.00     0.000 C 
ENDROOT
BRANCH   1   2
ATOM      2  C   UNL     1      76.660  89.720  91.347  1.00  0.00     0.000 C 
BRANCH   2   3
ATOM      3  C   UNL     1      77.802  88.715  91.596  1.00  0.00     0.000 C 
BRANCH   3   4
ATOM      4  C   UNL     1      77.561  87.310  91.022  1.00  0.00     0.000 C 
BRANCH   4   5
ATOM      5  C   UNL     1      77.720  86.202  92.075  1.00  0.00     0.001 C 
BRANCH   5   6
ATOM      6  C   UNL     1      76.382  85.907  92.768  1.00  0.00     0.009 C 
BRANCH   6   7
ATOM      7  C   UNL     1      75.536  84.879  91.989  1.00  0.00     0.032 C 
ATOM      8  C   UNL     1      74.526  84.195  92.916  1.00  0.00     0.014 C 
BRANCH   7   9
ATOM      9  C   UNL     1      76.402  83.846  91.320  1.00  0.00     0.044 C 
ATOM     10  O   UNL     1      76.947  82.931  91.996  1.00  0.00    -0.550 OA
ATOM     11  O   UNL     1      76.609  83.897  89.947  1.00  0.00    -0.550 OA
ENDBRANCH   7   9
ENDBRANCH   6   7
ENDBRANCH   5   6
ENDBRANCH   4   5
ENDBRANCH   3   4
ENDBRANCH   2   3
ENDBRANCH   1   2
BRANCH   1  12
ATOM     12  C   UNL     1      74.823  90.230  93.054  1.00  0.00     0.000 C 
BRANCH  12  13
ATOM     13  C   UNL     1      74.125  89.185  92.169  1.00  0.00    -0.000 C 
BRANCH  13  14
ATOM     14  C   UNL     1      73.368  88.126  92.988  1.00  0.00    -0.000 C 
BRANCH  14  15
ATOM     15  C   UNL     1      72.585  87.143  92.102  1.00  0.00    -0.000 C 
BRANCH  15  16
ATOM     16  C   UNL     1      72.696  87.473  90.606  1.00  0.00    -0.000 C 
BRANCH  16  17
ATOM     17  C   UNL     1      72.982  86.207  89.786  1.00  0.00    -0.000 C 
BRANCH  17  18
ATOM     18  C   UNL     1      74.183  86.372  88.842  1.00  0.00    -0.003 C 
ATOM     19  C   UNL     1      74.698  87.810  88.784  1.00  0.00     0.004 C 
ENDBRANCH  17  18
ENDBRANCH  16  17
ENDBRANCH  15  16
ENDBRANCH  14  15
ENDBRANCH  13  14
ENDBRANCH  12  13
ENDBRANCH   1  12
TORSDOF 14
ENDMDL
MODEL 3
REMARK VINA RESULT:    -2.399     13.651     16.022
REMARK INTER + INTRA:          -6.570
REMARK INTER:                  -3.972
REMARK INTRA:                  -2.598
REMARK UNBOUND:                -2.208
REMARK SMILES CCCCCCCCCCCCCC[C@H](C)C(=O)[O-]
REMARK SMILES IDX 9 1 10 2 11 3 12 4 13 5 14 6 15 7 16 8 17 9 18 10 19 11 8 12
REMARK SMILES IDX 7 13 6 14 5 15 4 16 3 17 2 18 1 19
REMARK H PARENT
REMARK Flexibility Score: inf
ROOT
ATOM      1  C   UNL     1      77.212  87.366  89.214  1.00  0.00     0.000 C 
ENDROOT
BRANCH   1   2
ATOM      2  C   UNL     1      77.998  88.505  89.902  1.00  0.00     0.000 C 
BRANCH   2   3
ATOM      3  C   UNL     1      79.140  88.007  90.809  1.00  0.00     0.000 C 
BRANCH   3   4
ATOM      4  C   UNL     1      78.846  88.077  92.316  1.00  0.00     0.000 C 
BRANCH   4   5
ATOM      5  C   UNL     1      78.283  86.761  92.874  1.00  0.00     0.001 C 
BRANCH   5   6
ATOM      6  C   UNL     1      78.991  85.552  92.244  1.00  0.00     0.009 C 
BRANCH   6   7
ATOM      7  C   UNL     1      78.020  84.383  91.978  1.00  0.00     0.032 C 
ATOM      8  C   UNL     1      76.967  84.291  93.086  1.00  0.00     0.014 C 
BRANCH   7   9
ATOM      9  C   UNL     1      78.754  83.074  91.856  1.00  0.00     0.044 C 
ATOM     10  O   UNL     1      79.978  82.995  92.146  1.00  0.00    -0.550 OA
ATOM     11  O   UNL     1      78.081  81.939  91.420  1.00  0.00    -0.550 OA
ENDBRANCH   7   9
ENDBRANCH   6   7
ENDBRANCH   5   6
ENDBRANCH   4   5
ENDBRANCH   3   4
ENDBRANCH   2   3
ENDBRANCH   1   2
BRANCH   1  12
ATOM     12  C   UNL     1      75.705  87.437  89.516  1.00  0.00     0.000 C 
BRANCH  12  13
ATOM     13  C   UNL     1      75.242  86.348  90.497  1.00  0.00    -0.000 C 
BRANCH  13  14
ATOM     14  C   UNL     1      74.411  86.915  91.661  1.00  0.00    -0.000 C 
BRANCH  14  15
ATOM     15  C   UNL     1      75.037  88.180  92.272  1.00  0.00    -0.000 C 
BRANCH  15  16
ATOM     16  C   UNL     1      74.029  89.329  92.421  1.00  0.00    -0.000 C 
BRANCH  16  17
ATOM     17  C   UNL     1      74.742  90.639  92.786  1.00  0.00    -0.000 C 
BRANCH  17  18
ATOM     18  C   UNL     1      76.271  90.532  92.671  1.00  0.00    -0.003 C 
ATOM     19  C   UNL     1      76.903  91.753  92.005  1.00  0.00     0.004 C 
ENDBRANCH  17  18
ENDBRANCH  16  17
ENDBRANCH  15  16
ENDBRANCH  14  15
ENDBRANCH  13  14
ENDBRANCH  12  13
ENDBRANCH   1  12
TORSDOF 14
ENDMDL
MODEL 4
REMARK VINA RESULT:    -2.364      9.212     11.984
REMARK INTER + INTRA:          -6.507
REMARK INTER:                  -4.371
REMARK INTRA:                  -2.136
REMARK UNBOUND:                -2.208
REMARK SMILES CCCCCCCCCCCCCC[C@H](C)C(=O)[O-]
REMARK SMILES IDX 9 1 10 2 11 3 12 4 13 5 14 6 15 7 16 8 17 9 18 10 19 11 8 12
REMARK SMILES IDX 7 13 6 14 5 15 4 16 3 17 2 18 1 19
REMARK H PARENT
REMARK Flexibility Score: inf
ROOT
ATOM      1  C   UNL     1      84.251  89.173  78.392  1.00  0.00     0.000 C 
ENDROOT
BRANCH   1   2
ATOM      2  C   UNL     1      85.677  89.712  78.144  1.00  0.00     0.000 C 
BRANCH   2   3
ATOM      3  C   UNL     1      85.817  91.227  78.388  1.00  0.00     0.000 C 
BRANCH   3   4
ATOM      4  C   UNL     1      87.202  91.677  78.881  1.00  0.00     0.000 C 
BRANCH   4   5
ATOM      5  C   UNL     1      87.995  90.540  79.543  1.00  0.00     0.001 C 
BRANCH   5   6
ATOM      6  C   UNL     1      89.489  90.642  79.202  1.00  0.00     0.009 C 
BRANCH   6   7
ATOM      7  C   UNL     1      90.094  89.276  78.818  1.00  0.00     0.032 C 
ATOM      8  C   UNL     1      88.987  88.248  78.562  1.00  0.00     0.014 C 
BRANCH   7   9
ATOM      9  C   UNL     1      91.030  88.769  79.883  1.00  0.00     0.044 C 
ATOM     10  O   UNL     1      91.619  87.663  79.746  1.00  0.00    -0.550 OA
ATOM     11  O   UNL     1      91.247  89.521  81.031  1.00  0.00    -0.550 OA
ENDBRANCH   7   9
ENDBRANCH   6   7
ENDBRANCH   5   6
ENDBRANCH   4   5
ENDBRANCH   3   4
ENDBRANCH   2   3
ENDBRANCH   1   2
BRANCH   1  12
ATOM     12  C   UNL     1      83.220  90.306  78.545  1.00  0.00     0.000 C 
BRANCH  12  13
ATOM     13  C   UNL     1      82.362  90.504  77.285  1.00  0.00    -0.000 C 
BRANCH  13  14
ATOM     14  C   UNL     1      82.630  91.852  76.593  1.00  0.00    -0.000 C 
BRANCH  14  15
ATOM     15  C   UNL     1      82.987  91.690  75.105  1.00  0.00    -0.000 C 
BRANCH  15  16
ATOM     16  C   UNL     1      84.389  91.100  74.892  1.00  0.00    -0.000 C 
BRANCH  16  17
ATOM     17  C   UNL     1      84.328  89.855  73.995  1.00  0.00    -0.000 C 
BRANCH  17  18
ATOM     18  C   UNL     1      84.705  88.567  74.744  1.00  0.00    -0.003 C 
ATOM     19  C   UNL     1      83.497  87.682  75.047  1.00  0.00     0.004 C 
ENDBRANCH  17  18
ENDBRANCH  16  17
ENDBRANCH  15  16
ENDBRANCH  14  15
ENDBRANCH  13  14
ENDBRANCH  12  13
ENDBRANCH   1  12
TORSDOF 14
ENDMDL
MODEL 5
REMARK VINA RESULT:    -2.358      1.393      4.204
REMARK INTER + INTRA:          -6.496
REMARK INTER:                  -4.526
REMARK INTRA:                  -1.970
REMARK UNBOUND:                -2.208
REMARK SMILES CCCCCCCCCCCCCC[C@H](C)C(=O)[O-]
REMARK SMILES IDX 9 1 10 2 11 3 12 4 13 5 14 6 15 7 16 8 17 9 18 10 19 11 8 12
REMARK SMILES IDX 7 13 6 14 5 15 4 16 3 17 2 18 1 19
REMARK H PARENT
REMARK Flexibility Score: inf
ROOT
ATOM      1  C   UNL     1      75.982  89.326  77.179  1.00  0.00     0.000 C 
ENDROOT
BRANCH   1   2
ATOM      2  C   UNL     1      77.047  88.261  77.525  1.00  0.00     0.000 C 
BRANCH   2   3
ATOM      3  C   UNL     1      76.991  87.783  78.988  1.00  0.00     0.000 C 
BRANCH   3   4
ATOM      4  C   UNL     1      75.605  87.878  79.647  1.00  0.00     0.000 C 
BRANCH   4   5
ATOM      5  C   UNL     1      75.680  88.209  81.145  1.00  0.00     0.001 C 
BRANCH   5   6
ATOM      6  C   UNL     1      74.986  89.545  81.447  1.00  0.00     0.009 C 
BRANCH   6   7
ATOM      7  C   UNL     1      74.051  89.988  80.302  1.00  0.00     0.032 C 
ATOM      8  C   UNL     1      74.351  91.431  79.886  1.00  0.00     0.014 C 
BRANCH   7   9
ATOM      9  C   UNL     1      72.603  89.855  80.691  1.00  0.00     0.044 C 
ATOM     10  O   UNL     1      72.039  88.728  80.694  1.00  0.00    -0.550 OA
ATOM     11  O   UNL     1      71.875  90.984  81.048  1.00  0.00    -0.550 OA
ENDBRANCH   7   9
ENDBRANCH   6   7
ENDBRANCH   5   6
ENDBRANCH   4   5
ENDBRANCH   3   4
ENDBRANCH   2   3
ENDBRANCH   1   2
BRANCH   1  12
ATOM     12  C   UNL     1      76.613  90.667  76.766  1.00  0.00     0.000 C 
BRANCH  12  13
ATOM     13  C   UNL     1      75.570  91.775  76.550  1.00  0.00    -0.000 C 
BRANCH  13  14
ATOM     14  C   UNL     1      75.083  91.853  75.092  1.00  0.00    -0.000 C 
BRANCH  14  15
ATOM     15  C   UNL     1      76.130  91.335  74.092  1.00  0.00    -0.000 C 
BRANCH  15  16
ATOM     16  C   UNL     1      75.502  90.577  72.914  1.00  0.00    -0.000 C 
BRANCH  16  17
ATOM     17  C   UNL     1      74.314  89.723  73.383  1.00  0.00    -0.000 C 
BRANCH  17  18
ATOM     18  C   UNL     1      74.742  88.327  73.862  1.00  0.00    -0.003 C 
ATOM     19  C   UNL     1      75.843  87.716  72.997  1.00  0.00     0.004 C 
ENDBRANCH  17  18
ENDBRANCH  16  17
ENDBRANCH  15  16
ENDBRANCH  14  15
ENDBRANCH  13  14
ENDBRANCH  12  13
ENDBRANCH   1  12
TORSDOF 14
ENDMDL
MODEL 6
REMARK VINA RESULT:    -2.345      2.457      5.433
REMARK INTER + INTRA:          -6.473
REMARK INTER:                  -4.294
REMARK INTRA:                  -2.179
REMARK UNBOUND:                -2.208
REMARK SMILES CCCCCCCCCCCCCC[C@H](C)C(=O)[O-]
REMARK SMILES IDX 9 1 10 2 11 3 12 4 13 5 14 6 15 7 16 8 17 9 18 10 19 11 8 12
REMARK SMILES IDX 7 13 6 14 5 15 4 16 3 17 2 18 1 19
REMARK H PARENT
REMARK Flexibility Score: inf
ROOT
ATOM      1  C   UNL     1      75.935  86.922  76.763  1.00  0.00     0.000 C 
ENDROOT
BRANCH   1   2
ATOM      2  C   UNL     1      76.093  86.321  75.348  1.00  0.00     0.000 C 
BRANCH   2   3
ATOM      3  C   UNL     1      74.778  86.276  74.545  1.00  0.00     0.000 C 
BRANCH   3   4
ATOM      4  C   UNL     1      74.884  86.799  73.103  1.00  0.00     0.000 C 
BRANCH   4   5
ATOM      5  C   UNL     1      75.410  88.241  73.031  1.00  0.00     0.001 C 
BRANCH   5   6
ATOM      6  C   UNL     1      74.325  89.242  73.454  1.00  0.00     0.009 C 
BRANCH   6   7
ATOM      7  C   UNL     1      74.692  90.693  73.077  1.00  0.00     0.032 C 
ATOM      8  C   UNL     1      76.209  90.900  73.139  1.00  0.00     0.014 C 
BRANCH   7   9
ATOM      9  C   UNL     1      74.001  91.686  73.973  1.00  0.00     0.044 C 
ATOM     10  O   UNL     1      74.573  92.125  75.007  1.00  0.00    -0.550 OA
ATOM     11  O   UNL     1      72.719  92.125  73.662  1.00  0.00    -0.550 OA
ENDBRANCH   7   9
ENDBRANCH   6   7
ENDBRANCH   5   6
ENDBRANCH   4   5
ENDBRANCH   3   4
ENDBRANCH   2   3
ENDBRANCH   1   2
BRANCH   1  12
ATOM     12  C   UNL     1      75.922  88.460  76.743  1.00  0.00     0.000 C 
BRANCH  12  13
ATOM     13  C   UNL     1      77.239  89.060  76.223  1.00  0.00    -0.000 C 
BRANCH  13  14
ATOM     14  C   UNL     1      77.458  90.507  76.697  1.00  0.00    -0.000 C 
BRANCH  14  15
ATOM     15  C   UNL     1      76.458  90.929  77.788  1.00  0.00    -0.000 C 
BRANCH  15  16
ATOM     16  C   UNL     1      77.105  91.035  79.177  1.00  0.00    -0.000 C 
BRANCH  16  17
ATOM     17  C   UNL     1      76.789  89.794  80.024  1.00  0.00    -0.000 C 
BRANCH  17  18
ATOM     18  C   UNL     1      75.358  89.810  80.586  1.00  0.00    -0.003 C 
ATOM     19  C   UNL     1      74.554  88.571  80.193  1.00  0.00     0.004 C 
ENDBRANCH  17  18
ENDBRANCH  16  17
ENDBRANCH  15  16
ENDBRANCH  14  15
ENDBRANCH  13  14
ENDBRANCH  12  13
ENDBRANCH   1  12
TORSDOF 14
ENDMDL
MODEL 7
REMARK VINA RESULT:    -2.313     11.678     13.939
REMARK INTER + INTRA:          -6.415
REMARK INTER:                  -3.955
REMARK INTRA:                  -2.460
REMARK UNBOUND:                -2.208
REMARK SMILES CCCCCCCCCCCCCC[C@H](C)C(=O)[O-]
REMARK SMILES IDX 9 1 10 2 11 3 12 4 13 5 14 6 15 7 16 8 17 9 18 10 19 11 8 12
REMARK SMILES IDX 7 13 6 14 5 15 4 16 3 17 2 18 1 19
REMARK H PARENT
REMARK Flexibility Score: inf
ROOT
ATOM      1  C   UNL     1      75.491  79.452  77.192  1.00  0.00     0.000 C 
ENDROOT
BRANCH   1   2
ATOM      2  C   UNL     1      76.357  78.283  76.673  1.00  0.00     0.000 C 
BRANCH   2   3
ATOM      3  C   UNL     1      75.540  77.041  76.265  1.00  0.00     0.000 C 
BRANCH   3   4
ATOM      4  C   UNL     1      75.943  75.740  76.978  1.00  0.00     0.000 C 
BRANCH   4   5
ATOM      5  C   UNL     1      75.983  75.888  78.507  1.00  0.00     0.001 C 
BRANCH   5   6
ATOM      6  C   UNL     1      75.060  74.863  79.182  1.00  0.00     0.009 C 
BRANCH   6   7
ATOM      7  C   UNL     1      73.855  74.490  78.293  1.00  0.00     0.032 C 
ATOM      8  C   UNL     1      72.619  75.304  78.688  1.00  0.00     0.014 C 
BRANCH   7   9
ATOM      9  C   UNL     1      73.548  73.018  78.370  1.00  0.00     0.044 C 
ATOM     10  O   UNL     1      73.257  72.368  77.331  1.00  0.00    -0.550 OA
ATOM     11  O   UNL     1      73.581  72.367  79.597  1.00  0.00    -0.550 OA
ENDBRANCH   7   9
ENDBRANCH   6   7
ENDBRANCH   5   6
ENDBRANCH   4   5
ENDBRANCH   3   4
ENDBRANCH   2   3
ENDBRANCH   1   2
BRANCH   1  12
ATOM     12  C   UNL     1      74.208  78.961  77.885  1.00  0.00     0.000 C 
BRANCH  12  13
ATOM     13  C   UNL     1      72.929  79.434  77.175  1.00  0.00    -0.000 C 
BRANCH  13  14
ATOM     14  C   UNL     1      72.044  78.264  76.711  1.00  0.00    -0.000 C 
BRANCH  14  15
ATOM     15  C   UNL     1      72.252  77.918  75.227  1.00  0.00    -0.000 C 
BRANCH  15  16
ATOM     16  C   UNL     1      72.183  79.152  74.315  1.00  0.00    -0.000 C 
BRANCH  16  17
ATOM     17  C   UNL     1      73.268  79.091  73.229  1.00  0.00    -0.000 C 
BRANCH  17  18
ATOM     18  C   UNL     1      74.507  79.928  73.584  1.00  0.00    -0.003 C 
ATOM     19  C   UNL     1      74.152  81.278  74.205  1.00  0.00     0.004 C 
ENDBRANCH  17  18
ENDBRANCH  16  17
ENDBRANCH  15  16
ENDBRANCH  14  15
ENDBRANCH  13  14
ENDBRANCH  12  13
ENDBRANCH   1  12
TORSDOF 14
ENDMDL
MODEL 8
REMARK VINA RESULT:    -2.297     11.926     14.040
REMARK INTER + INTRA:          -6.385
REMARK INTER:                  -3.989
REMARK INTRA:                  -2.396
REMARK UNBOUND:                -2.208
REMARK SMILES CCCCCCCCCCCCCC[C@H](C)C(=O)[O-]
REMARK SMILES IDX 9 1 10 2 11 3 12 4 13 5 14 6 15 7 16 8 17 9 18 10 19 11 8 12
REMARK SMILES IDX 7 13 6 14 5 15 4 16 3 17 2 18 1 19
REMARK H PARENT
REMARK Flexibility Score: inf
ROOT
ATOM      1  C   UNL     1      75.734  77.957  73.329  1.00  0.00     0.000 C 
ENDROOT
BRANCH   1   2
ATOM      2  C   UNL     1      75.999  76.744  74.247  1.00  0.00     0.000 C 
BRANCH   2   3
ATOM      3  C   UNL     1      75.928  77.078  75.750  1.00  0.00     0.000 C 
BRANCH   3   4
ATOM      4  C   UNL     1      76.181  75.889  76.689  1.00  0.00     0.000 C 
BRANCH   4   5
ATOM      5  C   UNL     1      75.008  75.626  77.646  1.00  0.00     0.001 C 
BRANCH   5   6
ATOM      6  C   UNL     1      75.039  74.181  78.168  1.00  0.00     0.009 C 
BRANCH   6   7
ATOM      7  C   UNL     1      73.661  73.719  78.686  1.00  0.00     0.032 C 
ATOM      8  C   UNL     1      72.678  74.894  78.730  1.00  0.00     0.014 C 
BRANCH   7   9
ATOM      9  C   UNL     1      73.768  73.088  80.048  1.00  0.00     0.044 C 
ATOM     10  O   UNL     1      73.469  71.875  80.219  1.00  0.00    -0.550 OA
ATOM     11  O   UNL     1      74.198  73.845  81.132  1.00  0.00    -0.550 OA
ENDBRANCH   7   9
ENDBRANCH   6   7
ENDBRANCH   5   6
ENDBRANCH   4   5
ENDBRANCH   3   4
ENDBRANCH   2   3
ENDBRANCH   1   2
BRANCH   1  12
ATOM     12  C   UNL     1      75.038  79.110  74.074  1.00  0.00     0.000 C 
BRANCH  12  13
ATOM     13  C   UNL     1      73.733  79.556  73.395  1.00  0.00    -0.000 C 
BRANCH  13  14
ATOM     14  C   UNL     1      72.498  79.338  74.286  1.00  0.00    -0.000 C 
BRANCH  14  15
ATOM     15  C   UNL     1      72.253  77.853  74.601  1.00  0.00    -0.000 C 
BRANCH  15  16
ATOM     16  C   UNL     1      72.267  77.555  76.108  1.00  0.00    -0.000 C 
BRANCH  16  17
ATOM     17  C   UNL     1      72.283  78.858  76.922  1.00  0.00    -0.000 C 
BRANCH  17  18
ATOM     18  C   UNL     1      73.440  78.909  77.932  1.00  0.00    -0.003 C 
ATOM     19  C   UNL     1      74.463  79.996  77.606  1.00  0.00     0.004 C 
ENDBRANCH  17  18
ENDBRANCH  16  17
ENDBRANCH  15  16
ENDBRANCH  14  15
ENDBRANCH  13  14
ENDBRANCH  12  13
ENDBRANCH   1  12
TORSDOF 14
ENDMDL
MODEL 9
REMARK VINA RESULT:    -2.286      1.883      4.738
REMARK INTER + INTRA:          -6.365
REMARK INTER:                  -4.578
REMARK INTRA:                  -1.787
REMARK UNBOUND:                -2.208
REMARK SMILES CCCCCCCCCCCCCC[C@H](C)C(=O)[O-]
REMARK SMILES IDX 9 1 10 2 11 3 12 4 13 5 14 6 15 7 16 8 17 9 18 10 19 11 8 12
REMARK SMILES IDX 7 13 6 14 5 15 4 16 3 17 2 18 1 19
REMARK H PARENT
REMARK Flexibility Score: inf
ROOT
ATOM      1  C   UNL     1      78.767  90.635  79.108  1.00  0.00     0.000 C 
ENDROOT
BRANCH   1   2
ATOM      2  C   UNL     1      78.248  91.557  80.233  1.00  0.00     0.000 C 
BRANCH   2   3
ATOM      3  C   UNL     1      76.813  91.229  80.689  1.00  0.00     0.000 C 
BRANCH   3   4
ATOM      4  C   UNL     1      75.713  92.053  80.002  1.00  0.00     0.000 C 
BRANCH   4   5
ATOM      5  C   UNL     1      74.494  91.205  79.607  1.00  0.00     0.001 C 
BRANCH   5   6
ATOM      6  C   UNL     1      74.344  89.994  80.540  1.00  0.00     0.009 C 
BRANCH   6   7
ATOM      7  C   UNL     1      72.902  89.841  81.068  1.00  0.00     0.032 C 
ATOM      8  C   UNL     1      72.186  91.195  81.087  1.00  0.00     0.014 C 
BRANCH   7   9
ATOM      9  C   UNL     1      72.882  89.230  82.444  1.00  0.00     0.044 C 
ATOM     10  O   UNL     1      72.080  89.650  83.321  1.00  0.00    -0.550 OA
ATOM     11  O   UNL     1      73.755  88.195  82.756  1.00  0.00    -0.550 OA
ENDBRANCH   7   9
ENDBRANCH   6   7
ENDBRANCH   5   6
ENDBRANCH   4   5
ENDBRANCH   3   4
ENDBRANCH   2   3
ENDBRANCH   1   2
BRANCH   1  12
ATOM     12  C   UNL     1      78.431  89.156  79.366  1.00  0.00     0.000 C 
BRANCH  12  13
ATOM     13  C   UNL     1      77.958  88.422  78.101  1.00  0.00    -0.000 C 
BRANCH  13  14
ATOM     14  C   UNL     1      76.660  89.014  77.525  1.00  0.00    -0.000 C 
BRANCH  14  15
ATOM     15  C   UNL     1      76.917  89.964  76.343  1.00  0.00    -0.000 C 
BRANCH  15  16
ATOM     16  C   UNL     1      75.996  91.192  76.356  1.00  0.00    -0.000 C 
BRANCH  16  17
ATOM     17  C   UNL     1      75.248  91.330  75.022  1.00  0.00    -0.000 C 
BRANCH  17  18
ATOM     18  C   UNL     1      74.808  89.973  74.448  1.00  0.00    -0.003 C 
ATOM     19  C   UNL     1      74.765  89.961  72.921  1.00  0.00     0.004 C 
ENDBRANCH  17  18
ENDBRANCH  16  17
ENDBRANCH  15  16
ENDBRANCH  14  15
ENDBRANCH  13  14
ENDBRANCH  12  13
ENDBRANCH   1  12
TORSDOF 14
ENDMDL
