MODEL 1
REMARK VINA RESULT:    -3.033      0.000      0.000
REMARK INTER + INTRA:          -4.645
REMARK INTER:                  -4.628
REMARK INTRA:                  -0.017
REMARK UNBOUND:                -0.017
REMARK SMILES CC1=CCC[C@H](C)C(=O)C[C@@H](C(C)C)C(=O)C1
REMARK SMILES IDX 8 1 9 2 6 3 7 4 5 5 4 6 3 7 2 8 1 9 10 11 11 12 15 13 16 14
REMARK SMILES IDX 17 15 12 17 13 18 14 19
REMARK H PARENT
REMARK Flexibility Score: 70.00
ROOT
ATOM      1  C   UNL     1      -5.764 -39.527 215.905  1.00  0.00     0.136 C 
ATOM      2  O   UNL     1      -5.493 -38.337 215.806  1.00  0.00    -0.299 OA
ENDROOT
BRANCH   1   3
ATOM      3  C   UNL     1      -6.323 -40.273 214.712  1.00  0.00     0.053 C 
ATOM      4  C   UNL     1      -7.405 -39.420 214.041  1.00  0.00     0.016 C 
BRANCH   3   5
ATOM      5  C   UNL     1      -5.219 -40.635 213.693  1.00  0.00     0.015 C 
BRANCH   5   6
ATOM      6  C   UNL     1      -4.187 -41.632 214.245  1.00  0.00     0.028 C 
BRANCH   6   7
ATOM      7  C   UNL     1      -2.884 -40.947 214.583  1.00  0.00    -0.028 C 
ATOM      8  C   UNL     1      -2.314 -40.897 215.808  1.00  0.00    -0.070 CG0
ATOM      9  C   UNL     1      -1.014 -40.148 215.955  1.00  0.00     0.039 C 
ATOM     10  G   UNL     1      -2.907 -41.577 217.028  1.00  0.00     0.000 G0
ENDBRANCH   6   7
ENDBRANCH   5   6
ENDBRANCH   3   5
ENDBRANCH   1   3
BRANCH   1  11
ATOM     11  C   UNL     1      -5.557 -40.216 217.229  1.00  0.00     0.087 C 
BRANCH  11  12
ATOM     12  C   UNL     1      -4.371 -39.610 218.020  1.00  0.00     0.066 C 
BRANCH  12  13
ATOM     13  C   UNL     1      -3.232 -40.610 218.147  1.00  0.00     0.140 C 
ATOM     14  O   UNL     1      -2.513 -40.590 219.136  1.00  0.00    -0.299 OA
BRANCH  13  15
ATOM     15  C   UNL     1      -2.920 -41.589 217.045  1.00  0.00     0.106 CG0
ATOM     16  G   UNL     1      -2.318 -40.881 215.846  1.00  0.00     0.000 G0
ENDBRANCH  13  15
ENDBRANCH  12  13
BRANCH  12  17
ATOM     17  C   UNL     1      -4.773 -39.068 219.429  1.00  0.00    -0.006 C 
ATOM     18  C   UNL     1      -5.654 -40.034 220.240  1.00  0.00     0.008 C 
ATOM     19  C   UNL     1      -5.451 -37.692 219.333  1.00  0.00     0.008 C 
ENDBRANCH  12  17
ENDBRANCH  11  12
ENDBRANCH   1  11
TORSDOF 1
ENDMDL
MODEL 2
REMARK VINA RESULT:    -2.931      1.423      1.721
REMARK INTER + INTRA:          -4.490
REMARK INTER:                  -4.779
REMARK INTRA:                   0.290
REMARK UNBOUND:                -0.017
REMARK SMILES CC1=CCC[C@H](C)C(=O)C[C@@H](C(C)C)C(=O)C1
REMARK SMILES IDX 8 1 9 2 6 3 7 4 5 5 4 6 3 7 2 8 1 9 10 11 11 12 15 13 16 14
REMARK SMILES IDX 17 15 12 17 13 18 14 19
REMARK H PARENT
REMARK Flexibility Score: 70.00
ROOT
ATOM      1  C   UNL     1      -4.929 -38.595 216.212  1.00  0.00     0.136 C 
ATOM      2  O   UNL     1      -4.031 -37.894 215.762  1.00  0.00    -0.299 OA
ENDROOT
BRANCH   1   3
ATOM      3  C   UNL     1      -5.702 -39.511 215.287  1.00  0.00     0.053 C 
ATOM      4  C   UNL     1      -6.706 -38.686 214.476  1.00  0.00     0.016 C 
BRANCH   3   5
ATOM      5  C   UNL     1      -4.765 -40.295 214.340  1.00  0.00     0.015 C 
BRANCH   5   6
ATOM      6  C   UNL     1      -4.262 -41.617 214.941  1.00  0.00     0.028 C 
BRANCH   6   7
ATOM      7  C   UNL     1      -2.940 -41.435 215.647  1.00  0.00    -0.028 C 
ATOM      8  C   UNL     1      -2.727 -41.590 216.974  1.00  0.00    -0.070 CG0
ATOM      9  C   UNL     1      -1.335 -41.347 217.501  1.00  0.00     0.039 C 
ATOM     10  G   UNL     1      -3.811 -42.018 217.945  1.00  0.00     0.000 G0
ENDBRANCH   6   7
ENDBRANCH   5   6
ENDBRANCH   3   5
ENDBRANCH   1   3
BRANCH   1  11
ATOM     11  C   UNL     1      -5.261 -38.506 217.679  1.00  0.00     0.087 C 
BRANCH  11  12
ATOM     12  C   UNL     1      -4.455 -39.528 218.519  1.00  0.00     0.066 C 
BRANCH  12  13
ATOM     13  C   UNL     1      -4.843 -40.954 218.165  1.00  0.00     0.140 C 
ATOM     14  O   UNL     1      -6.024 -41.266 218.101  1.00  0.00    -0.299 OA
BRANCH  13  15
ATOM     15  C   UNL     1      -3.800 -42.022 217.956  1.00  0.00     0.106 CG0
ATOM     16  G   UNL     1      -2.741 -41.559 216.973  1.00  0.00     0.000 G0
ENDBRANCH  13  15
ENDBRANCH  12  13
BRANCH  12  17
ATOM     17  C   UNL     1      -4.578 -39.301 220.060  1.00  0.00    -0.006 C 
ATOM     18  C   UNL     1      -5.143 -37.922 220.445  1.00  0.00     0.008 C 
ATOM     19  C   UNL     1      -3.239 -39.539 220.776  1.00  0.00     0.008 C 
ENDBRANCH  12  17
ENDBRANCH  11  12
ENDBRANCH   1  11
TORSDOF 1
ENDMDL
MODEL 3
REMARK VINA RESULT:    -2.917      1.484      4.029
REMARK INTER + INTRA:          -4.469
REMARK INTER:                  -4.699
REMARK INTRA:                   0.230
REMARK UNBOUND:                -0.017
REMARK SMILES CC1=CCC[C@H](C)C(=O)C[C@@H](C(C)C)C(=O)C1
REMARK SMILES IDX 8 1 9 2 6 3 7 4 5 5 4 6 3 7 2 8 1 9 10 11 11 12 15 13 16 14
REMARK SMILES IDX 17 15 12 17 13 18 14 19
REMARK H PARENT
REMARK Flexibility Score: 70.00
ROOT
ATOM      1  C   UNL     1      -5.846 -39.668 217.840  1.00  0.00     0.136 C 
ATOM      2  O   UNL     1      -6.819 -40.254 218.297  1.00  0.00    -0.299 OA
ENDROOT
BRANCH   1   3
ATOM      3  C   UNL     1      -4.671 -39.347 218.740  1.00  0.00     0.053 C 
ATOM      4  C   UNL     1      -5.145 -38.464 219.898  1.00  0.00     0.016 C 
BRANCH   3   5
ATOM      5  C   UNL     1      -3.999 -40.628 219.284  1.00  0.00     0.015 C 
BRANCH   5   6
ATOM      6  C   UNL     1      -3.408 -41.519 218.180  1.00  0.00     0.028 C 
BRANCH   6   7
ATOM      7  C   UNL     1      -2.114 -40.953 217.646  1.00  0.00    -0.028 C 
ATOM      8  C   UNL     1      -1.811 -40.774 216.340  1.00  0.00    -0.070 CG0
ATOM      9  C   UNL     1      -0.455 -40.207 215.999  1.00  0.00     0.039 C 
ATOM     10  G   UNL     1      -2.775 -41.091 215.213  1.00  0.00     0.000 G0
ENDBRANCH   6   7
ENDBRANCH   5   6
ENDBRANCH   3   5
ENDBRANCH   1   3
BRANCH   1  11
ATOM     11  C   UNL     1      -5.854 -39.256 216.391  1.00  0.00     0.087 C 
BRANCH  11  12
ATOM     12  C   UNL     1      -5.285 -40.363 215.469  1.00  0.00     0.066 C 
BRANCH  12  13
ATOM     13  C   UNL     1      -3.851 -40.056 215.067  1.00  0.00     0.140 C 
ATOM     14  O   UNL     1      -3.575 -38.966 214.586  1.00  0.00    -0.299 OA
BRANCH  13  15
ATOM     15  C   UNL     1      -2.764 -41.093 215.183  1.00  0.00     0.106 CG0
ATOM     16  G   UNL     1      -1.833 -40.776 216.337  1.00  0.00     0.000 G0
ENDBRANCH  13  15
ENDBRANCH  12  13
BRANCH  12  17
ATOM     17  C   UNL     1      -6.157 -40.627 214.200  1.00  0.00    -0.006 C 
ATOM     18  C   UNL     1      -5.341 -40.985 212.946  1.00  0.00     0.008 C 
ATOM     19  C   UNL     1      -7.091 -39.444 213.900  1.00  0.00     0.008 C 
ENDBRANCH  12  17
ENDBRANCH  11  12
ENDBRANCH   1  11
TORSDOF 1
ENDMDL
MODEL 4
REMARK VINA RESULT:    -2.907     13.110     14.928
REMARK INTER + INTRA:          -4.454
REMARK INTER:                  -5.018
REMARK INTRA:                   0.564
REMARK UNBOUND:                -0.017
REMARK SMILES CC1=CCC[C@H](C)C(=O)C[C@@H](C(C)C)C(=O)C1
REMARK SMILES IDX 8 1 9 2 6 3 7 4 5 5 4 6 3 7 2 8 1 9 10 11 11 12 15 13 16 14
REMARK SMILES IDX 17 15 12 17 13 18 14 19
REMARK H PARENT
REMARK Flexibility Score: 70.00
ROOT
ATOM      1  C   UNL     1     -18.009 -37.773 209.089  1.00  0.00     0.136 C 
ATOM      2  O   UNL     1     -17.115 -36.957 209.262  1.00  0.00    -0.299 OA
ENDROOT
BRANCH   1   3
ATOM      3  C   UNL     1     -18.637 -37.923 207.720  1.00  0.00     0.053 C 
ATOM      4  C   UNL     1     -19.235 -36.581 207.286  1.00  0.00     0.016 C 
BRANCH   3   5
ATOM      5  C   UNL     1     -17.615 -38.417 206.671  1.00  0.00     0.015 C 
BRANCH   5   6
ATOM      6  C   UNL     1     -17.210 -39.887 206.864  1.00  0.00     0.028 C 
BRANCH   6   7
ATOM      7  C   UNL     1     -15.923 -40.008 207.643  1.00  0.00    -0.028 C 
ATOM      8  C   UNL     1     -15.721 -40.811 208.713  1.00  0.00    -0.070 CG0
ATOM      9  C   UNL     1     -14.366 -40.782 209.375  1.00  0.00     0.039 C 
ATOM     10  G   UNL     1     -16.780 -41.751 209.257  1.00  0.00     0.000 G0
ENDBRANCH   6   7
ENDBRANCH   5   6
ENDBRANCH   3   5
ENDBRANCH   1   3
BRANCH   1  11
ATOM     11  C   UNL     1     -18.484 -38.596 210.259  1.00  0.00     0.087 C 
BRANCH  11  12
ATOM     12  C   UNL     1     -17.421 -39.626 210.714  1.00  0.00     0.066 C 
BRANCH  12  13
ATOM     13  C   UNL     1     -17.743 -41.015 210.187  1.00  0.00     0.140 C 
ATOM     14  O   UNL     1     -18.761 -41.585 210.556  1.00  0.00    -0.299 OA
BRANCH  13  15
ATOM     15  C   UNL     1     -16.799 -41.743 209.266  1.00  0.00     0.106 CG0
ATOM     16  G   UNL     1     -15.730 -40.808 208.735  1.00  0.00     0.000 G0
ENDBRANCH  13  15
ENDBRANCH  12  13
BRANCH  12  17
ATOM     17  C   UNL     1     -17.220 -39.670 212.263  1.00  0.00    -0.006 C 
ATOM     18  C   UNL     1     -16.781 -38.327 212.874  1.00  0.00     0.008 C 
ATOM     19  C   UNL     1     -16.239 -40.780 212.675  1.00  0.00     0.008 C 
ENDBRANCH  12  17
ENDBRANCH  11  12
ENDBRANCH   1  11
TORSDOF 1
ENDMDL
MODEL 5
REMARK VINA RESULT:    -2.866      2.095      3.442
REMARK INTER + INTRA:          -4.391
REMARK INTER:                  -4.910
REMARK INTRA:                   0.518
REMARK UNBOUND:                -0.017
REMARK SMILES CC1=CCC[C@H](C)C(=O)C[C@@H](C(C)C)C(=O)C1
REMARK SMILES IDX 8 1 9 2 6 3 7 4 5 5 4 6 3 7 2 8 1 9 10 11 11 12 15 13 16 14
REMARK SMILES IDX 17 15 12 17 13 18 14 19
REMARK H PARENT
REMARK Flexibility Score: 70.00
ROOT
ATOM      1  C   UNL     1      -4.560 -38.976 215.974  1.00  0.00     0.136 C 
ATOM      2  O   UNL     1      -5.523 -38.608 215.314  1.00  0.00    -0.299 OA
ENDROOT
BRANCH   1   3
ATOM      3  C   UNL     1      -3.375 -39.618 215.283  1.00  0.00     0.053 C 
ATOM      4  C   UNL     1      -2.499 -40.319 216.325  1.00  0.00     0.016 C 
BRANCH   3   5
ATOM      5  C   UNL     1      -3.820 -40.621 214.195  1.00  0.00     0.015 C 
BRANCH   5   6
ATOM      6  C   UNL     1      -4.477 -41.887 214.769  1.00  0.00     0.028 C 
BRANCH   6   7
ATOM      7  C   UNL     1      -5.982 -41.781 214.760  1.00  0.00    -0.028 C 
ATOM      8  C   UNL     1      -6.788 -41.886 215.841  1.00  0.00    -0.070 CG0
ATOM      9  C   UNL     1      -8.276 -41.769 215.631  1.00  0.00     0.039 C 
ATOM     10  G   UNL     1      -6.263 -42.091 217.250  1.00  0.00     0.000 G0
ENDBRANCH   6   7
ENDBRANCH   5   6
ENDBRANCH   3   5
ENDBRANCH   1   3
BRANCH   1  11
ATOM     11  C   UNL     1      -4.590 -38.802 217.471  1.00  0.00     0.087 C 
BRANCH  11  12
ATOM     12  C   UNL     1      -4.734 -40.157 218.209  1.00  0.00     0.066 C 
BRANCH  12  13
ATOM     13  C   UNL     1      -6.109 -40.762 217.978  1.00  0.00     0.140 C 
ATOM     14  O   UNL     1      -7.102 -40.204 218.423  1.00  0.00    -0.299 OA
BRANCH  13  15
ATOM     15  C   UNL     1      -6.277 -42.081 217.269  1.00  0.00     0.106 CG0
ATOM     16  G   UNL     1      -6.781 -41.875 215.853  1.00  0.00     0.000 G0
ENDBRANCH  13  15
ENDBRANCH  12  13
BRANCH  12  17
ATOM     17  C   UNL     1      -4.434 -40.066 219.740  1.00  0.00    -0.006 C 
ATOM     18  C   UNL     1      -4.961 -38.782 220.404  1.00  0.00     0.008 C 
ATOM     19  C   UNL     1      -2.934 -40.232 220.033  1.00  0.00     0.008 C 
ENDBRANCH  12  17
ENDBRANCH  11  12
ENDBRANCH   1  11
TORSDOF 1
ENDMDL
MODEL 6
REMARK VINA RESULT:    -2.826     13.152     15.837
REMARK INTER + INTRA:          -4.331
REMARK INTER:                  -4.625
REMARK INTRA:                   0.294
REMARK UNBOUND:                -0.017
REMARK SMILES CC1=CCC[C@H](C)C(=O)C[C@@H](C(C)C)C(=O)C1
REMARK SMILES IDX 8 1 9 2 6 3 7 4 5 5 4 6 3 7 2 8 1 9 10 11 11 12 15 13 16 14
REMARK SMILES IDX 17 15 12 17 13 18 14 19
REMARK H PARENT
REMARK Flexibility Score: 70.00
ROOT
ATOM      1  C   UNL     1     -16.109 -39.189 210.524  1.00  0.00     0.136 C 
ATOM      2  O   UNL     1     -15.433 -38.170 210.478  1.00  0.00    -0.299 OA
ENDROOT
BRANCH   1   3
ATOM      3  C   UNL     1     -17.042 -39.422 211.693  1.00  0.00     0.053 C 
ATOM      4  C   UNL     1     -16.420 -38.835 212.964  1.00  0.00     0.016 C 
BRANCH   3   5
ATOM      5  C   UNL     1     -18.437 -38.804 211.446  1.00  0.00     0.015 C 
BRANCH   5   6
ATOM      6  C   UNL     1     -19.273 -39.583 210.418  1.00  0.00     0.028 C 
BRANCH   6   7
ATOM      7  C   UNL     1     -19.641 -38.719 209.237  1.00  0.00    -0.028 C 
ATOM      8  C   UNL     1     -19.141 -38.838 207.985  1.00  0.00    -0.070 CG0
ATOM      9  C   UNL     1     -19.618 -37.867 206.935  1.00  0.00     0.039 C 
ATOM     10  G   UNL     1     -18.147 -39.913 207.588  1.00  0.00     0.000 G0
ENDBRANCH   6   7
ENDBRANCH   5   6
ENDBRANCH   3   5
ENDBRANCH   1   3
BRANCH   1  11
ATOM     11  C   UNL     1     -15.973 -40.206 209.420  1.00  0.00     0.087 C 
BRANCH  11  12
ATOM     12  C   UNL     1     -15.590 -39.550 208.070  1.00  0.00     0.066 C 
BRANCH  12  13
ATOM     13  C   UNL     1     -16.820 -39.311 207.209  1.00  0.00     0.140 C 
ATOM     14  O   UNL     1     -16.747 -38.572 206.237  1.00  0.00    -0.299 OA
BRANCH  13  15
ATOM     15  C   UNL     1     -18.155 -39.911 207.565  1.00  0.00     0.106 CG0
ATOM     16  G   UNL     1     -19.143 -38.834 207.972  1.00  0.00     0.000 G0
ENDBRANCH  13  15
ENDBRANCH  12  13
BRANCH  12  17
ATOM     17  C   UNL     1     -14.518 -40.357 207.268  1.00  0.00    -0.006 C 
ATOM     18  C   UNL     1     -14.776 -41.874 207.235  1.00  0.00     0.008 C 
ATOM     19  C   UNL     1     -13.097 -40.076 207.782  1.00  0.00     0.008 C 
ENDBRANCH  12  17
ENDBRANCH  11  12
ENDBRANCH   1  11
TORSDOF 1
ENDMDL
MODEL 7
REMARK VINA RESULT:    -2.656      2.199      4.425
REMARK INTER + INTRA:          -4.071
REMARK INTER:                  -4.482
REMARK INTRA:                   0.411
REMARK UNBOUND:                -0.017
REMARK SMILES CC1=CCC[C@H](C)C(=O)C[C@@H](C(C)C)C(=O)C1
REMARK SMILES IDX 8 1 9 2 6 3 7 4 5 5 4 6 3 7 2 8 1 9 10 11 11 12 15 13 16 14
REMARK SMILES IDX 17 15 12 17 13 18 14 19
REMARK H PARENT
REMARK Flexibility Score: 70.00
ROOT
ATOM      1  C   UNL     1      -4.544 -39.959 217.977  1.00  0.00     0.136 C 
ATOM      2  O   UNL     1      -4.550 -38.748 218.155  1.00  0.00    -0.299 OA
ENDROOT
BRANCH   1   3
ATOM      3  C   UNL     1      -5.521 -40.835 218.732  1.00  0.00     0.053 C 
ATOM      4  C   UNL     1      -5.529 -40.431 220.209  1.00  0.00     0.016 C 
BRANCH   3   5
ATOM      5  C   UNL     1      -6.948 -40.740 218.144  1.00  0.00     0.015 C 
BRANCH   5   6
ATOM      6  C   UNL     1      -7.125 -41.547 216.848  1.00  0.00     0.028 C 
BRANCH   6   7
ATOM      7  C   UNL     1      -7.204 -40.644 215.642  1.00  0.00    -0.028 C 
ATOM      8  C   UNL     1      -6.422 -40.727 214.541  1.00  0.00    -0.070 CG0
ATOM      9  C   UNL     1      -6.638 -39.720 213.440  1.00  0.00     0.039 C 
ATOM     10  G   UNL     1      -5.360 -41.795 214.356  1.00  0.00     0.000 G0
ENDBRANCH   6   7
ENDBRANCH   5   6
ENDBRANCH   3   5
ENDBRANCH   1   3
BRANCH   1  11
ATOM     11  C   UNL     1      -3.538 -40.553 217.026  1.00  0.00     0.087 C 
BRANCH  11  12
ATOM     12  C   UNL     1      -3.776 -40.090 215.566  1.00  0.00     0.066 C 
BRANCH  12  13
ATOM     13  C   UNL     1      -3.986 -41.280 214.643  1.00  0.00     0.140 C 
ATOM     14  O   UNL     1      -3.025 -41.802 214.095  1.00  0.00    -0.299 OA
BRANCH  13  15
ATOM     15  C   UNL     1      -5.367 -41.793 214.328  1.00  0.00     0.106 CG0
ATOM     16  G   UNL     1      -6.407 -40.706 214.521  1.00  0.00     0.000 G0
ENDBRANCH  13  15
ENDBRANCH  12  13
BRANCH  12  17
ATOM     17  C   UNL     1      -2.641 -39.171 215.012  1.00  0.00    -0.006 C 
ATOM     18  C   UNL     1      -1.245 -39.496 215.573  1.00  0.00     0.008 C 
ATOM     19  C   UNL     1      -2.961 -37.683 215.229  1.00  0.00     0.008 C 
ENDBRANCH  12  17
ENDBRANCH  11  12
ENDBRANCH   1  11
TORSDOF 1
ENDMDL
MODEL 8
REMARK VINA RESULT:    -2.590     13.331     15.332
REMARK INTER + INTRA:          -3.971
REMARK INTER:                  -3.971
REMARK INTRA:                   0.000
REMARK UNBOUND:                -0.017
REMARK SMILES CC1=CCC[C@H](C)C(=O)C[C@@H](C(C)C)C(=O)C1
REMARK SMILES IDX 8 1 9 2 6 3 7 4 5 5 4 6 3 7 2 8 1 9 10 11 11 12 15 13 16 14
REMARK SMILES IDX 17 15 12 17 13 18 14 19
REMARK H PARENT
REMARK Flexibility Score: 70.00
ROOT
ATOM      1  C   UNL     1     -16.206 -39.355 206.881  1.00  0.00     0.136 C 
ATOM      2  O   UNL     1     -16.174 -38.313 206.240  1.00  0.00    -0.299 OA
ENDROOT
BRANCH   1   3
ATOM      3  C   UNL     1     -14.970 -40.226 206.964  1.00  0.00     0.053 C 
ATOM      4  C   UNL     1     -13.898 -39.677 206.019  1.00  0.00     0.016 C 
BRANCH   3   5
ATOM      5  C   UNL     1     -14.422 -40.308 208.407  1.00  0.00     0.015 C 
BRANCH   5   6
ATOM      6  C   UNL     1     -14.953 -41.519 209.191  1.00  0.00     0.028 C 
BRANCH   6   7
ATOM      7  C   UNL     1     -15.267 -41.156 210.622  1.00  0.00    -0.028 C 
ATOM      8  C   UNL     1     -16.485 -40.817 211.101  1.00  0.00    -0.070 CG0
ATOM      9  C   UNL     1     -16.600 -40.467 212.564  1.00  0.00     0.039 C 
ATOM     10  G   UNL     1     -17.738 -40.797 210.245  1.00  0.00     0.000 G0
ENDBRANCH   6   7
ENDBRANCH   5   6
ENDBRANCH   3   5
ENDBRANCH   1   3
BRANCH   1  11
ATOM     11  C   UNL     1     -17.492 -39.760 207.554  1.00  0.00     0.087 C 
BRANCH  11  12
ATOM     12  C   UNL     1     -17.940 -38.728 208.620  1.00  0.00     0.066 C 
BRANCH  12  13
ATOM     13  C   UNL     1     -18.215 -39.404 209.954  1.00  0.00     0.140 C 
ATOM     14  O   UNL     1     -18.788 -38.787 210.841  1.00  0.00    -0.299 OA
BRANCH  13  15
ATOM     15  C   UNL     1     -17.736 -40.804 210.238  1.00  0.00     0.106 CG0
ATOM     16  G   UNL     1     -16.500 -40.786 211.117  1.00  0.00     0.000 G0
ENDBRANCH  13  15
ENDBRANCH  12  13
BRANCH  12  17
ATOM     17  C   UNL     1     -19.174 -37.876 208.182  1.00  0.00    -0.006 C 
ATOM     18  C   UNL     1     -20.092 -38.583 207.169  1.00  0.00     0.008 C 
ATOM     19  C   UNL     1     -18.748 -36.503 207.637  1.00  0.00     0.008 C 
ENDBRANCH  12  17
ENDBRANCH  11  12
ENDBRANCH   1  11
TORSDOF 1
ENDMDL
MODEL 9
REMARK VINA RESULT:    -2.488      1.894      3.954
REMARK INTER + INTRA:          -3.815
REMARK INTER:                  -3.902
REMARK INTRA:                   0.087
REMARK UNBOUND:                -0.017
REMARK SMILES CC1=CCC[C@H](C)C(=O)C[C@@H](C(C)C)C(=O)C1
REMARK SMILES IDX 8 1 9 2 6 3 7 4 5 5 4 6 3 7 2 8 1 9 10 11 11 12 15 13 16 14
REMARK SMILES IDX 17 15 12 17 13 18 14 19
REMARK H PARENT
REMARK Flexibility Score: 70.00
ROOT
ATOM      1  C   UNL     1      -6.156 -39.202 214.385  1.00  0.00     0.136 C 
ATOM      2  O   UNL     1      -6.853 -38.263 214.745  1.00  0.00    -0.299 OA
ENDROOT
BRANCH   1   3
ATOM      3  C   UNL     1      -6.808 -40.484 213.910  1.00  0.00     0.053 C 
ATOM      4  C   UNL     1      -6.147 -40.935 212.604  1.00  0.00     0.016 C 
BRANCH   3   5
ATOM      5  C   UNL     1      -6.714 -41.603 214.972  1.00  0.00     0.015 C 
BRANCH   5   6
ATOM      6  C   UNL     1      -7.447 -41.263 216.279  1.00  0.00     0.028 C 
BRANCH   6   7
ATOM      7  C   UNL     1      -6.666 -41.724 217.486  1.00  0.00    -0.028 C 
ATOM      8  C   UNL     1      -5.657 -41.045 218.079  1.00  0.00    -0.070 CG0
ATOM      9  C   UNL     1      -4.981 -41.677 219.270  1.00  0.00     0.039 C 
ATOM     10  G   UNL     1      -5.194 -39.676 217.617  1.00  0.00     0.000 G0
ENDBRANCH   6   7
ENDBRANCH   5   6
ENDBRANCH   3   5
ENDBRANCH   1   3
BRANCH   1  11
ATOM     11  C   UNL     1      -4.657 -39.068 214.451  1.00  0.00     0.087 C 
BRANCH  11  12
ATOM     12  C   UNL     1      -4.012 -40.177 215.320  1.00  0.00     0.066 C 
BRANCH  12  13
ATOM     13  C   UNL     1      -3.941 -39.757 216.780  1.00  0.00     0.140 C 
ATOM     14  O   UNL     1      -2.855 -39.542 217.299  1.00  0.00    -0.299 OA
BRANCH  13  15
ATOM     15  C   UNL     1      -5.182 -39.662 217.630  1.00  0.00     0.106 CG0
ATOM     16  G   UNL     1      -5.642 -41.039 218.072  1.00  0.00     0.000 G0
ENDBRANCH  13  15
ENDBRANCH  12  13
BRANCH  12  17
ATOM     17  C   UNL     1      -2.600 -40.620 214.817  1.00  0.00    -0.006 C 
ATOM     18  C   UNL     1      -1.976 -39.662 213.788  1.00  0.00     0.008 C 
ATOM     19  C   UNL     1      -2.623 -42.051 214.257  1.00  0.00     0.008 C 
ENDBRANCH  12  17
ENDBRANCH  11  12
ENDBRANCH   1  11
TORSDOF 1
ENDMDL
