MODEL 1
REMARK VINA RESULT:    -6.381      0.000      0.000
REMARK INTER + INTRA:          -6.987
REMARK INTER:                  -6.754
REMARK INTRA:                  -0.233
REMARK UNBOUND:                -0.233
REMARK SMILES O=c1cc(-c2ccccc2)oc2ccccc12
REMARK SMILES IDX 4 1 3 2 2 3 1 4 17 5 16 6 15 7 14 8 13 9 12 10 11 11 5 12
REMARK SMILES IDX 8 13 7 14 9 15 6 16 10 17
REMARK H PARENT
REMARK Flexibility Score: inf
ROOT
ATOM      1  C   UNL     1      14.627  56.353  33.207  1.00  0.00     0.138 A 
ATOM      2  C   UNL     1      13.409  56.957  32.829  1.00  0.00     0.100 A 
ATOM      3  C   UNL     1      13.387  58.312  32.494  1.00  0.00     0.193 A 
ATOM      4  O   UNL     1      12.299  58.852  32.156  1.00  0.00    -0.289 OA
ATOM      5  C   UNL     1      14.577  59.053  32.538  1.00  0.00     0.065 A 
ATOM      6  C   UNL     1      14.624  60.422  32.213  1.00  0.00     0.016 A 
ATOM      7  C   UNL     1      15.838  61.113  32.274  1.00  0.00     0.001 A 
ATOM      8  C   UNL     1      17.007  60.449  32.658  1.00  0.00     0.004 A 
ATOM      9  C   UNL     1      16.969  59.091  32.982  1.00  0.00     0.048 A 
ATOM     10  C   UNL     1      15.760  58.389  32.924  1.00  0.00     0.138 A 
ATOM     11  O   UNL     1      15.734  57.097  33.235  1.00  0.00    -0.456 OA
ENDROOT
BRANCH   1  12
ATOM     12  C   UNL     1      14.737  54.909  33.581  1.00  0.00     0.017 A 
ATOM     13  C   UNL     1      14.880  52.200  34.361  1.00  0.00     0.000 A 
ATOM     14  C   UNL     1      15.642  52.658  33.284  1.00  0.00     0.001 A 
ATOM     15  C   UNL     1      14.049  53.081  35.049  1.00  0.00     0.001 A 
ATOM     16  C   UNL     1      15.574  54.000  32.894  1.00  0.00     0.012 A 
ATOM     17  C   UNL     1      13.976  54.423  34.666  1.00  0.00     0.012 A 
ENDBRANCH   1  12
TORSDOF 1
ENDMDL
MODEL 2
REMARK VINA RESULT:    -6.276      1.569      1.795
REMARK INTER + INTRA:          -6.876
REMARK INTER:                  -6.633
REMARK INTRA:                  -0.243
REMARK UNBOUND:                -0.233
REMARK SMILES O=c1cc(-c2ccccc2)oc2ccccc12
REMARK SMILES IDX 4 1 3 2 2 3 1 4 17 5 16 6 15 7 14 8 13 9 12 10 11 11 5 12
REMARK SMILES IDX 8 13 7 14 9 15 6 16 10 17
REMARK H PARENT
REMARK Flexibility Score: inf
ROOT
ATOM      1  C   UNL     1      15.405  56.032  32.584  1.00  0.00     0.138 A 
ATOM      2  C   UNL     1      15.342  56.091  31.176  1.00  0.00     0.100 A 
ATOM      3  C   UNL     1      15.655  57.284  30.521  1.00  0.00     0.193 A 
ATOM      4  O   UNL     1      15.598  57.336  29.263  1.00  0.00    -0.289 OA
ATOM      5  C   UNL     1      16.026  58.407  31.274  1.00  0.00     0.065 A 
ATOM      6  C   UNL     1      16.352  59.639  30.678  1.00  0.00     0.016 A 
ATOM      7  C   UNL     1      16.716  60.728  31.477  1.00  0.00     0.001 A 
ATOM      8  C   UNL     1      16.756  60.597  32.868  1.00  0.00     0.004 A 
ATOM      9  C   UNL     1      16.434  59.377  33.468  1.00  0.00     0.048 A 
ATOM     10  C   UNL     1      16.068  58.281  32.679  1.00  0.00     0.138 A 
ATOM     11  O   UNL     1      15.763  57.125  33.259  1.00  0.00    -0.456 OA
ENDROOT
BRANCH   1  12
ATOM     12  C   UNL     1      15.087  54.795  33.362  1.00  0.00     0.017 A 
ATOM     13  C   UNL     1      14.428  52.514  34.889  1.00  0.00     0.000 A 
ATOM     14  C   UNL     1      15.298  52.401  33.805  1.00  0.00     0.001 A 
ATOM     15  C   UNL     1      13.884  53.755  35.217  1.00  0.00     0.001 A 
ATOM     16  C   UNL     1      15.628  53.528  33.044  1.00  0.00     0.012 A 
ATOM     17  C   UNL     1      14.209  54.886  34.463  1.00  0.00     0.012 A 
ENDBRANCH   1  12
TORSDOF 1
ENDMDL
MODEL 3
REMARK VINA RESULT:    -6.231      1.481      6.047
REMARK INTER + INTRA:          -6.829
REMARK INTER:                  -6.608
REMARK INTRA:                  -0.221
REMARK UNBOUND:                -0.233
REMARK SMILES O=c1cc(-c2ccccc2)oc2ccccc12
REMARK SMILES IDX 4 1 3 2 2 3 1 4 17 5 16 6 15 7 14 8 13 9 12 10 11 11 5 12
REMARK SMILES IDX 8 13 7 14 9 15 6 16 10 17
REMARK H PARENT
REMARK Flexibility Score: inf
ROOT
ATOM      1  C   UNL     1      15.287  56.736  32.476  1.00  0.00     0.138 A 
ATOM      2  C   UNL     1      15.365  56.126  31.206  1.00  0.00     0.100 A 
ATOM      3  C   UNL     1      15.261  54.737  31.102  1.00  0.00     0.193 A 
ATOM      4  O   UNL     1      15.331  54.192  29.967  1.00  0.00    -0.289 OA
ATOM      5  C   UNL     1      15.082  53.969  32.262  1.00  0.00     0.065 A 
ATOM      6  C   UNL     1      14.971  52.567  32.227  1.00  0.00     0.016 A 
ATOM      7  C   UNL     1      14.793  51.850  33.414  1.00  0.00     0.001 A 
ATOM      8  C   UNL     1      14.725  52.522  34.638  1.00  0.00     0.004 A 
ATOM      9  C   UNL     1      14.834  53.914  34.682  1.00  0.00     0.048 A 
ATOM     10  C   UNL     1      15.013  54.642  33.500  1.00  0.00     0.138 A 
ATOM     11  O   UNL     1      15.116  55.966  33.552  1.00  0.00    -0.456 OA
ENDROOT
BRANCH   1  12
ATOM     12  C   UNL     1      15.389  58.215  32.676  1.00  0.00     0.017 A 
ATOM     13  C   UNL     1      15.483  61.014  33.030  1.00  0.00     0.000 A 
ATOM     14  C   UNL     1      16.635  60.247  33.213  1.00  0.00     0.001 A 
ATOM     15  C   UNL     1      14.286  60.396  32.673  1.00  0.00     0.001 A 
ATOM     16  C   UNL     1      16.593  58.859  33.039  1.00  0.00     0.012 A 
ATOM     17  C   UNL     1      14.236  59.010  32.496  1.00  0.00     0.012 A 
ENDBRANCH   1  12
TORSDOF 1
ENDMDL
MODEL 4
REMARK VINA RESULT:    -6.007      1.893      6.126
REMARK INTER + INTRA:          -6.592
REMARK INTER:                  -6.371
REMARK INTRA:                  -0.220
REMARK UNBOUND:                -0.233
REMARK SMILES O=c1cc(-c2ccccc2)oc2ccccc12
REMARK SMILES IDX 4 1 3 2 2 3 1 4 17 5 16 6 15 7 14 8 13 9 12 10 11 11 5 12
REMARK SMILES IDX 8 13 7 14 9 15 6 16 10 17
REMARK H PARENT
REMARK Flexibility Score: inf
ROOT
ATOM      1  C   UNL     1      15.093  56.103  32.845  1.00  0.00     0.138 A 
ATOM      2  C   UNL     1      15.891  54.941  32.897  1.00  0.00     0.100 A 
ATOM      3  C   UNL     1      15.473  53.853  33.666  1.00  0.00     0.193 A 
ATOM      4  O   UNL     1      16.187  52.814  33.712  1.00  0.00    -0.289 OA
ATOM      5  C   UNL     1      14.267  53.932  34.376  1.00  0.00     0.065 A 
ATOM      6  C   UNL     1      13.790  52.873  35.170  1.00  0.00     0.016 A 
ATOM      7  C   UNL     1      12.579  53.005  35.858  1.00  0.00     0.001 A 
ATOM      8  C   UNL     1      11.841  54.188  35.761  1.00  0.00     0.004 A 
ATOM      9  C   UNL     1      12.307  55.244  34.974  1.00  0.00     0.048 A 
ATOM     10  C   UNL     1      13.517  55.123  34.282  1.00  0.00     0.138 A 
ATOM     11  O   UNL     1      13.953  56.134  33.537  1.00  0.00    -0.456 OA
ENDROOT
BRANCH   1  12
ATOM     12  C   UNL     1      15.466  57.312  32.046  1.00  0.00     0.017 A 
ATOM     13  C   UNL     1      16.217  59.629  30.620  1.00  0.00     0.000 A 
ATOM     14  C   UNL     1      15.468  58.634  29.991  1.00  0.00     0.001 A 
ATOM     15  C   UNL     1      16.595  59.477  31.952  1.00  0.00     0.001 A 
ATOM     16  C   UNL     1      15.093  57.483  30.694  1.00  0.00     0.012 A 
ATOM     17  C   UNL     1      16.225  58.331  32.662  1.00  0.00     0.012 A 
ENDBRANCH   1  12
TORSDOF 1
ENDMDL
MODEL 5
REMARK VINA RESULT:    -5.927      1.617      2.732
REMARK INTER + INTRA:          -6.507
REMARK INTER:                  -6.248
REMARK INTRA:                  -0.259
REMARK UNBOUND:                -0.233
REMARK SMILES O=c1cc(-c2ccccc2)oc2ccccc12
REMARK SMILES IDX 4 1 3 2 2 3 1 4 17 5 16 6 15 7 14 8 13 9 12 10 11 11 5 12
REMARK SMILES IDX 8 13 7 14 9 15 6 16 10 17
REMARK H PARENT
REMARK Flexibility Score: inf
ROOT
ATOM      1  C   UNL     1      14.562  55.978  33.096  1.00  0.00     0.138 A 
ATOM      2  C   UNL     1      15.586  55.601  32.201  1.00  0.00     0.100 A 
ATOM      3  C   UNL     1      16.161  56.563  31.368  1.00  0.00     0.193 A 
ATOM      4  O   UNL     1      17.076  56.225  30.568  1.00  0.00    -0.289 OA
ATOM      5  C   UNL     1      15.713  57.890  31.433  1.00  0.00     0.065 A 
ATOM      6  C   UNL     1      16.249  58.907  30.622  1.00  0.00     0.016 A 
ATOM      7  C   UNL     1      15.765  60.214  30.728  1.00  0.00     0.001 A 
ATOM      8  C   UNL     1      14.747  60.516  31.637  1.00  0.00     0.004 A 
ATOM      9  C   UNL     1      14.209  59.512  32.447  1.00  0.00     0.048 A 
ATOM     10  C   UNL     1      14.686  58.200  32.349  1.00  0.00     0.138 A 
ATOM     11  O   UNL     1      14.168  57.253  33.124  1.00  0.00    -0.456 OA
ENDROOT
BRANCH   1  12
ATOM     12  C   UNL     1      13.894  55.012  34.022  1.00  0.00     0.017 A 
ATOM     13  C   UNL     1      12.712  53.130  35.762  1.00  0.00     0.000 A 
ATOM     14  C   UNL     1      12.020  54.292  35.415  1.00  0.00     0.001 A 
ATOM     15  C   UNL     1      13.987  52.901  35.249  1.00  0.00     0.001 A 
ATOM     16  C   UNL     1      12.602  55.228  34.553  1.00  0.00     0.012 A 
ATOM     17  C   UNL     1      14.575  53.831  34.386  1.00  0.00     0.012 A 
ENDBRANCH   1  12
TORSDOF 1
ENDMDL
MODEL 6
REMARK VINA RESULT:    -5.606      1.300      5.748
REMARK INTER + INTRA:          -6.167
REMARK INTER:                  -5.926
REMARK INTRA:                  -0.241
REMARK UNBOUND:                -0.233
REMARK SMILES O=c1cc(-c2ccccc2)oc2ccccc12
REMARK SMILES IDX 4 1 3 2 2 3 1 4 17 5 16 6 15 7 14 8 13 9 12 10 11 11 5 12
REMARK SMILES IDX 8 13 7 14 9 15 6 16 10 17
REMARK H PARENT
REMARK Flexibility Score: inf
ROOT
ATOM      1  C   UNL     1      14.467  57.672  32.797  1.00  0.00     0.138 A 
ATOM      2  C   UNL     1      13.057  57.632  32.794  1.00  0.00     0.100 A 
ATOM      3  C   UNL     1      12.398  56.509  33.297  1.00  0.00     0.193 A 
ATOM      4  O   UNL     1      11.138  56.474  33.294  1.00  0.00    -0.289 OA
ATOM      5  C   UNL     1      13.149  55.435  33.799  1.00  0.00     0.065 A 
ATOM      6  C   UNL     1      12.547  54.275  34.320  1.00  0.00     0.016 A 
ATOM      7  C   UNL     1      13.344  53.234  34.807  1.00  0.00     0.001 A 
ATOM      8  C   UNL     1      14.737  53.341  34.778  1.00  0.00     0.004 A 
ATOM      9  C   UNL     1      15.342  54.491  34.263  1.00  0.00     0.048 A 
ATOM     10  C   UNL     1      14.555  55.538  33.772  1.00  0.00     0.138 A 
ATOM     11  O   UNL     1      15.140  56.628  33.284  1.00  0.00    -0.456 OA
ENDROOT
BRANCH   1  12
ATOM     12  C   UNL     1      15.250  58.835  32.277  1.00  0.00     0.017 A 
ATOM     13  C   UNL     1      16.779  61.032  31.381  1.00  0.00     0.000 A 
ATOM     14  C   UNL     1      15.788  60.490  30.561  1.00  0.00     0.001 A 
ATOM     15  C   UNL     1      17.013  60.487  32.642  1.00  0.00     0.001 A 
ATOM     16  C   UNL     1      15.028  59.400  31.001  1.00  0.00     0.012 A 
ATOM     17  C   UNL     1      16.257  59.399  33.089  1.00  0.00     0.012 A 
ENDBRANCH   1  12
TORSDOF 1
ENDMDL
MODEL 7
REMARK VINA RESULT:    -5.567      1.871      6.099
REMARK INTER + INTRA:          -6.126
REMARK INTER:                  -5.900
REMARK INTRA:                  -0.226
REMARK UNBOUND:                -0.233
REMARK SMILES O=c1cc(-c2ccccc2)oc2ccccc12
REMARK SMILES IDX 4 1 3 2 2 3 1 4 17 5 16 6 15 7 14 8 13 9 12 10 11 11 5 12
REMARK SMILES IDX 8 13 7 14 9 15 6 16 10 17
REMARK H PARENT
REMARK Flexibility Score: inf
ROOT
ATOM      1  C   UNL     1      15.207  56.352  32.746  1.00  0.00     0.138 A 
ATOM      2  C   UNL     1      15.115  55.548  33.902  1.00  0.00     0.100 A 
ATOM      3  C   UNL     1      14.937  54.169  33.771  1.00  0.00     0.193 A 
ATOM      4  O   UNL     1      14.856  53.451  34.804  1.00  0.00    -0.289 OA
ATOM      5  C   UNL     1      14.851  53.604  32.490  1.00  0.00     0.065 A 
ATOM      6  C   UNL     1      14.671  52.223  32.287  1.00  0.00     0.016 A 
ATOM      7  C   UNL     1      14.592  51.712  30.988  1.00  0.00     0.001 A 
ATOM      8  C   UNL     1      14.690  52.568  29.888  1.00  0.00     0.004 A 
ATOM      9  C   UNL     1      14.869  53.941  30.081  1.00  0.00     0.048 A 
ATOM     10  C   UNL     1      14.949  54.463  31.376  1.00  0.00     0.138 A 
ATOM     11  O   UNL     1      15.119  55.770  31.549  1.00  0.00    -0.456 OA
ENDROOT
BRANCH   1  12
ATOM     12  C   UNL     1      15.397  57.834  32.799  1.00  0.00     0.017 A 
ATOM     13  C   UNL     1      15.661  60.643  32.872  1.00  0.00     0.000 A 
ATOM     14  C   UNL     1      16.756  59.831  33.171  1.00  0.00     0.001 A 
ATOM     15  C   UNL     1      14.438  60.066  32.537  1.00  0.00     0.001 A 
ATOM     16  C   UNL     1      16.630  58.438  33.137  1.00  0.00     0.012 A 
ATOM     17  C   UNL     1      14.304  58.675  32.500  1.00  0.00     0.012 A 
ENDBRANCH   1  12
TORSDOF 1
ENDMDL
MODEL 8
REMARK VINA RESULT:    -5.463      4.291      6.527
REMARK INTER + INTRA:          -6.016
REMARK INTER:                  -5.787
REMARK INTRA:                  -0.229
REMARK UNBOUND:                -0.233
REMARK SMILES O=c1cc(-c2ccccc2)oc2ccccc12
REMARK SMILES IDX 4 1 3 2 2 3 1 4 17 5 16 6 15 7 14 8 13 9 12 10 11 11 5 12
REMARK SMILES IDX 8 13 7 14 9 15 6 16 10 17
REMARK H PARENT
REMARK Flexibility Score: inf
ROOT
ATOM      1  C   UNL     1      14.772  50.309  31.600  1.00  0.00     0.138 A 
ATOM      2  C   UNL     1      13.594  50.809  31.007  1.00  0.00     0.100 A 
ATOM      3  C   UNL     1      13.105  52.059  31.393  1.00  0.00     0.193 A 
ATOM      4  O   UNL     1      12.052  52.506  30.862  1.00  0.00    -0.289 OA
ATOM      5  C   UNL     1      13.793  52.798  32.366  1.00  0.00     0.065 A 
ATOM      6  C   UNL     1      13.355  54.063  32.800  1.00  0.00     0.016 A 
ATOM      7  C   UNL     1      14.079  54.757  33.774  1.00  0.00     0.001 A 
ATOM      8  C   UNL     1      15.239  54.199  34.319  1.00  0.00     0.004 A 
ATOM      9  C   UNL     1      15.681  52.944  33.893  1.00  0.00     0.048 A 
ATOM     10  C   UNL     1      14.964  52.240  32.920  1.00  0.00     0.138 A 
ATOM     11  O   UNL     1      15.394  51.047  32.521  1.00  0.00    -0.456 OA
ENDROOT
BRANCH   1  12
ATOM     12  C   UNL     1      15.362  48.981  31.244  1.00  0.00     0.017 A 
ATOM     13  C   UNL     1      16.396  46.432  30.612  1.00  0.00     0.000 A 
ATOM     14  C   UNL     1      17.114  47.580  30.275  1.00  0.00     0.001 A 
ATOM     15  C   UNL     1      15.168  46.546  31.260  1.00  0.00     0.001 A 
ATOM     16  C   UNL     1      16.606  48.846  30.586  1.00  0.00     0.012 A 
ATOM     17  C   UNL     1      14.653  47.807  31.575  1.00  0.00     0.012 A 
ENDBRANCH   1  12
TORSDOF 1
ENDMDL
MODEL 9
REMARK VINA RESULT:    -5.434      5.506      9.876
REMARK INTER + INTRA:          -5.984
REMARK INTER:                  -5.763
REMARK INTRA:                  -0.221
REMARK UNBOUND:                -0.233
REMARK SMILES O=c1cc(-c2ccccc2)oc2ccccc12
REMARK SMILES IDX 4 1 3 2 2 3 1 4 17 5 16 6 15 7 14 8 13 9 12 10 11 11 5 12
REMARK SMILES IDX 8 13 7 14 9 15 6 16 10 17
REMARK H PARENT
REMARK Flexibility Score: inf
ROOT
ATOM      1  C   UNL     1      15.243  49.813  31.733  1.00  0.00     0.138 A 
ATOM      2  C   UNL     1      16.249  49.384  30.841  1.00  0.00     0.100 A 
ATOM      3  C   UNL     1      16.297  48.044  30.451  1.00  0.00     0.193 A 
ATOM      4  O   UNL     1      17.196  47.660  29.654  1.00  0.00    -0.289 OA
ATOM      5  C   UNL     1      15.345  47.144  30.953  1.00  0.00     0.065 A 
ATOM      6  C   UNL     1      15.338  45.782  30.601  1.00  0.00     0.016 A 
ATOM      7  C   UNL     1      14.365  44.928  31.131  1.00  0.00     0.001 A 
ATOM      8  C   UNL     1      13.399  45.423  32.011  1.00  0.00     0.004 A 
ATOM      9  C   UNL     1      13.399  46.775  32.365  1.00  0.00     0.048 A 
ATOM     10  C   UNL     1      14.367  47.638  31.841  1.00  0.00     0.138 A 
ATOM     11  O   UNL     1      14.359  48.923  32.184  1.00  0.00    -0.456 OA
ENDROOT
BRANCH   1  12
ATOM     12  C   UNL     1      15.121  51.229  32.200  1.00  0.00     0.017 A 
ATOM     13  C   UNL     1      14.959  53.881  33.151  1.00  0.00     0.000 A 
ATOM     14  C   UNL     1      14.147  53.467  32.094  1.00  0.00     0.001 A 
ATOM     15  C   UNL     1      15.850  52.984  33.736  1.00  0.00     0.001 A 
ATOM     16  C   UNL     1      14.224  52.154  31.619  1.00  0.00     0.012 A 
ATOM     17  C   UNL     1      15.932  51.669  33.268  1.00  0.00     0.012 A 
ENDBRANCH   1  12
TORSDOF 1
ENDMDL
