MODEL 1
REMARK VINA RESULT:     2.536      0.000      0.000
REMARK INTER + INTRA:           5.430
REMARK INTER:                   6.391
REMARK INTRA:                  -0.962
REMARK UNBOUND:                -0.962
REMARK SMILES CCCCCCCCCCCCCCCCCCCCCCCCCCCC(=O)[O-]
REMARK SMILES IDX 15 1 16 2 17 3 18 4 19 5 20 6 21 7 22 8 23 9 24 10 25 11
REMARK SMILES IDX 26 12 27 13 28 14 29 15 30 16 14 17 13 18 12 19 11 20 10 21
REMARK SMILES IDX 9 22 8 23 7 24 6 25 5 26 4 27 3 28 2 29 1 30
REMARK H PARENT
REMARK Flexibility Score: inf
ROOT
ATOM      1  C   UNL     1      21.985  12.466  17.836  1.00  0.00     0.000 C 
ENDROOT
BRANCH   1   2
ATOM      2  C   UNL     1      21.234  13.503  16.984  1.00  0.00     0.000 C 
BRANCH   2   3
ATOM      3  C   UNL     1      20.209  14.360  17.757  1.00  0.00     0.000 C 
BRANCH   3   4
ATOM      4  C   UNL     1      19.359  15.308  16.888  1.00  0.00     0.000 C 
BRANCH   4   5
ATOM      5  C   UNL     1      19.711  16.801  17.023  1.00  0.00     0.000 C 
BRANCH   5   6
ATOM      6  C   UNL     1      18.649  17.597  17.794  1.00  0.00     0.000 C 
BRANCH   6   7
ATOM      7  C   UNL     1      19.052  19.075  17.914  1.00  0.00     0.000 C 
BRANCH   7   8
ATOM      8  C   UNL     1      17.841  20.014  18.057  1.00  0.00     0.000 C 
BRANCH   8   9
ATOM      9  C   UNL     1      18.085  21.266  18.926  1.00  0.00     0.000 C 
BRANCH   9  10
ATOM     10  C   UNL     1      19.449  21.948  18.716  1.00  0.00     0.000 C 
BRANCH  10  11
ATOM     11  C   UNL     1      20.364  21.844  19.946  1.00  0.00     0.000 C 
BRANCH  11  12
ATOM     12  C   UNL     1      21.360  20.685  19.795  1.00  0.00     0.006 C 
BRANCH  12  13
ATOM     13  C   UNL     1      22.712  20.991  20.453  1.00  0.00     0.053 C 
BRANCH  13  14
ATOM     14  C   UNL     1      23.854  20.402  19.682  1.00  0.00     0.041 C 
ATOM     15  O   UNL     1      24.731  19.720  20.273  1.00  0.00    -0.550 OA
ATOM     16  O   UNL     1      23.966  20.637  18.318  1.00  0.00    -0.550 OA
ENDBRANCH  13  14
ENDBRANCH  12  13
ENDBRANCH  11  12
ENDBRANCH  10  11
ENDBRANCH   9  10
ENDBRANCH   8   9
ENDBRANCH   7   8
ENDBRANCH   6   7
ENDBRANCH   5   6
ENDBRANCH   4   5
ENDBRANCH   3   4
ENDBRANCH   2   3
ENDBRANCH   1   2
BRANCH   1  17
ATOM     17  C   UNL     1      22.867  11.531  16.996  1.00  0.00     0.000 C 
BRANCH  17  18
ATOM     18  C   UNL     1      24.094  11.070  17.791  1.00  0.00     0.000 C 
BRANCH  18  19
ATOM     19  C   UNL     1      25.121  10.388  16.875  1.00  0.00     0.000 C 
BRANCH  19  20
ATOM     20  C   UNL     1      25.726   9.114  17.492  1.00  0.00     0.000 C 
BRANCH  20  21
ATOM     21  C   UNL     1      25.165   7.791  16.941  1.00  0.00     0.000 C 
BRANCH  21  22
ATOM     22  C   UNL     1      26.124   6.604  17.137  1.00  0.00    -0.000 C 
BRANCH  22  23
ATOM     23  C   UNL     1      25.384   5.257  17.191  1.00  0.00    -0.000 C 
BRANCH  23  24
ATOM     24  C   UNL     1      25.955   4.320  18.270  1.00  0.00    -0.000 C 
BRANCH  24  25
ATOM     25  C   UNL     1      25.269   4.504  19.633  1.00  0.00    -0.000 C 
BRANCH  25  26
ATOM     26  C   UNL     1      24.892   3.167  20.296  1.00  0.00    -0.000 C 
BRANCH  26  27
ATOM     27  C   UNL     1      23.409   3.122  20.721  1.00  0.00    -0.000 C 
BRANCH  27  28
ATOM     28  C   UNL     1      22.497   2.391  19.717  1.00  0.00    -0.000 C 
BRANCH  28  29
ATOM     29  C   UNL     1      21.034   2.243  20.163  1.00  0.00    -0.003 C 
ATOM     30  C   UNL     1      20.037   2.681  19.089  1.00  0.00     0.004 C 
ENDBRANCH  28  29
ENDBRANCH  27  28
ENDBRANCH  26  27
ENDBRANCH  25  26
ENDBRANCH  24  25
ENDBRANCH  23  24
ENDBRANCH  22  23
ENDBRANCH  21  22
ENDBRANCH  20  21
ENDBRANCH  19  20
ENDBRANCH  18  19
ENDBRANCH  17  18
ENDBRANCH   1  17
TORSDOF 26
ENDMDL
MODEL 2
REMARK VINA RESULT:     2.899      4.638     14.667
REMARK INTER + INTRA:           6.345
REMARK INTER:                   7.598
REMARK INTRA:                  -1.253
REMARK UNBOUND:                -0.962
REMARK SMILES CCCCCCCCCCCCCCCCCCCCCCCCCCCC(=O)[O-]
REMARK SMILES IDX 15 1 16 2 17 3 18 4 19 5 20 6 21 7 22 8 23 9 24 10 25 11
REMARK SMILES IDX 26 12 27 13 28 14 29 15 30 16 14 17 13 18 12 19 11 20 10 21
REMARK SMILES IDX 9 22 8 23 7 24 6 25 5 26 4 27 3 28 2 29 1 30
REMARK H PARENT
REMARK Flexibility Score: inf
ROOT
ATOM      1  C   UNL     1      20.793  13.639  17.614  1.00  0.00     0.000 C 
ENDROOT
BRANCH   1   2
ATOM      2  C   UNL     1      21.948  12.915  16.900  1.00  0.00     0.000 C 
BRANCH   2   3
ATOM      3  C   UNL     1      22.492  11.675  17.638  1.00  0.00     0.000 C 
BRANCH   3   4
ATOM      4  C   UNL     1      21.935  10.323  17.150  1.00  0.00     0.000 C 
BRANCH   4   5
ATOM      5  C   UNL     1      22.927   9.147  17.221  1.00  0.00     0.000 C 
BRANCH   5   6
ATOM      6  C   UNL     1      22.280   7.799  16.875  1.00  0.00     0.000 C 
BRANCH   6   7
ATOM      7  C   UNL     1      22.649   6.732  17.917  1.00  0.00     0.000 C 
BRANCH   7   8
ATOM      8  C   UNL     1      23.879   5.901  17.512  1.00  0.00     0.000 C 
BRANCH   8   9
ATOM      9  C   UNL     1      24.556   5.132  18.666  1.00  0.00     0.000 C 
BRANCH   9  10
ATOM     10  C   UNL     1      23.715   5.012  19.950  1.00  0.00     0.000 C 
BRANCH  10  11
ATOM     11  C   UNL     1      23.873   3.650  20.641  1.00  0.00     0.000 C 
BRANCH  11  12
ATOM     12  C   UNL     1      22.571   2.838  20.563  1.00  0.00     0.006 C 
BRANCH  12  13
ATOM     13  C   UNL     1      21.808   3.088  19.255  1.00  0.00     0.053 C 
BRANCH  13  14
ATOM     14  C   UNL     1      20.343   3.290  19.494  1.00  0.00     0.041 C 
ATOM     15  O   UNL     1      19.951   4.083  20.388  1.00  0.00    -0.550 OA
ATOM     16  O   UNL     1      19.413   2.574  18.752  1.00  0.00    -0.550 OA
ENDBRANCH  13  14
ENDBRANCH  12  13
ENDBRANCH  11  12
ENDBRANCH  10  11
ENDBRANCH   9  10
ENDBRANCH   8   9
ENDBRANCH   7   8
ENDBRANCH   6   7
ENDBRANCH   5   6
ENDBRANCH   4   5
ENDBRANCH   3   4
ENDBRANCH   2   3
ENDBRANCH   1   2
BRANCH   1  17
ATOM     17  C   UNL     1      20.643  15.102  17.172  1.00  0.00     0.000 C 
BRANCH  17  18
ATOM     18  C   UNL     1      19.171  15.455  16.928  1.00  0.00     0.000 C 
BRANCH  18  19
ATOM     19  C   UNL     1      18.675  16.486  17.952  1.00  0.00     0.000 C 
BRANCH  19  20
ATOM     20  C   UNL     1      18.910  17.941  17.504  1.00  0.00     0.000 C 
BRANCH  20  21
ATOM     21  C   UNL     1      17.741  18.904  17.777  1.00  0.00     0.000 C 
BRANCH  21  22
ATOM     22  C   UNL     1      18.090  20.372  17.475  1.00  0.00    -0.000 C 
BRANCH  22  23
ATOM     23  C   UNL     1      19.369  20.829  18.195  1.00  0.00    -0.000 C 
BRANCH  23  24
ATOM     24  C   UNL     1      19.068  21.553  19.519  1.00  0.00    -0.000 C 
BRANCH  24  25
ATOM     25  C   UNL     1      20.142  21.298  20.588  1.00  0.00    -0.000 C 
BRANCH  25  26
ATOM     26  C   UNL     1      21.509  21.898  20.216  1.00  0.00    -0.000 C 
BRANCH  26  27
ATOM     27  C   UNL     1      22.570  20.811  19.939  1.00  0.00    -0.000 C 
BRANCH  27  28
ATOM     28  C   UNL     1      24.018  21.337  19.964  1.00  0.00    -0.000 C 
BRANCH  28  29
ATOM     29  C   UNL     1      25.030  20.406  20.650  1.00  0.00    -0.003 C 
ATOM     30  C   UNL     1      25.018  18.988  20.078  1.00  0.00     0.004 C 
ENDBRANCH  28  29
ENDBRANCH  27  28
ENDBRANCH  26  27
ENDBRANCH  25  26
ENDBRANCH  24  25
ENDBRANCH  23  24
ENDBRANCH  22  23
ENDBRANCH  21  22
ENDBRANCH  20  21
ENDBRANCH  19  20
ENDBRANCH  18  19
ENDBRANCH  17  18
ENDBRANCH   1  17
TORSDOF 26
ENDMDL
MODEL 3
REMARK VINA RESULT:     3.280      1.553      2.017
REMARK INTER + INTRA:           7.303
REMARK INTER:                   7.222
REMARK INTRA:                   0.081
REMARK UNBOUND:                -0.962
REMARK SMILES CCCCCCCCCCCCCCCCCCCCCCCCCCCC(=O)[O-]
REMARK SMILES IDX 15 1 16 2 17 3 18 4 19 5 20 6 21 7 22 8 23 9 24 10 25 11
REMARK SMILES IDX 26 12 27 13 28 14 29 15 30 16 14 17 13 18 12 19 11 20 10 21
REMARK SMILES IDX 9 22 8 23 7 24 6 25 5 26 4 27 3 28 2 29 1 30
REMARK H PARENT
REMARK Flexibility Score: inf
ROOT
ATOM      1  C   UNL     1      22.029  12.499  17.852  1.00  0.00     0.000 C 
ENDROOT
BRANCH   1   2
ATOM      2  C   UNL     1      21.124  13.396  16.990  1.00  0.00     0.000 C 
BRANCH   2   3
ATOM      3  C   UNL     1      20.211  14.353  17.784  1.00  0.00     0.000 C 
BRANCH   3   4
ATOM      4  C   UNL     1      19.247  15.201  16.930  1.00  0.00     0.000 C 
BRANCH   4   5
ATOM      5  C   UNL     1      19.579  16.703  16.875  1.00  0.00     0.000 C 
BRANCH   5   6
ATOM      6  C   UNL     1      18.677  17.547  17.786  1.00  0.00     0.000 C 
BRANCH   6   7
ATOM      7  C   UNL     1      19.256  18.958  17.975  1.00  0.00     0.000 C 
BRANCH   7   8
ATOM      8  C   UNL     1      18.207  19.973  18.463  1.00  0.00     0.000 C 
BRANCH   8   9
ATOM      9  C   UNL     1      18.786  21.246  19.117  1.00  0.00     0.000 C 
BRANCH   9  10
ATOM     10  C   UNL     1      19.714  22.078  18.213  1.00  0.00     0.000 C 
BRANCH  10  11
ATOM     11  C   UNL     1      21.185  22.016  18.651  1.00  0.00     0.000 C 
BRANCH  11  12
ATOM     12  C   UNL     1      21.993  21.084  17.735  1.00  0.00     0.006 C 
BRANCH  12  13
ATOM     13  C   UNL     1      22.947  20.177  18.524  1.00  0.00     0.053 C 
BRANCH  13  14
ATOM     14  C   UNL     1      24.383  20.483  18.224  1.00  0.00     0.041 C 
ATOM     15  O   UNL     1      25.108  19.625  17.658  1.00  0.00    -0.550 OA
ATOM     16  O   UNL     1      24.927  21.703  18.603  1.00  0.00    -0.550 OA
ENDBRANCH  13  14
ENDBRANCH  12  13
ENDBRANCH  11  12
ENDBRANCH  10  11
ENDBRANCH   9  10
ENDBRANCH   8   9
ENDBRANCH   7   8
ENDBRANCH   6   7
ENDBRANCH   5   6
ENDBRANCH   4   5
ENDBRANCH   3   4
ENDBRANCH   2   3
ENDBRANCH   1   2
BRANCH   1  17
ATOM     17  C   UNL     1      23.059  11.718  17.022  1.00  0.00     0.000 C 
BRANCH  17  18
ATOM     18  C   UNL     1      24.275  11.335  17.873  1.00  0.00     0.000 C 
BRANCH  18  19
ATOM     19  C   UNL     1      25.385  10.726  17.005  1.00  0.00     0.000 C 
BRANCH  19  20
ATOM     20  C   UNL     1      26.065   9.511  17.662  1.00  0.00     0.000 C 
BRANCH  20  21
ATOM     21  C   UNL     1      25.946   8.192  16.877  1.00  0.00     0.000 C 
BRANCH  21  22
ATOM     22  C   UNL     1      26.124   6.947  17.764  1.00  0.00    -0.000 C 
BRANCH  22  23
ATOM     23  C   UNL     1      25.882   5.640  16.991  1.00  0.00    -0.000 C 
BRANCH  23  24
ATOM     24  C   UNL     1      25.237   4.553  17.870  1.00  0.00    -0.000 C 
BRANCH  24  25
ATOM     25  C   UNL     1      23.707   4.682  17.940  1.00  0.00    -0.000 C 
BRANCH  25  26
ATOM     26  C   UNL     1      22.978   3.563  17.177  1.00  0.00    -0.000 C 
BRANCH  26  27
ATOM     27  C   UNL     1      21.469   3.848  17.018  1.00  0.00    -0.000 C 
BRANCH  27  28
ATOM     28  C   UNL     1      20.894   4.767  18.113  1.00  0.00    -0.000 C 
BRANCH  28  29
ATOM     29  C   UNL     1      20.950   6.268  17.790  1.00  0.00    -0.003 C 
ATOM     30  C   UNL     1      22.166   6.651  16.946  1.00  0.00     0.004 C 
ENDBRANCH  28  29
ENDBRANCH  27  28
ENDBRANCH  26  27
ENDBRANCH  25  26
ENDBRANCH  24  25
ENDBRANCH  23  24
ENDBRANCH  22  23
ENDBRANCH  21  22
ENDBRANCH  20  21
ENDBRANCH  19  20
ENDBRANCH  18  19
ENDBRANCH  17  18
ENDBRANCH   1  17
TORSDOF 26
ENDMDL
MODEL 4
REMARK VINA RESULT:     3.774      4.649     14.542
REMARK INTER + INTRA:           8.549
REMARK INTER:                   9.974
REMARK INTRA:                  -1.425
REMARK UNBOUND:                -0.962
REMARK SMILES CCCCCCCCCCCCCCCCCCCCCCCCCCCC(=O)[O-]
REMARK SMILES IDX 15 1 16 2 17 3 18 4 19 5 20 6 21 7 22 8 23 9 24 10 25 11
REMARK SMILES IDX 26 12 27 13 28 14 29 15 30 16 14 17 13 18 12 19 11 20 10 21
REMARK SMILES IDX 9 22 8 23 7 24 6 25 5 26 4 27 3 28 2 29 1 30
REMARK H PARENT
REMARK Flexibility Score: inf
ROOT
ATOM      1  C   UNL     1      22.305  13.372  16.898  1.00  0.00     0.000 C 
ENDROOT
BRANCH   1   2
ATOM      2  C   UNL     1      22.423  11.845  17.049  1.00  0.00     0.000 C 
BRANCH   2   3
ATOM      3  C   UNL     1      23.390  11.374  18.155  1.00  0.00     0.000 C 
BRANCH   3   4
ATOM      4  C   UNL     1      24.888  11.514  17.820  1.00  0.00     0.000 C 
BRANCH   4   5
ATOM      5  C   UNL     1      25.743  10.273  18.138  1.00  0.00     0.000 C 
BRANCH   5   6
ATOM      6  C   UNL     1      25.993   9.391  16.907  1.00  0.00     0.000 C 
BRANCH   6   7
ATOM      7  C   UNL     1      25.158   8.103  16.977  1.00  0.00     0.000 C 
BRANCH   7   8
ATOM      8  C   UNL     1      26.007   6.857  17.283  1.00  0.00     0.000 C 
BRANCH   8   9
ATOM      9  C   UNL     1      25.365   5.514  16.875  1.00  0.00     0.000 C 
BRANCH   9  10
ATOM     10  C   UNL     1      24.431   4.892  17.928  1.00  0.00     0.000 C 
BRANCH  10  11
ATOM     11  C   UNL     1      24.998   3.603  18.542  1.00  0.00     0.000 C 
BRANCH  11  12
ATOM     12  C   UNL     1      26.116   3.918  19.547  1.00  0.00     0.006 C 
BRANCH  12  13
ATOM     13  C   UNL     1      25.575   4.538  20.842  1.00  0.00     0.053 C 
BRANCH  13  14
ATOM     14  C   UNL     1      25.669   3.587  21.997  1.00  0.00     0.041 C 
ATOM     15  O   UNL     1      25.722   2.347  21.793  1.00  0.00    -0.550 OA
ATOM     16  O   UNL     1      25.663   4.072  23.298  1.00  0.00    -0.550 OA
ENDBRANCH  13  14
ENDBRANCH  12  13
ENDBRANCH  11  12
ENDBRANCH  10  11
ENDBRANCH   9  10
ENDBRANCH   8   9
ENDBRANCH   7   8
ENDBRANCH   6   7
ENDBRANCH   5   6
ENDBRANCH   4   5
ENDBRANCH   3   4
ENDBRANCH   2   3
ENDBRANCH   1   2
BRANCH   1  17
ATOM     17  C   UNL     1      21.305  13.992  17.886  1.00  0.00     0.000 C 
BRANCH  17  18
ATOM     18  C   UNL     1      20.751  15.316  17.349  1.00  0.00     0.000 C 
BRANCH  18  19
ATOM     19  C   UNL     1      19.263  15.472  17.696  1.00  0.00     0.000 C 
BRANCH  19  20
ATOM     20  C   UNL     1      18.944  16.805  18.398  1.00  0.00     0.000 C 
BRANCH  20  21
ATOM     21  C   UNL     1      18.223  17.847  17.523  1.00  0.00     0.000 C 
BRANCH  21  22
ATOM     22  C   UNL     1      18.882  19.236  17.579  1.00  0.00    -0.000 C 
BRANCH  22  23
ATOM     23  C   UNL     1      18.744  19.894  18.962  1.00  0.00    -0.000 C 
BRANCH  23  24
ATOM     24  C   UNL     1      19.933  20.813  19.294  1.00  0.00    -0.000 C 
BRANCH  24  25
ATOM     25  C   UNL     1      21.064  20.710  18.258  1.00  0.00    -0.000 C 
BRANCH  25  26
ATOM     26  C   UNL     1      22.464  20.748  18.897  1.00  0.00    -0.000 C 
BRANCH  26  27
ATOM     27  C   UNL     1      22.710  22.049  19.690  1.00  0.00    -0.000 C 
BRANCH  27  28
ATOM     28  C   UNL     1      23.508  21.841  20.992  1.00  0.00    -0.000 C 
BRANCH  28  29
ATOM     29  C   UNL     1      25.011  21.589  20.793  1.00  0.00    -0.003 C 
ATOM     30  C   UNL     1      25.479  20.267  21.404  1.00  0.00     0.004 C 
ENDBRANCH  28  29
ENDBRANCH  27  28
ENDBRANCH  26  27
ENDBRANCH  25  26
ENDBRANCH  24  25
ENDBRANCH  23  24
ENDBRANCH  22  23
ENDBRANCH  21  22
ENDBRANCH  20  21
ENDBRANCH  19  20
ENDBRANCH  18  19
ENDBRANCH  17  18
ENDBRANCH   1  17
TORSDOF 26
ENDMDL
MODEL 5
REMARK VINA RESULT:     4.565      2.953      5.261
REMARK INTER + INTRA:          10.541
REMARK INTER:                  11.086
REMARK INTRA:                  -0.545
REMARK UNBOUND:                -0.962
REMARK SMILES CCCCCCCCCCCCCCCCCCCCCCCCCCCC(=O)[O-]
REMARK SMILES IDX 15 1 16 2 17 3 18 4 19 5 20 6 21 7 22 8 23 9 24 10 25 11
REMARK SMILES IDX 26 12 27 13 28 14 29 15 30 16 14 17 13 18 12 19 11 20 10 21
REMARK SMILES IDX 9 22 8 23 7 24 6 25 5 26 4 27 3 28 2 29 1 30
REMARK H PARENT
REMARK Flexibility Score: inf
ROOT
ATOM      1  C   UNL     1      23.153   6.969  17.871  1.00  0.00     0.000 C 
ENDROOT
BRANCH   1   2
ATOM      2  C   UNL     1      22.268   8.135  17.398  1.00  0.00     0.000 C 
BRANCH   2   3
ATOM      3  C   UNL     1      22.860   9.539  17.638  1.00  0.00     0.000 C 
BRANCH   3   4
ATOM      4  C   UNL     1      22.084  10.699  16.983  1.00  0.00     0.000 C 
BRANCH   4   5
ATOM      5  C   UNL     1      22.696  12.095  17.205  1.00  0.00     0.000 C 
BRANCH   5   6
ATOM      6  C   UNL     1      21.714  13.080  17.855  1.00  0.00     0.000 C 
BRANCH   6   7
ATOM      7  C   UNL     1      21.334  14.201  16.876  1.00  0.00     0.000 C 
BRANCH   7   8
ATOM      8  C   UNL     1      20.100  14.999  17.332  1.00  0.00     0.000 C 
BRANCH   8   9
ATOM      9  C   UNL     1      20.165  16.516  17.055  1.00  0.00     0.000 C 
BRANCH   9  10
ATOM     10  C   UNL     1      18.846  17.276  17.283  1.00  0.00     0.000 C 
BRANCH  10  11
ATOM     11  C   UNL     1      18.988  18.792  17.079  1.00  0.00     0.000 C 
BRANCH  11  12
ATOM     12  C   UNL     1      18.228  19.567  18.165  1.00  0.00     0.006 C 
BRANCH  12  13
ATOM     13  C   UNL     1      16.733  19.702  17.845  1.00  0.00     0.053 C 
BRANCH  13  14
ATOM     14  C   UNL     1      16.281  21.130  17.884  1.00  0.00     0.041 C 
ATOM     15  O   UNL     1      16.967  21.995  18.490  1.00  0.00    -0.550 OA
ATOM     16  O   UNL     1      15.085  21.498  17.281  1.00  0.00    -0.550 OA
ENDBRANCH  13  14
ENDBRANCH  12  13
ENDBRANCH  11  12
ENDBRANCH  10  11
ENDBRANCH   9  10
ENDBRANCH   8   9
ENDBRANCH   7   8
ENDBRANCH   6   7
ENDBRANCH   5   6
ENDBRANCH   4   5
ENDBRANCH   3   4
ENDBRANCH   2   3
ENDBRANCH   1   2
BRANCH   1  17
ATOM     17  C   UNL     1      22.339   5.737  18.294  1.00  0.00     0.000 C 
BRANCH  17  18
ATOM     18  C   UNL     1      22.868   4.468  17.615  1.00  0.00     0.000 C 
BRANCH  18  19
ATOM     19  C   UNL     1      23.892   3.752  18.506  1.00  0.00     0.000 C 
BRANCH  19  20
ATOM     20  C   UNL     1      25.339   4.212  18.250  1.00  0.00     0.000 C 
BRANCH  20  21
ATOM     21  C   UNL     1      25.898   5.213  19.277  1.00  0.00     0.000 C 
BRANCH  21  22
ATOM     22  C   UNL     1      25.231   5.091  20.658  1.00  0.00    -0.000 C 
BRANCH  22  23
ATOM     23  C   UNL     1      25.955   4.087  21.571  1.00  0.00    -0.000 C 
BRANCH  23  24
ATOM     24  C   UNL     1      25.193   2.756  21.695  1.00  0.00    -0.000 C 
BRANCH  24  25
ATOM     25  C   UNL     1      23.670   2.936  21.594  1.00  0.00    -0.000 C 
BRANCH  25  26
ATOM     26  C   UNL     1      23.036   2.053  20.506  1.00  0.00    -0.000 C 
BRANCH  26  27
ATOM     27  C   UNL     1      21.506   1.928  20.671  1.00  0.00    -0.000 C 
BRANCH  27  28
ATOM     28  C   UNL     1      20.705   2.922  19.808  1.00  0.00    -0.000 C 
BRANCH  28  29
ATOM     29  C   UNL     1      20.496   2.486  18.349  1.00  0.00    -0.003 C 
ATOM     30  C   UNL     1      19.019   2.373  17.968  1.00  0.00     0.004 C 
ENDBRANCH  28  29
ENDBRANCH  27  28
ENDBRANCH  26  27
ENDBRANCH  25  26
ENDBRANCH  24  25
ENDBRANCH  23  24
ENDBRANCH  22  23
ENDBRANCH  21  22
ENDBRANCH  20  21
ENDBRANCH  19  20
ENDBRANCH  18  19
ENDBRANCH  17  18
ENDBRANCH   1  17
TORSDOF 26
ENDMDL
MODEL 6
REMARK VINA RESULT:     5.102      4.748     14.690
REMARK INTER + INTRA:          11.894
REMARK INTER:                  13.641
REMARK INTRA:                  -1.747
REMARK UNBOUND:                -0.962
REMARK SMILES CCCCCCCCCCCCCCCCCCCCCCCCCCCC(=O)[O-]
REMARK SMILES IDX 15 1 16 2 17 3 18 4 19 5 20 6 21 7 22 8 23 9 24 10 25 11
REMARK SMILES IDX 26 12 27 13 28 14 29 15 30 16 14 17 13 18 12 19 11 20 10 21
REMARK SMILES IDX 9 22 8 23 7 24 6 25 5 26 4 27 3 28 2 29 1 30
REMARK H PARENT
REMARK Flexibility Score: inf
ROOT
ATOM      1  C   UNL     1      21.876   9.618  17.657  1.00  0.00     0.000 C 
ENDROOT
BRANCH   1   2
ATOM      2  C   UNL     1      21.201   8.745  18.729  1.00  0.00     0.000 C 
BRANCH   2   3
ATOM      3  C   UNL     1      21.209   7.231  18.433  1.00  0.00     0.000 C 
BRANCH   3   4
ATOM      4  C   UNL     1      22.565   6.658  17.976  1.00  0.00     0.000 C 
BRANCH   4   5
ATOM      5  C   UNL     1      22.517   5.206  17.465  1.00  0.00     0.000 C 
BRANCH   5   6
ATOM      6  C   UNL     1      23.877   4.708  16.956  1.00  0.00     0.000 C 
BRANCH   6   7
ATOM      7  C   UNL     1      24.238   3.357  17.593  1.00  0.00     0.000 C 
BRANCH   7   8
ATOM      8  C   UNL     1      25.336   3.477  18.665  1.00  0.00     0.000 C 
BRANCH   8   9
ATOM      9  C   UNL     1      25.441   2.276  19.628  1.00  0.00     0.000 C 
BRANCH   9  10
ATOM     10  C   UNL     1      24.285   2.147  20.637  1.00  0.00     0.000 C 
BRANCH  10  11
ATOM     11  C   UNL     1      23.479   3.445  20.790  1.00  0.00     0.000 C 
BRANCH  11  12
ATOM     12  C   UNL     1      21.973   3.152  20.866  1.00  0.00     0.006 C 
BRANCH  12  13
ATOM     13  C   UNL     1      21.469   2.380  19.639  1.00  0.00     0.053 C 
BRANCH  13  14
ATOM     14  C   UNL     1      20.277   3.041  19.015  1.00  0.00     0.041 C 
ATOM     15  O   UNL     1      19.716   2.520  18.017  1.00  0.00    -0.550 OA
ATOM     16  O   UNL     1      19.811   4.249  19.516  1.00  0.00    -0.550 OA
ENDBRANCH  13  14
ENDBRANCH  12  13
ENDBRANCH  11  12
ENDBRANCH  10  11
ENDBRANCH   9  10
ENDBRANCH   8   9
ENDBRANCH   7   8
ENDBRANCH   6   7
ENDBRANCH   5   6
ENDBRANCH   4   5
ENDBRANCH   3   4
ENDBRANCH   2   3
ENDBRANCH   1   2
BRANCH   1  17
ATOM     17  C   UNL     1      21.853  11.114  18.006  1.00  0.00     0.000 C 
BRANCH  17  18
ATOM     18  C   UNL     1      22.807  11.904  17.104  1.00  0.00     0.000 C 
BRANCH  18  19
ATOM     19  C   UNL     1      22.293  13.333  16.876  1.00  0.00     0.000 C 
BRANCH  19  20
ATOM     20  C   UNL     1      20.848  13.538  17.365  1.00  0.00     0.000 C 
BRANCH  20  21
ATOM     21  C   UNL     1      20.170  14.831  16.875  1.00  0.00     0.000 C 
BRANCH  21  22
ATOM     22  C   UNL     1      19.305  15.502  17.956  1.00  0.00    -0.000 C 
BRANCH  22  23
ATOM     23  C   UNL     1      18.271  16.471  17.359  1.00  0.00    -0.000 C 
BRANCH  23  24
ATOM     24  C   UNL     1      18.899  17.816  16.950  1.00  0.00    -0.000 C 
BRANCH  24  25
ATOM     25  C   UNL     1      18.199  19.017  17.605  1.00  0.00    -0.000 C 
BRANCH  25  26
ATOM     26  C   UNL     1      18.380  19.053  19.132  1.00  0.00    -0.000 C 
BRANCH  26  27
ATOM     27  C   UNL     1      19.176  20.292  19.598  1.00  0.00    -0.000 C 
BRANCH  27  28
ATOM     28  C   UNL     1      20.364  20.645  18.683  1.00  0.00    -0.000 C 
BRANCH  28  29
ATOM     29  C   UNL     1      21.498  21.423  19.370  1.00  0.00    -0.003 C 
ATOM     30  C   UNL     1      22.851  20.716  19.269  1.00  0.00     0.004 C 
ENDBRANCH  28  29
ENDBRANCH  27  28
ENDBRANCH  26  27
ENDBRANCH  25  26
ENDBRANCH  24  25
ENDBRANCH  23  24
ENDBRANCH  22  23
ENDBRANCH  21  22
ENDBRANCH  20  21
ENDBRANCH  19  20
ENDBRANCH  18  19
ENDBRANCH  17  18
ENDBRANCH   1  17
TORSDOF 26
ENDMDL
