MODEL 1
REMARK VINA RESULT:    -3.640      0.000      0.000
REMARK INTER + INTRA:          -3.986
REMARK INTER:                  -3.959
REMARK INTRA:                  -0.027
REMARK UNBOUND:                -0.027
REMARK SMILES O=C([O-])c1ccc(O)cc1
REMARK SMILES IDX 4 1 5 2 10 3 6 4 9 5 7 6 2 7 1 8 3 9 8 10
REMARK H PARENT 8 11
REMARK Flexibility Score: inf
ROOT
ATOM      1  C   UNL     1      44.460  29.503  91.454  1.00  0.00    -0.003 A 
ATOM      2  C   UNL     1      45.242  30.511  90.860  1.00  0.00     0.014 A 
ATOM      3  C   UNL     1      43.630  29.834  92.539  1.00  0.00     0.014 A 
ATOM      4  C   UNL     1      45.192  31.822  91.345  1.00  0.00     0.047 A 
ATOM      5  C   UNL     1      43.583  31.146  93.021  1.00  0.00     0.047 A 
ATOM      6  C   UNL     1      44.362  32.143  92.426  1.00  0.00     0.115 A 
ENDROOT
BRANCH   1   7
ATOM      7  C   UNL     1      44.508  28.114  90.946  1.00  0.00     0.071 C 
ATOM      8  O   UNL     1      45.219  27.247  91.519  1.00  0.00    -0.545 OA
ATOM      9  O   UNL     1      43.765  27.746  89.830  1.00  0.00    -0.545 OA
ENDBRANCH   1   7
BRANCH   6  10
ATOM     10  O   UNL     1      44.304  33.445  92.917  1.00  0.00    -0.508 OA
ATOM     11  H   UNL     1      43.557  34.078  92.653  1.00  0.00     0.293 HD
ENDBRANCH   6  10
TORSDOF 2
ENDMDL
MODEL 2
REMARK VINA RESULT:    -3.623     14.482     16.773
REMARK INTER + INTRA:          -3.968
REMARK INTER:                  -3.939
REMARK INTRA:                  -0.028
REMARK UNBOUND:                -0.027
REMARK SMILES O=C([O-])c1ccc(O)cc1
REMARK SMILES IDX 4 1 5 2 10 3 6 4 9 5 7 6 2 7 1 8 3 9 8 10
REMARK H PARENT 8 11
REMARK Flexibility Score: inf
ROOT
ATOM      1  C   UNL     1      38.025  20.893  80.740  1.00  0.00    -0.003 A 
ATOM      2  C   UNL     1      39.184  20.501  80.045  1.00  0.00     0.014 A 
ATOM      3  C   UNL     1      36.989  19.959  80.918  1.00  0.00     0.014 A 
ATOM      4  C   UNL     1      39.301  19.202  79.540  1.00  0.00     0.047 A 
ATOM      5  C   UNL     1      37.110  18.661  80.411  1.00  0.00     0.047 A 
ATOM      6  C   UNL     1      38.264  18.279  79.722  1.00  0.00     0.115 A 
ENDROOT
BRANCH   1   7
ATOM      7  C   UNL     1      37.895  22.265  81.277  1.00  0.00     0.071 C 
ATOM      8  O   UNL     1      37.820  23.253  80.499  1.00  0.00    -0.545 OA
ATOM      9  O   UNL     1      37.851  22.483  82.649  1.00  0.00    -0.545 OA
ENDBRANCH   1   7
BRANCH   6  10
ATOM     10  O   UNL     1      38.370  16.983  79.223  1.00  0.00    -0.508 OA
ATOM     11  H   UNL     1      39.251  16.481  79.236  1.00  0.00     0.293 HD
ENDBRANCH   6  10
TORSDOF 2
ENDMDL
MODEL 3
REMARK VINA RESULT:    -3.578     17.680     19.055
REMARK INTER + INTRA:          -3.919
REMARK INTER:                  -3.892
REMARK INTRA:                  -0.027
REMARK UNBOUND:                -0.027
REMARK SMILES O=C([O-])c1ccc(O)cc1
REMARK SMILES IDX 4 1 5 2 10 3 6 4 9 5 7 6 2 7 1 8 3 9 8 10
REMARK H PARENT 8 11
REMARK Flexibility Score: inf
ROOT
ATOM      1  C   UNL     1      46.892  20.292  76.408  1.00  0.00    -0.003 A 
ATOM      2  C   UNL     1      46.737  19.738  77.693  1.00  0.00     0.014 A 
ATOM      3  C   UNL     1      46.410  19.579  75.297  1.00  0.00     0.014 A 
ATOM      4  C   UNL     1      46.113  18.498  77.858  1.00  0.00     0.047 A 
ATOM      5  C   UNL     1      45.786  18.339  75.466  1.00  0.00     0.047 A 
ATOM      6  C   UNL     1      45.636  17.796  76.745  1.00  0.00     0.115 A 
ENDROOT
BRANCH   1   7
ATOM      7  C   UNL     1      47.552  21.604  76.227  1.00  0.00     0.071 C 
ATOM      8  O   UNL     1      46.882  22.669  76.274  1.00  0.00    -0.545 OA
ATOM      9  O   UNL     1      48.922  21.678  76.003  1.00  0.00    -0.545 OA
ENDBRANCH   1   7
BRANCH   6  10
ATOM     10  O   UNL     1      45.012  16.559  76.898  1.00  0.00    -0.508 OA
ATOM     11  H   UNL     1      44.141  16.344  76.426  1.00  0.00     0.293 HD
ENDBRANCH   6  10
TORSDOF 2
ENDMDL
MODEL 4
REMARK VINA RESULT:    -3.481     21.454     23.060
REMARK INTER + INTRA:          -3.813
REMARK INTER:                  -3.785
REMARK INTRA:                  -0.028
REMARK UNBOUND:                -0.027
REMARK SMILES O=C([O-])c1ccc(O)cc1
REMARK SMILES IDX 4 1 5 2 10 3 6 4 9 5 7 6 2 7 1 8 3 9 8 10
REMARK H PARENT 8 11
REMARK Flexibility Score: inf
ROOT
ATOM      1  C   UNL     1      54.041  20.885  73.767  1.00  0.00    -0.003 A 
ATOM      2  C   UNL     1      53.356  19.792  73.205  1.00  0.00     0.014 A 
ATOM      3  C   UNL     1      55.250  20.656  74.447  1.00  0.00     0.014 A 
ATOM      4  C   UNL     1      53.872  18.497  73.325  1.00  0.00     0.047 A 
ATOM      5  C   UNL     1      55.762  19.360  74.564  1.00  0.00     0.047 A 
ATOM      6  C   UNL     1      55.076  18.278  74.004  1.00  0.00     0.115 A 
ENDROOT
BRANCH   1   7
ATOM      7  C   UNL     1      53.502  22.257  73.644  1.00  0.00     0.071 C 
ATOM      8  O   UNL     1      54.046  23.094  72.875  1.00  0.00    -0.545 OA
ATOM      9  O   UNL     1      52.383  22.642  74.375  1.00  0.00    -0.545 OA
ENDBRANCH   1   7
BRANCH   6  10
ATOM     10  O   UNL     1      55.599  16.993  74.129  1.00  0.00    -0.508 OA
ATOM     11  H   UNL     1      56.519  16.832  74.524  1.00  0.00     0.293 HD
ENDBRANCH   6  10
TORSDOF 2
ENDMDL
MODEL 5
REMARK VINA RESULT:    -3.396      2.695      3.478
REMARK INTER + INTRA:          -3.721
REMARK INTER:                  -3.691
REMARK INTRA:                  -0.029
REMARK UNBOUND:                -0.027
REMARK SMILES O=C([O-])c1ccc(O)cc1
REMARK SMILES IDX 4 1 5 2 10 3 6 4 9 5 7 6 2 7 1 8 3 9 8 10
REMARK H PARENT 8 11
REMARK Flexibility Score: inf
ROOT
ATOM      1  C   UNL     1      46.005  30.815  90.884  1.00  0.00    -0.003 A 
ATOM      2  C   UNL     1      45.008  31.695  91.347  1.00  0.00     0.014 A 
ATOM      3  C   UNL     1      45.896  29.446  91.182  1.00  0.00     0.014 A 
ATOM      4  C   UNL     1      43.928  31.211  92.092  1.00  0.00     0.047 A 
ATOM      5  C   UNL     1      44.814  28.966  91.927  1.00  0.00     0.047 A 
ATOM      6  C   UNL     1      43.829  29.845  92.384  1.00  0.00     0.115 A 
ENDROOT
BRANCH   1   7
ATOM      7  C   UNL     1      47.150  31.320  90.096  1.00  0.00     0.071 C 
ATOM      8  O   UNL     1      48.332  31.109  90.475  1.00  0.00    -0.545 OA
ATOM      9  O   UNL     1      46.937  32.035  88.922  1.00  0.00    -0.545 OA
ENDBRANCH   1   7
BRANCH   6  10
ATOM     10  O   UNL     1      42.757  29.352  93.125  1.00  0.00    -0.508 OA
ATOM     11  H   UNL     1      42.183  29.962  93.696  1.00  0.00     0.293 HD
ENDBRANCH   6  10
TORSDOF 2
ENDMDL
MODEL 6
REMARK VINA RESULT:    -3.374     17.156     19.043
REMARK INTER + INTRA:          -3.697
REMARK INTER:                  -3.670
REMARK INTRA:                  -0.027
REMARK UNBOUND:                -0.027
REMARK SMILES O=C([O-])c1ccc(O)cc1
REMARK SMILES IDX 4 1 5 2 10 3 6 4 9 5 7 6 2 7 1 8 3 9 8 10
REMARK H PARENT 8 11
REMARK Flexibility Score: inf
ROOT
ATOM      1  C   UNL     1      46.296  19.665  75.551  1.00  0.00    -0.003 A 
ATOM      2  C   UNL     1      45.674  18.831  76.500  1.00  0.00     0.014 A 
ATOM      3  C   UNL     1      47.352  20.496  75.962  1.00  0.00     0.014 A 
ATOM      4  C   UNL     1      46.103  18.832  77.831  1.00  0.00     0.047 A 
ATOM      5  C   UNL     1      47.778  20.494  77.295  1.00  0.00     0.047 A 
ATOM      6  C   UNL     1      47.156  19.664  78.231  1.00  0.00     0.115 A 
ENDROOT
BRANCH   1   7
ATOM      7  C   UNL     1      45.847  19.669  74.141  1.00  0.00     0.071 C 
ATOM      8  O   UNL     1      45.099  20.585  73.709  1.00  0.00    -0.545 OA
ATOM      9  O   UNL     1      46.247  18.660  73.272  1.00  0.00    -0.545 OA
ENDBRANCH   1   7
BRANCH   6  10
ATOM     10  O   UNL     1      47.592  19.673  79.554  1.00  0.00    -0.508 OA
ATOM     11  H   UNL     1      48.427  20.174  79.833  1.00  0.00     0.293 HD
ENDBRANCH   6  10
TORSDOF 2
ENDMDL
MODEL 7
REMARK VINA RESULT:    -3.372      8.958     10.174
REMARK INTER + INTRA:          -3.694
REMARK INTER:                  -3.660
REMARK INTRA:                  -0.034
REMARK UNBOUND:                -0.027
REMARK SMILES O=C([O-])c1ccc(O)cc1
REMARK SMILES IDX 4 1 5 2 10 3 6 4 9 5 7 6 2 7 1 8 3 9 8 10
REMARK H PARENT 8 11
REMARK Flexibility Score: inf
ROOT
ATOM      1  C   UNL     1      50.512  34.867  86.332  1.00  0.00    -0.003 A 
ATOM      2  C   UNL     1      51.469  34.309  85.464  1.00  0.00     0.014 A 
ATOM      3  C   UNL     1      50.940  35.439  87.542  1.00  0.00     0.014 A 
ATOM      4  C   UNL     1      52.826  34.326  85.803  1.00  0.00     0.047 A 
ATOM      5  C   UNL     1      52.298  35.454  87.878  1.00  0.00     0.047 A 
ATOM      6  C   UNL     1      53.243  34.898  87.011  1.00  0.00     0.115 A 
ENDROOT
BRANCH   1   7
ATOM      7  C   UNL     1      49.075  34.853  85.979  1.00  0.00     0.071 C 
ATOM      8  O   UNL     1      48.194  34.926  86.876  1.00  0.00    -0.545 OA
ATOM      9  O   UNL     1      48.677  34.760  84.650  1.00  0.00    -0.545 OA
ENDBRANCH   1   7
BRANCH   6  10
ATOM     10  O   UNL     1      54.592  34.921  87.359  1.00  0.00    -0.508 OA
ATOM     11  H   UNL     1      55.039  35.769  87.688  1.00  0.00     0.293 HD
ENDBRANCH   6  10
TORSDOF 2
ENDMDL
MODEL 8
REMARK VINA RESULT:    -3.348     16.171     16.730
REMARK INTER + INTRA:          -3.668
REMARK INTER:                  -3.638
REMARK INTRA:                  -0.030
REMARK UNBOUND:                -0.027
REMARK SMILES O=C([O-])c1ccc(O)cc1
REMARK SMILES IDX 4 1 5 2 10 3 6 4 9 5 7 6 2 7 1 8 3 9 8 10
REMARK H PARENT 8 11
REMARK Flexibility Score: inf
ROOT
ATOM      1  C   UNL     1      39.570  20.441  79.270  1.00  0.00    -0.003 A 
ATOM      2  C   UNL     1      39.235  19.151  79.722  1.00  0.00     0.014 A 
ATOM      3  C   UNL     1      38.731  21.519  79.603  1.00  0.00     0.014 A 
ATOM      4  C   UNL     1      38.084  18.947  80.489  1.00  0.00     0.047 A 
ATOM      5  C   UNL     1      37.581  21.311  80.371  1.00  0.00     0.047 A 
ATOM      6  C   UNL     1      37.254  20.026  80.816  1.00  0.00     0.115 A 
ENDROOT
BRANCH   1   7
ATOM      7  C   UNL     1      40.786  20.664  78.457  1.00  0.00     0.071 C 
ATOM      8  O   UNL     1      41.907  20.251  78.856  1.00  0.00    -0.545 OA
ATOM      9  O   UNL     1      40.708  21.331  77.240  1.00  0.00    -0.545 OA
ENDBRANCH   1   7
BRANCH   6  10
ATOM     10  O   UNL     1      36.105  19.835  81.580  1.00  0.00    -0.508 OA
ATOM     11  H   UNL     1      35.248  20.339  81.383  1.00  0.00     0.293 HD
ENDBRANCH   6  10
TORSDOF 2
ENDMDL
MODEL 9
REMARK VINA RESULT:    -3.321      2.292      3.866
REMARK INTER + INTRA:          -3.639
REMARK INTER:                  -3.609
REMARK INTRA:                  -0.030
REMARK UNBOUND:                -0.027
REMARK SMILES O=C([O-])c1ccc(O)cc1
REMARK SMILES IDX 4 1 5 2 10 3 6 4 9 5 7 6 2 7 1 8 3 9 8 10
REMARK H PARENT 8 11
REMARK Flexibility Score: inf
ROOT
ATOM      1  C   UNL     1      44.927  30.589  91.561  1.00  0.00    -0.003 A 
ATOM      2  C   UNL     1      45.498  29.302  91.550  1.00  0.00     0.014 A 
ATOM      3  C   UNL     1      45.572  31.627  90.868  1.00  0.00     0.014 A 
ATOM      4  C   UNL     1      46.691  29.064  90.859  1.00  0.00     0.047 A 
ATOM      5  C   UNL     1      46.765  31.384  90.178  1.00  0.00     0.047 A 
ATOM      6  C   UNL     1      47.326  30.105  90.171  1.00  0.00     0.115 A 
ENDROOT
BRANCH   1   7
ATOM      7  C   UNL     1      43.666  30.847  92.290  1.00  0.00     0.071 C 
ATOM      8  O   UNL     1      43.590  31.788  93.125  1.00  0.00    -0.545 OA
ATOM      9  O   UNL     1      42.545  30.056  92.063  1.00  0.00    -0.545 OA
ENDBRANCH   1   7
BRANCH   6  10
ATOM     10  O   UNL     1      48.514  29.879  89.479  1.00  0.00    -0.508 OA
ATOM     11  H   UNL     1      48.550  29.906  88.467  1.00  0.00     0.293 HD
ENDBRANCH   6  10
TORSDOF 2
ENDMDL
