MODEL 1
REMARK VINA RESULT:    -4.143      0.000      0.000
REMARK INTER + INTRA:          -8.083
REMARK INTER:                  -6.687
REMARK INTRA:                  -1.396
REMARK UNBOUND:                -1.396
REMARK SMILES CCCCCCCCCCCCO
REMARK SMILES IDX 7 1 6 2 5 3 4 4 3 5 2 6 1 7 8 8 9 9 10 10 11 11 12 12 13 13
REMARK H PARENT 13 14
REMARK Flexibility Score: inf
ROOT
ATOM      1  C   UNL     1     119.304 117.185 120.545  1.00  0.00     0.000 C 
ENDROOT
BRANCH   1   2
ATOM      2  C   UNL     1     120.657 116.945 119.858  1.00  0.00    -0.000 C 
BRANCH   2   3
ATOM      3  C   UNL     1     120.776 117.787 118.578  1.00  0.00    -0.000 C 
BRANCH   3   4
ATOM      4  C   UNL     1     120.151 119.184 118.724  1.00  0.00    -0.000 C 
BRANCH   4   5
ATOM      5  C   UNL     1     119.534 119.696 117.410  1.00  0.00    -0.000 C 
BRANCH   5   6
ATOM      6  C   UNL     1     118.821 118.585 116.624  1.00  0.00    -0.003 C 
ATOM      7  C   UNL     1     118.823 118.831 115.115  1.00  0.00     0.004 C 
ENDBRANCH   5   6
ENDBRANCH   4   5
ENDBRANCH   3   4
ENDBRANCH   2   3
ENDBRANCH   1   2
BRANCH   1   8
ATOM      8  C   UNL     1     118.169 116.344 119.936  1.00  0.00     0.000 C 
BRANCH   8   9
ATOM      9  C   UNL     1     117.006 117.208 119.419  1.00  0.00     0.000 C 
BRANCH   9  10
ATOM     10  C   UNL     1     116.769 118.466 120.276  1.00  0.00     0.002 C 
BRANCH  10  11
ATOM     11  C   UNL     1     116.445 119.747 119.484  1.00  0.00     0.028 C 
BRANCH  11  12
ATOM     12  C   UNL     1     116.579 121.035 120.302  1.00  0.00     0.156 C 
BRANCH  12  13
ATOM     13  O   UNL     1     117.880 121.544 120.199  1.00  0.00    -0.396 OA
ATOM     14  H   UNL     1     117.782 122.505 119.970  1.00  0.00     0.210 HD
ENDBRANCH  12  13
ENDBRANCH  11  12
ENDBRANCH  10  11
ENDBRANCH   9  10
ENDBRANCH   8   9
ENDBRANCH   1   8
TORSDOF 11
ENDMDL
MODEL 2
REMARK VINA RESULT:    -4.138      1.707      3.035
REMARK INTER + INTRA:          -8.074
REMARK INTER:                  -6.616
REMARK INTRA:                  -1.458
REMARK UNBOUND:                -1.396
REMARK SMILES CCCCCCCCCCCCO
REMARK SMILES IDX 7 1 6 2 5 3 4 4 3 5 2 6 1 7 8 8 9 9 10 10 11 11 12 12 13 13
REMARK H PARENT 13 14
REMARK Flexibility Score: inf
ROOT
ATOM      1  C   UNL     1     120.708 119.301 120.570  1.00  0.00     0.000 C 
ENDROOT
BRANCH   1   2
ATOM      2  C   UNL     1     120.475 120.666 119.903  1.00  0.00    -0.000 C 
BRANCH   2   3
ATOM      3  C   UNL     1     119.836 120.493 118.517  1.00  0.00    -0.000 C 
BRANCH   3   4
ATOM      4  C   UNL     1     118.322 120.230 118.588  1.00  0.00    -0.000 C 
BRANCH   4   5
ATOM      5  C   UNL     1     117.832 119.296 117.468  1.00  0.00    -0.000 C 
BRANCH   5   6
ATOM      6  C   UNL     1     118.988 118.702 116.649  1.00  0.00    -0.003 C 
ATOM      7  C   UNL     1     118.795 118.868 115.142  1.00  0.00     0.004 C 
ENDBRANCH   5   6
ENDBRANCH   4   5
ENDBRANCH   3   4
ENDBRANCH   2   3
ENDBRANCH   1   2
BRANCH   1   8
ATOM      8  C   UNL     1     121.269 118.250 119.597  1.00  0.00     0.000 C 
BRANCH   8   9
ATOM      9  C   UNL     1     120.505 116.917 119.665  1.00  0.00     0.000 C 
BRANCH   9  10
ATOM     10  C   UNL     1     119.099 117.064 120.276  1.00  0.00     0.002 C 
BRANCH  10  11
ATOM     11  C   UNL     1     117.975 116.331 119.518  1.00  0.00     0.028 C 
BRANCH  11  12
ATOM     12  C   UNL     1     116.586 116.510 120.139  1.00  0.00     0.156 C 
BRANCH  12  13
ATOM     13  O   UNL     1     116.368 117.856 120.462  1.00  0.00    -0.396 OA
ATOM     14  H   UNL     1     115.459 118.074 120.130  1.00  0.00     0.210 HD
ENDBRANCH  12  13
ENDBRANCH  11  12
ENDBRANCH  10  11
ENDBRANCH   9  10
ENDBRANCH   8   9
ENDBRANCH   1   8
TORSDOF 11
ENDMDL
MODEL 3
REMARK VINA RESULT:    -4.116      2.171      3.500
REMARK INTER + INTRA:          -8.038
REMARK INTER:                  -6.382
REMARK INTRA:                  -1.656
REMARK UNBOUND:                -1.396
REMARK SMILES CCCCCCCCCCCCO
REMARK SMILES IDX 7 1 6 2 5 3 4 4 3 5 2 6 1 7 8 8 9 9 10 10 11 11 12 12 13 13
REMARK H PARENT 13 14
REMARK Flexibility Score: inf
ROOT
ATOM      1  C   UNL     1     118.166 118.101 117.640  1.00  0.00     0.000 C 
ENDROOT
BRANCH   1   2
ATOM      2  C   UNL     1     119.699 118.014 117.611  1.00  0.00    -0.000 C 
BRANCH   2   3
ATOM      3  C   UNL     1     120.254 117.693 119.007  1.00  0.00    -0.000 C 
BRANCH   3   4
ATOM      4  C   UNL     1     121.115 118.830 119.581  1.00  0.00    -0.000 C 
BRANCH   4   5
ATOM      5  C   UNL     1     120.476 119.492 120.814  1.00  0.00    -0.000 C 
BRANCH   5   6
ATOM      6  C   UNL     1     120.018 120.932 120.537  1.00  0.00    -0.003 C 
ATOM      7  C   UNL     1     120.455 121.440 119.163  1.00  0.00     0.004 C 
ENDBRANCH   5   6
ENDBRANCH   4   5
ENDBRANCH   3   4
ENDBRANCH   2   3
ENDBRANCH   1   2
BRANCH   1   8
ATOM      8  C   UNL     1     117.655 119.537 117.853  1.00  0.00     0.000 C 
BRANCH   8   9
ATOM      9  C   UNL     1     116.856 119.690 119.158  1.00  0.00     0.000 C 
BRANCH   9  10
ATOM     10  C   UNL     1     116.527 118.339 119.821  1.00  0.00     0.002 C 
BRANCH  10  11
ATOM     11  C   UNL     1     117.127 118.135 121.226  1.00  0.00     0.028 C 
BRANCH  11  12
ATOM     12  C   UNL     1     117.319 116.665 121.613  1.00  0.00     0.156 C 
BRANCH  12  13
ATOM     13  O   UNL     1     118.670 116.404 121.875  1.00  0.00    -0.396 OA
ATOM     14  H   UNL     1     119.017 117.201 122.352  1.00  0.00     0.210 HD
ENDBRANCH  12  13
ENDBRANCH  11  12
ENDBRANCH  10  11
ENDBRANCH   9  10
ENDBRANCH   8   9
ENDBRANCH   1   8
TORSDOF 11
ENDMDL
MODEL 4
REMARK VINA RESULT:    -4.111      1.274      2.851
REMARK INTER + INTRA:          -8.031
REMARK INTER:                  -6.516
REMARK INTRA:                  -1.515
REMARK UNBOUND:                -1.396
REMARK SMILES CCCCCCCCCCCCO
REMARK SMILES IDX 7 1 6 2 5 3 4 4 3 5 2 6 1 7 8 8 9 9 10 10 11 11 12 12 13 13
REMARK H PARENT 13 14
REMARK Flexibility Score: inf
ROOT
ATOM      1  C   UNL     1     117.914 117.796 117.665  1.00  0.00     0.000 C 
ENDROOT
BRANCH   1   2
ATOM      2  C   UNL     1     119.354 118.247 117.375  1.00  0.00    -0.000 C 
BRANCH   2   3
ATOM      3  C   UNL     1     119.588 119.680 117.875  1.00  0.00    -0.000 C 
BRANCH   3   4
ATOM      4  C   UNL     1     120.175 119.728 119.295  1.00  0.00    -0.000 C 
BRANCH   4   5
ATOM      5  C   UNL     1     121.220 118.625 119.540  1.00  0.00    -0.000 C 
BRANCH   5   6
ATOM      6  C   UNL     1     120.851 117.719 120.725  1.00  0.00    -0.003 C 
ATOM      7  C   UNL     1     121.143 116.242 120.456  1.00  0.00     0.004 C 
ENDBRANCH   5   6
ENDBRANCH   4   5
ENDBRANCH   3   4
ENDBRANCH   2   3
ENDBRANCH   1   2
BRANCH   1   8
ATOM      8  C   UNL     1     117.826 116.793 118.829  1.00  0.00     0.000 C 
BRANCH   8   9
ATOM      9  C   UNL     1     116.994 117.329 120.006  1.00  0.00     0.000 C 
BRANCH   9  10
ATOM     10  C   UNL     1     116.397 118.722 119.732  1.00  0.00     0.002 C 
BRANCH  10  11
ATOM     11  C   UNL     1     116.702 119.788 120.802  1.00  0.00     0.028 C 
BRANCH  11  12
ATOM     12  C   UNL     1     116.689 121.225 120.271  1.00  0.00     0.156 C 
BRANCH  12  13
ATOM     13  O   UNL     1     116.150 122.093 121.229  1.00  0.00    -0.396 OA
ATOM     14  H   UNL     1     116.288 123.010 120.877  1.00  0.00     0.210 HD
ENDBRANCH  12  13
ENDBRANCH  11  12
ENDBRANCH  10  11
ENDBRANCH   9  10
ENDBRANCH   8   9
ENDBRANCH   1   8
TORSDOF 11
ENDMDL
MODEL 5
REMARK VINA RESULT:    -4.108      1.610      3.758
REMARK INTER + INTRA:          -8.025
REMARK INTER:                  -6.501
REMARK INTRA:                  -1.524
REMARK UNBOUND:                -1.396
REMARK SMILES CCCCCCCCCCCCO
REMARK SMILES IDX 7 1 6 2 5 3 4 4 3 5 2 6 1 7 8 8 9 9 10 10 11 11 12 12 13 13
REMARK H PARENT 13 14
REMARK Flexibility Score: inf
ROOT
ATOM      1  C   UNL     1     118.309 119.410 117.531  1.00  0.00     0.000 C 
ENDROOT
BRANCH   1   2
ATOM      2  C   UNL     1     118.267 117.874 117.547  1.00  0.00    -0.000 C 
BRANCH   2   3
ATOM      3  C   UNL     1     117.525 117.362 118.791  1.00  0.00    -0.000 C 
BRANCH   3   4
ATOM      4  C   UNL     1     118.351 116.349 119.601  1.00  0.00    -0.000 C 
BRANCH   4   5
ATOM      5  C   UNL     1     119.446 117.021 120.448  1.00  0.00    -0.000 C 
BRANCH   5   6
ATOM      6  C   UNL     1     120.838 116.423 120.190  1.00  0.00    -0.003 C 
ATOM      7  C   UNL     1     121.607 117.162 119.095  1.00  0.00     0.004 C 
ENDBRANCH   5   6
ENDBRANCH   4   5
ENDBRANCH   3   4
ENDBRANCH   2   3
ENDBRANCH   1   2
BRANCH   1   8
ATOM      8  C   UNL     1     119.725 119.969 117.750  1.00  0.00     0.000 C 
BRANCH   8   9
ATOM      9  C   UNL     1     119.896 120.614 119.136  1.00  0.00     0.000 C 
BRANCH   9  10
ATOM     10  C   UNL     1     118.558 121.049 119.762  1.00  0.00     0.002 C 
BRANCH  10  11
ATOM     11  C   UNL     1     118.237 120.412 121.129  1.00  0.00     0.028 C 
BRANCH  11  12
ATOM     12  C   UNL     1     116.740 120.337 121.444  1.00  0.00     0.156 C 
BRANCH  12  13
ATOM     13  O   UNL     1     116.353 119.007 121.651  1.00  0.00    -0.396 OA
ATOM     14  H   UNL     1     115.362 119.015 121.706  1.00  0.00     0.210 HD
ENDBRANCH  12  13
ENDBRANCH  11  12
ENDBRANCH  10  11
ENDBRANCH   9  10
ENDBRANCH   8   9
ENDBRANCH   1   8
TORSDOF 11
ENDMDL
MODEL 6
REMARK VINA RESULT:    -4.106      1.946      3.976
REMARK INTER + INTRA:          -8.022
REMARK INTER:                  -6.467
REMARK INTRA:                  -1.555
REMARK UNBOUND:                -1.396
REMARK SMILES CCCCCCCCCCCCO
REMARK SMILES IDX 7 1 6 2 5 3 4 4 3 5 2 6 1 7 8 8 9 9 10 10 11 11 12 12 13 13
REMARK H PARENT 13 14
REMARK Flexibility Score: inf
ROOT
ATOM      1  C   UNL     1     117.819 119.703 117.678  1.00  0.00     0.000 C 
ENDROOT
BRANCH   1   2
ATOM      2  C   UNL     1     118.231 118.257 117.357  1.00  0.00    -0.000 C 
BRANCH   2   3
ATOM      3  C   UNL     1     119.654 117.971 117.860  1.00  0.00    -0.000 C 
BRANCH   3   4
ATOM      4  C   UNL     1     119.682 117.470 119.314  1.00  0.00    -0.000 C 
BRANCH   4   5
ATOM      5  C   UNL     1     118.644 116.365 119.578  1.00  0.00    -0.000 C 
BRANCH   5   6
ATOM      6  C   UNL     1     117.685 116.723 120.724  1.00  0.00    -0.003 C 
ATOM      7  C   UNL     1     116.219 116.461 120.374  1.00  0.00     0.004 C 
ENDBRANCH   5   6
ENDBRANCH   4   5
ENDBRANCH   3   4
ENDBRANCH   2   3
ENDBRANCH   1   2
BRANCH   1   8
ATOM      8  C   UNL     1     116.767 119.788 118.797  1.00  0.00     0.000 C 
BRANCH   8   9
ATOM      9  C   UNL     1     117.316 120.452 120.072  1.00  0.00     0.000 C 
BRANCH   9  10
ATOM     10  C   UNL     1     118.646 121.192 119.836  1.00  0.00     0.002 C 
BRANCH  10  11
ATOM     11  C   UNL     1     119.767 120.860 120.840  1.00  0.00     0.028 C 
BRANCH  11  12
ATOM     12  C   UNL     1     121.172 120.878 120.231  1.00  0.00     0.156 C 
BRANCH  12  13
ATOM     13  O   UNL     1     122.103 121.343 121.169  1.00  0.00    -0.396 OA
ATOM     14  H   UNL     1     122.991 121.033 120.853  1.00  0.00     0.210 HD
ENDBRANCH  12  13
ENDBRANCH  11  12
ENDBRANCH  10  11
ENDBRANCH   9  10
ENDBRANCH   8   9
ENDBRANCH   1   8
TORSDOF 11
ENDMDL
MODEL 7
REMARK VINA RESULT:    -4.084      2.126      4.171
REMARK INTER + INTRA:          -7.987
REMARK INTER:                  -6.347
REMARK INTRA:                  -1.640
REMARK UNBOUND:                -1.396
REMARK SMILES CCCCCCCCCCCCO
REMARK SMILES IDX 7 1 6 2 5 3 4 4 3 5 2 6 1 7 8 8 9 9 10 10 11 11 12 12 13 13
REMARK H PARENT 13 14
REMARK Flexibility Score: inf
ROOT
ATOM      1  C   UNL     1     119.366 119.358 117.446  1.00  0.00     0.000 C 
ENDROOT
BRANCH   1   2
ATOM      2  C   UNL     1     117.865 119.642 117.606  1.00  0.00    -0.000 C 
BRANCH   2   3
ATOM      3  C   UNL     1     117.554 120.153 119.021  1.00  0.00    -0.000 C 
BRANCH   3   4
ATOM      4  C   UNL     1     118.702 120.983 119.620  1.00  0.00    -0.000 C 
BRANCH   4   5
ATOM      5  C   UNL     1     119.086 120.525 121.038  1.00  0.00    -0.000 C 
BRANCH   5   6
ATOM      6  C   UNL     1     120.597 120.626 121.299  1.00  0.00    -0.003 C 
ATOM      7  C   UNL     1     121.369 121.190 120.105  1.00  0.00     0.004 C 
ENDBRANCH   5   6
ENDBRANCH   4   5
ENDBRANCH   3   4
ENDBRANCH   2   3
ENDBRANCH   1   2
BRANCH   1   8
ATOM      8  C   UNL     1     119.721 117.880 117.683  1.00  0.00     0.000 C 
BRANCH   8   9
ATOM      9  C   UNL     1     120.517 117.666 118.982  1.00  0.00     0.000 C 
BRANCH   9  10
ATOM     10  C   UNL     1     119.746 116.837 120.026  1.00  0.00     0.002 C 
BRANCH  10  11
ATOM     11  C   UNL     1     118.274 116.544 119.673  1.00  0.00     0.028 C 
BRANCH  11  12
ATOM     12  C   UNL     1     117.319 116.636 120.866  1.00  0.00     0.156 C 
BRANCH  12  13
ATOM     13  O   UNL     1     116.136 117.287 120.494  1.00  0.00    -0.396 OA
ATOM     14  H   UNL     1     115.815 116.829 119.675  1.00  0.00     0.210 HD
ENDBRANCH  12  13
ENDBRANCH  11  12
ENDBRANCH  10  11
ENDBRANCH   9  10
ENDBRANCH   8   9
ENDBRANCH   1   8
TORSDOF 11
ENDMDL
MODEL 8
REMARK VINA RESULT:    -4.074      2.131      4.654
REMARK INTER + INTRA:          -7.971
REMARK INTER:                  -6.391
REMARK INTRA:                  -1.580
REMARK UNBOUND:                -1.396
REMARK SMILES CCCCCCCCCCCCO
REMARK SMILES IDX 7 1 6 2 5 3 4 4 3 5 2 6 1 7 8 8 9 9 10 10 11 11 12 12 13 13
REMARK H PARENT 13 14
REMARK Flexibility Score: inf
ROOT
ATOM      1  C   UNL     1     119.349 118.251 117.398  1.00  0.00     0.000 C 
ENDROOT
BRANCH   1   2
ATOM      2  C   UNL     1     117.883 117.852 117.631  1.00  0.00    -0.000 C 
BRANCH   2   3
ATOM      3  C   UNL     1     117.766 116.868 118.805  1.00  0.00    -0.000 C 
BRANCH   3   4
ATOM      4  C   UNL     1     116.929 117.427 119.968  1.00  0.00    -0.000 C 
BRANCH   4   5
ATOM      5  C   UNL     1     116.435 118.860 119.706  1.00  0.00    -0.000 C 
BRANCH   5   6
ATOM      6  C   UNL     1     116.883 119.845 120.797  1.00  0.00    -0.003 C 
ATOM      7  C   UNL     1     116.677 121.307 120.396  1.00  0.00     0.004 C 
ENDBRANCH   5   6
ENDBRANCH   4   5
ENDBRANCH   3   4
ENDBRANCH   2   3
ENDBRANCH   1   2
BRANCH   1   8
ATOM      8  C   UNL     1     119.628 119.723 117.747  1.00  0.00     0.000 C 
BRANCH   8   9
ATOM      9  C   UNL     1     120.172 119.897 119.175  1.00  0.00     0.000 C 
BRANCH   9  10
ATOM     10  C   UNL     1     120.938 118.659 119.678  1.00  0.00     0.002 C 
BRANCH  10  11
ATOM     11  C   UNL     1     120.515 118.148 121.070  1.00  0.00     0.028 C 
BRANCH  11  12
ATOM     12  C   UNL     1     121.057 116.757 121.412  1.00  0.00     0.156 C 
BRANCH  12  13
ATOM     13  O   UNL     1     120.681 115.832 120.430  1.00  0.00    -0.396 OA
ATOM     14  H   UNL     1     121.441 115.201 120.340  1.00  0.00     0.210 HD
ENDBRANCH  12  13
ENDBRANCH  11  12
ENDBRANCH  10  11
ENDBRANCH   9  10
ENDBRANCH   8   9
ENDBRANCH   1   8
TORSDOF 11
ENDMDL
MODEL 9
REMARK VINA RESULT:    -4.067      1.470      2.762
REMARK INTER + INTRA:          -7.959
REMARK INTER:                  -6.463
REMARK INTRA:                  -1.496
REMARK UNBOUND:                -1.396
REMARK SMILES CCCCCCCCCCCCO
REMARK SMILES IDX 7 1 6 2 5 3 4 4 3 5 2 6 1 7 8 8 9 9 10 10 11 11 12 12 13 13
REMARK H PARENT 13 14
REMARK Flexibility Score: inf
ROOT
ATOM      1  C   UNL     1     118.286 118.513 117.556  1.00  0.00     0.000 C 
ENDROOT
BRANCH   1   2
ATOM      2  C   UNL     1     119.771 118.127 117.469  1.00  0.00    -0.000 C 
BRANCH   2   3
ATOM      3  C   UNL     1     120.254 117.512 118.791  1.00  0.00    -0.000 C 
BRANCH   3   4
ATOM      4  C   UNL     1     121.251 118.413 119.538  1.00  0.00    -0.000 C 
BRANCH   4   5
ATOM      5  C   UNL     1     120.557 119.385 120.508  1.00  0.00    -0.000 C 
BRANCH   5   6
ATOM      6  C   UNL     1     120.949 120.849 120.254  1.00  0.00    -0.003 C 
ATOM      7  C   UNL     1     120.187 121.472 119.084  1.00  0.00     0.004 C 
ENDBRANCH   5   6
ENDBRANCH   4   5
ENDBRANCH   3   4
ENDBRANCH   2   3
ENDBRANCH   1   2
BRANCH   1   8
ATOM      8  C   UNL     1     117.543 117.770 118.680  1.00  0.00     0.000 C 
BRANCH   8   9
ATOM      9  C   UNL     1     116.909 118.730 119.701  1.00  0.00     0.000 C 
BRANCH   9  10
ATOM     10  C   UNL     1     116.694 120.147 119.138  1.00  0.00     0.002 C 
BRANCH  10  11
ATOM     11  C   UNL     1     116.380 121.230 120.189  1.00  0.00     0.028 C 
BRANCH  11  12
ATOM     12  C   UNL     1     116.661 120.797 121.631  1.00  0.00     0.156 C 
BRANCH  12  13
ATOM     13  O   UNL     1     117.922 121.251 122.038  1.00  0.00    -0.396 OA
ATOM     14  H   UNL     1     118.222 121.892 121.342  1.00  0.00     0.210 HD
ENDBRANCH  12  13
ENDBRANCH  11  12
ENDBRANCH  10  11
ENDBRANCH   9  10
ENDBRANCH   8   9
ENDBRANCH   1   8
TORSDOF 11
ENDMDL
