MODEL 1
REMARK VINA RESULT:    -7.364      0.000      0.000
REMARK INTER + INTRA:          -8.445
REMARK INTER:                  -8.225
REMARK INTRA:                  -0.220
REMARK UNBOUND:                -0.220
REMARK SMILES CC(C)c1ccc(C(=O)[O-])cc1
REMARK SMILES IDX 7 1 6 2 11 3 5 4 12 5 4 6 8 7 9 8 10 9 2 10 1 11 3 12
REMARK H PARENT
REMARK Flexibility Score: inf
ROOT
ATOM      1  C   UNL     1       9.369  -4.226  -1.809  1.00  0.00    -0.003 A 
ATOM      2  C   UNL     1       8.428  -4.502  -0.804  1.00  0.00     0.010 A 
ATOM      3  C   UNL     1      10.224  -3.121  -1.657  1.00  0.00     0.010 A 
ATOM      4  C   UNL     1       8.345  -3.690   0.332  1.00  0.00     0.004 A 
ATOM      5  C   UNL     1      10.141  -2.311  -0.522  1.00  0.00     0.004 A 
ATOM      6  C   UNL     1       9.201  -2.585   0.485  1.00  0.00    -0.045 A 
ENDROOT
BRANCH   1   7
ATOM      7  C   UNL     1       9.461  -5.082  -3.013  1.00  0.00     0.071 C 
ATOM      8  O   UNL     1       8.971  -6.242  -3.013  1.00  0.00    -0.545 OA
ATOM      9  O   UNL     1      10.091  -4.616  -4.162  1.00  0.00    -0.545 OA
ENDBRANCH   1   7
BRANCH   6  10
ATOM     10  C   UNL     1       9.121  -1.696   1.712  1.00  0.00     0.013 C 
ATOM     11  C   UNL     1       7.682  -1.591   2.228  1.00  0.00     0.012 C 
ATOM     12  C   UNL     1       9.708  -0.308   1.428  1.00  0.00     0.012 C 
ENDBRANCH   6  10
TORSDOF 2
ENDMDL
MODEL 2
REMARK VINA RESULT:    -7.097      1.371      2.496
REMARK INTER + INTRA:          -8.147
REMARK INTER:                  -7.937
REMARK INTRA:                  -0.210
REMARK UNBOUND:                -0.220
REMARK SMILES CC(C)c1ccc(C(=O)[O-])cc1
REMARK SMILES IDX 7 1 6 2 11 3 5 4 12 5 4 6 8 7 9 8 10 9 2 10 1 11 3 12
REMARK H PARENT
REMARK Flexibility Score: inf
ROOT
ATOM      1  C   UNL     1       9.768  -3.771  -1.971  1.00  0.00    -0.003 A 
ATOM      2  C   UNL     1      10.202  -2.751  -1.108  1.00  0.00     0.010 A 
ATOM      3  C   UNL     1       8.825  -4.701  -1.504  1.00  0.00     0.010 A 
ATOM      4  C   UNL     1       9.702  -2.662   0.195  1.00  0.00     0.004 A 
ATOM      5  C   UNL     1       8.324  -4.613  -0.202  1.00  0.00     0.004 A 
ATOM      6  C   UNL     1       8.757  -3.593   0.662  1.00  0.00    -0.045 A 
ENDROOT
BRANCH   1   7
ATOM      7  C   UNL     1      10.295  -3.869  -3.350  1.00  0.00     0.071 C 
ATOM      8  O   UNL     1      10.935  -2.911  -3.861  1.00  0.00    -0.545 OA
ATOM      9  O   UNL     1      10.090  -5.020  -4.103  1.00  0.00    -0.545 OA
ENDBRANCH   1   7
BRANCH   6  10
ATOM     10  C   UNL     1       8.205  -3.509   2.073  1.00  0.00     0.013 C 
ATOM     11  C   UNL     1       8.393  -4.834   2.821  1.00  0.00     0.012 C 
ATOM     12  C   UNL     1       6.732  -3.082   2.066  1.00  0.00     0.012 C 
ENDBRANCH   6  10
TORSDOF 2
ENDMDL
MODEL 3
REMARK VINA RESULT:    -7.091     13.658     14.729
REMARK INTER + INTRA:          -8.141
REMARK INTER:                  -7.925
REMARK INTRA:                  -0.216
REMARK UNBOUND:                -0.220
REMARK SMILES CC(C)c1ccc(C(=O)[O-])cc1
REMARK SMILES IDX 7 1 6 2 11 3 5 4 12 5 4 6 8 7 9 8 10 9 2 10 1 11 3 12
REMARK H PARENT
REMARK Flexibility Score: inf
ROOT
ATOM      1  C   UNL     1      -3.067   2.149   2.138  1.00  0.00    -0.003 A 
ATOM      2  C   UNL     1      -3.597   2.944   1.108  1.00  0.00     0.010 A 
ATOM      3  C   UNL     1      -3.177   0.751   2.043  1.00  0.00     0.010 A 
ATOM      4  C   UNL     1      -4.222   2.354   0.005  1.00  0.00     0.004 A 
ATOM      5  C   UNL     1      -3.802   0.161   0.941  1.00  0.00     0.004 A 
ATOM      6  C   UNL     1      -4.332   0.955  -0.090  1.00  0.00    -0.045 A 
ENDROOT
BRANCH   1   7
ATOM      7  C   UNL     1      -2.405   2.769   3.306  1.00  0.00     0.071 C 
ATOM      8  O   UNL     1      -1.520   3.652   3.147  1.00  0.00    -0.545 OA
ATOM      9  O   UNL     1      -2.749   2.385   4.597  1.00  0.00    -0.545 OA
ENDBRANCH   1   7
BRANCH   6  10
ATOM     10  C   UNL     1      -5.008   0.301  -1.280  1.00  0.00     0.013 C 
ATOM     11  C   UNL     1      -4.301  -1.001  -1.673  1.00  0.00     0.012 C 
ATOM     12  C   UNL     1      -5.088   1.266  -2.470  1.00  0.00     0.012 C 
ENDBRANCH   6  10
TORSDOF 2
ENDMDL
MODEL 4
REMARK VINA RESULT:    -7.032      1.421      2.254
REMARK INTER + INTRA:          -8.074
REMARK INTER:                  -7.866
REMARK INTRA:                  -0.208
REMARK UNBOUND:                -0.220
REMARK SMILES CC(C)c1ccc(C(=O)[O-])cc1
REMARK SMILES IDX 7 1 6 2 11 3 5 4 12 5 4 6 8 7 9 8 10 9 2 10 1 11 3 12
REMARK H PARENT
REMARK Flexibility Score: inf
ROOT
ATOM      1  C   UNL     1       9.734  -3.886  -1.956  1.00  0.00    -0.003 A 
ATOM      2  C   UNL     1       8.824  -4.864  -1.522  1.00  0.00     0.010 A 
ATOM      3  C   UNL     1      10.125  -2.876  -1.062  1.00  0.00     0.010 A 
ATOM      4  C   UNL     1       8.316  -4.833  -0.219  1.00  0.00     0.004 A 
ATOM      5  C   UNL     1       9.618  -2.844   0.240  1.00  0.00     0.004 A 
ATOM      6  C   UNL     1       8.708  -3.821   0.676  1.00  0.00    -0.045 A 
ENDROOT
BRANCH   1   7
ATOM      7  C   UNL     1      10.274  -3.916  -3.334  1.00  0.00     0.071 C 
ATOM      8  O   UNL     1      10.875  -2.915  -3.808  1.00  0.00    -0.545 OA
ATOM      9  O   UNL     1      10.125  -5.049  -4.125  1.00  0.00    -0.545 OA
ENDBRANCH   1   7
BRANCH   6  10
ATOM     10  C   UNL     1       8.165  -3.775   2.092  1.00  0.00     0.013 C 
ATOM     11  C   UNL     1       8.336  -5.127   2.795  1.00  0.00     0.012 C 
ATOM     12  C   UNL     1       6.698  -3.326   2.107  1.00  0.00     0.012 C 
ENDBRANCH   6  10
TORSDOF 2
ENDMDL
MODEL 5
REMARK VINA RESULT:    -7.015      3.072      5.074
REMARK INTER + INTRA:          -8.055
REMARK INTER:                  -7.840
REMARK INTRA:                  -0.215
REMARK UNBOUND:                -0.220
REMARK SMILES CC(C)c1ccc(C(=O)[O-])cc1
REMARK SMILES IDX 7 1 6 2 11 3 5 4 12 5 4 6 8 7 9 8 10 9 2 10 1 11 3 12
REMARK H PARENT
REMARK Flexibility Score: inf
ROOT
ATOM      1  C   UNL     1       8.295  -3.219   0.747  1.00  0.00    -0.003 A 
ATOM      2  C   UNL     1       9.348  -2.370   0.368  1.00  0.00     0.010 A 
ATOM      3  C   UNL     1       7.992  -4.329  -0.060  1.00  0.00     0.010 A 
ATOM      4  C   UNL     1      10.084  -2.626  -0.794  1.00  0.00     0.004 A 
ATOM      5  C   UNL     1       8.728  -4.585  -1.220  1.00  0.00     0.004 A 
ATOM      6  C   UNL     1       9.781  -3.738  -1.601  1.00  0.00    -0.045 A 
ENDROOT
BRANCH   1   7
ATOM      7  C   UNL     1       7.514  -2.952   1.975  1.00  0.00     0.071 C 
ATOM      8  O   UNL     1       6.956  -1.836   2.149  1.00  0.00    -0.545 OA
ATOM      9  O   UNL     1       7.385  -3.930   2.955  1.00  0.00    -0.545 OA
ENDBRANCH   1   7
BRANCH   6  10
ATOM     10  C   UNL     1      10.571  -4.028  -2.863  1.00  0.00     0.013 C 
ATOM     11  C   UNL     1      10.886  -2.738  -3.628  1.00  0.00     0.012 C 
ATOM     12  C   UNL     1       9.835  -5.034  -3.756  1.00  0.00     0.012 C 
ENDBRANCH   6  10
TORSDOF 2
ENDMDL
MODEL 6
REMARK VINA RESULT:    -6.971      3.357      5.079
REMARK INTER + INTRA:          -8.007
REMARK INTER:                  -7.786
REMARK INTRA:                  -0.221
REMARK UNBOUND:                -0.220
REMARK SMILES CC(C)c1ccc(C(=O)[O-])cc1
REMARK SMILES IDX 7 1 6 2 11 3 5 4 12 5 4 6 8 7 9 8 10 9 2 10 1 11 3 12
REMARK H PARENT
REMARK Flexibility Score: inf
ROOT
ATOM      1  C   UNL     1       8.683  -2.110   1.127  1.00  0.00    -0.003 A 
ATOM      2  C   UNL     1       8.119  -3.331   0.721  1.00  0.00     0.010 A 
ATOM      3  C   UNL     1       9.742  -1.568   0.380  1.00  0.00     0.010 A 
ATOM      4  C   UNL     1       8.603  -3.995  -0.411  1.00  0.00     0.004 A 
ATOM      5  C   UNL     1      10.226  -2.232  -0.751  1.00  0.00     0.004 A 
ATOM      6  C   UNL     1       9.663  -3.452  -1.159  1.00  0.00    -0.045 A 
ENDROOT
BRANCH   1   7
ATOM      7  C   UNL     1       8.174  -1.404   2.323  1.00  0.00     0.071 C 
ATOM      8  O   UNL     1       7.217  -1.880   2.990  1.00  0.00    -0.545 OA
ATOM      9  O   UNL     1       8.745  -0.202   2.729  1.00  0.00    -0.545 OA
ENDBRANCH   1   7
BRANCH   6  10
ATOM     10  C   UNL     1      10.198  -4.162  -2.388  1.00  0.00     0.013 C 
ATOM     11  C   UNL     1      10.817  -3.167  -3.377  1.00  0.00     0.012 C 
ATOM     12  C   UNL     1       9.106  -5.002  -3.061  1.00  0.00     0.012 C 
ENDBRANCH   6  10
TORSDOF 2
ENDMDL
MODEL 7
REMARK VINA RESULT:    -6.880     13.451     15.041
REMARK INTER + INTRA:          -7.905
REMARK INTER:                  -7.702
REMARK INTRA:                  -0.203
REMARK UNBOUND:                -0.220
REMARK SMILES CC(C)c1ccc(C(=O)[O-])cc1
REMARK SMILES IDX 7 1 6 2 11 3 5 4 12 5 4 6 8 7 9 8 10 9 2 10 1 11 3 12
REMARK H PARENT
REMARK Flexibility Score: inf
ROOT
ATOM      1  C   UNL     1      -3.437   1.741   1.372  1.00  0.00    -0.003 A 
ATOM      2  C   UNL     1      -3.813   2.900   0.673  1.00  0.00     0.010 A 
ATOM      3  C   UNL     1      -3.776   0.486   0.840  1.00  0.00     0.010 A 
ATOM      4  C   UNL     1      -4.512   2.806  -0.535  1.00  0.00     0.004 A 
ATOM      5  C   UNL     1      -4.475   0.391  -0.367  1.00  0.00     0.004 A 
ATOM      6  C   UNL     1      -4.851   1.549  -1.068  1.00  0.00    -0.045 A 
ENDROOT
BRANCH   1   7
ATOM      7  C   UNL     1      -2.697   1.837   2.650  1.00  0.00     0.071 C 
ATOM      8  O   UNL     1      -3.222   2.385   3.655  1.00  0.00    -0.545 OA
ATOM      9  O   UNL     1      -1.410   1.322   2.759  1.00  0.00    -0.545 OA
ENDBRANCH   1   7
BRANCH   6  10
ATOM     10  C   UNL     1      -5.609   1.432  -2.376  1.00  0.00     0.013 C 
ATOM     11  C   UNL     1      -4.649   1.263  -3.559  1.00  0.00     0.012 C 
ATOM     12  C   UNL     1      -6.539   2.634  -2.587  1.00  0.00     0.012 C 
ENDBRANCH   6  10
TORSDOF 2
ENDMDL
MODEL 8
REMARK VINA RESULT:    -6.496      3.239      4.860
REMARK INTER + INTRA:          -7.476
REMARK INTER:                  -7.264
REMARK INTRA:                  -0.212
REMARK UNBOUND:                -0.220
REMARK SMILES CC(C)c1ccc(C(=O)[O-])cc1
REMARK SMILES IDX 7 1 6 2 11 3 5 4 12 5 4 6 8 7 9 8 10 9 2 10 1 11 3 12
REMARK H PARENT
REMARK Flexibility Score: inf
ROOT
ATOM      1  C   UNL     1       8.674  -4.262   1.062  1.00  0.00    -0.003 A 
ATOM      2  C   UNL     1       8.161  -5.222   0.173  1.00  0.00     0.010 A 
ATOM      3  C   UNL     1       9.521  -3.258   0.564  1.00  0.00     0.010 A 
ATOM      4  C   UNL     1       8.487  -5.177  -1.186  1.00  0.00     0.004 A 
ATOM      5  C   UNL     1       9.847  -3.213  -0.795  1.00  0.00     0.004 A 
ATOM      6  C   UNL     1       9.334  -4.172  -1.685  1.00  0.00    -0.045 A 
ENDROOT
BRANCH   1   7
ATOM      7  C   UNL     1       8.331  -4.306   2.500  1.00  0.00     0.071 C 
ATOM      8  O   UNL     1       7.445  -3.544   2.971  1.00  0.00    -0.545 OA
ATOM      9  O   UNL     1       8.984  -5.189   3.354  1.00  0.00    -0.545 OA
ENDBRANCH   1   7
BRANCH   6  10
ATOM     10  C   UNL     1       9.696  -4.111  -3.157  1.00  0.00     0.013 C 
ATOM     11  C   UNL     1       9.857  -5.517  -3.746  1.00  0.00     0.012 C 
ATOM     12  C   UNL     1      10.960  -3.270  -3.381  1.00  0.00     0.012 C 
ENDBRANCH   6  10
TORSDOF 2
ENDMDL
MODEL 9
REMARK VINA RESULT:    -6.429      4.310      6.349
REMARK INTER + INTRA:          -7.401
REMARK INTER:                  -7.199
REMARK INTRA:                  -0.203
REMARK UNBOUND:                -0.220
REMARK SMILES CC(C)c1ccc(C(=O)[O-])cc1
REMARK SMILES IDX 7 1 6 2 11 3 5 4 12 5 4 6 8 7 9 8 10 9 2 10 1 11 3 12
REMARK H PARENT
REMARK Flexibility Score: inf
ROOT
ATOM      1  C   UNL     1       9.073   0.407   2.072  1.00  0.00    -0.003 A 
ATOM      2  C   UNL     1       8.333   1.476   1.541  1.00  0.00     0.010 A 
ATOM      3  C   UNL     1      10.003   0.664   3.093  1.00  0.00     0.010 A 
ATOM      4  C   UNL     1       8.518   2.776   2.022  1.00  0.00     0.004 A 
ATOM      5  C   UNL     1      10.188   1.963   3.574  1.00  0.00     0.004 A 
ATOM      6  C   UNL     1       9.449   3.034   3.045  1.00  0.00    -0.045 A 
ENDROOT
BRANCH   1   7
ATOM      7  C   UNL     1       8.881  -0.970   1.565  1.00  0.00     0.071 C 
ATOM      8  O   UNL     1       7.923  -1.677   1.978  1.00  0.00    -0.545 OA
ATOM      9  O   UNL     1       9.756  -1.504   0.626  1.00  0.00    -0.545 OA
ENDBRANCH   1   7
BRANCH   6  10
ATOM     10  C   UNL     1       9.660   4.438   3.577  1.00  0.00     0.013 C 
ATOM     11  C   UNL     1      11.152   4.758   3.720  1.00  0.00     0.012 C 
ATOM     12  C   UNL     1       8.921   4.643   4.906  1.00  0.00     0.012 C 
ENDBRANCH   6  10
TORSDOF 2
ENDMDL
