MODEL 1
REMARK VINA RESULT:    -1.683      0.000      0.000
REMARK INTER + INTRA:          -3.089
REMARK INTER:                  -2.569
REMARK INTRA:                  -0.520
REMARK UNBOUND:                -0.520
REMARK SMILES CC1=CCC[C@@H](C)C(=O)C[C@@H](C(C)C)C(=O)C1
REMARK SMILES IDX 8 1 9 2 6 3 7 4 5 5 4 6 3 7 2 8 1 9 10 11 11 12 15 13 16 14
REMARK SMILES IDX 17 15 12 17 13 18 14 19
REMARK H PARENT
REMARK Flexibility Score: 70.00
ROOT
ATOM      1  C   UNL     1     122.194  87.919  54.765  1.00  0.00     0.136 C 
ATOM      2  O   UNL     1     122.549  88.788  53.980  1.00  0.00    -0.299 OA
ENDROOT
BRANCH   1   3
ATOM      3  C   UNL     1     120.716  87.726  55.066  1.00  0.00     0.053 C 
ATOM      4  C   UNL     1     119.854  87.775  53.795  1.00  0.00     0.016 C 
BRANCH   3   5
ATOM      5  C   UNL     1     120.202  88.728  56.125  1.00  0.00     0.015 C 
BRANCH   5   6
ATOM      6  C   UNL     1     120.604  88.383  57.580  1.00  0.00     0.028 C 
BRANCH   6   7
ATOM      7  C   UNL     1     120.034  87.046  57.993  1.00  0.00    -0.028 C 
ATOM      8  C   UNL     1     120.748  85.909  58.183  1.00  0.00    -0.070 CG0
ATOM      9  C   UNL     1     119.988  84.635  58.452  1.00  0.00     0.039 C 
ATOM     10  G   UNL     1     122.268  85.856  58.141  1.00  0.00     0.000 G0
ENDBRANCH   6   7
ENDBRANCH   5   6
ENDBRANCH   3   5
ENDBRANCH   1   3
BRANCH   1  11
ATOM     11  C   UNL     1     123.253  87.079  55.443  1.00  0.00     0.087 C 
BRANCH  11  12
ATOM     12  C   UNL     1     122.863  85.580  55.528  1.00  0.00     0.066 C 
BRANCH  12  13
ATOM     13  C   UNL     1     122.878  85.071  56.967  1.00  0.00     0.140 C 
ATOM     14  O   UNL     1     123.412  83.996  57.202  1.00  0.00    -0.299 OA
BRANCH  13  15
ATOM     15  C   UNL     1     122.295  85.830  58.144  1.00  0.00     0.106 CG0
ATOM     16  G   UNL     1     120.778  85.922  58.186  1.00  0.00     0.000 G0
ENDBRANCH  13  15
ENDBRANCH  12  13
BRANCH  12  17
ATOM     17  C   UNL     1     123.700  84.651  54.593  1.00  0.00    -0.006 C 
ATOM     18  C   UNL     1     122.887  84.196  53.370  1.00  0.00     0.008 C 
ATOM     19  C   UNL     1     125.039  85.252  54.132  1.00  0.00     0.008 C 
ENDBRANCH  12  17
ENDBRANCH  11  12
ENDBRANCH   1  11
TORSDOF 1
ENDMDL
MODEL 2
REMARK VINA RESULT:    -1.460      1.854      2.444
REMARK INTER + INTRA:          -2.748
REMARK INTER:                  -2.420
REMARK INTRA:                  -0.328
REMARK UNBOUND:                -0.520
REMARK SMILES CC1=CCC[C@@H](C)C(=O)C[C@@H](C(C)C)C(=O)C1
REMARK SMILES IDX 8 1 9 2 6 3 7 4 5 5 4 6 3 7 2 8 1 9 10 11 11 12 15 13 16 14
REMARK SMILES IDX 17 15 12 17 13 18 14 19
REMARK H PARENT
REMARK Flexibility Score: 70.00
ROOT
ATOM      1  C   UNL     1     123.348  86.159  55.831  1.00  0.00     0.136 C 
ATOM      2  O   UNL     1     124.438  86.210  55.278  1.00  0.00    -0.299 OA
ENDROOT
BRANCH   1   3
ATOM      3  C   UNL     1     122.220  87.070  55.373  1.00  0.00     0.053 C 
ATOM      4  C   UNL     1     122.421  87.561  53.929  1.00  0.00     0.016 C 
BRANCH   3   5
ATOM      5  C   UNL     1     122.002  88.259  56.337  1.00  0.00     0.015 C 
BRANCH   5   6
ATOM      6  C   UNL     1     120.974  87.988  57.463  1.00  0.00     0.028 C 
BRANCH   6   7
ATOM      7  C   UNL     1     119.790  87.211  56.935  1.00  0.00    -0.028 C 
ATOM      8  C   UNL     1     119.541  85.898  57.164  1.00  0.00    -0.070 CG0
ATOM      9  C   UNL     1     118.387  85.260  56.433  1.00  0.00     0.039 C 
ATOM     10  G   UNL     1     120.364  85.043  58.115  1.00  0.00     0.000 G0
ENDBRANCH   6   7
ENDBRANCH   5   6
ENDBRANCH   3   5
ENDBRANCH   1   3
BRANCH   1  11
ATOM     11  C   UNL     1     123.168  85.205  56.991  1.00  0.00     0.087 C 
BRANCH  11  12
ATOM     12  C   UNL     1     122.331  83.955  56.610  1.00  0.00     0.066 C 
BRANCH  12  13
ATOM     13  C   UNL     1     121.077  83.828  57.471  1.00  0.00     0.140 C 
ATOM     14  O   UNL     1     120.622  82.714  57.683  1.00  0.00    -0.299 OA
BRANCH  13  15
ATOM     15  C   UNL     1     120.365  85.004  58.114  1.00  0.00     0.106 CG0
ATOM     16  G   UNL     1     119.547  85.876  57.174  1.00  0.00     0.000 G0
ENDBRANCH  13  15
ENDBRANCH  12  13
BRANCH  12  17
ATOM     17  C   UNL     1     123.146  82.623  56.604  1.00  0.00    -0.006 C 
ATOM     18  C   UNL     1     123.695  82.301  55.204  1.00  0.00     0.008 C 
ATOM     19  C   UNL     1     124.288  82.569  57.634  1.00  0.00     0.008 C 
ENDBRANCH  12  17
ENDBRANCH  11  12
ENDBRANCH   1  11
TORSDOF 1
ENDMDL
MODEL 3
REMARK VINA RESULT:    -1.459      1.795      4.085
REMARK INTER + INTRA:          -2.747
REMARK INTER:                  -2.697
REMARK INTRA:                  -0.050
REMARK UNBOUND:                -0.520
REMARK SMILES CC1=CCC[C@@H](C)C(=O)C[C@@H](C(C)C)C(=O)C1
REMARK SMILES IDX 8 1 9 2 6 3 7 4 5 5 4 6 3 7 2 8 1 9 10 11 11 12 15 13 16 14
REMARK SMILES IDX 17 15 12 17 13 18 14 19
REMARK H PARENT
REMARK Flexibility Score: 70.00
ROOT
ATOM      1  C   UNL     1     121.162  86.557  54.252  1.00  0.00     0.136 C 
ATOM      2  O   UNL     1     120.867  85.814  53.326  1.00  0.00    -0.299 OA
ENDROOT
BRANCH   1   3
ATOM      3  C   UNL     1     122.254  87.600  54.070  1.00  0.00     0.053 C 
ATOM      4  C   UNL     1     121.916  88.604  52.956  1.00  0.00     0.016 C 
BRANCH   3   5
ATOM      5  C   UNL     1     123.641  86.958  53.838  1.00  0.00     0.015 C 
BRANCH   5   6
ATOM      6  C   UNL     1     124.417  86.625  55.135  1.00  0.00     0.028 C 
BRANCH   6   7
ATOM      7  C   UNL     1     124.718  85.146  55.217  1.00  0.00    -0.028 C 
ATOM      8  C   UNL     1     124.351  84.321  56.229  1.00  0.00    -0.070 CG0
ATOM      9  C   UNL     1     124.867  82.904  56.206  1.00  0.00     0.039 C 
ATOM     10  G   UNL     1     123.450  84.751  57.376  1.00  0.00     0.000 G0
ENDBRANCH   6   7
ENDBRANCH   5   6
ENDBRANCH   3   5
ENDBRANCH   1   3
BRANCH   1  11
ATOM     11  C   UNL     1     120.448  86.386  55.574  1.00  0.00     0.087 C 
BRANCH  11  12
ATOM     12  C   UNL     1     121.419  86.397  56.784  1.00  0.00     0.066 C 
BRANCH  12  13
ATOM     13  C   UNL     1     121.988  85.010  57.066  1.00  0.00     0.140 C 
ATOM     14  O   UNL     1     121.241  84.045  57.000  1.00  0.00    -0.299 OA
BRANCH  13  15
ATOM     15  C   UNL     1     123.444  84.739  57.400  1.00  0.00     0.106 CG0
ATOM     16  G   UNL     1     124.325  84.325  56.232  1.00  0.00     0.000 G0
ENDBRANCH  13  15
ENDBRANCH  12  13
BRANCH  12  17
ATOM     17  C   UNL     1     120.817  87.032  58.077  1.00  0.00    -0.006 C 
ATOM     18  C   UNL     1     120.234  88.429  57.804  1.00  0.00     0.008 C 
ATOM     19  C   UNL     1     119.764  86.160  58.784  1.00  0.00     0.008 C 
ENDBRANCH  12  17
ENDBRANCH  11  12
ENDBRANCH   1  11
TORSDOF 1
ENDMDL
MODEL 4
REMARK VINA RESULT:    -1.380     12.851     14.824
REMARK INTER + INTRA:          -2.626
REMARK INTER:                  -2.108
REMARK INTRA:                  -0.517
REMARK UNBOUND:                -0.520
REMARK SMILES CC1=CCC[C@@H](C)C(=O)C[C@@H](C(C)C)C(=O)C1
REMARK SMILES IDX 8 1 9 2 6 3 7 4 5 5 4 6 3 7 2 8 1 9 10 11 11 12 15 13 16 14
REMARK SMILES IDX 17 15 12 17 13 18 14 19
REMARK H PARENT
REMARK Flexibility Score: 70.00
ROOT
ATOM      1  C   UNL     1     107.395  84.233  55.099  1.00  0.00     0.136 C 
ATOM      2  O   UNL     1     107.336  83.091  54.664  1.00  0.00    -0.299 OA
ENDROOT
BRANCH   1   3
ATOM      3  C   UNL     1     106.119  84.967  55.482  1.00  0.00     0.053 C 
ATOM      4  C   UNL     1     105.331  84.228  56.576  1.00  0.00     0.016 C 
BRANCH   3   5
ATOM      5  C   UNL     1     105.224  85.258  54.255  1.00  0.00     0.015 C 
BRANCH   5   6
ATOM      6  C   UNL     1     105.477  86.635  53.593  1.00  0.00     0.028 C 
BRANCH   6   7
ATOM      7  C   UNL     1     106.579  86.541  52.562  1.00  0.00    -0.028 C 
ATOM      8  C   UNL     1     107.758  87.210  52.605  1.00  0.00    -0.070 CG0
ATOM      9  C   UNL     1     108.674  87.101  51.412  1.00  0.00     0.039 C 
ATOM     10  G   UNL     1     108.199  88.057  53.788  1.00  0.00     0.000 G0
ENDBRANCH   6   7
ENDBRANCH   5   6
ENDBRANCH   3   5
ENDBRANCH   1   3
BRANCH   1  11
ATOM     11  C   UNL     1     108.749  84.897  55.210  1.00  0.00     0.087 C 
BRANCH  11  12
ATOM     12  C   UNL     1     108.664  86.331  55.797  1.00  0.00     0.066 C 
BRANCH  12  13
ATOM     13  C   UNL     1     109.117  87.383  54.789  1.00  0.00     0.140 C 
ATOM     14  O   UNL     1     110.299  87.694  54.758  1.00  0.00    -0.299 OA
BRANCH  13  15
ATOM     15  C   UNL     1     108.195  88.058  53.791  1.00  0.00     0.106 CG0
ATOM     16  G   UNL     1     107.752  87.201  52.615  1.00  0.00     0.000 G0
ENDBRANCH  13  15
ENDBRANCH  12  13
BRANCH  12  17
ATOM     17  C   UNL     1     109.403  86.505  57.162  1.00  0.00    -0.006 C 
ATOM     18  C   UNL     1     108.437  86.933  58.279  1.00  0.00     0.008 C 
ATOM     19  C   UNL     1     110.204  85.270  57.614  1.00  0.00     0.008 C 
ENDBRANCH  12  17
ENDBRANCH  11  12
ENDBRANCH   1  11
TORSDOF 1
ENDMDL
MODEL 5
REMARK VINA RESULT:    -1.307     12.182     13.728
REMARK INTER + INTRA:          -2.514
REMARK INTER:                  -2.087
REMARK INTRA:                  -0.427
REMARK UNBOUND:                -0.520
REMARK SMILES CC1=CCC[C@@H](C)C(=O)C[C@@H](C(C)C)C(=O)C1
REMARK SMILES IDX 8 1 9 2 6 3 7 4 5 5 4 6 3 7 2 8 1 9 10 11 11 12 15 13 16 14
REMARK SMILES IDX 17 15 12 17 13 18 14 19
REMARK H PARENT
REMARK Flexibility Score: 70.00
ROOT
ATOM      1  C   UNL     1     108.617  85.951  54.123  1.00  0.00     0.136 C 
ATOM      2  O   UNL     1     108.703  86.297  52.952  1.00  0.00    -0.299 OA
ENDROOT
BRANCH   1   3
ATOM      3  C   UNL     1     108.298  84.504  54.465  1.00  0.00     0.053 C 
ATOM      4  C   UNL     1     109.066  83.514  53.574  1.00  0.00     0.016 C 
BRANCH   3   5
ATOM      5  C   UNL     1     106.779  84.218  54.432  1.00  0.00     0.015 C 
BRANCH   5   6
ATOM      6  C   UNL     1     105.971  84.925  55.547  1.00  0.00     0.028 C 
BRANCH   6   7
ATOM      7  C   UNL     1     106.256  84.304  56.895  1.00  0.00    -0.028 C 
ATOM      8  C   UNL     1     106.991  84.870  57.885  1.00  0.00    -0.070 CG0
ATOM      9  C   UNL     1     107.289  84.037  59.105  1.00  0.00     0.039 C 
ATOM     10  G   UNL     1     107.523  86.293  57.824  1.00  0.00     0.000 G0
ENDBRANCH   6   7
ENDBRANCH   5   6
ENDBRANCH   3   5
ENDBRANCH   1   3
BRANCH   1  11
ATOM     11  C   UNL     1     108.797  86.995  55.202  1.00  0.00     0.087 C 
BRANCH  11  12
ATOM     12  C   UNL     1     109.750  86.526  56.333  1.00  0.00     0.066 C 
BRANCH  12  13
ATOM     13  C   UNL     1     109.038  86.451  57.680  1.00  0.00     0.140 C 
ATOM     14  O   UNL     1     109.703  86.542  58.701  1.00  0.00    -0.299 OA
BRANCH  13  15
ATOM     15  C   UNL     1     107.537  86.298  57.841  1.00  0.00     0.106 CG0
ATOM     16  G   UNL     1     107.019  84.868  57.884  1.00  0.00     0.000 G0
ENDBRANCH  13  15
ENDBRANCH  12  13
BRANCH  12  17
ATOM     17  C   UNL     1     111.068  87.358  56.439  1.00  0.00    -0.006 C 
ATOM     18  C   UNL     1     112.244  86.646  55.750  1.00  0.00     0.008 C 
ATOM     19  C   UNL     1     110.955  88.800  55.914  1.00  0.00     0.008 C 
ENDBRANCH  12  17
ENDBRANCH  11  12
ENDBRANCH   1  11
TORSDOF 1
ENDMDL
MODEL 6
REMARK VINA RESULT:    -1.288     12.731     14.576
REMARK INTER + INTRA:          -2.485
REMARK INTER:                  -2.080
REMARK INTRA:                  -0.405
REMARK UNBOUND:                -0.520
REMARK SMILES CC1=CCC[C@@H](C)C(=O)C[C@@H](C(C)C)C(=O)C1
REMARK SMILES IDX 8 1 9 2 6 3 7 4 5 5 4 6 3 7 2 8 1 9 10 11 11 12 15 13 16 14
REMARK SMILES IDX 17 15 12 17 13 18 14 19
REMARK H PARENT
REMARK Flexibility Score: 70.00
ROOT
ATOM      1  C   UNL     1     110.041  85.051  54.370  1.00  0.00     0.136 C 
ATOM      2  O   UNL     1     110.700  84.849  53.359  1.00  0.00    -0.299 OA
ENDROOT
BRANCH   1   3
ATOM      3  C   UNL     1     109.680  83.891  55.285  1.00  0.00     0.053 C 
ATOM      4  C   UNL     1     110.820  83.540  56.255  1.00  0.00     0.016 C 
BRANCH   3   5
ATOM      5  C   UNL     1     109.222  82.644  54.493  1.00  0.00     0.015 C 
BRANCH   5   6
ATOM      6  C   UNL     1     107.822  82.778  53.843  1.00  0.00     0.028 C 
BRANCH   6   7
ATOM      7  C   UNL     1     106.763  83.017  54.894  1.00  0.00    -0.028 C 
ATOM      8  C   UNL     1     106.133  84.195  55.127  1.00  0.00    -0.070 CG0
ATOM      9  C   UNL     1     105.208  84.278  56.315  1.00  0.00     0.039 C 
ATOM     10  G   UNL     1     106.313  85.428  54.255  1.00  0.00     0.000 G0
ENDBRANCH   6   7
ENDBRANCH   5   6
ENDBRANCH   3   5
ENDBRANCH   1   3
BRANCH   1  11
ATOM     11  C   UNL     1     109.572  86.459  54.660  1.00  0.00     0.087 C 
BRANCH  11  12
ATOM     12  C   UNL     1     108.382  86.498  55.656  1.00  0.00     0.066 C 
BRANCH  12  13
ATOM     13  C   UNL     1     107.042  86.606  54.935  1.00  0.00     0.140 C 
ATOM     14  O   UNL     1     106.499  87.699  54.867  1.00  0.00    -0.299 OA
BRANCH  13  15
ATOM     15  C   UNL     1     106.342  85.440  54.262  1.00  0.00     0.106 CG0
ATOM     16  G   UNL     1     106.124  84.209  55.129  1.00  0.00     0.000 G0
ENDBRANCH  13  15
ENDBRANCH  12  13
BRANCH  12  17
ATOM     17  C   UNL     1     108.516  87.593  56.762  1.00  0.00    -0.006 C 
ATOM     18  C   UNL     1     108.335  87.001  58.170  1.00  0.00     0.008 C 
ATOM     19  C   UNL     1     109.823  88.402  56.703  1.00  0.00     0.008 C 
ENDBRANCH  12  17
ENDBRANCH  11  12
ENDBRANCH   1  11
TORSDOF 1
ENDMDL
MODEL 7
REMARK VINA RESULT:    -1.245     12.036     13.964
REMARK INTER + INTRA:          -2.420
REMARK INTER:                  -1.868
REMARK INTRA:                  -0.551
REMARK UNBOUND:                -0.520
REMARK SMILES CC1=CCC[C@@H](C)C(=O)C[C@@H](C(C)C)C(=O)C1
REMARK SMILES IDX 8 1 9 2 6 3 7 4 5 5 4 6 3 7 2 8 1 9 10 11 11 12 15 13 16 14
REMARK SMILES IDX 17 15 12 17 13 18 14 19
REMARK H PARENT
REMARK Flexibility Score: 70.00
ROOT
ATOM      1  C   UNL     1     110.128  84.370  55.510  1.00  0.00     0.136 C 
ATOM      2  O   UNL     1     110.669  83.570  54.758  1.00  0.00    -0.299 OA
ENDROOT
BRANCH   1   3
ATOM      3  C   UNL     1     109.118  83.883  56.537  1.00  0.00     0.053 C 
ATOM      4  C   UNL     1     109.714  82.825  57.480  1.00  0.00     0.016 C 
BRANCH   3   5
ATOM      5  C   UNL     1     107.818  83.368  55.878  1.00  0.00     0.015 C 
BRANCH   5   6
ATOM      6  C   UNL     1     106.613  84.333  56.002  1.00  0.00     0.028 C 
BRANCH   6   7
ATOM      7  C   UNL     1     106.397  85.092  54.713  1.00  0.00    -0.028 C 
ATOM      8  C   UNL     1     106.551  86.430  54.550  1.00  0.00    -0.070 CG0
ATOM      9  C   UNL     1     106.150  87.030  53.227  1.00  0.00     0.039 C 
ATOM     10  G   UNL     1     107.105  87.347  55.630  1.00  0.00     0.000 G0
ENDBRANCH   6   7
ENDBRANCH   5   6
ENDBRANCH   3   5
ENDBRANCH   1   3
BRANCH   1  11
ATOM     11  C   UNL     1     110.459  85.838  55.365  1.00  0.00     0.087 C 
BRANCH  11  12
ATOM     12  C   UNL     1     109.638  86.733  56.331  1.00  0.00     0.066 C 
BRANCH  12  13
ATOM     13  C   UNL     1     108.621  87.590  55.583  1.00  0.00     0.140 C 
ATOM     14  O   UNL     1     109.029  88.501  54.876  1.00  0.00    -0.299 OA
BRANCH  13  15
ATOM     15  C   UNL     1     107.121  87.368  55.633  1.00  0.00     0.106 CG0
ATOM     16  G   UNL     1     106.551  86.451  54.562  1.00  0.00     0.000 G0
ENDBRANCH  13  15
ENDBRANCH  12  13
BRANCH  12  17
ATOM     17  C   UNL     1     110.512  87.604  57.287  1.00  0.00    -0.006 C 
ATOM     18  C   UNL     1     110.338  87.183  58.756  1.00  0.00     0.008 C 
ATOM     19  C   UNL     1     112.009  87.635  56.932  1.00  0.00     0.008 C 
ENDBRANCH  12  17
ENDBRANCH  11  12
ENDBRANCH   1  11
TORSDOF 1
ENDMDL
MODEL 8
REMARK VINA RESULT:    -1.216     12.891     14.227
REMARK INTER + INTRA:          -2.376
REMARK INTER:                  -1.877
REMARK INTRA:                  -0.499
REMARK UNBOUND:                -0.520
REMARK SMILES CC1=CCC[C@@H](C)C(=O)C[C@@H](C(C)C)C(=O)C1
REMARK SMILES IDX 8 1 9 2 6 3 7 4 5 5 4 6 3 7 2 8 1 9 10 11 11 12 15 13 16 14
REMARK SMILES IDX 17 15 12 17 13 18 14 19
REMARK H PARENT
REMARK Flexibility Score: 70.00
ROOT
ATOM      1  C   UNL     1     108.372  83.677  54.698  1.00  0.00     0.136 C 
ATOM      2  O   UNL     1     108.849  83.002  53.797  1.00  0.00    -0.299 OA
ENDROOT
BRANCH   1   3
ATOM      3  C   UNL     1     107.011  84.332  54.518  1.00  0.00     0.053 C 
ATOM      4  C   UNL     1     106.104  83.532  53.568  1.00  0.00     0.016 C 
BRANCH   3   5
ATOM      5  C   UNL     1     107.129  85.805  54.064  1.00  0.00     0.015 C 
BRANCH   5   6
ATOM      6  C   UNL     1     106.746  86.841  55.149  1.00  0.00     0.028 C 
BRANCH   6   7
ATOM      7  C   UNL     1     107.972  87.556  55.666  1.00  0.00    -0.028 C 
ATOM      8  C   UNL     1     108.460  87.475  56.929  1.00  0.00    -0.070 CG0
ATOM      9  C   UNL     1     109.611  88.375  57.301  1.00  0.00     0.039 C 
ATOM     10  G   UNL     1     107.907  86.526  57.981  1.00  0.00     0.000 G0
ENDBRANCH   6   7
ENDBRANCH   5   6
ENDBRANCH   3   5
ENDBRANCH   1   3
BRANCH   1  11
ATOM     11  C   UNL     1     109.176  83.868  55.965  1.00  0.00     0.087 C 
BRANCH  11  12
ATOM     12  C   UNL     1     108.284  83.951  57.232  1.00  0.00     0.066 C 
BRANCH  12  13
ATOM     13  C   UNL     1     108.626  85.167  58.087  1.00  0.00     0.140 C 
ATOM     14  O   UNL     1     109.542  85.079  58.892  1.00  0.00    -0.299 OA
BRANCH  13  15
ATOM     15  C   UNL     1     107.917  86.505  57.985  1.00  0.00     0.106 CG0
ATOM     16  G   UNL     1     108.458  87.462  56.934  1.00  0.00     0.000 G0
ENDBRANCH  13  15
ENDBRANCH  12  13
BRANCH  12  17
ATOM     17  C   UNL     1     108.276  82.645  58.089  1.00  0.00    -0.006 C 
ATOM     18  C   UNL     1     107.025  81.795  57.813  1.00  0.00     0.008 C 
ATOM     19  C   UNL     1     109.537  81.776  57.939  1.00  0.00     0.008 C 
ENDBRANCH  12  17
ENDBRANCH  11  12
ENDBRANCH   1  11
TORSDOF 1
ENDMDL
MODEL 9
REMARK VINA RESULT:    -1.120     12.249     14.170
REMARK INTER + INTRA:          -2.230
REMARK INTER:                  -2.163
REMARK INTRA:                  -0.066
REMARK UNBOUND:                -0.520
REMARK SMILES CC1=CCC[C@@H](C)C(=O)C[C@@H](C(C)C)C(=O)C1
REMARK SMILES IDX 8 1 9 2 6 3 7 4 5 5 4 6 3 7 2 8 1 9 10 11 11 12 15 13 16 14
REMARK SMILES IDX 17 15 12 17 13 18 14 19
REMARK H PARENT
REMARK Flexibility Score: 70.00
ROOT
ATOM      1  C   UNL     1     110.123  84.380  56.953  1.00  0.00     0.136 C 
ATOM      2  O   UNL     1     111.087  84.555  57.685  1.00  0.00    -0.299 OA
ENDROOT
BRANCH   1   3
ATOM      3  C   UNL     1     110.234  84.676  55.465  1.00  0.00     0.053 C 
ATOM      4  C   UNL     1     110.697  83.449  54.663  1.00  0.00     0.016 C 
BRANCH   3   5
ATOM      5  C   UNL     1     111.137  85.899  55.181  1.00  0.00     0.015 C 
BRANCH   5   6
ATOM      6  C   UNL     1     110.395  87.257  55.190  1.00  0.00     0.028 C 
BRANCH   6   7
ATOM      7  C   UNL     1     109.039  87.133  54.534  1.00  0.00    -0.028 C 
ATOM      8  C   UNL     1     107.846  87.146  55.180  1.00  0.00    -0.070 CG0
ATOM      9  C   UNL     1     106.604  86.863  54.373  1.00  0.00     0.039 C 
ATOM     10  G   UNL     1     107.701  87.430  56.667  1.00  0.00     0.000 G0
ENDBRANCH   6   7
ENDBRANCH   5   6
ENDBRANCH   3   5
ENDBRANCH   1   3
BRANCH   1  11
ATOM     11  C   UNL     1     108.825  83.903  57.566  1.00  0.00     0.087 C 
BRANCH  11  12
ATOM     12  C   UNL     1     107.615  84.787  57.164  1.00  0.00     0.066 C 
BRANCH  12  13
ATOM     13  C   UNL     1     107.800  86.236  57.605  1.00  0.00     0.140 C 
ATOM     14  O   UNL     1     108.078  86.462  58.774  1.00  0.00    -0.299 OA
BRANCH  13  15
ATOM     15  C   UNL     1     107.690  87.429  56.674  1.00  0.00     0.106 CG0
ATOM     16  G   UNL     1     107.855  87.129  55.192  1.00  0.00     0.000 G0
ENDBRANCH  13  15
ENDBRANCH  12  13
BRANCH  12  17
ATOM     17  C   UNL     1     106.235  84.227  57.636  1.00  0.00    -0.006 C 
ATOM     18  C   UNL     1     105.234  84.133  56.472  1.00  0.00     0.008 C 
ATOM     19  C   UNL     1     106.312  82.874  58.365  1.00  0.00     0.008 C 
ENDBRANCH  12  17
ENDBRANCH  11  12
ENDBRANCH   1  11
TORSDOF 1
ENDMDL
