MODEL 1
REMARK VINA RESULT:    30.810      0.000      0.000
REMARK INTER + INTRA:          79.158
REMARK INTER:                  81.243
REMARK INTRA:                  -2.086
REMARK UNBOUND:                -2.086
REMARK SMILES CCCCCCCCCCCCCCCCCCCCCCCCCCCCCC(=O)[O-]
REMARK SMILES IDX 16 1 17 2 18 3 19 4 20 5 21 6 22 7 23 8 24 9 25 10 26 11
REMARK SMILES IDX 27 12 28 13 29 14 30 15 31 16 32 17 15 18 14 19 13 20 12 21
REMARK SMILES IDX 11 22 10 23 9 24 8 25 7 26 6 27 5 28 4 29 3 30 2 31 1 32
REMARK H PARENT
REMARK Flexibility Score: inf
ROOT
ATOM      1  C   UNL     1      56.527  48.550  18.086  1.00  0.00     0.000 C 
ENDROOT
BRANCH   1   2
ATOM      2  C   UNL     1      55.153  49.032  17.588  1.00  0.00     0.000 C 
BRANCH   2   3
ATOM      3  C   UNL     1      55.120  49.207  16.060  1.00  0.00     0.000 C 
BRANCH   3   4
ATOM      4  C   UNL     1      54.991  50.684  15.645  1.00  0.00     0.000 C 
BRANCH   4   5
ATOM      5  C   UNL     1      56.316  51.459  15.766  1.00  0.00     0.000 C 
BRANCH   5   6
ATOM      6  C   UNL     1      56.602  52.035  17.163  1.00  0.00     0.000 C 
BRANCH   6   7
ATOM      7  C   UNL     1      55.415  52.824  17.740  1.00  0.00     0.000 C 
BRANCH   7   8
ATOM      8  C   UNL     1      55.664  53.309  19.188  1.00  0.00     0.000 C 
BRANCH   8   9
ATOM      9  C   UNL     1      54.411  53.264  20.081  1.00  0.00     0.000 C 
BRANCH   9  10
ATOM     10  C   UNL     1      54.700  53.346  21.591  1.00  0.00     0.000 C 
BRANCH  10  11
ATOM     11  C   UNL     1      53.424  53.448  22.458  1.00  0.00     0.000 C 
BRANCH  11  12
ATOM     12  C   UNL     1      53.407  54.711  23.336  1.00  0.00     0.000 C 
BRANCH  12  13
ATOM     13  C   UNL     1      54.543  55.694  22.998  1.00  0.00     0.006 C 
BRANCH  13  14
ATOM     14  C   UNL     1      54.827  56.727  24.102  1.00  0.00     0.053 C 
BRANCH  14  15
ATOM     15  C   UNL     1      55.998  56.352  24.959  1.00  0.00     0.041 C 
ATOM     16  O   UNL     1      56.755  55.408  24.614  1.00  0.00    -0.550 OA
ATOM     17  O   UNL     1      56.277  57.068  26.116  1.00  0.00    -0.550 OA
ENDBRANCH  14  15
ENDBRANCH  13  14
ENDBRANCH  12  13
ENDBRANCH  11  12
ENDBRANCH  10  11
ENDBRANCH   9  10
ENDBRANCH   8   9
ENDBRANCH   7   8
ENDBRANCH   6   7
ENDBRANCH   5   6
ENDBRANCH   4   5
ENDBRANCH   3   4
ENDBRANCH   2   3
ENDBRANCH   1   2
BRANCH   1  18
ATOM     18  C   UNL     1      56.423  47.478  19.183  1.00  0.00     0.000 C 
BRANCH  18  19
ATOM     19  C   UNL     1      55.726  47.995  20.454  1.00  0.00     0.000 C 
BRANCH  19  20
ATOM     20  C   UNL     1      56.701  48.653  21.450  1.00  0.00     0.000 C 
BRANCH  20  21
ATOM     21  C   UNL     1      56.828  47.946  22.814  1.00  0.00     0.000 C 
BRANCH  21  22
ATOM     22  C   UNL     1      57.707  46.689  22.759  1.00  0.00     0.000 C 
BRANCH  22  23
ATOM     23  C   UNL     1      56.964  45.471  23.321  1.00  0.00     0.000 C 
BRANCH  23  24
ATOM     24  C   UNL     1      57.156  44.246  22.415  1.00  0.00    -0.000 C 
BRANCH  24  25
ATOM     25  C   UNL     1      56.783  44.522  20.949  1.00  0.00    -0.000 C 
BRANCH  25  26
ATOM     26  C   UNL     1      55.558  43.712  20.484  1.00  0.00    -0.000 C 
BRANCH  26  27
ATOM     27  C   UNL     1      55.788  42.187  20.579  1.00  0.00    -0.000 C 
BRANCH  27  28
ATOM     28  C   UNL     1      54.509  41.378  20.849  1.00  0.00    -0.000 C 
BRANCH  28  29
ATOM     29  C   UNL     1      54.784  39.883  21.079  1.00  0.00    -0.000 C 
BRANCH  29  30
ATOM     30  C   UNL     1      55.902  39.329  20.178  1.00  0.00    -0.000 C 
BRANCH  30  31
ATOM     31  C   UNL     1      56.849  38.316  20.851  1.00  0.00    -0.003 C 
ATOM     32  C   UNL     1      56.873  38.433  22.375  1.00  0.00     0.004 C 
ENDBRANCH  30  31
ENDBRANCH  29  30
ENDBRANCH  28  29
ENDBRANCH  27  28
ENDBRANCH  26  27
ENDBRANCH  25  26
ENDBRANCH  24  25
ENDBRANCH  23  24
ENDBRANCH  22  23
ENDBRANCH  21  22
ENDBRANCH  20  21
ENDBRANCH  19  20
ENDBRANCH  18  19
ENDBRANCH   1  18
TORSDOF 28
ENDMDL
MODEL 2
REMARK VINA RESULT:    31.237      1.455      2.602
REMARK INTER + INTRA:          80.284
REMARK INTER:                  81.577
REMARK INTRA:                  -1.294
REMARK UNBOUND:                -2.086
REMARK SMILES CCCCCCCCCCCCCCCCCCCCCCCCCCCCCC(=O)[O-]
REMARK SMILES IDX 16 1 17 2 18 3 19 4 20 5 21 6 22 7 23 8 24 9 25 10 26 11
REMARK SMILES IDX 27 12 28 13 29 14 30 15 31 16 32 17 15 18 14 19 13 20 12 21
REMARK SMILES IDX 11 22 10 23 9 24 8 25 7 26 6 27 5 28 4 29 3 30 2 31 1 32
REMARK H PARENT
REMARK Flexibility Score: inf
ROOT
ATOM      1  C   UNL     1      56.495  49.569  16.340  1.00  0.00     0.000 C 
ENDROOT
BRANCH   1   2
ATOM      2  C   UNL     1      55.456  49.603  15.204  1.00  0.00     0.000 C 
BRANCH   2   3
ATOM      3  C   UNL     1      54.114  50.199  15.664  1.00  0.00     0.000 C 
BRANCH   3   4
ATOM      4  C   UNL     1      54.188  50.767  17.093  1.00  0.00     0.000 C 
BRANCH   4   5
ATOM      5  C   UNL     1      55.034  52.051  17.185  1.00  0.00     0.000 C 
BRANCH   5   6
ATOM      6  C   UNL     1      54.557  53.064  18.240  1.00  0.00     0.000 C 
BRANCH   6   7
ATOM      7  C   UNL     1      55.623  53.365  19.306  1.00  0.00     0.000 C 
BRANCH   7   8
ATOM      8  C   UNL     1      55.587  52.367  20.487  1.00  0.00     0.000 C 
BRANCH   8   9
ATOM      9  C   UNL     1      55.122  52.995  21.814  1.00  0.00     0.000 C 
BRANCH   9  10
ATOM     10  C   UNL     1      53.641  53.415  21.837  1.00  0.00     0.000 C 
BRANCH  10  11
ATOM     11  C   UNL     1      53.375  54.692  22.669  1.00  0.00     0.000 C 
BRANCH  11  12
ATOM     12  C   UNL     1      54.603  55.132  23.482  1.00  0.00     0.000 C 
BRANCH  12  13
ATOM     13  C   UNL     1      54.233  55.879  24.777  1.00  0.00     0.006 C 
BRANCH  13  14
ATOM     14  C   UNL     1      55.259  56.944  25.201  1.00  0.00     0.053 C 
BRANCH  14  15
ATOM     15  C   UNL     1      56.605  56.361  25.510  1.00  0.00     0.041 C 
ATOM     16  O   UNL     1      57.577  57.119  25.765  1.00  0.00    -0.550 OA
ATOM     17  O   UNL     1      56.777  54.983  25.556  1.00  0.00    -0.550 OA
ENDBRANCH  14  15
ENDBRANCH  13  14
ENDBRANCH  12  13
ENDBRANCH  11  12
ENDBRANCH  10  11
ENDBRANCH   9  10
ENDBRANCH   8   9
ENDBRANCH   7   8
ENDBRANCH   6   7
ENDBRANCH   5   6
ENDBRANCH   4   5
ENDBRANCH   3   4
ENDBRANCH   2   3
ENDBRANCH   1   2
BRANCH   1  18
ATOM     18  C   UNL     1      56.912  48.141  16.725  1.00  0.00     0.000 C 
BRANCH  18  19
ATOM     19  C   UNL     1      57.267  48.007  18.216  1.00  0.00     0.000 C 
BRANCH  19  20
ATOM     20  C   UNL     1      56.029  48.011  19.132  1.00  0.00     0.000 C 
BRANCH  20  21
ATOM     21  C   UNL     1      56.312  47.753  20.625  1.00  0.00     0.000 C 
BRANCH  21  22
ATOM     22  C   UNL     1      56.110  46.285  21.030  1.00  0.00     0.000 C 
BRANCH  22  23
ATOM     23  C   UNL     1      55.533  45.466  19.869  1.00  0.00     0.000 C 
BRANCH  23  24
ATOM     24  C   UNL     1      55.456  43.976  20.234  1.00  0.00    -0.000 C 
BRANCH  24  25
ATOM     25  C   UNL     1      56.736  43.459  20.910  1.00  0.00    -0.000 C 
BRANCH  25  26
ATOM     26  C   UNL     1      56.606  42.002  21.395  1.00  0.00    -0.000 C 
BRANCH  26  27
ATOM     27  C   UNL     1      55.151  41.488  21.333  1.00  0.00    -0.000 C 
BRANCH  27  28
ATOM     28  C   UNL     1      55.026  40.012  20.918  1.00  0.00    -0.000 C 
BRANCH  28  29
ATOM     29  C   UNL     1      53.996  39.790  19.799  1.00  0.00    -0.000 C 
BRANCH  29  30
ATOM     30  C   UNL     1      52.562  40.162  20.216  1.00  0.00    -0.000 C 
BRANCH  30  31
ATOM     31  C   UNL     1      51.580  40.404  19.053  1.00  0.00    -0.003 C 
ATOM     32  C   UNL     1      52.086  41.431  18.040  1.00  0.00     0.004 C 
ENDBRANCH  30  31
ENDBRANCH  29  30
ENDBRANCH  28  29
ENDBRANCH  27  28
ENDBRANCH  26  27
ENDBRANCH  25  26
ENDBRANCH  24  25
ENDBRANCH  23  24
ENDBRANCH  22  23
ENDBRANCH  21  22
ENDBRANCH  20  21
ENDBRANCH  19  20
ENDBRANCH  18  19
ENDBRANCH   1  18
TORSDOF 28
ENDMDL
MODEL 3
REMARK VINA RESULT:    31.308      0.981      1.776
REMARK INTER + INTRA:          80.469
REMARK INTER:                  82.191
REMARK INTRA:                  -1.722
REMARK UNBOUND:                -2.086
REMARK SMILES CCCCCCCCCCCCCCCCCCCCCCCCCCCCCC(=O)[O-]
REMARK SMILES IDX 16 1 17 2 18 3 19 4 20 5 21 6 22 7 23 8 24 9 25 10 26 11
REMARK SMILES IDX 27 12 28 13 29 14 30 15 31 16 32 17 15 18 14 19 13 20 12 21
REMARK SMILES IDX 11 22 10 23 9 24 8 25 7 26 6 27 5 28 4 29 3 30 2 31 1 32
REMARK H PARENT
REMARK Flexibility Score: inf
ROOT
ATOM      1  C   UNL     1      56.818  48.582  17.716  1.00  0.00     0.000 C 
ENDROOT
BRANCH   1   2
ATOM      2  C   UNL     1      55.372  48.984  17.375  1.00  0.00     0.000 C 
BRANCH   2   3
ATOM      3  C   UNL     1      55.185  49.254  15.873  1.00  0.00     0.000 C 
BRANCH   3   4
ATOM      4  C   UNL     1      54.988  50.750  15.569  1.00  0.00     0.000 C 
BRANCH   4   5
ATOM      5  C   UNL     1      56.290  51.564  15.694  1.00  0.00     0.000 C 
BRANCH   5   6
ATOM      6  C   UNL     1      56.586  52.096  17.106  1.00  0.00     0.000 C 
BRANCH   6   7
ATOM      7  C   UNL     1      55.322  52.558  17.851  1.00  0.00     0.000 C 
BRANCH   7   8
ATOM      8  C   UNL     1      55.537  52.680  19.377  1.00  0.00     0.000 C 
BRANCH   8   9
ATOM      9  C   UNL     1      54.473  53.538  20.086  1.00  0.00     0.000 C 
BRANCH   9  10
ATOM     10  C   UNL     1      54.519  53.472  21.623  1.00  0.00     0.000 C 
BRANCH  10  11
ATOM     11  C   UNL     1      53.291  54.117  22.306  1.00  0.00     0.000 C 
BRANCH  11  12
ATOM     12  C   UNL     1      53.558  54.486  23.774  1.00  0.00     0.000 C 
BRANCH  12  13
ATOM     13  C   UNL     1      53.749  55.999  23.991  1.00  0.00     0.006 C 
BRANCH  13  14
ATOM     14  C   UNL     1      54.666  56.351  25.175  1.00  0.00     0.053 C 
BRANCH  14  15
ATOM     15  C   UNL     1      56.110  56.436  24.784  1.00  0.00     0.041 C 
ATOM     16  O   UNL     1      57.004  56.440  25.670  1.00  0.00    -0.550 OA
ATOM     17  O   UNL     1      56.472  56.469  23.443  1.00  0.00    -0.550 OA
ENDBRANCH  14  15
ENDBRANCH  13  14
ENDBRANCH  12  13
ENDBRANCH  11  12
ENDBRANCH  10  11
ENDBRANCH   9  10
ENDBRANCH   8   9
ENDBRANCH   7   8
ENDBRANCH   6   7
ENDBRANCH   5   6
ENDBRANCH   4   5
ENDBRANCH   3   4
ENDBRANCH   2   3
ENDBRANCH   1   2
BRANCH   1  18
ATOM     18  C   UNL     1      56.897  47.333  18.608  1.00  0.00     0.000 C 
BRANCH  18  19
ATOM     19  C   UNL     1      56.005  47.437  19.857  1.00  0.00     0.000 C 
BRANCH  19  20
ATOM     20  C   UNL     1      56.576  48.386  20.927  1.00  0.00     0.000 C 
BRANCH  20  21
ATOM     21  C   UNL     1      56.695  47.789  22.343  1.00  0.00     0.000 C 
BRANCH  21  22
ATOM     22  C   UNL     1      57.523  46.496  22.383  1.00  0.00     0.000 C 
BRANCH  22  23
ATOM     23  C   UNL     1      57.013  45.547  23.474  1.00  0.00     0.000 C 
BRANCH  23  24
ATOM     24  C   UNL     1      56.815  44.129  22.919  1.00  0.00    -0.000 C 
BRANCH  24  25
ATOM     25  C   UNL     1      56.689  44.099  21.387  1.00  0.00    -0.000 C 
BRANCH  25  26
ATOM     26  C   UNL     1      56.273  42.716  20.851  1.00  0.00    -0.000 C 
BRANCH  26  27
ATOM     27  C   UNL     1      55.609  41.838  21.936  1.00  0.00    -0.000 C 
BRANCH  27  28
ATOM     28  C   UNL     1      55.511  40.349  21.562  1.00  0.00    -0.000 C 
BRANCH  28  29
ATOM     29  C   UNL     1      55.033  40.126  20.118  1.00  0.00    -0.000 C 
BRANCH  29  30
ATOM     30  C   UNL     1      53.499  40.105  19.985  1.00  0.00    -0.000 C 
BRANCH  30  31
ATOM     31  C   UNL     1      52.755  41.194  20.782  1.00  0.00    -0.003 C 
ATOM     32  C   UNL     1      51.815  42.036  19.919  1.00  0.00     0.004 C 
ENDBRANCH  30  31
ENDBRANCH  29  30
ENDBRANCH  28  29
ENDBRANCH  27  28
ENDBRANCH  26  27
ENDBRANCH  25  26
ENDBRANCH  24  25
ENDBRANCH  23  24
ENDBRANCH  22  23
ENDBRANCH  21  22
ENDBRANCH  20  21
ENDBRANCH  19  20
ENDBRANCH  18  19
ENDBRANCH   1  18
TORSDOF 28
ENDMDL
MODEL 4
REMARK VINA RESULT:    31.545      1.967      3.346
REMARK INTER + INTRA:          81.094
REMARK INTER:                  82.424
REMARK INTRA:                  -1.330
REMARK UNBOUND:                -2.086
REMARK SMILES CCCCCCCCCCCCCCCCCCCCCCCCCCCCCC(=O)[O-]
REMARK SMILES IDX 16 1 17 2 18 3 19 4 20 5 21 6 22 7 23 8 24 9 25 10 26 11
REMARK SMILES IDX 27 12 28 13 29 14 30 15 31 16 32 17 15 18 14 19 13 20 12 21
REMARK SMILES IDX 11 22 10 23 9 24 8 25 7 26 6 27 5 28 4 29 3 30 2 31 1 32
REMARK H PARENT
REMARK Flexibility Score: inf
ROOT
ATOM      1  C   UNL     1      55.093  49.315  16.261  1.00  0.00     0.000 C 
ENDROOT
BRANCH   1   2
ATOM      2  C   UNL     1      54.607  50.630  15.624  1.00  0.00     0.000 C 
BRANCH   2   3
ATOM      3  C   UNL     1      55.008  51.859  16.457  1.00  0.00     0.000 C 
BRANCH   3   4
ATOM      4  C   UNL     1      54.901  51.599  17.970  1.00  0.00     0.000 C 
BRANCH   4   5
ATOM      5  C   UNL     1      55.176  52.857  18.815  1.00  0.00     0.000 C 
BRANCH   5   6
ATOM      6  C   UNL     1      55.416  52.590  20.311  1.00  0.00     0.000 C 
BRANCH   6   7
ATOM      7  C   UNL     1      54.114  52.543  21.129  1.00  0.00     0.000 C 
BRANCH   7   8
ATOM      8  C   UNL     1      53.629  53.945  21.563  1.00  0.00     0.000 C 
BRANCH   8   9
ATOM      9  C   UNL     1      53.911  54.268  23.041  1.00  0.00     0.000 C 
BRANCH   9  10
ATOM     10  C   UNL     1      53.924  55.771  23.375  1.00  0.00     0.000 C 
BRANCH  10  11
ATOM     11  C   UNL     1      55.149  56.206  24.214  1.00  0.00     0.000 C 
BRANCH  11  12
ATOM     12  C   UNL     1      54.926  56.020  25.723  1.00  0.00     0.000 C 
BRANCH  12  13
ATOM     13  C   UNL     1      53.473  55.654  26.077  1.00  0.00     0.006 C 
BRANCH  13  14
ATOM     14  C   UNL     1      53.292  54.209  26.572  1.00  0.00     0.053 C 
BRANCH  14  15
ATOM     15  C   UNL     1      52.774  54.138  27.977  1.00  0.00     0.041 C 
ATOM     16  O   UNL     1      52.809  55.158  28.713  1.00  0.00    -0.550 OA
ATOM     17  O   UNL     1      52.216  52.961  28.458  1.00  0.00    -0.550 OA
ENDBRANCH  14  15
ENDBRANCH  13  14
ENDBRANCH  12  13
ENDBRANCH  11  12
ENDBRANCH  10  11
ENDBRANCH   9  10
ENDBRANCH   8   9
ENDBRANCH   7   8
ENDBRANCH   6   7
ENDBRANCH   5   6
ENDBRANCH   4   5
ENDBRANCH   3   4
ENDBRANCH   2   3
ENDBRANCH   1   2
BRANCH   1  18
ATOM     18  C   UNL     1      56.539  49.399  16.774  1.00  0.00     0.000 C 
BRANCH  18  19
ATOM     19  C   UNL     1      57.155  48.015  17.044  1.00  0.00     0.000 C 
BRANCH  19  20
ATOM     20  C   UNL     1      57.212  47.663  18.542  1.00  0.00     0.000 C 
BRANCH  20  21
ATOM     21  C   UNL     1      55.939  47.991  19.347  1.00  0.00     0.000 C 
BRANCH  21  22
ATOM     22  C   UNL     1      55.999  47.491  20.798  1.00  0.00     0.000 C 
BRANCH  22  23
ATOM     23  C   UNL     1      57.288  47.954  21.488  1.00  0.00     0.000 C 
BRANCH  23  24
ATOM     24  C   UNL     1      57.810  46.879  22.452  1.00  0.00    -0.000 C 
BRANCH  24  25
ATOM     25  C   UNL     1      56.711  45.914  22.924  1.00  0.00    -0.000 C 
BRANCH  25  26
ATOM     26  C   UNL     1      57.088  44.434  22.717  1.00  0.00    -0.000 C 
BRANCH  26  27
ATOM     27  C   UNL     1      57.107  44.035  21.225  1.00  0.00    -0.000 C 
BRANCH  27  28
ATOM     28  C   UNL     1      55.726  44.078  20.549  1.00  0.00    -0.000 C 
BRANCH  28  29
ATOM     29  C   UNL     1      55.083  42.688  20.411  1.00  0.00    -0.000 C 
BRANCH  29  30
ATOM     30  C   UNL     1      55.959  41.558  20.981  1.00  0.00    -0.000 C 
BRANCH  30  31
ATOM     31  C   UNL     1      55.309  40.162  20.989  1.00  0.00    -0.003 C 
ATOM     32  C   UNL     1      56.324  39.023  21.093  1.00  0.00     0.004 C 
ENDBRANCH  30  31
ENDBRANCH  29  30
ENDBRANCH  28  29
ENDBRANCH  27  28
ENDBRANCH  26  27
ENDBRANCH  25  26
ENDBRANCH  24  25
ENDBRANCH  23  24
ENDBRANCH  22  23
ENDBRANCH  21  22
ENDBRANCH  20  21
ENDBRANCH  19  20
ENDBRANCH  18  19
ENDBRANCH   1  18
TORSDOF 28
ENDMDL
MODEL 5
REMARK VINA RESULT:    31.668      4.098     11.544
REMARK INTER + INTRA:          81.419
REMARK INTER:                  83.171
REMARK INTRA:                  -1.752
REMARK UNBOUND:                -2.086
REMARK SMILES CCCCCCCCCCCCCCCCCCCCCCCCCCCCCC(=O)[O-]
REMARK SMILES IDX 16 1 17 2 18 3 19 4 20 5 21 6 22 7 23 8 24 9 25 10 26 11
REMARK SMILES IDX 27 12 28 13 29 14 30 15 31 16 32 17 15 18 14 19 13 20 12 21
REMARK SMILES IDX 11 22 10 23 9 24 8 25 7 26 6 27 5 28 4 29 3 30 2 31 1 32
REMARK H PARENT
REMARK Flexibility Score: inf
ROOT
ATOM      1  C   UNL     1      55.786  48.034  19.154  1.00  0.00     0.000 C 
ENDROOT
BRANCH   1   2
ATOM      2  C   UNL     1      56.025  47.792  20.655  1.00  0.00     0.000 C 
BRANCH   2   3
ATOM      3  C   UNL     1      57.373  48.363  21.126  1.00  0.00     0.000 C 
BRANCH   3   4
ATOM      4  C   UNL     1      57.611  48.132  22.630  1.00  0.00     0.000 C 
BRANCH   4   5
ATOM      5  C   UNL     1      56.870  46.895  23.171  1.00  0.00     0.000 C 
BRANCH   5   6
ATOM      6  C   UNL     1      57.413  45.546  22.669  1.00  0.00     0.000 C 
BRANCH   6   7
ATOM      7  C   UNL     1      56.342  44.692  21.970  1.00  0.00     0.000 C 
BRANCH   7   8
ATOM      8  C   UNL     1      56.616  44.506  20.459  1.00  0.00     0.000 C 
BRANCH   8   9
ATOM      9  C   UNL     1      55.339  44.462  19.599  1.00  0.00     0.000 C 
BRANCH   9  10
ATOM     10  C   UNL     1      54.649  43.087  19.551  1.00  0.00     0.000 C 
BRANCH  10  11
ATOM     11  C   UNL     1      53.105  43.171  19.575  1.00  0.00     0.000 C 
BRANCH  11  12
ATOM     12  C   UNL     1      52.438  41.790  19.466  1.00  0.00     0.000 C 
BRANCH  12  13
ATOM     13  C   UNL     1      52.877  40.820  20.579  1.00  0.00     0.006 C 
BRANCH  13  14
ATOM     14  C   UNL     1      54.033  39.887  20.178  1.00  0.00     0.053 C 
BRANCH  14  15
ATOM     15  C   UNL     1      55.267  40.109  20.998  1.00  0.00     0.041 C 
ATOM     16  O   UNL     1      56.349  39.555  20.672  1.00  0.00    -0.550 OA
ATOM     17  O   UNL     1      55.234  40.959  22.096  1.00  0.00    -0.550 OA
ENDBRANCH  14  15
ENDBRANCH  13  14
ENDBRANCH  12  13
ENDBRANCH  11  12
ENDBRANCH  10  11
ENDBRANCH   9  10
ENDBRANCH   8   9
ENDBRANCH   7   8
ENDBRANCH   6   7
ENDBRANCH   5   6
ENDBRANCH   4   5
ENDBRANCH   3   4
ENDBRANCH   2   3
ENDBRANCH   1   2
BRANCH   1  18
ATOM     18  C   UNL     1      57.084  48.005  18.331  1.00  0.00     0.000 C 
BRANCH  18  19
ATOM     19  C   UNL     1      56.834  48.168  16.821  1.00  0.00     0.000 C 
BRANCH  19  20
ATOM     20  C   UNL     1      56.611  49.633  16.402  1.00  0.00     0.000 C 
BRANCH  20  21
ATOM     21  C   UNL     1      55.158  50.005  16.048  1.00  0.00     0.000 C 
BRANCH  21  22
ATOM     22  C   UNL     1      54.684  51.295  16.735  1.00  0.00     0.000 C 
BRANCH  22  23
ATOM     23  C   UNL     1      55.758  51.842  17.683  1.00  0.00     0.000 C 
BRANCH  23  24
ATOM     24  C   UNL     1      55.157  52.861  18.662  1.00  0.00    -0.000 C 
BRANCH  24  25
ATOM     25  C   UNL     1      55.041  52.317  20.095  1.00  0.00    -0.000 C 
BRANCH  25  26
ATOM     26  C   UNL     1      54.889  53.434  21.146  1.00  0.00    -0.000 C 
BRANCH  26  27
ATOM     27  C   UNL     1      53.498  53.428  21.816  1.00  0.00    -0.000 C 
BRANCH  27  28
ATOM     28  C   UNL     1      53.186  54.701  22.621  1.00  0.00    -0.000 C 
BRANCH  28  29
ATOM     29  C   UNL     1      54.058  54.842  23.880  1.00  0.00    -0.000 C 
BRANCH  29  30
ATOM     30  C   UNL     1      54.487  56.294  24.158  1.00  0.00    -0.000 C 
BRANCH  30  31
ATOM     31  C   UNL     1      55.473  56.476  25.328  1.00  0.00    -0.003 C 
ATOM     32  C   UNL     1      56.862  55.904  25.042  1.00  0.00     0.004 C 
ENDBRANCH  30  31
ENDBRANCH  29  30
ENDBRANCH  28  29
ENDBRANCH  27  28
ENDBRANCH  26  27
ENDBRANCH  25  26
ENDBRANCH  24  25
ENDBRANCH  23  24
ENDBRANCH  22  23
ENDBRANCH  21  22
ENDBRANCH  20  21
ENDBRANCH  19  20
ENDBRANCH  18  19
ENDBRANCH   1  18
TORSDOF 28
ENDMDL
MODEL 6
REMARK VINA RESULT:    31.849      2.512      4.474
REMARK INTER + INTRA:          81.896
REMARK INTER:                  79.821
REMARK INTRA:                   2.075
REMARK UNBOUND:                -2.086
REMARK SMILES CCCCCCCCCCCCCCCCCCCCCCCCCCCCCC(=O)[O-]
REMARK SMILES IDX 16 1 17 2 18 3 19 4 20 5 21 6 22 7 23 8 24 9 25 10 26 11
REMARK SMILES IDX 27 12 28 13 29 14 30 15 31 16 32 17 15 18 14 19 13 20 12 21
REMARK SMILES IDX 11 22 10 23 9 24 8 25 7 26 6 27 5 28 4 29 3 30 2 31 1 32
REMARK H PARENT
REMARK Flexibility Score: inf
ROOT
ATOM      1  C   UNL     1      54.882  50.770  20.154  1.00  0.00     0.000 C 
ENDROOT
BRANCH   1   2
ATOM      2  C   UNL     1      54.727  52.006  21.060  1.00  0.00     0.000 C 
BRANCH   2   3
ATOM      3  C   UNL     1      53.280  52.187  21.550  1.00  0.00     0.000 C 
BRANCH   3   4
ATOM      4  C   UNL     1      53.191  53.117  22.773  1.00  0.00     0.000 C 
BRANCH   4   5
ATOM      5  C   UNL     1      53.746  54.527  22.495  1.00  0.00     0.000 C 
BRANCH   5   6
ATOM      6  C   UNL     1      53.203  55.629  23.421  1.00  0.00     0.000 C 
BRANCH   6   7
ATOM      7  C   UNL     1      54.234  56.735  23.704  1.00  0.00     0.000 C 
BRANCH   7   8
ATOM      8  C   UNL     1      55.674  56.324  23.319  1.00  0.00     0.000 C 
BRANCH   8   9
ATOM      9  C   UNL     1      56.653  56.309  24.507  1.00  0.00     0.000 C 
BRANCH   9  10
ATOM     10  C   UNL     1      56.013  55.936  25.857  1.00  0.00     0.000 C 
BRANCH  10  11
ATOM     11  C   UNL     1      54.531  56.363  25.976  1.00  0.00     0.000 C 
BRANCH  11  12
ATOM     12  C   UNL     1      53.633  55.233  26.504  1.00  0.00     0.000 C 
BRANCH  12  13
ATOM     13  C   UNL     1      52.813  55.644  27.742  1.00  0.00     0.006 C 
BRANCH  13  14
ATOM     14  C   UNL     1      51.547  54.799  27.963  1.00  0.00     0.053 C 
BRANCH  14  15
ATOM     15  C   UNL     1      51.856  53.375  28.314  1.00  0.00     0.041 C 
ATOM     16  O   UNL     1      51.014  52.685  28.948  1.00  0.00    -0.550 OA
ATOM     17  O   UNL     1      53.051  52.797  27.908  1.00  0.00    -0.550 OA
ENDBRANCH  14  15
ENDBRANCH  13  14
ENDBRANCH  12  13
ENDBRANCH  11  12
ENDBRANCH  10  11
ENDBRANCH   9  10
ENDBRANCH   8   9
ENDBRANCH   7   8
ENDBRANCH   6   7
ENDBRANCH   5   6
ENDBRANCH   4   5
ENDBRANCH   3   4
ENDBRANCH   2   3
ENDBRANCH   1   2
BRANCH   1  18
ATOM     18  C   UNL     1      55.694  49.645  20.813  1.00  0.00     0.000 C 
BRANCH  18  19
ATOM     19  C   UNL     1      55.593  48.313  20.049  1.00  0.00     0.000 C 
BRANCH  19  20
ATOM     20  C   UNL     1      56.446  47.193  20.675  1.00  0.00     0.000 C 
BRANCH  20  21
ATOM     21  C   UNL     1      57.002  47.494  22.081  1.00  0.00     0.000 C 
BRANCH  21  22
ATOM     22  C   UNL     1      56.708  46.378  23.094  1.00  0.00     0.000 C 
BRANCH  22  23
ATOM     23  C   UNL     1      57.519  45.116  22.776  1.00  0.00     0.000 C 
BRANCH  23  24
ATOM     24  C   UNL     1      56.613  44.010  22.215  1.00  0.00    -0.000 C 
BRANCH  24  25
ATOM     25  C   UNL     1      56.723  43.863  20.689  1.00  0.00    -0.000 C 
BRANCH  25  26
ATOM     26  C   UNL     1      55.351  43.871  19.989  1.00  0.00    -0.000 C 
BRANCH  26  27
ATOM     27  C   UNL     1      54.625  42.511  20.099  1.00  0.00    -0.000 C 
BRANCH  27  28
ATOM     28  C   UNL     1      55.138  41.620  21.244  1.00  0.00    -0.000 C 
BRANCH  28  29
ATOM     29  C   UNL     1      54.661  40.163  21.127  1.00  0.00    -0.000 C 
BRANCH  29  30
ATOM     30  C   UNL     1      55.601  39.163  21.824  1.00  0.00    -0.000 C 
BRANCH  30  31
ATOM     31  C   UNL     1      56.704  38.565  20.930  1.00  0.00    -0.003 C 
ATOM     32  C   UNL     1      57.768  39.584  20.521  1.00  0.00     0.004 C 
ENDBRANCH  30  31
ENDBRANCH  29  30
ENDBRANCH  28  29
ENDBRANCH  27  28
ENDBRANCH  26  27
ENDBRANCH  25  26
ENDBRANCH  24  25
ENDBRANCH  23  24
ENDBRANCH  22  23
ENDBRANCH  21  22
ENDBRANCH  20  21
ENDBRANCH  19  20
ENDBRANCH  18  19
ENDBRANCH   1  18
TORSDOF 28
ENDMDL
MODEL 7
REMARK VINA RESULT:    31.956      4.173     11.506
REMARK INTER + INTRA:          82.180
REMARK INTER:                  83.222
REMARK INTRA:                  -1.042
REMARK UNBOUND:                -2.086
REMARK SMILES CCCCCCCCCCCCCCCCCCCCCCCCCCCCCC(=O)[O-]
REMARK SMILES IDX 16 1 17 2 18 3 19 4 20 5 21 6 22 7 23 8 24 9 25 10 26 11
REMARK SMILES IDX 27 12 28 13 29 14 30 15 31 16 32 17 15 18 14 19 13 20 12 21
REMARK SMILES IDX 11 22 10 23 9 24 8 25 7 26 6 27 5 28 4 29 3 30 2 31 1 32
REMARK H PARENT
REMARK Flexibility Score: inf
ROOT
ATOM      1  C   UNL     1      56.529  48.848  16.763  1.00  0.00     0.000 C 
ENDROOT
BRANCH   1   2
ATOM      2  C   UNL     1      57.130  48.042  17.929  1.00  0.00     0.000 C 
BRANCH   2   3
ATOM      3  C   UNL     1      56.090  47.742  19.022  1.00  0.00     0.000 C 
BRANCH   3   4
ATOM      4  C   UNL     1      56.745  47.403  20.373  1.00  0.00     0.000 C 
BRANCH   4   5
ATOM      5  C   UNL     1      56.467  48.461  21.456  1.00  0.00     0.000 C 
BRANCH   5   6
ATOM      6  C   UNL     1      57.144  48.192  22.812  1.00  0.00     0.000 C 
BRANCH   6   7
ATOM      7  C   UNL     1      56.769  46.824  23.407  1.00  0.00     0.000 C 
BRANCH   7   8
ATOM      8  C   UNL     1      57.684  45.682  22.906  1.00  0.00     0.000 C 
BRANCH   8   9
ATOM      9  C   UNL     1      56.922  44.400  22.523  1.00  0.00     0.000 C 
BRANCH   9  10
ATOM     10  C   UNL     1      56.539  44.305  21.035  1.00  0.00     0.000 C 
BRANCH  10  11
ATOM     11  C   UNL     1      56.627  42.870  20.466  1.00  0.00     0.000 C 
BRANCH  11  12
ATOM     12  C   UNL     1      55.392  42.022  20.811  1.00  0.00     0.000 C 
BRANCH  12  13
ATOM     13  C   UNL     1      55.680  40.509  20.807  1.00  0.00     0.006 C 
BRANCH  13  14
ATOM     14  C   UNL     1      54.418  39.631  20.742  1.00  0.00     0.053 C 
BRANCH  14  15
ATOM     15  C   UNL     1      53.164  40.432  20.561  1.00  0.00     0.041 C 
ATOM     16  O   UNL     1      52.650  41.028  21.543  1.00  0.00    -0.550 OA
ATOM     17  O   UNL     1      52.588  40.556  19.303  1.00  0.00    -0.550 OA
ENDBRANCH  14  15
ENDBRANCH  13  14
ENDBRANCH  12  13
ENDBRANCH  11  12
ENDBRANCH  10  11
ENDBRANCH   9  10
ENDBRANCH   8   9
ENDBRANCH   7   8
ENDBRANCH   6   7
ENDBRANCH   5   6
ENDBRANCH   4   5
ENDBRANCH   3   4
ENDBRANCH   2   3
ENDBRANCH   1   2
BRANCH   1  18
ATOM     18  C   UNL     1      55.061  49.235  16.998  1.00  0.00     0.000 C 
BRANCH  18  19
ATOM     19  C   UNL     1      54.631  50.465  16.180  1.00  0.00     0.000 C 
BRANCH  19  20
ATOM     20  C   UNL     1      55.822  51.333  15.728  1.00  0.00     0.000 C 
BRANCH  20  21
ATOM     21  C   UNL     1      56.395  52.277  16.803  1.00  0.00     0.000 C 
BRANCH  21  22
ATOM     22  C   UNL     1      55.558  52.301  18.091  1.00  0.00     0.000 C 
BRANCH  22  23
ATOM     23  C   UNL     1      56.307  53.015  19.223  1.00  0.00     0.000 C 
BRANCH  23  24
ATOM     24  C   UNL     1      55.680  52.689  20.586  1.00  0.00    -0.000 C 
BRANCH  24  25
ATOM     25  C   UNL     1      54.143  52.665  20.547  1.00  0.00    -0.000 C 
BRANCH  25  26
ATOM     26  C   UNL     1      53.507  53.029  21.902  1.00  0.00    -0.000 C 
BRANCH  26  27
ATOM     27  C   UNL     1      53.658  54.529  22.240  1.00  0.00    -0.000 C 
BRANCH  27  28
ATOM     28  C   UNL     1      53.155  54.907  23.644  1.00  0.00    -0.000 C 
BRANCH  28  29
ATOM     29  C   UNL     1      54.270  55.449  24.553  1.00  0.00    -0.000 C 
BRANCH  29  30
ATOM     30  C   UNL     1      55.153  56.504  23.862  1.00  0.00    -0.000 C 
BRANCH  30  31
ATOM     31  C   UNL     1      56.524  56.748  24.522  1.00  0.00    -0.003 C 
ATOM     32  C   UNL     1      56.839  55.759  25.644  1.00  0.00     0.004 C 
ENDBRANCH  30  31
ENDBRANCH  29  30
ENDBRANCH  28  29
ENDBRANCH  27  28
ENDBRANCH  26  27
ENDBRANCH  25  26
ENDBRANCH  24  25
ENDBRANCH  23  24
ENDBRANCH  22  23
ENDBRANCH  21  22
ENDBRANCH  20  21
ENDBRANCH  19  20
ENDBRANCH  18  19
ENDBRANCH   1  18
TORSDOF 28
ENDMDL
MODEL 8
REMARK VINA RESULT:    32.031      4.592     11.847
REMARK INTER + INTRA:          82.376
REMARK INTER:                  82.222
REMARK INTRA:                   0.154
REMARK UNBOUND:                -2.086
REMARK SMILES CCCCCCCCCCCCCCCCCCCCCCCCCCCCCC(=O)[O-]
REMARK SMILES IDX 16 1 17 2 18 3 19 4 20 5 21 6 22 7 23 8 24 9 25 10 26 11
REMARK SMILES IDX 27 12 28 13 29 14 30 15 31 16 32 17 15 18 14 19 13 20 12 21
REMARK SMILES IDX 11 22 10 23 9 24 8 25 7 26 6 27 5 28 4 29 3 30 2 31 1 32
REMARK H PARENT
REMARK Flexibility Score: inf
ROOT
ATOM      1  C   UNL     1      57.173  47.531  18.833  1.00  0.00     0.000 C 
ENDROOT
BRANCH   1   2
ATOM      2  C   UNL     1      55.904  47.561  19.706  1.00  0.00     0.000 C 
BRANCH   2   3
ATOM      3  C   UNL     1      56.057  48.495  20.918  1.00  0.00     0.000 C 
BRANCH   3   4
ATOM      4  C   UNL     1      57.530  48.703  21.312  1.00  0.00     0.000 C 
BRANCH   4   5
ATOM      5  C   UNL     1      57.937  47.892  22.557  1.00  0.00     0.000 C 
BRANCH   5   6
ATOM      6  C   UNL     1      56.769  47.480  23.470  1.00  0.00     0.000 C 
BRANCH   6   7
ATOM      7  C   UNL     1      56.345  46.014  23.275  1.00  0.00     0.000 C 
BRANCH   7   8
ATOM      8  C   UNL     1      57.126  45.311  22.141  1.00  0.00     0.000 C 
BRANCH   8   9
ATOM      9  C   UNL     1      56.808  43.810  22.008  1.00  0.00     0.000 C 
BRANCH   9  10
ATOM     10  C   UNL     1      56.464  43.354  20.579  1.00  0.00     0.000 C 
BRANCH  10  11
ATOM     11  C   UNL     1      56.281  41.824  20.447  1.00  0.00     0.000 C 
BRANCH  11  12
ATOM     12  C   UNL     1      54.918  41.346  20.975  1.00  0.00     0.000 C 
BRANCH  12  13
ATOM     13  C   UNL     1      54.845  39.818  21.157  1.00  0.00     0.006 C 
BRANCH  13  14
ATOM     14  C   UNL     1      55.975  39.236  22.024  1.00  0.00     0.053 C 
BRANCH  14  15
ATOM     15  C   UNL     1      56.966  38.443  21.228  1.00  0.00     0.041 C 
ATOM     16  O   UNL     1      57.848  39.033  20.551  1.00  0.00    -0.550 OA
ATOM     17  O   UNL     1      56.942  37.055  21.264  1.00  0.00    -0.550 OA
ENDBRANCH  14  15
ENDBRANCH  13  14
ENDBRANCH  12  13
ENDBRANCH  11  12
ENDBRANCH  10  11
ENDBRANCH   9  10
ENDBRANCH   8   9
ENDBRANCH   7   8
ENDBRANCH   6   7
ENDBRANCH   5   6
ENDBRANCH   4   5
ENDBRANCH   3   4
ENDBRANCH   2   3
ENDBRANCH   1   2
BRANCH   1  18
ATOM     18  C   UNL     1      56.998  48.274  17.500  1.00  0.00     0.000 C 
BRANCH  18  19
ATOM     19  C   UNL     1      55.691  49.085  17.438  1.00  0.00     0.000 C 
BRANCH  19  20
ATOM     20  C   UNL     1      55.075  49.126  16.027  1.00  0.00     0.000 C 
BRANCH  20  21
ATOM     21  C   UNL     1      54.888  50.535  15.429  1.00  0.00     0.000 C 
BRANCH  21  22
ATOM     22  C   UNL     1      54.765  51.630  16.498  1.00  0.00     0.000 C 
BRANCH  22  23
ATOM     23  C   UNL     1      55.089  51.079  17.892  1.00  0.00     0.000 C 
BRANCH  23  24
ATOM     24  C   UNL     1      55.478  52.213  18.852  1.00  0.00    -0.000 C 
BRANCH  24  25
ATOM     25  C   UNL     1      54.975  51.981  20.287  1.00  0.00    -0.000 C 
BRANCH  25  26
ATOM     26  C   UNL     1      55.300  53.156  21.229  1.00  0.00    -0.000 C 
BRANCH  26  27
ATOM     27  C   UNL     1      54.039  53.947  21.641  1.00  0.00    -0.000 C 
BRANCH  27  28
ATOM     28  C   UNL     1      53.877  54.119  23.161  1.00  0.00    -0.000 C 
BRANCH  28  29
ATOM     29  C   UNL     1      53.232  55.460  23.546  1.00  0.00    -0.000 C 
BRANCH  29  30
ATOM     30  C   UNL     1      54.221  56.440  24.201  1.00  0.00    -0.000 C 
BRANCH  30  31
ATOM     31  C   UNL     1      55.710  56.157  23.923  1.00  0.00    -0.003 C 
ATOM     32  C   UNL     1      56.514  55.853  25.187  1.00  0.00     0.004 C 
ENDBRANCH  30  31
ENDBRANCH  29  30
ENDBRANCH  28  29
ENDBRANCH  27  28
ENDBRANCH  26  27
ENDBRANCH  25  26
ENDBRANCH  24  25
ENDBRANCH  23  24
ENDBRANCH  22  23
ENDBRANCH  21  22
ENDBRANCH  20  21
ENDBRANCH  19  20
ENDBRANCH  18  19
ENDBRANCH   1  18
TORSDOF 28
ENDMDL
MODEL 9
REMARK VINA RESULT:    32.519      2.946      4.874
REMARK INTER + INTRA:          83.664
REMARK INTER:                  85.595
REMARK INTRA:                  -1.931
REMARK UNBOUND:                -2.086
REMARK SMILES CCCCCCCCCCCCCCCCCCCCCCCCCCCCCC(=O)[O-]
REMARK SMILES IDX 16 1 17 2 18 3 19 4 20 5 21 6 22 7 23 8 24 9 25 10 26 11
REMARK SMILES IDX 27 12 28 13 29 14 30 15 31 16 32 17 15 18 14 19 13 20 12 21
REMARK SMILES IDX 11 22 10 23 9 24 8 25 7 26 6 27 5 28 4 29 3 30 2 31 1 32
REMARK H PARENT
REMARK Flexibility Score: inf
ROOT
ATOM      1  C   UNL     1      54.281  50.998  16.798  1.00  0.00     0.000 C 
ENDROOT
BRANCH   1   2
ATOM      2  C   UNL     1      55.035  52.122  17.533  1.00  0.00     0.000 C 
BRANCH   2   3
ATOM      3  C   UNL     1      55.124  51.865  19.047  1.00  0.00     0.000 C 
BRANCH   3   4
ATOM      4  C   UNL     1      54.816  53.128  19.871  1.00  0.00     0.000 C 
BRANCH   4   5
ATOM      5  C   UNL     1      55.265  53.009  21.340  1.00  0.00     0.000 C 
BRANCH   5   6
ATOM      6  C   UNL     1      54.896  54.209  22.228  1.00  0.00     0.000 C 
BRANCH   6   7
ATOM      7  C   UNL     1      56.109  54.811  22.957  1.00  0.00     0.000 C 
BRANCH   7   8
ATOM      8  C   UNL     1      55.744  56.053  23.803  1.00  0.00     0.000 C 
BRANCH   8   9
ATOM      9  C   UNL     1      54.229  56.243  24.002  1.00  0.00     0.000 C 
BRANCH   9  10
ATOM     10  C   UNL     1      53.831  56.787  25.386  1.00  0.00     0.000 C 
BRANCH  10  11
ATOM     11  C   UNL     1      52.605  56.072  26.001  1.00  0.00     0.000 C 
BRANCH  11  12
ATOM     12  C   UNL     1      52.725  55.900  27.524  1.00  0.00     0.000 C 
BRANCH  12  13
ATOM     13  C   UNL     1      51.663  54.950  28.109  1.00  0.00     0.006 C 
BRANCH  13  14
ATOM     14  C   UNL     1      52.136  53.493  28.252  1.00  0.00     0.053 C 
BRANCH  14  15
ATOM     15  C   UNL     1      51.097  52.606  28.869  1.00  0.00     0.041 C 
ATOM     16  O   UNL     1      50.822  51.496  28.342  1.00  0.00    -0.550 OA
ATOM     17  O   UNL     1      50.464  52.983  30.046  1.00  0.00    -0.550 OA
ENDBRANCH  14  15
ENDBRANCH  13  14
ENDBRANCH  12  13
ENDBRANCH  11  12
ENDBRANCH  10  11
ENDBRANCH   9  10
ENDBRANCH   8   9
ENDBRANCH   7   8
ENDBRANCH   6   7
ENDBRANCH   5   6
ENDBRANCH   4   5
ENDBRANCH   3   4
ENDBRANCH   2   3
ENDBRANCH   1   2
BRANCH   1  18
ATOM     18  C   UNL     1      55.053  50.455  15.585  1.00  0.00     0.000 C 
BRANCH  18  19
ATOM     19  C   UNL     1      55.634  49.052  15.830  1.00  0.00     0.000 C 
BRANCH  19  20
ATOM     20  C   UNL     1      56.849  49.060  16.778  1.00  0.00     0.000 C 
BRANCH  20  21
ATOM     21  C   UNL     1      57.162  47.714  17.461  1.00  0.00     0.000 C 
BRANCH  21  22
ATOM     22  C   UNL     1      57.344  47.840  18.981  1.00  0.00     0.000 C 
BRANCH  22  23
ATOM     23  C   UNL     1      55.988  47.905  19.695  1.00  0.00     0.000 C 
BRANCH  23  24
ATOM     24  C   UNL     1      56.173  47.954  21.219  1.00  0.00    -0.000 C 
BRANCH  24  25
ATOM     25  C   UNL     1      57.268  46.998  21.719  1.00  0.00    -0.000 C 
BRANCH  25  26
ATOM     26  C   UNL     1      56.715  45.616  22.118  1.00  0.00    -0.000 C 
BRANCH  26  27
ATOM     27  C   UNL     1      56.852  44.577  20.983  1.00  0.00    -0.000 C 
BRANCH  27  28
ATOM     28  C   UNL     1      55.588  44.422  20.120  1.00  0.00    -0.000 C 
BRANCH  28  29
ATOM     29  C   UNL     1      54.914  43.050  20.286  1.00  0.00    -0.000 C 
BRANCH  29  30
ATOM     30  C   UNL     1      55.742  42.069  21.136  1.00  0.00    -0.000 C 
BRANCH  30  31
ATOM     31  C   UNL     1      55.133  40.664  21.300  1.00  0.00    -0.003 C 
ATOM     32  C   UNL     1      54.057  40.348  20.261  1.00  0.00     0.004 C 
ENDBRANCH  30  31
ENDBRANCH  29  30
ENDBRANCH  28  29
ENDBRANCH  27  28
ENDBRANCH  26  27
ENDBRANCH  25  26
ENDBRANCH  24  25
ENDBRANCH  23  24
ENDBRANCH  22  23
ENDBRANCH  21  22
ENDBRANCH  20  21
ENDBRANCH  19  20
ENDBRANCH  18  19
ENDBRANCH   1  18
TORSDOF 28
ENDMDL
