MODEL 1
REMARK VINA RESULT:    -4.944      0.000      0.000
REMARK INTER + INTRA:          -8.269
REMARK INTER:                  -7.545
REMARK INTRA:                  -0.724
REMARK UNBOUND:                -0.724
REMARK SMILES CCCCCCCCCCC(=O)[O-]
REMARK SMILES IDX 7 1 8 2 9 3 10 4 11 5 12 6 13 7 6 8 5 9 4 10 3 11 2 12 1 13
REMARK H PARENT
REMARK Flexibility Score: inf
ROOT
ATOM      1  C   UNL     1     -10.641 -15.863  27.431  1.00  0.00     0.000 C 
ENDROOT
BRANCH   1   2
ATOM      2  C   UNL     1     -10.461 -14.926  26.225  1.00  0.00     0.000 C 
BRANCH   2   3
ATOM      3  C   UNL     1      -9.069 -14.272  26.186  1.00  0.00     0.006 C 
BRANCH   3   4
ATOM      4  C   UNL     1      -7.958 -15.252  26.589  1.00  0.00     0.053 C 
BRANCH   4   5
ATOM      5  C   UNL     1      -7.016 -14.648  27.584  1.00  0.00     0.041 C 
ATOM      6  O   UNL     1      -7.440 -14.258  28.704  1.00  0.00    -0.550 OA
ATOM      7  O   UNL     1      -5.674 -14.488  27.264  1.00  0.00    -0.550 OA
ENDBRANCH   4   5
ENDBRANCH   3   4
ENDBRANCH   2   3
ENDBRANCH   1   2
BRANCH   1   8
ATOM      8  C   UNL     1     -11.961 -16.646  27.381  1.00  0.00     0.000 C 
BRANCH   8   9
ATOM      9  C   UNL     1     -12.846 -16.304  28.586  1.00  0.00    -0.000 C 
BRANCH   9  10
ATOM     10  C   UNL     1     -12.164 -16.698  29.902  1.00  0.00    -0.000 C 
BRANCH  10  11
ATOM     11  C   UNL     1     -11.920 -18.214  29.962  1.00  0.00    -0.000 C 
BRANCH  11  12
ATOM     12  C   UNL     1     -10.444 -18.565  30.208  1.00  0.00    -0.003 C 
ATOM     13  C   UNL     1      -9.638 -17.384  30.749  1.00  0.00     0.004 C 
ENDBRANCH  11  12
ENDBRANCH  10  11
ENDBRANCH   9  10
ENDBRANCH   8   9
ENDBRANCH   1   8
TORSDOF 9
ENDMDL
MODEL 2
REMARK VINA RESULT:    -4.941      1.407      2.178
REMARK INTER + INTRA:          -8.265
REMARK INTER:                  -7.364
REMARK INTRA:                  -0.901
REMARK UNBOUND:                -0.724
REMARK SMILES CCCCCCCCCCC(=O)[O-]
REMARK SMILES IDX 7 1 8 2 9 3 10 4 11 5 12 6 13 7 6 8 5 9 4 10 3 11 2 12 1 13
REMARK H PARENT
REMARK Flexibility Score: inf
ROOT
ATOM      1  C   UNL     1     -13.100 -16.183  27.684  1.00  0.00     0.000 C 
ENDROOT
BRANCH   1   2
ATOM      2  C   UNL     1     -11.675 -16.660  27.358  1.00  0.00     0.000 C 
BRANCH   2   3
ATOM      3  C   UNL     1     -10.821 -15.564  26.697  1.00  0.00     0.006 C 
BRANCH   3   4
ATOM      4  C   UNL     1      -9.414 -15.482  27.305  1.00  0.00     0.053 C 
BRANCH   4   5
ATOM      5  C   UNL     1      -8.537 -14.531  26.550  1.00  0.00     0.041 C 
ATOM      6  O   UNL     1      -7.284 -14.658  26.586  1.00  0.00    -0.550 OA
ATOM      7  O   UNL     1      -9.101 -13.485  25.830  1.00  0.00    -0.550 OA
ENDBRANCH   4   5
ENDBRANCH   3   4
ENDBRANCH   2   3
ENDBRANCH   1   2
BRANCH   1   8
ATOM      8  C   UNL     1     -13.480 -16.415  29.154  1.00  0.00     0.000 C 
BRANCH   8   9
ATOM      9  C   UNL     1     -13.082 -17.825  29.608  1.00  0.00    -0.000 C 
BRANCH   9  10
ATOM     10  C   UNL     1     -12.473 -17.800  31.015  1.00  0.00    -0.000 C 
BRANCH  10  11
ATOM     11  C   UNL     1     -11.342 -16.765  31.106  1.00  0.00    -0.000 C 
BRANCH  11  12
ATOM     12  C   UNL     1     -10.001 -17.310  30.587  1.00  0.00    -0.003 C 
ATOM     13  C   UNL     1      -9.788 -18.784  30.933  1.00  0.00     0.004 C 
ENDBRANCH  11  12
ENDBRANCH  10  11
ENDBRANCH   9  10
ENDBRANCH   8   9
ENDBRANCH   1   8
TORSDOF 9
ENDMDL
MODEL 3
REMARK VINA RESULT:    -4.854      2.573      5.326
REMARK INTER + INTRA:          -8.132
REMARK INTER:                  -7.566
REMARK INTRA:                  -0.565
REMARK UNBOUND:                -0.724
REMARK SMILES CCCCCCCCCCC(=O)[O-]
REMARK SMILES IDX 7 1 8 2 9 3 10 4 11 5 12 6 13 7 6 8 5 9 4 10 3 11 2 12 1 13
REMARK H PARENT
REMARK Flexibility Score: inf
ROOT
ATOM      1  C   UNL     1     -10.715 -16.049  27.582  1.00  0.00     0.000 C 
ENDROOT
BRANCH   1   2
ATOM      2  C   UNL     1     -12.070 -16.693  27.919  1.00  0.00     0.000 C 
BRANCH   2   3
ATOM      3  C   UNL     1     -12.493 -16.450  29.378  1.00  0.00     0.006 C 
BRANCH   3   4
ATOM      4  C   UNL     1     -11.322 -16.612  30.355  1.00  0.00     0.053 C 
BRANCH   4   5
ATOM      5  C   UNL     1     -11.097 -18.047  30.721  1.00  0.00     0.041 C 
ATOM      6  O   UNL     1     -10.104 -18.672  30.264  1.00  0.00    -0.550 OA
ATOM      7  O   UNL     1     -12.002 -18.705  31.546  1.00  0.00    -0.550 OA
ENDBRANCH   4   5
ENDBRANCH   3   4
ENDBRANCH   2   3
ENDBRANCH   1   2
BRANCH   1   8
ATOM      8  C   UNL     1     -10.758 -15.218  26.291  1.00  0.00     0.000 C 
BRANCH   8   9
ATOM      9  C   UNL     1      -9.416 -14.516  26.046  1.00  0.00    -0.000 C 
BRANCH   9  10
ATOM     10  C   UNL     1      -8.367 -14.957  27.074  1.00  0.00    -0.000 C 
BRANCH  10  11
ATOM     11  C   UNL     1      -6.968 -14.466  26.675  1.00  0.00    -0.000 C 
BRANCH  11  12
ATOM     12  C   UNL     1      -5.992 -14.439  27.862  1.00  0.00    -0.003 C 
ATOM     13  C   UNL     1      -6.706 -14.434  29.214  1.00  0.00     0.004 C 
ENDBRANCH  11  12
ENDBRANCH  10  11
ENDBRANCH   9  10
ENDBRANCH   8   9
ENDBRANCH   1   8
TORSDOF 9
ENDMDL
MODEL 4
REMARK VINA RESULT:    -4.786      2.736      5.408
REMARK INTER + INTRA:          -8.028
REMARK INTER:                  -7.508
REMARK INTRA:                  -0.520
REMARK UNBOUND:                -0.724
REMARK SMILES CCCCCCCCCCC(=O)[O-]
REMARK SMILES IDX 7 1 8 2 9 3 10 4 11 5 12 6 13 7 6 8 5 9 4 10 3 11 2 12 1 13
REMARK H PARENT
REMARK Flexibility Score: inf
ROOT
ATOM      1  C   UNL     1     -10.380 -15.301  26.227  1.00  0.00     0.000 C 
ENDROOT
BRANCH   1   2
ATOM      2  C   UNL     1     -10.714 -15.824  27.633  1.00  0.00     0.000 C 
BRANCH   2   3
ATOM      3  C   UNL     1     -12.102 -16.485  27.704  1.00  0.00     0.006 C 
BRANCH   3   4
ATOM      4  C   UNL     1     -12.730 -16.362  29.099  1.00  0.00     0.053 C 
BRANCH   4   5
ATOM      5  C   UNL     1     -12.296 -17.473  30.005  1.00  0.00     0.041 C 
ATOM      6  O   UNL     1     -11.315 -17.316  30.778  1.00  0.00    -0.550 OA
ATOM      7  O   UNL     1     -12.959 -18.694  29.975  1.00  0.00    -0.550 OA
ENDBRANCH   4   5
ENDBRANCH   3   4
ENDBRANCH   2   3
ENDBRANCH   1   2
BRANCH   1   8
ATOM      8  C   UNL     1      -9.128 -14.412  26.208  1.00  0.00     0.000 C 
BRANCH   8   9
ATOM      9  C   UNL     1      -7.879 -15.214  26.595  1.00  0.00    -0.000 C 
BRANCH   9  10
ATOM     10  C   UNL     1      -6.717 -14.283  26.960  1.00  0.00    -0.000 C 
BRANCH  10  11
ATOM     11  C   UNL     1      -6.240 -14.537  28.398  1.00  0.00    -0.000 C 
BRANCH  11  12
ATOM     12  C   UNL     1      -7.404 -14.648  29.395  1.00  0.00    -0.003 C 
ATOM     13  C   UNL     1      -7.145 -13.885  30.694  1.00  0.00     0.004 C 
ENDBRANCH  11  12
ENDBRANCH  10  11
ENDBRANCH   9  10
ENDBRANCH   8   9
ENDBRANCH   1   8
TORSDOF 9
ENDMDL
MODEL 5
REMARK VINA RESULT:    -4.774      5.618      7.547
REMARK INTER + INTRA:          -8.009
REMARK INTER:                  -7.100
REMARK INTRA:                  -0.910
REMARK UNBOUND:                -0.724
REMARK SMILES CCCCCCCCCCC(=O)[O-]
REMARK SMILES IDX 7 1 8 2 9 3 10 4 11 5 12 6 13 7 6 8 5 9 4 10 3 11 2 12 1 13
REMARK H PARENT
REMARK Flexibility Score: inf
ROOT
ATOM      1  C   UNL     1     -13.197 -17.573  31.390  1.00  0.00     0.000 C 
ENDROOT
BRANCH   1   2
ATOM      2  C   UNL     1     -12.996 -18.194  32.782  1.00  0.00     0.000 C 
BRANCH   2   3
ATOM      3  C   UNL     1     -13.044 -19.732  32.756  1.00  0.00     0.006 C 
BRANCH   3   4
ATOM      4  C   UNL     1     -12.089 -20.358  33.781  1.00  0.00     0.053 C 
BRANCH   4   5
ATOM      5  C   UNL     1     -12.753 -21.445  34.569  1.00  0.00     0.041 C 
ATOM      6  O   UNL     1     -12.186 -22.560  34.717  1.00  0.00    -0.550 OA
ATOM      7  O   UNL     1     -14.012 -21.237  35.118  1.00  0.00    -0.550 OA
ENDBRANCH   4   5
ENDBRANCH   3   4
ENDBRANCH   2   3
ENDBRANCH   1   2
BRANCH   1   8
ATOM      8  C   UNL     1     -12.881 -18.555  30.252  1.00  0.00     0.000 C 
BRANCH   8   9
ATOM      9  C   UNL     1     -11.710 -18.049  29.400  1.00  0.00    -0.000 C 
BRANCH   9  10
ATOM     10  C   UNL     1     -10.452 -18.892  29.636  1.00  0.00    -0.000 C 
BRANCH  10  11
ATOM     11  C   UNL     1      -9.700 -18.420  30.889  1.00  0.00    -0.000 C 
BRANCH  11  12
ATOM     12  C   UNL     1      -9.451 -16.904  30.892  1.00  0.00    -0.003 C 
ATOM     13  C   UNL     1      -8.173 -16.516  31.636  1.00  0.00     0.004 C 
ENDBRANCH  11  12
ENDBRANCH  10  11
ENDBRANCH   9  10
ENDBRANCH   8   9
ENDBRANCH   1   8
TORSDOF 9
ENDMDL
MODEL 6
REMARK VINA RESULT:    -4.754      1.648      2.651
REMARK INTER + INTRA:          -7.979
REMARK INTER:                  -7.346
REMARK INTRA:                  -0.633
REMARK UNBOUND:                -0.724
REMARK SMILES CCCCCCCCCCC(=O)[O-]
REMARK SMILES IDX 7 1 8 2 9 3 10 4 11 5 12 6 13 7 6 8 5 9 4 10 3 11 2 12 1 13
REMARK H PARENT
REMARK Flexibility Score: inf
ROOT
ATOM      1  C   UNL     1      -8.939 -14.803  26.049  1.00  0.00     0.000 C 
ENDROOT
BRANCH   1   2
ATOM      2  C   UNL     1      -7.647 -14.212  26.636  1.00  0.00     0.000 C 
BRANCH   2   3
ATOM      3  C   UNL     1      -7.221 -14.903  27.944  1.00  0.00     0.006 C 
BRANCH   3   4
ATOM      4  C   UNL     1      -7.069 -13.908  29.102  1.00  0.00     0.053 C 
BRANCH   4   5
ATOM      5  C   UNL     1      -7.485 -14.508  30.409  1.00  0.00     0.041 C 
ATOM      6  O   UNL     1      -7.121 -13.981  31.494  1.00  0.00    -0.550 OA
ATOM      7  O   UNL     1      -8.252 -15.666  30.431  1.00  0.00    -0.550 OA
ENDBRANCH   4   5
ENDBRANCH   3   4
ENDBRANCH   2   3
ENDBRANCH   1   2
BRANCH   1   8
ATOM      8  C   UNL     1      -9.828 -15.459  27.115  1.00  0.00     0.000 C 
BRANCH   8   9
ATOM      9  C   UNL     1     -11.269 -15.610  26.609  1.00  0.00    -0.000 C 
BRANCH   9  10
ATOM     10  C   UNL     1     -12.122 -16.406  27.604  1.00  0.00    -0.000 C 
BRANCH  10  11
ATOM     11  C   UNL     1     -11.298 -16.808  28.836  1.00  0.00    -0.000 C 
BRANCH  11  12
ATOM     12  C   UNL     1     -11.304 -18.326  29.081  1.00  0.00    -0.003 C 
ATOM     13  C   UNL     1     -10.161 -18.782  29.988  1.00  0.00     0.004 C 
ENDBRANCH  11  12
ENDBRANCH  10  11
ENDBRANCH   9  10
ENDBRANCH   8   9
ENDBRANCH   1   8
TORSDOF 9
ENDMDL
MODEL 7
REMARK VINA RESULT:    -4.752      3.472      5.059
REMARK INTER + INTRA:          -7.976
REMARK INTER:                  -7.455
REMARK INTRA:                  -0.521
REMARK UNBOUND:                -0.724
REMARK SMILES CCCCCCCCCCC(=O)[O-]
REMARK SMILES IDX 7 1 8 2 9 3 10 4 11 5 12 6 13 7 6 8 5 9 4 10 3 11 2 12 1 13
REMARK H PARENT
REMARK Flexibility Score: inf
ROOT
ATOM      1  C   UNL     1     -11.854 -18.153  30.451  1.00  0.00     0.000 C 
ENDROOT
BRANCH   1   2
ATOM      2  C   UNL     1     -13.161 -17.427  30.096  1.00  0.00     0.000 C 
BRANCH   2   3
ATOM      3  C   UNL     1     -12.967 -16.356  29.008  1.00  0.00     0.006 C 
BRANCH   3   4
ATOM      4  C   UNL     1     -12.202 -16.897  27.793  1.00  0.00     0.053 C 
BRANCH   4   5
ATOM      5  C   UNL     1     -10.994 -16.068  27.481  1.00  0.00     0.041 C 
ATOM      6  O   UNL     1      -9.964 -16.150  28.201  1.00  0.00    -0.550 OA
ATOM      7  O   UNL     1     -11.016 -15.181  26.412  1.00  0.00    -0.550 OA
ENDBRANCH   4   5
ENDBRANCH   3   4
ENDBRANCH   2   3
ENDBRANCH   1   2
BRANCH   1   8
ATOM      8  C   UNL     1     -11.920 -18.862  31.811  1.00  0.00     0.000 C 
BRANCH   8   9
ATOM      9  C   UNL     1     -13.352 -19.318  32.123  1.00  0.00    -0.000 C 
BRANCH   9  10
ATOM     10  C   UNL     1     -13.379 -20.266  33.327  1.00  0.00    -0.000 C 
BRANCH  10  11
ATOM     11  C   UNL     1     -11.964 -20.497  33.877  1.00  0.00    -0.000 C 
BRANCH  11  12
ATOM     12  C   UNL     1     -11.851 -21.797  34.689  1.00  0.00    -0.003 C 
ATOM     13  C   UNL     1     -13.181 -22.544  34.796  1.00  0.00     0.004 C 
ENDBRANCH  11  12
ENDBRANCH  10  11
ENDBRANCH   9  10
ENDBRANCH   8   9
ENDBRANCH   1   8
TORSDOF 9
ENDMDL
MODEL 8
REMARK VINA RESULT:    -4.712      5.117      7.663
REMARK INTER + INTRA:          -7.915
REMARK INTER:                  -7.399
REMARK INTRA:                  -0.515
REMARK UNBOUND:                -0.724
REMARK SMILES CCCCCCCCCCC(=O)[O-]
REMARK SMILES IDX 7 1 8 2 9 3 10 4 11 5 12 6 13 7 6 8 5 9 4 10 3 11 2 12 1 13
REMARK H PARENT
REMARK Flexibility Score: inf
ROOT
ATOM      1  C   UNL     1     -12.176 -18.488  31.392  1.00  0.00     0.000 C 
ENDROOT
BRANCH   1   2
ATOM      2  C   UNL     1     -13.098 -17.876  32.459  1.00  0.00     0.000 C 
BRANCH   2   3
ATOM      3  C   UNL     1     -13.636 -18.924  33.449  1.00  0.00     0.006 C 
BRANCH   3   4
ATOM      4  C   UNL     1     -12.626 -20.050  33.705  1.00  0.00     0.053 C 
BRANCH   4   5
ATOM      5  C   UNL     1     -13.184 -21.104  34.610  1.00  0.00     0.041 C 
ATOM      6  O   UNL     1     -12.603 -22.215  34.726  1.00  0.00    -0.550 OA
ATOM      7  O   UNL     1     -14.364 -20.870  35.306  1.00  0.00    -0.550 OA
ENDBRANCH   4   5
ENDBRANCH   3   4
ENDBRANCH   2   3
ENDBRANCH   1   2
BRANCH   1   8
ATOM      8  C   UNL     1     -12.786 -18.440  29.984  1.00  0.00     0.000 C 
BRANCH   8   9
ATOM      9  C   UNL     1     -13.544 -17.126  29.759  1.00  0.00    -0.000 C 
BRANCH   9  10
ATOM     10  C   UNL     1     -12.992 -16.371  28.544  1.00  0.00    -0.000 C 
BRANCH  10  11
ATOM     11  C   UNL     1     -11.772 -17.096  27.955  1.00  0.00    -0.000 C 
BRANCH  11  12
ATOM     12  C   UNL     1     -10.579 -16.154  27.729  1.00  0.00    -0.003 C 
ATOM     13  C   UNL     1     -10.709 -15.332  26.446  1.00  0.00     0.004 C 
ENDBRANCH  11  12
ENDBRANCH  10  11
ENDBRANCH   9  10
ENDBRANCH   8   9
ENDBRANCH   1   8
TORSDOF 9
ENDMDL
MODEL 9
REMARK VINA RESULT:    -4.669      2.169      3.986
REMARK INTER + INTRA:          -7.850
REMARK INTER:                  -7.121
REMARK INTRA:                  -0.728
REMARK UNBOUND:                -0.724
REMARK SMILES CCCCCCCCCCC(=O)[O-]
REMARK SMILES IDX 7 1 8 2 9 3 10 4 11 5 12 6 13 7 6 8 5 9 4 10 3 11 2 12 1 13
REMARK H PARENT
REMARK Flexibility Score: inf
ROOT
ATOM      1  C   UNL     1      -9.585 -18.098  30.998  1.00  0.00     0.000 C 
ENDROOT
BRANCH   1   2
ATOM      2  C   UNL     1      -9.339 -16.593  30.807  1.00  0.00     0.000 C 
BRANCH   2   3
ATOM      3  C   UNL     1      -7.996 -16.133  31.401  1.00  0.00     0.006 C 
BRANCH   3   4
ATOM      4  C   UNL     1      -7.372 -14.983  30.599  1.00  0.00     0.053 C 
BRANCH   4   5
ATOM      5  C   UNL     1      -6.376 -14.214  31.411  1.00  0.00     0.041 C 
ATOM      6  O   UNL     1      -5.436 -13.596  30.845  1.00  0.00    -0.550 OA
ATOM      7  O   UNL     1      -6.469 -14.202  32.798  1.00  0.00    -0.550 OA
ENDBRANCH   4   5
ENDBRANCH   3   4
ENDBRANCH   2   3
ENDBRANCH   1   2
BRANCH   1   8
ATOM      8  C   UNL     1     -10.960 -18.544  30.480  1.00  0.00     0.000 C 
BRANCH   8   9
ATOM      9  C   UNL     1     -12.053 -17.555  30.905  1.00  0.00    -0.000 C 
BRANCH   9  10
ATOM     10  C   UNL     1     -13.184 -17.505  29.871  1.00  0.00    -0.000 C 
BRANCH  10  11
ATOM     11  C   UNL     1     -13.030 -16.288  28.946  1.00  0.00    -0.000 C 
BRANCH  11  12
ATOM     12  C   UNL     1     -12.341 -16.640  27.618  1.00  0.00    -0.003 C 
ATOM     13  C   UNL     1     -11.030 -15.882  27.413  1.00  0.00     0.004 C 
ENDBRANCH  11  12
ENDBRANCH  10  11
ENDBRANCH   9  10
ENDBRANCH   8   9
ENDBRANCH   1   8
TORSDOF 9
ENDMDL
