MODEL 1
REMARK VINA RESULT:    -3.516      0.000      0.000
REMARK INTER + INTRA:         -11.338
REMARK INTER:                  -8.861
REMARK INTRA:                  -2.477
REMARK UNBOUND:                -2.477
REMARK SMILES CCCCCCCCCCCCCCCCCCCCCCCCCCCC(=O)[O-]
REMARK SMILES IDX 15 1 16 2 17 3 18 4 19 5 20 6 21 7 22 8 23 9 24 10 25 11
REMARK SMILES IDX 26 12 27 13 28 14 29 15 30 16 14 17 13 18 12 19 11 20 10 21
REMARK SMILES IDX 9 22 8 23 7 24 6 25 5 26 4 27 3 28 2 29 1 30
REMARK H PARENT
REMARK Flexibility Score: inf
ROOT
ATOM      1  C   UNL     1      83.471 124.675 126.156  1.00  0.00     0.000 C 
ENDROOT
BRANCH   1   2
ATOM      2  C   UNL     1      82.878 123.926 127.367  1.00  0.00     0.000 C 
BRANCH   2   3
ATOM      3  C   UNL     1      83.907 123.428 128.403  1.00  0.00     0.000 C 
BRANCH   3   4
ATOM      4  C   UNL     1      83.601 123.790 129.868  1.00  0.00     0.000 C 
BRANCH   4   5
ATOM      5  C   UNL     1      82.141 123.521 130.266  1.00  0.00     0.000 C 
BRANCH   5   6
ATOM      6  C   UNL     1      81.945 123.404 131.788  1.00  0.00     0.000 C 
BRANCH   6   7
ATOM      7  C   UNL     1      82.750 124.437 132.603  1.00  0.00     0.000 C 
BRANCH   7   8
ATOM      8  C   UNL     1      81.875 125.603 133.095  1.00  0.00     0.000 C 
BRANCH   8   9
ATOM      9  C   UNL     1      82.603 126.963 133.052  1.00  0.00     0.000 C 
BRANCH   9  10
ATOM     10  C   UNL     1      83.478 127.169 131.797  1.00  0.00     0.000 C 
BRANCH  10  11
ATOM     11  C   UNL     1      82.737 127.727 130.568  1.00  0.00     0.000 C 
BRANCH  11  12
ATOM     12  C   UNL     1      82.652 129.270 130.547  1.00  0.00     0.006 C 
BRANCH  12  13
ATOM     13  C   UNL     1      83.825 129.930 131.282  1.00  0.00     0.053 C 
BRANCH  13  14
ATOM     14  C   UNL     1      83.368 131.165 131.993  1.00  0.00     0.041 C 
ATOM     15  O   UNL     1      82.158 131.509 131.946  1.00  0.00    -0.550 OA
ATOM     16  O   UNL     1      84.266 131.895 132.764  1.00  0.00    -0.550 OA
ENDBRANCH  13  14
ENDBRANCH  12  13
ENDBRANCH  11  12
ENDBRANCH  10  11
ENDBRANCH   9  10
ENDBRANCH   8   9
ENDBRANCH   7   8
ENDBRANCH   6   7
ENDBRANCH   5   6
ENDBRANCH   4   5
ENDBRANCH   3   4
ENDBRANCH   2   3
ENDBRANCH   1   2
BRANCH   1  17
ATOM     17  C   UNL     1      83.349 123.928 124.815  1.00  0.00     0.000 C 
BRANCH  17  18
ATOM     18  C   UNL     1      82.731 122.520 124.916  1.00  0.00     0.000 C 
BRANCH  18  19
ATOM     19  C   UNL     1      81.936 122.106 123.658  1.00  0.00     0.000 C 
BRANCH  19  20
ATOM     20  C   UNL     1      82.676 121.044 122.826  1.00  0.00     0.000 C 
BRANCH  20  21
ATOM     21  C   UNL     1      82.804 119.696 123.552  1.00  0.00     0.000 C 
BRANCH  21  22
ATOM     22  C   UNL     1      81.876 119.583 124.772  1.00  0.00    -0.000 C 
BRANCH  22  23
ATOM     23  C   UNL     1      82.564 118.931 125.983  1.00  0.00    -0.000 C 
BRANCH  23  24
ATOM     24  C   UNL     1      83.903 119.595 126.370  1.00  0.00    -0.000 C 
BRANCH  24  25
ATOM     25  C   UNL     1      84.083 119.704 127.894  1.00  0.00    -0.000 C 
BRANCH  25  26
ATOM     26  C   UNL     1      85.552 119.581 128.340  1.00  0.00    -0.000 C 
BRANCH  26  27
ATOM     27  C   UNL     1      85.772 119.509 129.864  1.00  0.00    -0.000 C 
BRANCH  27  28
ATOM     28  C   UNL     1      86.123 120.871 130.488  1.00  0.00    -0.000 C 
BRANCH  28  29
ATOM     29  C   UNL     1      86.335 120.784 132.007  1.00  0.00    -0.003 C 
ATOM     30  C   UNL     1      85.310 121.597 132.797  1.00  0.00     0.004 C 
ENDBRANCH  28  29
ENDBRANCH  27  28
ENDBRANCH  26  27
ENDBRANCH  25  26
ENDBRANCH  24  25
ENDBRANCH  23  24
ENDBRANCH  22  23
ENDBRANCH  21  22
ENDBRANCH  20  21
ENDBRANCH  19  20
ENDBRANCH  18  19
ENDBRANCH  17  18
ENDBRANCH   1  17
TORSDOF 26
ENDMDL
MODEL 2
REMARK VINA RESULT:    -2.060      4.364      9.302
REMARK INTER + INTRA:          -7.668
REMARK INTER:                  -6.622
REMARK INTRA:                  -1.046
REMARK UNBOUND:                -2.477
REMARK SMILES CCCCCCCCCCCCCCCCCCCCCCCCCCCC(=O)[O-]
REMARK SMILES IDX 15 1 16 2 17 3 18 4 19 5 20 6 21 7 22 8 23 9 24 10 25 11
REMARK SMILES IDX 26 12 27 13 28 14 29 15 30 16 14 17 13 18 12 19 11 20 10 21
REMARK SMILES IDX 9 22 8 23 7 24 6 25 5 26 4 27 3 28 2 29 1 30
REMARK H PARENT
REMARK Flexibility Score: inf
ROOT
ATOM      1  C   UNL     1      86.512 119.406 129.001  1.00  0.00     0.000 C 
ENDROOT
BRANCH   1   2
ATOM      2  C   UNL     1      85.039 118.947 129.030  1.00  0.00     0.000 C 
BRANCH   2   3
ATOM      3  C   UNL     1      84.067 119.794 128.182  1.00  0.00     0.000 C 
BRANCH   3   4
ATOM      4  C   UNL     1      84.702 120.979 127.432  1.00  0.00     0.000 C 
BRANCH   4   5
ATOM      5  C   UNL     1      84.576 122.312 128.188  1.00  0.00     0.000 C 
BRANCH   5   6
ATOM      6  C   UNL     1      83.159 122.563 128.732  1.00  0.00     0.000 C 
BRANCH   6   7
ATOM      7  C   UNL     1      82.310 123.504 127.854  1.00  0.00     0.000 C 
BRANCH   7   8
ATOM      8  C   UNL     1      82.797 123.539 126.394  1.00  0.00     0.000 C 
BRANCH   8   9
ATOM      9  C   UNL     1      82.101 122.491 125.501  1.00  0.00     0.000 C 
BRANCH   9  10
ATOM     10  C   UNL     1      83.069 121.669 124.623  1.00  0.00     0.000 C 
BRANCH  10  11
ATOM     11  C   UNL     1      82.617 120.227 124.324  1.00  0.00     0.000 C 
BRANCH  11  12
ATOM     12  C   UNL     1      82.006 120.052 122.914  1.00  0.00     0.006 C 
BRANCH  12  13
ATOM     13  C   UNL     1      82.246 121.273 122.018  1.00  0.00     0.053 C 
BRANCH  13  14
ATOM     14  C   UNL     1      82.615 120.842 120.634  1.00  0.00     0.041 C 
ATOM     15  O   UNL     1      82.427 121.618 119.660  1.00  0.00    -0.550 OA
ATOM     16  O   UNL     1      83.230 119.612 120.430  1.00  0.00    -0.550 OA
ENDBRANCH  13  14
ENDBRANCH  12  13
ENDBRANCH  11  12
ENDBRANCH  10  11
ENDBRANCH   9  10
ENDBRANCH   8   9
ENDBRANCH   7   8
ENDBRANCH   6   7
ENDBRANCH   5   6
ENDBRANCH   4   5
ENDBRANCH   3   4
ENDBRANCH   2   3
ENDBRANCH   1   2
BRANCH   1  17
ATOM     17  C   UNL     1      86.752 120.831 129.532  1.00  0.00     0.000 C 
BRANCH  17  18
ATOM     18  C   UNL     1      86.457 121.017 131.033  1.00  0.00     0.000 C 
BRANCH  18  19
ATOM     19  C   UNL     1      85.002 121.444 131.325  1.00  0.00     0.000 C 
BRANCH  19  20
ATOM     20  C   UNL     1      84.587 121.144 132.776  1.00  0.00     0.000 C 
BRANCH  20  21
ATOM     21  C   UNL     1      83.191 121.683 133.125  1.00  0.00     0.000 C 
BRANCH  21  22
ATOM     22  C   UNL     1      82.800 122.915 132.292  1.00  0.00    -0.000 C 
BRANCH  22  23
ATOM     23  C   UNL     1      82.015 123.957 133.106  1.00  0.00    -0.000 C 
BRANCH  23  24
ATOM     24  C   UNL     1      82.623 125.376 133.050  1.00  0.00    -0.000 C 
BRANCH  24  25
ATOM     25  C   UNL     1      83.501 125.586 131.804  1.00  0.00    -0.000 C 
BRANCH  25  26
ATOM     26  C   UNL     1      83.213 126.914 131.078  1.00  0.00    -0.000 C 
BRANCH  26  27
ATOM     27  C   UNL     1      82.751 128.071 131.983  1.00  0.00    -0.000 C 
BRANCH  27  28
ATOM     28  C   UNL     1      82.691 129.423 131.250  1.00  0.00    -0.000 C 
BRANCH  28  29
ATOM     29  C   UNL     1      83.831 130.366 131.665  1.00  0.00    -0.003 C 
ATOM     30  C   UNL     1      84.751 129.758 132.722  1.00  0.00     0.004 C 
ENDBRANCH  28  29
ENDBRANCH  27  28
ENDBRANCH  26  27
ENDBRANCH  25  26
ENDBRANCH  24  25
ENDBRANCH  23  24
ENDBRANCH  22  23
ENDBRANCH  21  22
ENDBRANCH  20  21
ENDBRANCH  19  20
ENDBRANCH  18  19
ENDBRANCH  17  18
ENDBRANCH   1  17
TORSDOF 26
ENDMDL
MODEL 3
REMARK VINA RESULT:    -2.023      1.579      2.018
REMARK INTER + INTRA:          -7.575
REMARK INTER:                  -6.026
REMARK INTRA:                  -1.549
REMARK UNBOUND:                -2.477
REMARK SMILES CCCCCCCCCCCCCCCCCCCCCCCCCCCC(=O)[O-]
REMARK SMILES IDX 15 1 16 2 17 3 18 4 19 5 20 6 21 7 22 8 23 9 24 10 25 11
REMARK SMILES IDX 26 12 27 13 28 14 29 15 30 16 14 17 13 18 12 19 11 20 10 21
REMARK SMILES IDX 9 22 8 23 7 24 6 25 5 26 4 27 3 28 2 29 1 30
REMARK H PARENT
REMARK Flexibility Score: inf
ROOT
ATOM      1  C   UNL     1      83.197 124.877 126.051  1.00  0.00     0.000 C 
ENDROOT
BRANCH   1   2
ATOM      2  C   UNL     1      82.986 124.131 127.385  1.00  0.00     0.000 C 
BRANCH   2   3
ATOM      3  C   UNL     1      84.278 123.722 128.123  1.00  0.00     0.000 C 
BRANCH   3   4
ATOM      4  C   UNL     1      84.109 123.377 129.613  1.00  0.00     0.000 C 
BRANCH   4   5
ATOM      5  C   UNL     1      82.719 122.812 129.951  1.00  0.00     0.000 C 
BRANCH   5   6
ATOM      6  C   UNL     1      82.385 122.893 131.451  1.00  0.00     0.000 C 
BRANCH   6   7
ATOM      7  C   UNL     1      82.630 124.283 132.071  1.00  0.00     0.000 C 
BRANCH   7   8
ATOM      8  C   UNL     1      81.891 125.400 131.313  1.00  0.00     0.000 C 
BRANCH   8   9
ATOM      9  C   UNL     1      82.188 126.807 131.872  1.00  0.00     0.000 C 
BRANCH   9  10
ATOM     10  C   UNL     1      83.232 126.826 133.009  1.00  0.00     0.000 C 
BRANCH  10  11
ATOM     11  C   UNL     1      84.049 128.126 133.125  1.00  0.00     0.000 C 
BRANCH  11  12
ATOM     12  C   UNL     1      83.217 129.403 132.869  1.00  0.00     0.006 C 
BRANCH  12  13
ATOM     13  C   UNL     1      83.608 130.103 131.561  1.00  0.00     0.053 C 
BRANCH  13  14
ATOM     14  C   UNL     1      84.151 129.112 130.580  1.00  0.00     0.041 C 
ATOM     15  O   UNL     1      85.388 128.885 130.531  1.00  0.00    -0.550 OA
ATOM     16  O   UNL     1      83.282 128.388 129.770  1.00  0.00    -0.550 OA
ENDBRANCH  13  14
ENDBRANCH  12  13
ENDBRANCH  11  12
ENDBRANCH  10  11
ENDBRANCH   9  10
ENDBRANCH   8   9
ENDBRANCH   7   8
ENDBRANCH   6   7
ENDBRANCH   5   6
ENDBRANCH   4   5
ENDBRANCH   3   4
ENDBRANCH   2   3
ENDBRANCH   1   2
BRANCH   1  17
ATOM     17  C   UNL     1      82.987 124.016 124.793  1.00  0.00     0.000 C 
BRANCH  17  18
ATOM     18  C   UNL     1      82.500 122.580 125.069  1.00  0.00     0.000 C 
BRANCH  18  19
ATOM     19  C   UNL     1      82.601 121.650 123.840  1.00  0.00     0.000 C 
BRANCH  19  20
ATOM     20  C   UNL     1      83.555 120.468 124.082  1.00  0.00     0.000 C 
BRANCH  20  21
ATOM     21  C   UNL     1      84.122 120.438 125.510  1.00  0.00     0.000 C 
BRANCH  21  22
ATOM     22  C   UNL     1      83.549 119.290 126.357  1.00  0.00    -0.000 C 
BRANCH  22  23
ATOM     23  C   UNL     1      82.155 119.609 126.924  1.00  0.00    -0.000 C 
BRANCH  23  24
ATOM     24  C   UNL     1      81.877 118.958 128.296  1.00  0.00    -0.000 C 
BRANCH  24  25
ATOM     25  C   UNL     1      82.471 119.770 129.459  1.00  0.00    -0.000 C 
BRANCH  25  26
ATOM     26  C   UNL     1      83.960 119.465 129.712  1.00  0.00    -0.000 C 
BRANCH  26  27
ATOM     27  C   UNL     1      84.447 119.714 131.152  1.00  0.00    -0.000 C 
BRANCH  27  28
ATOM     28  C   UNL     1      85.891 119.239 131.391  1.00  0.00    -0.000 C 
BRANCH  28  29
ATOM     29  C   UNL     1      86.773 120.332 132.015  1.00  0.00    -0.003 C 
ATOM     30  C   UNL     1      87.533 121.149 130.971  1.00  0.00     0.004 C 
ENDBRANCH  28  29
ENDBRANCH  27  28
ENDBRANCH  26  27
ENDBRANCH  25  26
ENDBRANCH  24  25
ENDBRANCH  23  24
ENDBRANCH  22  23
ENDBRANCH  21  22
ENDBRANCH  20  21
ENDBRANCH  19  20
ENDBRANCH  18  19
ENDBRANCH  17  18
ENDBRANCH   1  17
TORSDOF 26
ENDMDL
