MODEL 1
REMARK VINA RESULT:    -9.199      0.000      0.000
REMARK INTER + INTRA:         -15.977
REMARK INTER:                 -14.576
REMARK INTRA:                  -1.401
REMARK UNBOUND:                -1.401
REMARK SMILES C[C@@H]1O[C@H](O[C@@H]2CC[C@@]3(C)[C@H](CC[C@]4(C)[C@H]3C=C[C@@]35OC[C@]6(CCC(C)(C)C[C@H]63)[C@@H](O)C[C@@]45C)[C@]2(C)CO)[C@@H](O)[C@@H](O[C@H]2O[C@H](CO)[C@H](O)[C@H](O)[C@H]2O)[C@H]1O
REMARK SMILES IDX 1 1 2 2 54 3 41 4 39 5 4 6 3 7 55 8 42 10 43 11 52 12 44 13
REMARK SMILES IDX 50 14 45 15 48 16 53 17 51 19 46 21 47 22 49 24 5 26 6 27
REMARK SMILES IDX 7 28 35 29 8 30 11 31 36 32 9 33 12 34 10 35 16 36 13 37
REMARK SMILES IDX 14 38 17 39 15 40 33 41 18 42 19 43 32 44 34 45 29 46 20 47
REMARK SMILES IDX 30 48 22 49 28 50 21 51 23 52 25 53 24 54 26 55 27 56 37 57
REMARK SMILES IDX 38 58 31 60 40 62
REMARK H PARENT 55 9 53 18 51 20 47 23 49 25 38 59 31 61 40 63
REMARK Flexibility Score: inf
ROOT
ATOM      1  C   UNL     1       7.610  24.507  15.654  1.00  0.00     0.041 C 
ATOM      2  C   UNL     1       7.803  24.096  17.118  1.00  0.00     0.150 C 
ATOM      3  C   UNL     1       7.531  25.317  18.057  1.00  0.00     0.175 C 
ATOM      4  C   UNL     1       6.469  24.956  19.125  1.00  0.00     0.186 C 
ATOM      5  C   UNL     1       6.755  23.573  19.765  1.00  0.00     0.202 C 
ATOM      6  C   UNL     1       7.137  22.503  18.675  1.00  0.00     0.282 C 
ATOM      7  O   UNL     1       6.906  23.042  17.399  1.00  0.00    -0.344 OA
ENDROOT
BRANCH   3   8
ATOM      8  O   UNL     1       8.739  25.722  18.644  1.00  0.00    -0.388 OA
ATOM      9  H   UNL     1       9.109  24.910  19.102  1.00  0.00     0.211 HD
ENDBRANCH   3   8
BRANCH   4  10
ATOM     10  O   UNL     1       6.365  25.975  20.113  1.00  0.00    -0.341 OA
BRANCH  10  11
ATOM     11  C   UNL     1       5.957  27.193  19.516  1.00  0.00     0.282 C 
ATOM     12  C   UNL     1       6.689  28.387  20.149  1.00  0.00     0.202 C 
ATOM     13  O   UNL     1       4.543  27.284  19.514  1.00  0.00    -0.341 OA
ATOM     14  C   UNL     1       6.243  28.698  21.595  1.00  0.00     0.179 C 
ATOM     15  C   UNL     1       3.940  27.968  20.603  1.00  0.00     0.178 C 
ATOM     16  C   UNL     1       4.833  28.126  21.871  1.00  0.00     0.177 C 
BRANCH  12  17
ATOM     17  O   UNL     1       8.082  28.208  20.038  1.00  0.00    -0.385 OA
ATOM     18  H   UNL     1       8.355  28.204  19.076  1.00  0.00     0.211 HD
ENDBRANCH  12  17
BRANCH  14  19
ATOM     19  O   UNL     1       6.265  30.085  21.804  1.00  0.00    -0.387 OA
ATOM     20  H   UNL     1       7.203  30.393  21.649  1.00  0.00     0.211 HD
ENDBRANCH  14  19
BRANCH  15  21
ATOM     21  C   UNL     1       3.241  29.236  20.091  1.00  0.00     0.191 C 
BRANCH  21  22
ATOM     22  O   UNL     1       2.117  29.573  20.856  1.00  0.00    -0.394 OA
ATOM     23  H   UNL     1       2.276  30.494  21.188  1.00  0.00     0.210 HD
ENDBRANCH  21  22
ENDBRANCH  15  21
BRANCH  16  24
ATOM     24  O   UNL     1       4.182  28.842  22.909  1.00  0.00    -0.387 OA
ATOM     25  H   UNL     1       3.560  29.509  22.510  1.00  0.00     0.211 HD
ENDBRANCH  16  24
ENDBRANCH  10  11
ENDBRANCH   4  10
BRANCH   6  26
ATOM     26  O   UNL     1       6.290  21.385  18.894  1.00  0.00    -0.346 OA
BRANCH  26  27
ATOM     27  C   UNL     1       6.658  20.424  19.895  1.00  0.00     0.130 C 
ATOM     28  C   UNL     1       8.080  20.457  20.448  1.00  0.00     0.033 C 
ATOM     29  C   UNL     1       6.138  18.959  19.678  1.00  0.00     0.020 C 
ATOM     30  C   UNL     1       8.089  19.858  21.875  1.00  0.00     0.010 C 
ATOM     31  C   UNL     1       6.002  18.329  21.131  1.00  0.00     0.006 C 
ATOM     32  C   UNL     1       4.726  19.083  19.004  1.00  0.00     0.017 C 
ATOM     33  C   UNL     1       7.240  18.524  22.135  1.00  0.00    -0.022 C 
ATOM     34  C   UNL     1       5.400  16.891  21.173  1.00  0.00     0.005 C 
ATOM     35  C   UNL     1       6.607  18.782  23.549  1.00  0.00     0.012 C 
ATOM     36  C   UNL     1       8.206  17.240  22.236  1.00  0.00     0.024 C 
ATOM     37  C   UNL     1       6.420  15.741  21.129  1.00  0.00     0.008 C 
ATOM     38  C   UNL     1       7.562  15.771  22.203  1.00  0.00    -0.017 C 
ATOM     39  C   UNL     1       9.460  17.311  21.386  1.00  0.00    -0.024 C 
ATOM     40  C   UNL     1       6.846  15.516  23.572  1.00  0.00     0.013 C 
ATOM     41  C   UNL     1       8.709  14.609  21.897  1.00  0.00     0.009 C 
ATOM     42  C   UNL     1      10.432  16.401  21.532  1.00  0.00     0.005 C 
ATOM     43  C   UNL     1      10.173  15.109  22.276  1.00  0.00     0.096 C 
ATOM     44  C   UNL     1       8.467  13.207  22.600  1.00  0.00     0.043 C 
ATOM     45  C   UNL     1       8.759  14.270  20.361  1.00  0.00     0.015 C 
ATOM     46  C   UNL     1      10.362  15.215  23.806  1.00  0.00     0.037 C 
ATOM     47  O   UNL     1      11.134  14.158  21.841  1.00  0.00    -0.369 OA
ATOM     48  C   UNL     1       9.151  12.991  23.986  1.00  0.00     0.124 C 
ATOM     49  C   UNL     1      10.532  13.738  24.123  1.00  0.00     0.026 C 
ATOM     50  C   UNL     1      11.596  16.070  24.209  1.00  0.00     0.014 C 
ATOM     51  C   UNL     1      11.431  13.321  22.946  1.00  0.00     0.171 C 
ATOM     52  C   UNL     1      11.177  13.422  25.501  1.00  0.00     0.013 C 
ATOM     53  C   UNL     1      12.057  15.824  25.669  1.00  0.00    -0.035 C 
ATOM     54  C   UNL     1      12.366  14.321  25.866  1.00  0.00     0.007 C 
ATOM     55  C   UNL     1      13.351  16.630  25.925  1.00  0.00     0.011 C 
ATOM     56  C   UNL     1      10.988  16.315  26.680  1.00  0.00     0.011 C 
BRANCH  29  57
ATOM     57  C   UNL     1       7.096  18.083  18.792  1.00  0.00     0.165 C 
BRANCH  57  58
ATOM     58  O   UNL     1       6.515  17.723  17.575  1.00  0.00    -0.396 OA
ATOM     59  H   UNL     1       7.133  17.078  17.144  1.00  0.00     0.210 HD
ENDBRANCH  57  58
ENDBRANCH  29  57
BRANCH  48  60
ATOM     60  O   UNL     1       8.239  13.233  25.039  1.00  0.00    -0.392 OA
ATOM     61  H   UNL     1       8.532  12.754  25.849  1.00  0.00     0.210 HD
ENDBRANCH  48  60
ENDBRANCH  26  27
ENDBRANCH   6  26
BRANCH   5  62
ATOM     62  O   UNL     1       7.723  23.629  20.788  1.00  0.00    -0.385 OA
ATOM     63  H   UNL     1       7.864  22.708  21.134  1.00  0.00     0.211 HD
ENDBRANCH   5  62
TORSDOF 14
ENDMDL
MODEL 2
REMARK VINA RESULT:    -8.876      1.446      2.112
REMARK INTER + INTRA:         -15.466
REMARK INTER:                 -14.414
REMARK INTRA:                  -1.051
REMARK UNBOUND:                -1.401
REMARK SMILES C[C@@H]1O[C@H](O[C@@H]2CC[C@@]3(C)[C@H](CC[C@]4(C)[C@H]3C=C[C@@]35OC[C@]6(CCC(C)(C)C[C@H]63)[C@@H](O)C[C@@]45C)[C@]2(C)CO)[C@@H](O)[C@@H](O[C@H]2O[C@H](CO)[C@H](O)[C@H](O)[C@H]2O)[C@H]1O
REMARK SMILES IDX 1 1 2 2 54 3 41 4 39 5 4 6 3 7 55 8 42 10 43 11 52 12 44 13
REMARK SMILES IDX 50 14 45 15 48 16 53 17 51 19 46 21 47 22 49 24 5 26 6 27
REMARK SMILES IDX 7 28 35 29 8 30 11 31 36 32 9 33 12 34 10 35 16 36 13 37
REMARK SMILES IDX 14 38 17 39 15 40 33 41 18 42 19 43 32 44 34 45 29 46 20 47
REMARK SMILES IDX 30 48 22 49 28 50 21 51 23 52 25 53 24 54 26 55 27 56 37 57
REMARK SMILES IDX 38 58 31 60 40 62
REMARK H PARENT 55 9 53 18 51 20 47 23 49 25 38 59 31 61 40 63
REMARK Flexibility Score: inf
ROOT
ATOM      1  C   UNL     1       7.184  23.251  15.429  1.00  0.00     0.041 C 
ATOM      2  C   UNL     1       7.408  22.876  16.899  1.00  0.00     0.150 C 
ATOM      3  C   UNL     1       7.396  24.163  17.787  1.00  0.00     0.175 C 
ATOM      4  C   UNL     1       6.364  24.024  18.934  1.00  0.00     0.186 C 
ATOM      5  C   UNL     1       6.469  22.641  19.627  1.00  0.00     0.202 C 
ATOM      6  C   UNL     1       6.603  21.479  18.573  1.00  0.00     0.282 C 
ATOM      7  O   UNL     1       6.375  21.994  17.287  1.00  0.00    -0.344 OA
ENDROOT
BRANCH   3   8
ATOM      8  O   UNL     1       8.690  24.392  18.279  1.00  0.00    -0.388 OA
ATOM      9  H   UNL     1       8.691  25.331  18.629  1.00  0.00     0.211 HD
ENDBRANCH   3   8
BRANCH   4  10
ATOM     10  O   UNL     1       6.490  25.086  19.872  1.00  0.00    -0.341 OA
BRANCH  10  11
ATOM     11  C   UNL     1       6.150  26.319  19.262  1.00  0.00     0.282 C 
ATOM     12  C   UNL     1       6.942  27.478  19.886  1.00  0.00     0.202 C 
ATOM     13  O   UNL     1       4.743  26.485  19.252  1.00  0.00    -0.341 OA
ATOM     14  C   UNL     1       6.508  27.826  21.326  1.00  0.00     0.179 C 
ATOM     15  C   UNL     1       4.173  27.211  20.332  1.00  0.00     0.178 C 
ATOM     16  C   UNL     1       5.068  27.333  21.603  1.00  0.00     0.177 C 
BRANCH  12  17
ATOM     17  O   UNL     1       8.324  27.224  19.782  1.00  0.00    -0.385 OA
ATOM     18  H   UNL     1       8.570  27.024  18.834  1.00  0.00     0.211 HD
ENDBRANCH  12  17
BRANCH  14  19
ATOM     19  O   UNL     1       6.603  29.213  21.522  1.00  0.00    -0.387 OA
ATOM     20  H   UNL     1       5.801  29.627  21.095  1.00  0.00     0.211 HD
ENDBRANCH  14  19
BRANCH  15  21
ATOM     21  C   UNL     1       3.545  28.509  19.805  1.00  0.00     0.191 C 
BRANCH  21  22
ATOM     22  O   UNL     1       2.378  28.858  20.496  1.00  0.00    -0.394 OA
ATOM     23  H   UNL     1       1.636  28.376  20.047  1.00  0.00     0.210 HD
ENDBRANCH  21  22
ENDBRANCH  15  21
BRANCH  16  24
ATOM     24  O   UNL     1       4.453  28.094  22.630  1.00  0.00    -0.387 OA
ATOM     25  H   UNL     1       4.017  27.479  23.281  1.00  0.00     0.211 HD
ENDBRANCH  16  24
ENDBRANCH  10  11
ENDBRANCH   4  10
BRANCH   6  26
ATOM     26  O   UNL     1       5.606  20.522  18.900  1.00  0.00    -0.346 OA
BRANCH  26  27
ATOM     27  C   UNL     1       5.989  19.345  19.627  1.00  0.00     0.130 C 
ATOM     28  C   UNL     1       6.268  19.470  21.121  1.00  0.00     0.033 C 
ATOM     29  C   UNL     1       7.004  18.384  18.911  1.00  0.00     0.020 C 
ATOM     30  C   UNL     1       6.015  18.106  21.807  1.00  0.00     0.010 C 
ATOM     31  C   UNL     1       6.701  16.932  19.483  1.00  0.00     0.006 C 
ATOM     32  C   UNL     1       6.668  18.445  17.379  1.00  0.00     0.017 C 
ATOM     33  C   UNL     1       6.556  16.787  21.076  1.00  0.00    -0.022 C 
ATOM     34  C   UNL     1       7.532  15.782  18.837  1.00  0.00     0.005 C 
ATOM     35  C   UNL     1       5.393  15.757  21.307  1.00  0.00     0.012 C 
ATOM     36  C   UNL     1       7.880  16.230  21.804  1.00  0.00     0.024 C 
ATOM     37  C   UNL     1       8.848  15.429  19.548  1.00  0.00     0.008 C 
ATOM     38  C   UNL     1       8.754  15.098  21.078  1.00  0.00    -0.017 C 
ATOM     39  C   UNL     1       8.763  17.292  22.429  1.00  0.00    -0.024 C 
ATOM     40  C   UNL     1       7.971  13.743  21.158  1.00  0.00     0.013 C 
ATOM     41  C   UNL     1      10.264  14.961  21.760  1.00  0.00     0.009 C 
ATOM     42  C   UNL     1       9.783  16.945  23.227  1.00  0.00     0.005 C 
ATOM     43  C   UNL     1      10.290  15.520  23.252  1.00  0.00     0.096 C 
ATOM     44  C   UNL     1      10.882  13.501  21.766  1.00  0.00     0.043 C 
ATOM     45  C   UNL     1      11.311  15.824  20.963  1.00  0.00     0.015 C 
ATOM     46  C   UNL     1       9.521  14.594  24.221  1.00  0.00     0.037 C 
ATOM     47  O   UNL     1      11.627  15.544  23.732  1.00  0.00    -0.369 OA
ATOM     48  C   UNL     1      10.633  12.640  23.043  1.00  0.00     0.124 C 
ATOM     49  C   UNL     1      10.560  13.493  24.366  1.00  0.00     0.026 C 
ATOM     50  C   UNL     1       9.171  15.282  25.570  1.00  0.00     0.014 C 
ATOM     51  C   UNL     1      11.834  14.349  24.467  1.00  0.00     0.171 C 
ATOM     52  C   UNL     1      10.374  12.561  25.595  1.00  0.00     0.013 C 
ATOM     53  C   UNL     1       8.817  14.275  26.694  1.00  0.00    -0.035 C 
ATOM     54  C   UNL     1       9.991  13.288  26.891  1.00  0.00     0.007 C 
ATOM     55  C   UNL     1       8.602  15.054  28.012  1.00  0.00     0.011 C 
ATOM     56  C   UNL     1       7.499  13.523  26.372  1.00  0.00     0.011 C 
BRANCH  29  57
ATOM     57  C   UNL     1       8.506  18.767  19.162  1.00  0.00     0.165 C 
BRANCH  57  58
ATOM     58  O   UNL     1       9.325  18.450  18.076  1.00  0.00    -0.396 OA
ATOM     59  H   UNL     1      10.256  18.655  18.353  1.00  0.00     0.210 HD
ENDBRANCH  57  58
ENDBRANCH  29  57
BRANCH  48  60
ATOM     60  O   UNL     1       9.549  11.753  22.848  1.00  0.00    -0.392 OA
ATOM     61  H   UNL     1       8.968  12.093  22.128  1.00  0.00     0.210 HD
ENDBRANCH  48  60
ENDBRANCH  26  27
ENDBRANCH   6  26
BRANCH   5  62
ATOM     62  O   UNL     1       7.501  22.582  20.586  1.00  0.00    -0.385 OA
ATOM     63  H   UNL     1       7.128  22.866  21.462  1.00  0.00     0.211 HD
ENDBRANCH   5  62
TORSDOF 14
ENDMDL
MODEL 3
REMARK VINA RESULT:    -8.821      2.206      3.397
REMARK INTER + INTRA:         -15.379
REMARK INTER:                 -13.974
REMARK INTRA:                  -1.406
REMARK UNBOUND:                -1.401
REMARK SMILES C[C@@H]1O[C@H](O[C@@H]2CC[C@@]3(C)[C@H](CC[C@]4(C)[C@H]3C=C[C@@]35OC[C@]6(CCC(C)(C)C[C@H]63)[C@@H](O)C[C@@]45C)[C@]2(C)CO)[C@@H](O)[C@@H](O[C@H]2O[C@H](CO)[C@H](O)[C@H](O)[C@H]2O)[C@H]1O
REMARK SMILES IDX 1 1 2 2 54 3 41 4 39 5 4 6 3 7 55 8 42 10 43 11 52 12 44 13
REMARK SMILES IDX 50 14 45 15 48 16 53 17 51 19 46 21 47 22 49 24 5 26 6 27
REMARK SMILES IDX 7 28 35 29 8 30 11 31 36 32 9 33 12 34 10 35 16 36 13 37
REMARK SMILES IDX 14 38 17 39 15 40 33 41 18 42 19 43 32 44 34 45 29 46 20 47
REMARK SMILES IDX 30 48 22 49 28 50 21 51 23 52 25 53 24 54 26 55 27 56 37 57
REMARK SMILES IDX 38 58 31 60 40 62
REMARK H PARENT 55 9 53 18 51 20 47 23 49 25 38 59 31 61 40 63
REMARK Flexibility Score: inf
ROOT
ATOM      1  C   UNL     1       8.600  24.759  22.578  1.00  0.00     0.041 C 
ATOM      2  C   UNL     1       7.407  24.402  21.684  1.00  0.00     0.150 C 
ATOM      3  C   UNL     1       6.975  25.649  20.845  1.00  0.00     0.175 C 
ATOM      4  C   UNL     1       6.946  25.305  19.334  1.00  0.00     0.186 C 
ATOM      5  C   UNL     1       6.239  23.950  19.074  1.00  0.00     0.202 C 
ATOM      6  C   UNL     1       6.707  22.851  20.100  1.00  0.00     0.282 C 
ATOM      7  O   UNL     1       7.797  23.342  20.836  1.00  0.00    -0.344 OA
ENDROOT
BRANCH   3   8
ATOM      8  O   UNL     1       5.725  26.095  21.298  1.00  0.00    -0.388 OA
ATOM      9  H   UNL     1       5.913  26.713  22.064  1.00  0.00     0.211 HD
ENDBRANCH   3   8
BRANCH   4  10
ATOM     10  O   UNL     1       6.353  26.354  18.578  1.00  0.00    -0.341 OA
BRANCH  10  11
ATOM     11  C   UNL     1       7.345  27.280  18.169  1.00  0.00     0.282 C 
ATOM     12  C   UNL     1       6.896  28.723  18.447  1.00  0.00     0.202 C 
ATOM     13  O   UNL     1       7.736  27.016  16.834  1.00  0.00    -0.341 OA
ATOM     14  C   UNL     1       5.756  29.211  17.527  1.00  0.00     0.179 C 
ATOM     15  C   UNL     1       7.068  27.743  15.812  1.00  0.00     0.178 C 
ATOM     16  C   UNL     1       5.706  28.379  16.223  1.00  0.00     0.177 C 
BRANCH  12  17
ATOM     17  O   UNL     1       6.592  28.875  19.814  1.00  0.00    -0.385 OA
ATOM     18  H   UNL     1       6.943  29.749  20.152  1.00  0.00     0.211 HD
ENDBRANCH  12  17
BRANCH  14  19
ATOM     19  O   UNL     1       5.936  30.572  17.239  1.00  0.00    -0.387 OA
ATOM     20  H   UNL     1       6.605  30.926  17.890  1.00  0.00     0.211 HD
ENDBRANCH  14  19
BRANCH  15  21
ATOM     21  C   UNL     1       8.069  28.662  15.096  1.00  0.00     0.191 C 
BRANCH  21  22
ATOM     22  O   UNL     1       7.662  30.002  15.100  1.00  0.00    -0.394 OA
ATOM     23  H   UNL     1       6.694  29.996  15.316  1.00  0.00     0.210 HD
ENDBRANCH  21  22
ENDBRANCH  15  21
BRANCH  16  24
ATOM     24  O   UNL     1       5.108  29.114  15.168  1.00  0.00    -0.387 OA
ATOM     25  H   UNL     1       4.157  29.304  15.394  1.00  0.00     0.211 HD
ENDBRANCH  16  24
ENDBRANCH  10  11
ENDBRANCH   4  10
BRANCH   6  26
ATOM     26  O   UNL     1       7.103  21.725  19.331  1.00  0.00    -0.346 OA
BRANCH  26  27
ATOM     27  C   UNL     1       7.085  20.427  19.943  1.00  0.00     0.130 C 
ATOM     28  C   UNL     1       7.555  20.298  21.389  1.00  0.00     0.033 C 
ATOM     29  C   UNL     1       7.571  19.229  19.052  1.00  0.00     0.020 C 
ATOM     30  C   UNL     1       6.878  19.069  22.041  1.00  0.00     0.010 C 
ATOM     31  C   UNL     1       6.803  17.948  19.594  1.00  0.00     0.006 C 
ATOM     32  C   UNL     1       7.117  19.555  17.585  1.00  0.00     0.017 C 
ATOM     33  C   UNL     1       6.790  17.718  21.183  1.00  0.00    -0.022 C 
ATOM     34  C   UNL     1       7.055  16.638  18.788  1.00  0.00     0.005 C 
ATOM     35  C   UNL     1       5.355  17.178  21.526  1.00  0.00     0.012 C 
ATOM     36  C   UNL     1       7.873  16.642  21.695  1.00  0.00     0.024 C 
ATOM     37  C   UNL     1       8.207  15.755  19.294  1.00  0.00     0.008 C 
ATOM     38  C   UNL     1       8.163  15.339  20.806  1.00  0.00    -0.017 C 
ATOM     39  C   UNL     1       9.158  17.235  22.241  1.00  0.00    -0.024 C 
ATOM     40  C   UNL     1       6.937  14.373  20.932  1.00  0.00     0.013 C 
ATOM     41  C   UNL     1       9.572  14.587  21.267  1.00  0.00     0.009 C 
ATOM     42  C   UNL     1      10.049  16.459  22.873  1.00  0.00     0.005 C 
ATOM     43  C   UNL     1       9.974  14.952  22.764  1.00  0.00     0.096 C 
ATOM     44  C   UNL     1       9.583  13.007  21.121  1.00  0.00     0.043 C 
ATOM     45  C   UNL     1      10.774  15.069  20.373  1.00  0.00     0.015 C 
ATOM     46  C   UNL     1       9.021  14.293  23.787  1.00  0.00     0.037 C 
ATOM     47  O   UNL     1      11.263  14.431  23.056  1.00  0.00    -0.369 OA
ATOM     48  C   UNL     1       9.167  12.185  22.379  1.00  0.00     0.124 C 
ATOM     49  C   UNL     1       9.571  12.876  23.737  1.00  0.00     0.026 C 
ATOM     50  C   UNL     1       9.112  14.932  25.201  1.00  0.00     0.014 C 
ATOM     51  C   UNL     1      11.078  13.183  23.700  1.00  0.00     0.171 C 
ATOM     52  C   UNL     1       9.181  11.968  24.937  1.00  0.00     0.013 C 
ATOM     53  C   UNL     1       8.527  14.028  26.316  1.00  0.00    -0.035 C 
ATOM     54  C   UNL     1       9.250  12.660  26.305  1.00  0.00     0.007 C 
ATOM     55  C   UNL     1       8.773  14.703  27.685  1.00  0.00     0.011 C 
ATOM     56  C   UNL     1       6.995  13.854  26.145  1.00  0.00     0.011 C 
BRANCH  29  57
ATOM     57  C   UNL     1       9.124  19.000  19.110  1.00  0.00     0.165 C 
BRANCH  57  58
ATOM     58  O   UNL     1       9.835  20.194  19.243  1.00  0.00    -0.396 OA
ATOM     59  H   UNL     1      10.661  20.095  18.703  1.00  0.00     0.210 HD
ENDBRANCH  57  58
ENDBRANCH  29  57
BRANCH  48  60
ATOM     60  O   UNL     1       7.812  11.789  22.296  1.00  0.00    -0.392 OA
ATOM     61  H   UNL     1       7.381  11.890  23.176  1.00  0.00     0.210 HD
ENDBRANCH  48  60
ENDBRANCH  26  27
ENDBRANCH   6  26
BRANCH   5  62
ATOM     62  O   UNL     1       4.833  24.058  19.048  1.00  0.00    -0.385 OA
ATOM     63  H   UNL     1       4.598  24.954  18.688  1.00  0.00     0.211 HD
ENDBRANCH   5  62
TORSDOF 14
ENDMDL
MODEL 4
REMARK VINA RESULT:    -8.797      5.951     12.848
REMARK INTER + INTRA:         -15.341
REMARK INTER:                 -14.289
REMARK INTRA:                  -1.052
REMARK UNBOUND:                -1.401
REMARK SMILES C[C@@H]1O[C@H](O[C@@H]2CC[C@@]3(C)[C@H](CC[C@]4(C)[C@H]3C=C[C@@]35OC[C@]6(CCC(C)(C)C[C@H]63)[C@@H](O)C[C@@]45C)[C@]2(C)CO)[C@@H](O)[C@@H](O[C@H]2O[C@H](CO)[C@H](O)[C@H](O)[C@H]2O)[C@H]1O
REMARK SMILES IDX 1 1 2 2 54 3 41 4 39 5 4 6 3 7 55 8 42 10 43 11 52 12 44 13
REMARK SMILES IDX 50 14 45 15 48 16 53 17 51 19 46 21 47 22 49 24 5 26 6 27
REMARK SMILES IDX 7 28 35 29 8 30 11 31 36 32 9 33 12 34 10 35 16 36 13 37
REMARK SMILES IDX 14 38 17 39 15 40 33 41 18 42 19 43 32 44 34 45 29 46 20 47
REMARK SMILES IDX 30 48 22 49 28 50 21 51 23 52 25 53 24 54 26 55 27 56 37 57
REMARK SMILES IDX 38 58 31 60 40 62
REMARK H PARENT 55 9 53 18 51 20 47 23 49 25 38 59 31 61 40 63
REMARK Flexibility Score: inf
ROOT
ATOM      1  C   UNL     1      12.224  20.110  29.434  1.00  0.00     0.041 C 
ATOM      2  C   UNL     1      13.232  18.963  29.303  1.00  0.00     0.150 C 
ATOM      3  C   UNL     1      14.072  18.836  30.616  1.00  0.00     0.175 C 
ATOM      4  C   UNL     1      13.997  17.393  31.174  1.00  0.00     0.186 C 
ATOM      5  C   UNL     1      14.200  16.340  30.054  1.00  0.00     0.202 C 
ATOM      6  C   UNL     1      13.374  16.705  28.765  1.00  0.00     0.282 C 
ATOM      7  O   UNL     1      12.511  17.773  29.057  1.00  0.00    -0.344 OA
ENDROOT
BRANCH   3   8
ATOM      8  O   UNL     1      15.395  19.220  30.351  1.00  0.00    -0.388 OA
ATOM      9  H   UNL     1      15.441  20.204  30.541  1.00  0.00     0.211 HD
ENDBRANCH   3   8
BRANCH   4  10
ATOM     10  O   UNL     1      14.921  17.204  32.239  1.00  0.00    -0.341 OA
BRANCH  10  11
ATOM     11  C   UNL     1      14.305  16.489  33.297  1.00  0.00     0.282 C 
ATOM     12  C   UNL     1      15.325  16.143  34.392  1.00  0.00     0.202 C 
ATOM     13  O   UNL     1      13.575  15.390  32.782  1.00  0.00    -0.341 OA
ATOM     14  C   UNL     1      16.348  15.065  33.974  1.00  0.00     0.179 C 
ATOM     15  C   UNL     1      14.245  14.139  32.733  1.00  0.00     0.178 C 
ATOM     16  C   UNL     1      15.801  14.209  32.808  1.00  0.00     0.177 C 
BRANCH  12  17
ATOM     17  O   UNL     1      15.939  17.320  34.864  1.00  0.00    -0.385 OA
ATOM     18  H   UNL     1      16.762  17.096  35.386  1.00  0.00     0.211 HD
ENDBRANCH  12  17
BRANCH  14  19
ATOM     19  O   UNL     1      16.655  14.257  35.080  1.00  0.00    -0.387 OA
ATOM     20  H   UNL     1      17.169  13.471  34.738  1.00  0.00     0.211 HD
ENDBRANCH  14  19
BRANCH  15  21
ATOM     21  C   UNL     1      13.555  13.147  33.681  1.00  0.00     0.191 C 
BRANCH  21  22
ATOM     22  O   UNL     1      13.504  11.850  33.155  1.00  0.00    -0.394 OA
ATOM     23  H   UNL     1      12.694  11.816  32.584  1.00  0.00     0.210 HD
ENDBRANCH  21  22
ENDBRANCH  15  21
BRANCH  16  24
ATOM     24  O   UNL     1      16.406  12.926  32.784  1.00  0.00    -0.387 OA
ATOM     25  H   UNL     1      17.312  12.980  33.190  1.00  0.00     0.211 HD
ENDBRANCH  16  24
ENDBRANCH  10  11
ENDBRANCH   4  10
BRANCH   6  26
ATOM     26  O   UNL     1      12.625  15.549  28.425  1.00  0.00    -0.346 OA
BRANCH  26  27
ATOM     27  C   UNL     1      12.071  15.444  27.105  1.00  0.00     0.130 C 
ATOM     28  C   UNL     1      11.750  16.728  26.347  1.00  0.00     0.033 C 
ATOM     29  C   UNL     1      10.976  14.339  26.894  1.00  0.00     0.020 C 
ATOM     30  C   UNL     1      11.806  16.454  24.825  1.00  0.00     0.010 C 
ATOM     31  C   UNL     1      11.074  13.920  25.364  1.00  0.00     0.006 C 
ATOM     32  C   UNL     1      11.377  13.134  27.816  1.00  0.00     0.017 C 
ATOM     33  C   UNL     1      11.136  15.103  24.281  1.00  0.00    -0.022 C 
ATOM     34  C   UNL     1      10.135  12.750  24.939  1.00  0.00     0.005 C 
ATOM     35  C   UNL     1      12.154  14.626  23.184  1.00  0.00     0.012 C 
ATOM     36  C   UNL     1       9.726  15.410  23.568  1.00  0.00     0.024 C 
ATOM     37  C   UNL     1       8.758  13.165  24.396  1.00  0.00     0.008 C 
ATOM     38  C   UNL     1       8.749  14.189  23.209  1.00  0.00    -0.017 C 
ATOM     39  C   UNL     1       8.956  16.582  24.144  1.00  0.00    -0.024 C 
ATOM     40  C   UNL     1       9.355  13.413  21.992  1.00  0.00     0.013 C 
ATOM     41  C   UNL     1       7.208  14.718  22.879  1.00  0.00     0.009 C 
ATOM     42  C   UNL     1       7.870  17.056  23.518  1.00  0.00     0.005 C 
ATOM     43  C   UNL     1       7.191  16.247  22.435  1.00  0.00     0.096 C 
ATOM     44  C   UNL     1       6.415  13.877  21.792  1.00  0.00     0.043 C 
ATOM     45  C   UNL     1       6.307  14.637  24.167  1.00  0.00     0.015 C 
ATOM     46  C   UNL     1       7.801  16.440  21.028  1.00  0.00     0.037 C 
ATOM     47  O   UNL     1       5.849  16.702  22.331  1.00  0.00    -0.369 OA
ATOM     48  C   UNL     1       6.505  14.376  20.317  1.00  0.00     0.124 C 
ATOM     49  C   UNL     1       6.630  15.943  20.196  1.00  0.00     0.026 C 
ATOM     50  C   UNL     1       8.179  17.917  20.726  1.00  0.00     0.014 C 
ATOM     51  C   UNL     1       5.468  16.587  20.971  1.00  0.00     0.171 C 
ATOM     52  C   UNL     1       6.650  16.364  18.700  1.00  0.00     0.013 C 
ATOM     53  C   UNL     1       8.361  18.202  19.214  1.00  0.00    -0.035 C 
ATOM     54  C   UNL     1       7.068  17.821  18.457  1.00  0.00     0.007 C 
ATOM     55  C   UNL     1       8.617  19.714  19.019  1.00  0.00     0.011 C 
ATOM     56  C   UNL     1       9.588  17.441  18.648  1.00  0.00     0.011 C 
BRANCH  29  57
ATOM     57  C   UNL     1       9.523  14.831  27.232  1.00  0.00     0.165 C 
BRANCH  57  58
ATOM     58  O   UNL     1       9.436  15.406  28.502  1.00  0.00    -0.396 OA
ATOM     59  H   UNL     1       9.781  16.332  28.419  1.00  0.00     0.210 HD
ENDBRANCH  57  58
ENDBRANCH  29  57
BRANCH  48  60
ATOM     60  O   UNL     1       7.479  13.646  19.598  1.00  0.00    -0.392 OA
ATOM     61  H   UNL     1       8.260  13.477  20.175  1.00  0.00     0.210 HD
ENDBRANCH  48  60
ENDBRANCH  26  27
ENDBRANCH   6  26
BRANCH   5  62
ATOM     62  O   UNL     1      15.559  16.120  29.745  1.00  0.00    -0.385 OA
ATOM     63  H   UNL     1      15.808  16.721  28.995  1.00  0.00     0.211 HD
ENDBRANCH   5  62
TORSDOF 14
ENDMDL
MODEL 5
REMARK VINA RESULT:    -8.617      6.299     12.298
REMARK INTER + INTRA:         -15.056
REMARK INTER:                 -13.794
REMARK INTRA:                  -1.262
REMARK UNBOUND:                -1.401
REMARK SMILES C[C@@H]1O[C@H](O[C@@H]2CC[C@@]3(C)[C@H](CC[C@]4(C)[C@H]3C=C[C@@]35OC[C@]6(CCC(C)(C)C[C@H]63)[C@@H](O)C[C@@]45C)[C@]2(C)CO)[C@@H](O)[C@@H](O[C@H]2O[C@H](CO)[C@H](O)[C@H](O)[C@H]2O)[C@H]1O
REMARK SMILES IDX 1 1 2 2 54 3 41 4 39 5 4 6 3 7 55 8 42 10 43 11 52 12 44 13
REMARK SMILES IDX 50 14 45 15 48 16 53 17 51 19 46 21 47 22 49 24 5 26 6 27
REMARK SMILES IDX 7 28 35 29 8 30 11 31 36 32 9 33 12 34 10 35 16 36 13 37
REMARK SMILES IDX 14 38 17 39 15 40 33 41 18 42 19 43 32 44 34 45 29 46 20 47
REMARK SMILES IDX 30 48 22 49 28 50 21 51 23 52 25 53 24 54 26 55 27 56 37 57
REMARK SMILES IDX 38 58 31 60 40 62
REMARK H PARENT 55 9 53 18 51 20 47 23 49 25 38 59 31 61 40 63
REMARK Flexibility Score: inf
ROOT
ATOM      1  C   UNL     1      11.799  20.430  28.301  1.00  0.00     0.041 C 
ATOM      2  C   UNL     1      12.778  19.250  28.312  1.00  0.00     0.150 C 
ATOM      3  C   UNL     1      13.708  19.339  29.566  1.00  0.00     0.175 C 
ATOM      4  C   UNL     1      13.652  18.023  30.381  1.00  0.00     0.186 C 
ATOM      5  C   UNL     1      13.760  16.780  29.459  1.00  0.00     0.202 C 
ATOM      6  C   UNL     1      12.848  16.930  28.184  1.00  0.00     0.282 C 
ATOM      7  O   UNL     1      12.024  18.056  28.336  1.00  0.00    -0.344 OA
ENDROOT
BRANCH   3   8
ATOM      8  O   UNL     1      15.014  19.633  29.147  1.00  0.00    -0.388 OA
ATOM      9  H   UNL     1      15.555  18.809  29.328  1.00  0.00     0.211 HD
ENDBRANCH   3   8
BRANCH   4  10
ATOM     10  O   UNL     1      14.647  18.003  31.398  1.00  0.00    -0.341 OA
BRANCH  10  11
ATOM     11  C   UNL     1      14.254  17.134  32.446  1.00  0.00     0.282 C 
ATOM     12  C   UNL     1      14.918  17.538  33.772  1.00  0.00     0.202 C 
ATOM     13  O   UNL     1      14.450  15.786  32.059  1.00  0.00    -0.341 OA
ATOM     14  C   UNL     1      16.436  17.260  33.821  1.00  0.00     0.179 C 
ATOM     15  C   UNL     1      15.682  15.182  32.429  1.00  0.00     0.178 C 
ATOM     16  C   UNL     1      16.830  16.172  32.793  1.00  0.00     0.177 C 
BRANCH  12  17
ATOM     17  O   UNL     1      14.602  18.877  34.077  1.00  0.00    -0.385 OA
ATOM     18  H   UNL     1      14.300  19.358  33.254  1.00  0.00     0.211 HD
ENDBRANCH  12  17
BRANCH  14  19
ATOM     19  O   UNL     1      16.799  16.870  35.118  1.00  0.00    -0.387 OA
ATOM     20  H   UNL     1      16.816  17.695  35.681  1.00  0.00     0.211 HD
ENDBRANCH  14  19
BRANCH  15  21
ATOM     21  C   UNL     1      15.418  14.040  33.422  1.00  0.00     0.191 C 
BRANCH  21  22
ATOM     22  O   UNL     1      16.193  14.150  34.583  1.00  0.00    -0.394 OA
ATOM     23  H   UNL     1      16.100  15.090  34.888  1.00  0.00     0.210 HD
ENDBRANCH  21  22
ENDBRANCH  15  21
BRANCH  16  24
ATOM     24  O   UNL     1      18.021  15.506  33.181  1.00  0.00    -0.387 OA
ATOM     25  H   UNL     1      17.970  15.275  34.148  1.00  0.00     0.211 HD
ENDBRANCH  16  24
ENDBRANCH  10  11
ENDBRANCH   4  10
BRANCH   6  26
ATOM     26  O   UNL     1      12.060  15.752  28.112  1.00  0.00    -0.346 OA
BRANCH  26  27
ATOM     27  C   UNL     1      11.468  15.391  26.856  1.00  0.00     0.130 C 
ATOM     28  C   UNL     1      11.947  16.101  25.594  1.00  0.00     0.033 C 
ATOM     29  C   UNL     1       9.913  15.166  26.857  1.00  0.00     0.020 C 
ATOM     30  C   UNL     1      11.716  15.184  24.369  1.00  0.00     0.010 C 
ATOM     31  C   UNL     1       9.627  14.122  25.693  1.00  0.00     0.006 C 
ATOM     32  C   UNL     1       9.556  14.538  28.251  1.00  0.00     0.017 C 
ATOM     33  C   UNL     1      10.324  14.397  24.273  1.00  0.00    -0.022 C 
ATOM     34  C   UNL     1       8.141  13.666  25.568  1.00  0.00     0.005 C 
ATOM     35  C   UNL     1      10.756  12.987  23.730  1.00  0.00     0.012 C 
ATOM     36  C   UNL     1       9.350  15.083  23.190  1.00  0.00     0.024 C 
ATOM     37  C   UNL     1       7.272  14.485  24.600  1.00  0.00     0.008 C 
ATOM     38  C   UNL     1       7.808  14.644  23.135  1.00  0.00    -0.017 C 
ATOM     39  C   UNL     1       9.501  16.585  23.051  1.00  0.00    -0.024 C 
ATOM     40  C   UNL     1       7.725  13.211  22.509  1.00  0.00     0.013 C 
ATOM     41  C   UNL     1       6.895  15.731  22.272  1.00  0.00     0.009 C 
ATOM     42  C   UNL     1       8.892  17.240  22.054  1.00  0.00     0.005 C 
ATOM     43  C   UNL     1       7.786  16.580  21.261  1.00  0.00     0.096 C 
ATOM     44  C   UNL     1       5.679  15.113  21.462  1.00  0.00     0.043 C 
ATOM     45  C   UNL     1       6.227  16.781  23.235  1.00  0.00     0.015 C 
ATOM     46  C   UNL     1       8.286  15.718  20.079  1.00  0.00     0.037 C 
ATOM     47  O   UNL     1       7.000  17.607  20.674  1.00  0.00    -0.369 OA
ATOM     48  C   UNL     1       5.952  14.725  19.976  1.00  0.00     0.124 C 
ATOM     49  C   UNL     1       7.000  15.665  19.269  1.00  0.00     0.026 C 
ATOM     50  C   UNL     1       9.466  16.371  19.307  1.00  0.00     0.014 C 
ATOM     51  C   UNL     1       6.534  17.123  19.426  1.00  0.00     0.171 C 
ATOM     52  C   UNL     1       7.169  15.255  17.780  1.00  0.00     0.013 C 
ATOM     53  C   UNL     1       9.678  15.767  17.895  1.00  0.00    -0.035 C 
ATOM     54  C   UNL     1       8.372  15.898  17.076  1.00  0.00     0.007 C 
ATOM     55  C   UNL     1      10.791  16.562  17.175  1.00  0.00     0.011 C 
ATOM     56  C   UNL     1      10.138  14.289  17.985  1.00  0.00     0.011 C 
BRANCH  29  57
ATOM     57  C   UNL     1       9.094  16.485  26.621  1.00  0.00     0.165 C 
BRANCH  57  58
ATOM     58  O   UNL     1       9.879  17.632  26.754  1.00  0.00    -0.396 OA
ATOM     59  H   UNL     1      10.460  17.673  25.952  1.00  0.00     0.210 HD
ENDBRANCH  57  58
ENDBRANCH  29  57
BRANCH  48  60
ATOM     60  O   UNL     1       6.222  13.342  19.859  1.00  0.00    -0.392 OA
ATOM     61  H   UNL     1       6.617  13.154  18.976  1.00  0.00     0.210 HD
ENDBRANCH  48  60
ENDBRANCH  26  27
ENDBRANCH   6  26
BRANCH   5  62
ATOM     62  O   UNL     1      15.089  16.471  29.105  1.00  0.00    -0.385 OA
ATOM     63  H   UNL     1      15.312  16.967  28.274  1.00  0.00     0.211 HD
ENDBRANCH   5  62
TORSDOF 14
ENDMDL
MODEL 6
REMARK VINA RESULT:    -8.223      7.005     10.889
REMARK INTER + INTRA:         -14.432
REMARK INTER:                 -12.811
REMARK INTRA:                  -1.621
REMARK UNBOUND:                -1.401
REMARK SMILES C[C@@H]1O[C@H](O[C@@H]2CC[C@@]3(C)[C@H](CC[C@]4(C)[C@H]3C=C[C@@]35OC[C@]6(CCC(C)(C)C[C@H]63)[C@@H](O)C[C@@]45C)[C@]2(C)CO)[C@@H](O)[C@@H](O[C@H]2O[C@H](CO)[C@H](O)[C@H](O)[C@H]2O)[C@H]1O
REMARK SMILES IDX 1 1 2 2 54 3 41 4 39 5 4 6 3 7 55 8 42 10 43 11 52 12 44 13
REMARK SMILES IDX 50 14 45 15 48 16 53 17 51 19 46 21 47 22 49 24 5 26 6 27
REMARK SMILES IDX 7 28 35 29 8 30 11 31 36 32 9 33 12 34 10 35 16 36 13 37
REMARK SMILES IDX 14 38 17 39 15 40 33 41 18 42 19 43 32 44 34 45 29 46 20 47
REMARK SMILES IDX 30 48 22 49 28 50 21 51 23 52 25 53 24 54 26 55 27 56 37 57
REMARK SMILES IDX 38 58 31 60 40 62
REMARK H PARENT 55 9 53 18 51 20 47 23 49 25 38 59 31 61 40 63
REMARK Flexibility Score: inf
ROOT
ATOM      1  C   UNL     1      11.282  20.913  29.731  1.00  0.00     0.041 C 
ATOM      2  C   UNL     1      12.156  20.448  28.560  1.00  0.00     0.150 C 
ATOM      3  C   UNL     1      13.566  21.118  28.646  1.00  0.00     0.175 C 
ATOM      4  C   UNL     1      14.683  20.045  28.620  1.00  0.00     0.186 C 
ATOM      5  C   UNL     1      14.426  18.987  27.515  1.00  0.00     0.202 C 
ATOM      6  C   UNL     1      12.921  18.525  27.500  1.00  0.00     0.282 C 
ATOM      7  O   UNL     1      12.269  19.041  28.631  1.00  0.00    -0.344 OA
ENDROOT
BRANCH   3   8
ATOM      8  O   UNL     1      13.703  22.033  27.591  1.00  0.00    -0.388 OA
ATOM      9  H   UNL     1      13.070  22.785  27.793  1.00  0.00     0.211 HD
ENDBRANCH   3   8
BRANCH   4  10
ATOM     10  O   UNL     1      15.967  20.640  28.480  1.00  0.00    -0.341 OA
BRANCH  10  11
ATOM     11  C   UNL     1      16.195  21.559  29.534  1.00  0.00     0.282 C 
ATOM     12  C   UNL     1      17.058  22.738  29.058  1.00  0.00     0.202 C 
ATOM     13  O   UNL     1      16.682  20.878  30.677  1.00  0.00    -0.341 OA
ATOM     14  C   UNL     1      18.530  22.362  28.781  1.00  0.00     0.179 C 
ATOM     15  C   UNL     1      18.091  20.812  30.836  1.00  0.00     0.178 C 
ATOM     16  C   UNL     1      18.924  21.076  29.545  1.00  0.00     0.177 C 
BRANCH  12  17
ATOM     17  O   UNL     1      16.444  23.369  27.959  1.00  0.00    -0.385 OA
ATOM     18  H   UNL     1      16.027  24.232  28.243  1.00  0.00     0.211 HD
ENDBRANCH  12  17
BRANCH  14  19
ATOM     19  O   UNL     1      19.364  23.430  29.146  1.00  0.00    -0.387 OA
ATOM     20  H   UNL     1      20.262  23.255  28.745  1.00  0.00     0.211 HD
ENDBRANCH  14  19
BRANCH  15  21
ATOM     21  C   UNL     1      18.505  21.592  32.093  1.00  0.00     0.191 C 
BRANCH  21  22
ATOM     22  O   UNL     1      19.469  22.571  31.822  1.00  0.00    -0.394 OA
ATOM     23  H   UNL     1      20.299  22.082  31.582  1.00  0.00     0.210 HD
ENDBRANCH  21  22
ENDBRANCH  15  21
BRANCH  16  24
ATOM     24  O   UNL     1      20.322  21.024  29.779  1.00  0.00    -0.387 OA
ATOM     25  H   UNL     1      20.772  20.589  29.005  1.00  0.00     0.211 HD
ENDBRANCH  16  24
ENDBRANCH  10  11
ENDBRANCH   4  10
BRANCH   6  26
ATOM     26  O   UNL     1      12.934  17.107  27.548  1.00  0.00    -0.346 OA
BRANCH  26  27
ATOM     27  C   UNL     1      12.363  16.372  26.454  1.00  0.00     0.130 C 
ATOM     28  C   UNL     1      12.571  16.897  25.037  1.00  0.00     0.033 C 
ATOM     29  C   UNL     1      10.913  15.811  26.674  1.00  0.00     0.020 C 
ATOM     30  C   UNL     1      12.486  15.720  24.037  1.00  0.00     0.010 C 
ATOM     31  C   UNL     1      10.810  14.513  25.762  1.00  0.00     0.006 C 
ATOM     32  C   UNL     1      10.813  15.420  28.191  1.00  0.00     0.017 C 
ATOM     33  C   UNL     1      11.323  14.638  24.246  1.00  0.00    -0.022 C 
ATOM     34  C   UNL     1       9.473  13.721  25.893  1.00  0.00     0.005 C 
ATOM     35  C   UNL     1      12.045  13.281  23.926  1.00  0.00     0.012 C 
ATOM     36  C   UNL     1      10.142  14.852  23.173  1.00  0.00     0.024 C 
ATOM     37  C   UNL     1       8.369  14.108  24.896  1.00  0.00     0.008 C 
ATOM     38  C   UNL     1       8.751  14.078  23.375  1.00  0.00    -0.017 C 
ATOM     39  C   UNL     1       9.915  16.288  22.744  1.00  0.00    -0.024 C 
ATOM     40  C   UNL     1       8.975  12.565  23.037  1.00  0.00     0.013 C 
ATOM     41  C   UNL     1       7.546  14.732  22.436  1.00  0.00     0.009 C 
ATOM     42  C   UNL     1       9.101  16.571  21.719  1.00  0.00     0.005 C 
ATOM     43  C   UNL     1       8.136  15.532  21.192  1.00  0.00     0.096 C 
ATOM     44  C   UNL     1       6.464  13.705  21.898  1.00  0.00     0.043 C 
ATOM     45  C   UNL     1       6.711  15.781  23.260  1.00  0.00     0.015 C 
ATOM     46  C   UNL     1       8.749  14.580  20.140  1.00  0.00     0.037 C 
ATOM     47  O   UNL     1       7.088  16.215  20.519  1.00  0.00    -0.369 OA
ATOM     48  C   UNL     1       6.722  13.091  20.487  1.00  0.00     0.124 C 
ATOM     49  C   UNL     1       7.463  14.076  19.505  1.00  0.00     0.026 C 
ATOM     50  C   UNL     1       9.682  15.306  19.132  1.00  0.00     0.014 C 
ATOM     51  C   UNL     1       6.670  15.392  19.443  1.00  0.00     0.171 C 
ATOM     52  C   UNL     1       7.625  13.416  18.107  1.00  0.00     0.013 C 
ATOM     53  C   UNL     1       9.937  14.489  17.840  1.00  0.00    -0.035 C 
ATOM     54  C   UNL     1       8.587  14.153  17.165  1.00  0.00     0.007 C 
ATOM     55  C   UNL     1      10.775  15.347  16.865  1.00  0.00     0.011 C 
ATOM     56  C   UNL     1      10.746  13.201  18.147  1.00  0.00     0.011 C 
BRANCH  29  57
ATOM     57  C   UNL     1       9.785  16.836  26.294  1.00  0.00     0.165 C 
BRANCH  57  58
ATOM     58  O   UNL     1       8.643  16.690  27.084  1.00  0.00    -0.396 OA
ATOM     59  H   UNL     1       8.753  17.300  27.858  1.00  0.00     0.210 HD
ENDBRANCH  57  58
ENDBRANCH  29  57
BRANCH  48  60
ATOM     60  O   UNL     1       7.310  11.809  20.597  1.00  0.00    -0.392 OA
ATOM     61  H   UNL     1       6.607  11.132  20.735  1.00  0.00     0.210 HD
ENDBRANCH  48  60
ENDBRANCH  26  27
ENDBRANCH   6  26
BRANCH   5  62
ATOM     62  O   UNL     1      14.844  19.412  26.237  1.00  0.00    -0.385 OA
ATOM     63  H   UNL     1      14.918  18.612  25.653  1.00  0.00     0.211 HD
ENDBRANCH   5  62
TORSDOF 14
ENDMDL
MODEL 7
REMARK VINA RESULT:    -8.076      5.808     11.358
REMARK INTER + INTRA:         -14.198
REMARK INTER:                 -13.654
REMARK INTRA:                  -0.544
REMARK UNBOUND:                -1.401
REMARK SMILES C[C@@H]1O[C@H](O[C@@H]2CC[C@@]3(C)[C@H](CC[C@]4(C)[C@H]3C=C[C@@]35OC[C@]6(CCC(C)(C)C[C@H]63)[C@@H](O)C[C@@]45C)[C@]2(C)CO)[C@@H](O)[C@@H](O[C@H]2O[C@H](CO)[C@H](O)[C@H](O)[C@H]2O)[C@H]1O
REMARK SMILES IDX 1 1 2 2 54 3 41 4 39 5 4 6 3 7 55 8 42 10 43 11 52 12 44 13
REMARK SMILES IDX 50 14 45 15 48 16 53 17 51 19 46 21 47 22 49 24 5 26 6 27
REMARK SMILES IDX 7 28 35 29 8 30 11 31 36 32 9 33 12 34 10 35 16 36 13 37
REMARK SMILES IDX 14 38 17 39 15 40 33 41 18 42 19 43 32 44 34 45 29 46 20 47
REMARK SMILES IDX 30 48 22 49 28 50 21 51 23 52 25 53 24 54 26 55 27 56 37 57
REMARK SMILES IDX 38 58 31 60 40 62
REMARK H PARENT 55 9 53 18 51 20 47 23 49 25 38 59 31 61 40 63
REMARK Flexibility Score: inf
ROOT
ATOM      1  C   UNL     1      13.128  16.883  32.543  1.00  0.00     0.041 C 
ATOM      2  C   UNL     1      12.878  17.394  31.119  1.00  0.00     0.150 C 
ATOM      3  C   UNL     1      13.734  18.674  30.852  1.00  0.00     0.175 C 
ATOM      4  C   UNL     1      14.597  18.497  29.578  1.00  0.00     0.186 C 
ATOM      5  C   UNL     1      13.770  17.896  28.412  1.00  0.00     0.202 C 
ATOM      6  C   UNL     1      12.873  16.698  28.901  1.00  0.00     0.282 C 
ATOM      7  O   UNL     1      13.227  16.364  30.218  1.00  0.00    -0.344 OA
ENDROOT
BRANCH   3   8
ATOM      8  O   UNL     1      12.880  19.783  30.748  1.00  0.00    -0.388 OA
ATOM      9  H   UNL     1      11.995  19.423  30.443  1.00  0.00     0.211 HD
ENDBRANCH   3   8
BRANCH   4  10
ATOM     10  O   UNL     1      15.216  19.721  29.199  1.00  0.00    -0.341 OA
BRANCH  10  11
ATOM     11  C   UNL     1      15.791  20.346  30.333  1.00  0.00     0.282 C 
ATOM     12  C   UNL     1      15.614  21.871  30.267  1.00  0.00     0.202 C 
ATOM     13  O   UNL     1      17.124  19.900  30.511  1.00  0.00    -0.341 OA
ATOM     14  C   UNL     1      16.478  22.554  29.185  1.00  0.00     0.179 C 
ATOM     15  C   UNL     1      18.151  20.692  29.931  1.00  0.00     0.178 C 
ATOM     16  C   UNL     1      17.689  21.669  28.806  1.00  0.00     0.177 C 
BRANCH  12  17
ATOM     17  O   UNL     1      14.247  22.190  30.151  1.00  0.00    -0.385 OA
ATOM     18  H   UNL     1      14.134  23.061  29.671  1.00  0.00     0.211 HD
ENDBRANCH  12  17
BRANCH  14  19
ATOM     19  O   UNL     1      16.907  23.807  29.649  1.00  0.00    -0.387 OA
ATOM     20  H   UNL     1      16.134  24.433  29.567  1.00  0.00     0.211 HD
ENDBRANCH  14  19
BRANCH  15  21
ATOM     21  C   UNL     1      19.031  21.287  31.040  1.00  0.00     0.191 C 
BRANCH  21  22
ATOM     22  O   UNL     1      19.124  22.682  30.959  1.00  0.00    -0.394 OA
ATOM     23  H   UNL     1      19.124  22.903  29.992  1.00  0.00     0.210 HD
ENDBRANCH  21  22
ENDBRANCH  15  21
BRANCH  16  24
ATOM     24  O   UNL     1      18.756  22.449  28.292  1.00  0.00    -0.387 OA
ATOM     25  H   UNL     1      18.748  22.405  27.297  1.00  0.00     0.211 HD
ENDBRANCH  16  24
ENDBRANCH  10  11
ENDBRANCH   4  10
BRANCH   6  26
ATOM     26  O   UNL     1      13.143  15.610  28.030  1.00  0.00    -0.346 OA
BRANCH  26  27
ATOM     27  C   UNL     1      12.419  15.516  26.795  1.00  0.00     0.130 C 
ATOM     28  C   UNL     1      12.058  16.804  26.061  1.00  0.00     0.033 C 
ATOM     29  C   UNL     1      11.257  14.460  26.748  1.00  0.00     0.020 C 
ATOM     30  C   UNL     1      11.903  16.508  24.551  1.00  0.00     0.010 C 
ATOM     31  C   UNL     1      11.137  14.018  25.226  1.00  0.00     0.006 C 
ATOM     32  C   UNL     1      11.721  13.249  27.631  1.00  0.00     0.017 C 
ATOM     33  C   UNL     1      11.110  15.184  24.122  1.00  0.00    -0.022 C 
ATOM     34  C   UNL     1      10.099  12.888  24.948  1.00  0.00     0.005 C 
ATOM     35  C   UNL     1      11.953  14.646  22.911  1.00  0.00     0.012 C 
ATOM     36  C   UNL     1       9.633  15.547  23.592  1.00  0.00     0.024 C 
ATOM     37  C   UNL     1       8.683  13.359  24.580  1.00  0.00     0.008 C 
ATOM     38  C   UNL     1       8.565  14.368  23.386  1.00  0.00    -0.017 C 
ATOM     39  C   UNL     1       8.997  16.760  24.243  1.00  0.00    -0.024 C 
ATOM     40  C   UNL     1       8.972  13.550  22.114  1.00  0.00     0.013 C 
ATOM     41  C   UNL     1       7.019  14.963  23.248  1.00  0.00     0.009 C 
ATOM     42  C   UNL     1       7.862  17.276  23.754  1.00  0.00     0.005 C 
ATOM     43  C   UNL     1       7.012  16.486  22.783  1.00  0.00     0.096 C 
ATOM     44  C   UNL     1       6.054  14.147  22.289  1.00  0.00     0.043 C 
ATOM     45  C   UNL     1       6.291  14.940  24.643  1.00  0.00     0.015 C 
ATOM     46  C   UNL     1       7.442  16.633  21.306  1.00  0.00     0.037 C 
ATOM     47  O   UNL     1       5.690  17.002  22.845  1.00  0.00    -0.369 OA
ATOM     48  C   UNL     1       5.974  14.623  20.806  1.00  0.00     0.124 C 
ATOM     49  C   UNL     1       6.151  16.181  20.641  1.00  0.00     0.026 C 
ATOM     50  C   UNL     1       7.842  18.088  20.931  1.00  0.00     0.014 C 
ATOM     51  C   UNL     1       5.130  16.888  21.548  1.00  0.00     0.171 C 
ATOM     52  C   UNL     1       5.995  16.582  19.148  1.00  0.00     0.013 C 
ATOM     53  C   UNL     1       7.838  18.346  19.402  1.00  0.00    -0.035 C 
ATOM     54  C   UNL     1       6.441  18.015  18.826  1.00  0.00     0.007 C 
ATOM     55  C   UNL     1       8.133  19.842  19.149  1.00  0.00     0.011 C 
ATOM     56  C   UNL     1       8.946  17.521  18.696  1.00  0.00     0.011 C 
BRANCH  29  57
ATOM     57  C   UNL     1       9.884  15.023  27.262  1.00  0.00     0.165 C 
BRANCH  57  58
ATOM     58  O   UNL     1       9.164  14.081  27.999  1.00  0.00    -0.396 OA
ATOM     59  H   UNL     1       9.587  13.200  27.826  1.00  0.00     0.210 HD
ENDBRANCH  57  58
ENDBRANCH  29  57
BRANCH  48  60
ATOM     60  O   UNL     1       6.813  13.840  19.980  1.00  0.00    -0.392 OA
ATOM     61  H   UNL     1       6.505  13.896  19.046  1.00  0.00     0.210 HD
ENDBRANCH  48  60
ENDBRANCH  26  27
ENDBRANCH   6  26
BRANCH   5  62
ATOM     62  O   UNL     1      13.005  18.861  27.725  1.00  0.00    -0.385 OA
ATOM     63  H   UNL     1      12.281  18.390  27.233  1.00  0.00     0.211 HD
ENDBRANCH   5  62
TORSDOF 14
ENDMDL
MODEL 8
REMARK VINA RESULT:    -7.296      2.617     12.719
REMARK INTER + INTRA:         -12.962
REMARK INTER:                 -11.000
REMARK INTRA:                  -1.962
REMARK UNBOUND:                -1.401
REMARK SMILES C[C@@H]1O[C@H](O[C@@H]2CC[C@@]3(C)[C@H](CC[C@]4(C)[C@H]3C=C[C@@]35OC[C@]6(CCC(C)(C)C[C@H]63)[C@@H](O)C[C@@]45C)[C@]2(C)CO)[C@@H](O)[C@@H](O[C@H]2O[C@H](CO)[C@H](O)[C@H](O)[C@H]2O)[C@H]1O
REMARK SMILES IDX 1 1 2 2 54 3 41 4 39 5 4 6 3 7 55 8 42 10 43 11 52 12 44 13
REMARK SMILES IDX 50 14 45 15 48 16 53 17 51 19 46 21 47 22 49 24 5 26 6 27
REMARK SMILES IDX 7 28 35 29 8 30 11 31 36 32 9 33 12 34 10 35 16 36 13 37
REMARK SMILES IDX 14 38 17 39 15 40 33 41 18 42 19 43 32 44 34 45 29 46 20 47
REMARK SMILES IDX 30 48 22 49 28 50 21 51 23 52 25 53 24 54 26 55 27 56 37 57
REMARK SMILES IDX 38 58 31 60 40 62
REMARK H PARENT 55 9 53 18 51 20 47 23 49 25 38 59 31 61 40 63
REMARK Flexibility Score: inf
ROOT
ATOM      1  C   UNL     1       5.630  17.975  19.190  1.00  0.00     0.041 C 
ATOM      2  C   UNL     1       5.715  18.494  20.629  1.00  0.00     0.150 C 
ATOM      3  C   UNL     1       5.766  17.293  21.629  1.00  0.00     0.175 C 
ATOM      4  C   UNL     1       6.999  17.412  22.560  1.00  0.00     0.186 C 
ATOM      5  C   UNL     1       7.154  18.852  23.116  1.00  0.00     0.202 C 
ATOM      6  C   UNL     1       6.942  19.928  21.987  1.00  0.00     0.282 C 
ATOM      7  O   UNL     1       6.880  19.285  20.741  1.00  0.00    -0.344 OA
ENDROOT
BRANCH   3   8
ATOM      8  O   UNL     1       4.569  17.253  22.359  1.00  0.00    -0.388 OA
ATOM      9  H   UNL     1       3.863  16.948  21.716  1.00  0.00     0.211 HD
ENDBRANCH   3   8
BRANCH   4  10
ATOM     10  O   UNL     1       6.946  16.453  23.611  1.00  0.00    -0.341 OA
BRANCH  10  11
ATOM     11  C   UNL     1       7.041  15.143  23.079  1.00  0.00     0.282 C 
ATOM     12  C   UNL     1       6.203  14.154  23.904  1.00  0.00     0.202 C 
ATOM     13  O   UNL     1       8.400  14.785  22.906  1.00  0.00    -0.341 OA
ATOM     14  C   UNL     1       6.785  13.859  25.304  1.00  0.00     0.179 C 
ATOM     15  C   UNL     1       9.018  14.072  23.968  1.00  0.00     0.178 C 
ATOM     16  C   UNL     1       8.299  14.169  25.348  1.00  0.00     0.177 C 
BRANCH  12  17
ATOM     17  O   UNL     1       4.863  14.586  23.954  1.00  0.00    -0.385 OA
ATOM     18  H   UNL     1       4.349  14.209  23.184  1.00  0.00     0.211 HD
ENDBRANCH  12  17
BRANCH  14  19
ATOM     19  O   UNL     1       6.544  12.518  25.638  1.00  0.00    -0.387 OA
ATOM     20  H   UNL     1       7.383  12.159  26.044  1.00  0.00     0.211 HD
ENDBRANCH  14  19
BRANCH  15  21
ATOM     21  C   UNL     1       9.400  12.663  23.489  1.00  0.00     0.191 C 
BRANCH  21  22
ATOM     22  O   UNL     1      10.361  12.061  24.310  1.00  0.00    -0.394 OA
ATOM     23  H   UNL     1      11.028  11.653  23.700  1.00  0.00     0.210 HD
ENDBRANCH  21  22
ENDBRANCH  15  21
BRANCH  16  24
ATOM     24  O   UNL     1       8.950  13.412  26.355  1.00  0.00    -0.387 OA
ATOM     25  H   UNL     1       8.678  12.458  26.280  1.00  0.00     0.211 HD
ENDBRANCH  16  24
ENDBRANCH  10  11
ENDBRANCH   4  10
BRANCH   6  26
ATOM     26  O   UNL     1       8.067  20.792  22.037  1.00  0.00    -0.346 OA
BRANCH  26  27
ATOM     27  C   UNL     1       7.927  22.141  21.568  1.00  0.00     0.130 C 
ATOM     28  C   UNL     1       6.708  22.943  22.014  1.00  0.00     0.033 C 
ATOM     29  C   UNL     1       8.288  22.396  20.062  1.00  0.00     0.020 C 
ATOM     30  C   UNL     1       7.045  24.453  21.977  1.00  0.00     0.010 C 
ATOM     31  C   UNL     1       8.771  23.909  19.984  1.00  0.00     0.006 C 
ATOM     32  C   UNL     1       9.475  21.428  19.719  1.00  0.00     0.017 C 
ATOM     33  C   UNL     1       7.858  25.010  20.713  1.00  0.00    -0.022 C 
ATOM     34  C   UNL     1       9.282  24.367  18.584  1.00  0.00     0.005 C 
ATOM     35  C   UNL     1       8.857  26.033  21.362  1.00  0.00     0.012 C 
ATOM     36  C   UNL     1       6.883  25.814  19.714  1.00  0.00     0.024 C 
ATOM     37  C   UNL     1       8.226  25.001  17.664  1.00  0.00     0.008 C 
ATOM     38  C   UNL     1       7.414  26.207  18.252  1.00  0.00    -0.017 C 
ATOM     39  C   UNL     1       5.455  25.309  19.665  1.00  0.00    -0.024 C 
ATOM     40  C   UNL     1       8.453  27.369  18.400  1.00  0.00     0.013 C 
ATOM     41  C   UNL     1       6.164  26.641  17.247  1.00  0.00     0.009 C 
ATOM     42  C   UNL     1       4.508  26.010  19.028  1.00  0.00     0.005 C 
ATOM     43  C   UNL     1       4.884  27.116  18.066  1.00  0.00     0.096 C 
ATOM     44  C   UNL     1       6.507  27.757  16.172  1.00  0.00     0.043 C 
ATOM     45  C   UNL     1       5.689  25.410  16.390  1.00  0.00     0.015 C 
ATOM     46  C   UNL     1       5.115  28.486  18.743  1.00  0.00     0.037 C 
ATOM     47  O   UNL     1       3.791  27.311  17.180  1.00  0.00    -0.369 OA
ATOM     48  C   UNL     1       6.206  29.234  16.575  1.00  0.00     0.124 C 
ATOM     49  C   UNL     1       4.954  29.379  17.522  1.00  0.00     0.026 C 
ATOM     50  C   UNL     1       4.082  28.794  19.862  1.00  0.00     0.014 C 
ATOM     51  C   UNL     1       3.753  28.689  16.853  1.00  0.00     0.171 C 
ATOM     52  C   UNL     1       4.683  30.878  17.825  1.00  0.00     0.013 C 
ATOM     53  C   UNL     1       4.013  30.298  20.231  1.00  0.00    -0.035 C 
ATOM     54  C   UNL     1       3.685  31.125  18.965  1.00  0.00     0.007 C 
ATOM     55  C   UNL     1       2.880  30.507  21.262  1.00  0.00     0.011 C 
ATOM     56  C   UNL     1       5.337  30.772  20.884  1.00  0.00     0.011 C 
BRANCH  29  57
ATOM     57  C   UNL     1       7.083  22.158  19.083  1.00  0.00     0.165 C 
BRANCH  57  58
ATOM     58  O   UNL     1       7.261  21.028  18.284  1.00  0.00    -0.396 OA
ATOM     59  H   UNL     1       7.929  21.271  17.592  1.00  0.00     0.210 HD
ENDBRANCH  57  58
ENDBRANCH  29  57
BRANCH  48  60
ATOM     60  O   UNL     1       7.377  29.877  17.038  1.00  0.00    -0.392 OA
ATOM     61  H   UNL     1       7.198  30.837  17.172  1.00  0.00     0.210 HD
ENDBRANCH  48  60
ENDBRANCH  26  27
ENDBRANCH   6  26
BRANCH   5  62
ATOM     62  O   UNL     1       6.325  19.105  24.227  1.00  0.00    -0.385 OA
ATOM     63  H   UNL     1       6.298  20.087  24.377  1.00  0.00     0.211 HD
ENDBRANCH   5  62
TORSDOF 14
ENDMDL
MODEL 9
REMARK VINA RESULT:    -7.054      6.264     11.174
REMARK INTER + INTRA:         -12.579
REMARK INTER:                 -11.969
REMARK INTRA:                  -0.610
REMARK UNBOUND:                -1.401
REMARK SMILES C[C@@H]1O[C@H](O[C@@H]2CC[C@@]3(C)[C@H](CC[C@]4(C)[C@H]3C=C[C@@]35OC[C@]6(CCC(C)(C)C[C@H]63)[C@@H](O)C[C@@]45C)[C@]2(C)CO)[C@@H](O)[C@@H](O[C@H]2O[C@H](CO)[C@H](O)[C@H](O)[C@H]2O)[C@H]1O
REMARK SMILES IDX 1 1 2 2 54 3 41 4 39 5 4 6 3 7 55 8 42 10 43 11 52 12 44 13
REMARK SMILES IDX 50 14 45 15 48 16 53 17 51 19 46 21 47 22 49 24 5 26 6 27
REMARK SMILES IDX 7 28 35 29 8 30 11 31 36 32 9 33 12 34 10 35 16 36 13 37
REMARK SMILES IDX 14 38 17 39 15 40 33 41 18 42 19 43 32 44 34 45 29 46 20 47
REMARK SMILES IDX 30 48 22 49 28 50 21 51 23 52 25 53 24 54 26 55 27 56 37 57
REMARK SMILES IDX 38 58 31 60 40 62
REMARK H PARENT 55 9 53 18 51 20 47 23 49 25 38 59 31 61 40 63
REMARK Flexibility Score: inf
ROOT
ATOM      1  C   UNL     1      13.655  19.251  26.323  1.00  0.00     0.041 C 
ATOM      2  C   UNL     1      13.915  18.087  27.286  1.00  0.00     0.150 C 
ATOM      3  C   UNL     1      14.314  18.636  28.694  1.00  0.00     0.175 C 
ATOM      4  C   UNL     1      13.394  18.043  29.791  1.00  0.00     0.186 C 
ATOM      5  C   UNL     1      13.211  16.513  29.611  1.00  0.00     0.202 C 
ATOM      6  C   UNL     1      12.945  16.139  28.105  1.00  0.00     0.282 C 
ATOM      7  O   UNL     1      12.734  17.315  27.368  1.00  0.00    -0.344 OA
ENDROOT
BRANCH   3   8
ATOM      8  O   UNL     1      15.664  18.341  28.935  1.00  0.00    -0.388 OA
ATOM      9  H   UNL     1      15.758  18.269  29.931  1.00  0.00     0.211 HD
ENDBRANCH   3   8
BRANCH   4  10
ATOM     10  O   UNL     1      13.874  18.360  31.092  1.00  0.00    -0.341 OA
BRANCH  10  11
ATOM     11  C   UNL     1      14.598  19.577  31.061  1.00  0.00     0.282 C 
ATOM     12  C   UNL     1      15.851  19.493  31.946  1.00  0.00     0.202 C 
ATOM     13  O   UNL     1      13.734  20.665  31.340  1.00  0.00    -0.341 OA
ATOM     14  C   UNL     1      15.546  19.464  33.460  1.00  0.00     0.179 C 
ATOM     15  C   UNL     1      13.658  21.097  32.691  1.00  0.00     0.178 C 
ATOM     16  C   UNL     1      14.151  20.067  33.752  1.00  0.00     0.177 C 
BRANCH  12  17
ATOM     17  O   UNL     1      16.656  18.412  31.536  1.00  0.00    -0.385 OA
ATOM     18  H   UNL     1      17.423  18.741  30.985  1.00  0.00     0.211 HD
ENDBRANCH  12  17
BRANCH  14  19
ATOM     19  O   UNL     1      16.543  20.167  34.153  1.00  0.00    -0.387 OA
ATOM     20  H   UNL     1      16.728  21.003  33.638  1.00  0.00     0.211 HD
ENDBRANCH  14  19
BRANCH  15  21
ATOM     21  C   UNL     1      14.213  22.524  32.807  1.00  0.00     0.191 C 
BRANCH  21  22
ATOM     22  O   UNL     1      14.953  22.904  31.681  1.00  0.00    -0.394 OA
ATOM     23  H   UNL     1      15.131  22.071  31.173  1.00  0.00     0.210 HD
ENDBRANCH  21  22
ENDBRANCH  15  21
BRANCH  16  24
ATOM     24  O   UNL     1      14.076  20.571  35.076  1.00  0.00    -0.387 OA
ATOM     25  H   UNL     1      14.425  19.889  35.710  1.00  0.00     0.211 HD
ENDBRANCH  16  24
ENDBRANCH  10  11
ENDBRANCH   4  10
BRANCH   6  26
ATOM     26  O   UNL     1      11.775  15.336  28.091  1.00  0.00    -0.346 OA
BRANCH  26  27
ATOM     27  C   UNL     1      11.174  15.010  26.828  1.00  0.00     0.130 C 
ATOM     28  C   UNL     1      11.941  15.337  25.551  1.00  0.00     0.033 C 
ATOM     29  C   UNL     1       9.638  15.305  26.691  1.00  0.00     0.020 C 
ATOM     30  C   UNL     1      11.492  14.379  24.423  1.00  0.00     0.010 C 
ATOM     31  C   UNL     1       9.090  14.255  25.631  1.00  0.00     0.006 C 
ATOM     32  C   UNL     1       9.006  15.034  28.102  1.00  0.00     0.017 C 
ATOM     33  C   UNL     1       9.925  14.080  24.271  1.00  0.00    -0.022 C 
ATOM     34  C   UNL     1       7.548  14.292  25.403  1.00  0.00     0.005 C 
ATOM     35  C   UNL     1       9.891  12.545  23.942  1.00  0.00     0.012 C 
ATOM     36  C   UNL     1       9.307  14.882  23.019  1.00  0.00     0.024 C 
ATOM     37  C   UNL     1       7.066  15.201  24.260  1.00  0.00     0.008 C 
ATOM     38  C   UNL     1       7.714  14.965  22.852  1.00  0.00    -0.017 C 
ATOM     39  C   UNL     1       9.962  16.218  22.725  1.00  0.00    -0.024 C 
ATOM     40  C   UNL     1       7.193  13.562  22.390  1.00  0.00     0.013 C 
ATOM     41  C   UNL     1       7.274  16.153  21.777  1.00  0.00     0.009 C 
ATOM     42  C   UNL     1       9.671  16.884  21.600  1.00  0.00     0.005 C 
ATOM     43  C   UNL     1       8.458  16.512  20.775  1.00  0.00     0.096 C 
ATOM     44  C   UNL     1       5.973  15.854  20.920  1.00  0.00     0.043 C 
ATOM     45  C   UNL     1       6.939  17.490  22.537  1.00  0.00     0.015 C 
ATOM     46  C   UNL     1       8.712  15.374  19.761  1.00  0.00     0.037 C 
ATOM     47  O   UNL     1       8.101  17.643  19.994  1.00  0.00    -0.369 OA
ATOM     48  C   UNL     1       6.191  15.189  19.526  1.00  0.00     0.124 C 
ATOM     49  C   UNL     1       7.536  15.626  18.830  1.00  0.00     0.026 C 
ATOM     50  C   UNL     1      10.088  15.490  19.048  1.00  0.00     0.014 C 
ATOM     51  C   UNL     1       7.577  17.162  18.768  1.00  0.00     0.171 C 
ATOM     52  C   UNL     1       7.648  14.973  17.424  1.00  0.00     0.013 C 
ATOM     53  C   UNL     1      10.171  14.654  17.745  1.00  0.00    -0.035 C 
ATOM     54  C   UNL     1       9.038  15.082  16.783  1.00  0.00     0.007 C 
ATOM     55  C   UNL     1      11.529  14.933  17.061  1.00  0.00     0.011 C 
ATOM     56  C   UNL     1      10.102  13.136  18.053  1.00  0.00     0.011 C 
BRANCH  29  57
ATOM     57  C   UNL     1       9.325  16.770  26.219  1.00  0.00     0.165 C 
BRANCH  57  58
ATOM     58  O   UNL     1      10.114  17.720  26.870  1.00  0.00    -0.396 OA
ATOM     59  H   UNL     1       9.537  18.512  27.024  1.00  0.00     0.210 HD
ENDBRANCH  57  58
ENDBRANCH  29  57
BRANCH  48  60
ATOM     60  O   UNL     1       5.987  13.791  19.598  1.00  0.00    -0.392 OA
ATOM     61  H   UNL     1       5.037  13.585  19.435  1.00  0.00     0.210 HD
ENDBRANCH  48  60
ENDBRANCH  26  27
ENDBRANCH   6  26
BRANCH   5  62
ATOM     62  O   UNL     1      14.281  15.765  30.143  1.00  0.00    -0.385 OA
ATOM     63  H   UNL     1      14.020  15.450  31.048  1.00  0.00     0.211 HD
ENDBRANCH   5  62
TORSDOF 14
ENDMDL
