MODEL 1
REMARK VINA RESULT:    -6.986      0.000      0.000
REMARK INTER + INTRA:         -11.398
REMARK INTER:                  -9.844
REMARK INTRA:                  -1.553
REMARK UNBOUND:                -1.553
REMARK SMILES COc1c(O[C@H]2O[C@@H](C(=O)[O-])[C@@H](O)[C@@H](O)[C@H]2O)cc(O)c2c(=O)cc(-c3ccccc3)oc12
REMARK SMILES IDX 5 1 6 2 8 3 12 4 7 5 14 6 16 7 9 8 10 9 11 10 13 11 15 13
REMARK SMILES IDX 17 15 4 17 3 18 18 19 33 20 19 21 21 22 32 23 22 24 25 25
REMARK SMILES IDX 24 26 23 27 2 28 1 29 20 30 26 32 27 33 31 34 28 35 30 36
REMARK SMILES IDX 29 37
REMARK H PARENT 13 12 15 14 17 16 20 31
REMARK Flexibility Score: inf
ROOT
ATOM      1  O   UNL     1       7.254  -8.367 -35.921  1.00  0.00    -0.458 OA
ENDROOT
BRANCH   1   2
ATOM      2  C   UNL     1       7.347  -7.040 -36.461  1.00  0.00     0.339 C 
ATOM      3  C   UNL     1       6.125  -5.428 -37.699  1.00  0.00     0.199 C 
ATOM      4  C   UNL     1       6.953  -4.259 -37.034  1.00  0.00     0.180 C 
ATOM      5  O   UNL     1       6.082  -6.662 -36.962  1.00  0.00    -0.328 OA
ATOM      6  C   UNL     1       8.181  -4.743 -36.233  1.00  0.00     0.181 C 
ATOM      7  C   UNL     1       7.801  -5.987 -35.412  1.00  0.00     0.214 C 
BRANCH   3   8
ATOM      8  C   UNL     1       4.694  -4.967 -37.889  1.00  0.00     0.073 C 
ATOM      9  O   UNL     1       3.799  -5.359 -37.090  1.00  0.00    -0.547 OA
ATOM     10  O   UNL     1       4.382  -3.994 -38.840  1.00  0.00    -0.547 OA
ENDBRANCH   3   8
BRANCH   4  11
ATOM     11  O   UNL     1       6.157  -3.455 -36.182  1.00  0.00    -0.387 OA
ATOM     12  H   UNL     1       6.253  -3.820 -35.260  1.00  0.00     0.211 HD
ENDBRANCH   4  11
BRANCH   6  13
ATOM     13  O   UNL     1       8.657  -3.716 -35.404  1.00  0.00    -0.387 OA
ATOM     14  H   UNL     1       8.394  -2.868 -35.855  1.00  0.00     0.211 HD
ENDBRANCH   6  13
BRANCH   7  15
ATOM     15  O   UNL     1       6.795  -5.658 -34.475  1.00  0.00    -0.384 OA
ATOM     16  H   UNL     1       6.864  -4.678 -34.255  1.00  0.00     0.211 HD
ENDBRANCH   7  15
ENDBRANCH   1   2
BRANCH   1  17
ATOM     17  C   UNL     1       6.075  -9.125 -35.773  1.00  0.00     0.172 A 
ATOM     18  C   UNL     1       5.462  -9.209 -34.511  1.00  0.00     0.205 A 
ATOM     19  C   UNL     1       5.463  -9.760 -36.863  1.00  0.00     0.097 A 
ATOM     20  C   UNL     1       4.522 -10.232 -34.278  1.00  0.00     0.188 A 
ATOM     21  C   UNL     1       4.495 -10.754 -36.666  1.00  0.00     0.134 A 
ATOM     22  C   UNL     1       4.039 -11.023 -35.354  1.00  0.00     0.111 A 
ATOM     23  O   UNL     1       4.114 -10.471 -33.040  1.00  0.00    -0.452 OA
ATOM     24  C   UNL     1       3.159 -12.075 -35.056  1.00  0.00     0.197 A 
ATOM     25  C   UNL     1       3.300 -11.469 -32.711  1.00  0.00     0.138 A 
ATOM     26  C   UNL     1       2.788 -12.293 -33.737  1.00  0.00     0.100 A 
ATOM     27  O   UNL     1       2.740 -12.869 -35.956  1.00  0.00    -0.289 OA
BRANCH  18  28
ATOM     28  O   UNL     1       5.719  -8.247 -33.514  1.00  0.00    -0.490 OA
ATOM     29  C   UNL     1       6.653  -8.498 -32.456  1.00  0.00     0.278 C 
ENDBRANCH  18  28
BRANCH  21  30
ATOM     30  O   UNL     1       4.010 -11.450 -37.773  1.00  0.00    -0.507 OA
ATOM     31  H   UNL     1       3.051 -11.358 -38.089  1.00  0.00     0.293 HD
ENDBRANCH  21  30
BRANCH  25  32
ATOM     32  C   UNL     1       3.015 -11.717 -31.256  1.00  0.00     0.017 A 
ATOM     33  C   UNL     1       2.119 -12.733 -30.876  1.00  0.00     0.012 A 
ATOM     34  C   UNL     1       3.525 -10.880 -30.228  1.00  0.00     0.012 A 
ATOM     35  C   UNL     1       1.735 -12.908 -29.550  1.00  0.00     0.001 A 
ATOM     36  C   UNL     1       3.145 -11.068 -28.884  1.00  0.00     0.001 A 
ATOM     37  C   UNL     1       2.244 -12.071 -28.551  1.00  0.00     0.000 A 
ENDBRANCH  25  32
ENDBRANCH   1  17
TORSDOF 9
ENDMDL
MODEL 2
REMARK VINA RESULT:    -6.690      3.019      6.208
REMARK INTER + INTRA:         -10.981
REMARK INTER:                  -9.483
REMARK INTRA:                  -1.498
REMARK UNBOUND:                -1.553
REMARK SMILES COc1c(O[C@H]2O[C@@H](C(=O)[O-])[C@@H](O)[C@@H](O)[C@H]2O)cc(O)c2c(=O)cc(-c3ccccc3)oc12
REMARK SMILES IDX 5 1 6 2 8 3 12 4 7 5 14 6 16 7 9 8 10 9 11 10 13 11 15 13
REMARK SMILES IDX 17 15 4 17 3 18 18 19 33 20 19 21 21 22 32 23 22 24 25 25
REMARK SMILES IDX 24 26 23 27 2 28 1 29 20 30 26 32 27 33 31 34 28 35 30 36
REMARK SMILES IDX 29 37
REMARK H PARENT 13 12 15 14 17 16 20 31
REMARK Flexibility Score: inf
ROOT
ATOM      1  O   UNL     1       2.692 -12.372 -33.173  1.00  0.00    -0.458 OA
ENDROOT
BRANCH   1   2
ATOM      2  C   UNL     1       3.024 -11.768 -34.432  1.00  0.00     0.339 C 
ATOM      3  C   UNL     1       3.268  -9.664 -35.498  1.00  0.00     0.199 C 
ATOM      4  C   UNL     1       4.286 -10.283 -36.534  1.00  0.00     0.180 C 
ATOM      5  O   UNL     1       3.133 -10.372 -34.254  1.00  0.00    -0.328 OA
ATOM      6  C   UNL     1       4.358 -11.825 -36.492  1.00  0.00     0.181 C 
ATOM      7  C   UNL     1       4.357 -12.300 -35.028  1.00  0.00     0.214 C 
BRANCH   3   8
ATOM      8  C   UNL     1       3.707  -8.251 -35.167  1.00  0.00     0.073 C 
ATOM      9  O   UNL     1       4.211  -8.001 -34.037  1.00  0.00    -0.547 OA
ATOM     10  O   UNL     1       3.703  -7.259 -36.148  1.00  0.00    -0.547 OA
ENDBRANCH   3   8
BRANCH   4  11
ATOM     11  O   UNL     1       5.598  -9.775 -36.368  1.00  0.00    -0.387 OA
ATOM     12  H   UNL     1       6.228 -10.529 -36.529  1.00  0.00     0.211 HD
ENDBRANCH   4  11
BRANCH   6  13
ATOM     13  O   UNL     1       5.499 -12.279 -37.170  1.00  0.00    -0.387 OA
ATOM     14  H   UNL     1       5.717 -13.160 -36.760  1.00  0.00     0.211 HD
ENDBRANCH   6  13
BRANCH   7  15
ATOM     15  O   UNL     1       5.504 -11.811 -34.362  1.00  0.00    -0.384 OA
ATOM     16  H   UNL     1       5.226 -11.072 -33.737  1.00  0.00     0.211 HD
ENDBRANCH   7  15
ENDBRANCH   1   2
BRANCH   1  17
ATOM     17  C   UNL     1       2.065 -11.735 -32.082  1.00  0.00     0.172 A 
ATOM     18  C   UNL     1       2.804 -11.473 -30.918  1.00  0.00     0.205 A 
ATOM     19  C   UNL     1       0.731 -11.306 -32.146  1.00  0.00     0.097 A 
ATOM     20  C   UNL     1       2.114 -11.181 -29.725  1.00  0.00     0.188 A 
ATOM     21  C   UNL     1       0.028 -10.971 -30.980  1.00  0.00     0.134 A 
ATOM     22  C   UNL     1       0.715 -10.940 -29.744  1.00  0.00     0.111 A 
ATOM     23  O   UNL     1       2.777 -11.165 -28.576  1.00  0.00    -0.452 OA
ATOM     24  C   UNL     1       0.066 -10.726 -28.519  1.00  0.00     0.197 A 
ATOM     25  C   UNL     1       2.199 -10.989 -27.393  1.00  0.00     0.138 A 
ATOM     26  C   UNL     1       0.808 -10.747 -27.347  1.00  0.00     0.100 A 
ATOM     27  O   UNL     1      -1.195 -10.573 -28.450  1.00  0.00    -0.289 OA
BRANCH  18  28
ATOM     28  O   UNL     1       4.213 -11.424 -30.947  1.00  0.00    -0.490 OA
ATOM     29  C   UNL     1       4.913 -10.206 -31.230  1.00  0.00     0.278 C 
ENDBRANCH  18  28
BRANCH  21  30
ATOM     30  O   UNL     1      -1.332 -10.678 -31.077  1.00  0.00    -0.507 OA
ATOM     31  H   UNL     1      -1.922 -11.088 -31.793  1.00  0.00     0.293 HD
ENDBRANCH  21  30
BRANCH  25  32
ATOM     32  C   UNL     1       3.038 -11.121 -26.154  1.00  0.00     0.017 A 
ATOM     33  C   UNL     1       4.135 -10.263 -25.949  1.00  0.00     0.012 A 
ATOM     34  C   UNL     1       2.847 -12.169 -25.215  1.00  0.00     0.012 A 
ATOM     35  C   UNL     1       5.007 -10.437 -24.879  1.00  0.00     0.001 A 
ATOM     36  C   UNL     1       3.723 -12.335 -24.123  1.00  0.00     0.001 A 
ATOM     37  C   UNL     1       4.805 -11.478 -23.966  1.00  0.00     0.000 A 
ENDBRANCH  25  32
ENDBRANCH   1  17
TORSDOF 9
ENDMDL
MODEL 3
REMARK VINA RESULT:    -6.670      1.390      2.594
REMARK INTER + INTRA:         -10.953
REMARK INTER:                  -9.775
REMARK INTRA:                  -1.178
REMARK UNBOUND:                -1.553
REMARK SMILES COc1c(O[C@H]2O[C@@H](C(=O)[O-])[C@@H](O)[C@@H](O)[C@H]2O)cc(O)c2c(=O)cc(-c3ccccc3)oc12
REMARK SMILES IDX 5 1 6 2 8 3 12 4 7 5 14 6 16 7 9 8 10 9 11 10 13 11 15 13
REMARK SMILES IDX 17 15 4 17 3 18 18 19 33 20 19 21 21 22 32 23 22 24 25 25
REMARK SMILES IDX 24 26 23 27 2 28 1 29 20 30 26 32 27 33 31 34 28 35 30 36
REMARK SMILES IDX 29 37
REMARK H PARENT 13 12 15 14 17 16 20 31
REMARK Flexibility Score: inf
ROOT
ATOM      1  O   UNL     1       6.426  -8.675 -35.309  1.00  0.00    -0.458 OA
ENDROOT
BRANCH   1   2
ATOM      2  C   UNL     1       6.481  -7.273 -35.613  1.00  0.00     0.339 C 
ATOM      3  C   UNL     1       7.590  -5.264 -35.013  1.00  0.00     0.199 C 
ATOM      4  C   UNL     1       7.315  -4.659 -36.445  1.00  0.00     0.180 C 
ATOM      5  O   UNL     1       7.573  -6.700 -34.926  1.00  0.00    -0.328 OA
ATOM      6  C   UNL     1       6.326  -5.489 -37.293  1.00  0.00     0.181 C 
ATOM      7  C   UNL     1       6.644  -6.987 -37.132  1.00  0.00     0.214 C 
BRANCH   3   8
ATOM      8  C   UNL     1       8.953  -4.801 -34.540  1.00  0.00     0.073 C 
ATOM      9  O   UNL     1       9.937  -5.590 -34.595  1.00  0.00    -0.547 OA
ATOM     10  O   UNL     1       9.167  -3.466 -34.191  1.00  0.00    -0.547 OA
ENDBRANCH   3   8
BRANCH   4  11
ATOM     11  O   UNL     1       8.505  -4.489 -37.194  1.00  0.00    -0.387 OA
ATOM     12  H   UNL     1       8.237  -4.229 -38.117  1.00  0.00     0.211 HD
ENDBRANCH   4  11
BRANCH   6  13
ATOM     13  O   UNL     1       6.393  -5.101 -38.639  1.00  0.00    -0.387 OA
ATOM     14  H   UNL     1       5.449  -4.940 -38.915  1.00  0.00     0.211 HD
ENDBRANCH   6  13
BRANCH   7  15
ATOM     15  O   UNL     1       7.942  -7.259 -37.619  1.00  0.00    -0.384 OA
ATOM     16  H   UNL     1       8.507  -6.432 -37.519  1.00  0.00     0.211 HD
ENDBRANCH   7  15
ENDBRANCH   1   2
BRANCH   1  17
ATOM     17  C   UNL     1       5.269  -9.479 -35.292  1.00  0.00     0.172 A 
ATOM     18  C   UNL     1       4.503  -9.561 -34.117  1.00  0.00     0.205 A 
ATOM     19  C   UNL     1       4.828 -10.164 -36.434  1.00  0.00     0.097 A 
ATOM     20  C   UNL     1       3.581 -10.617 -33.978  1.00  0.00     0.188 A 
ATOM     21  C   UNL     1       3.882 -11.193 -36.334  1.00  0.00     0.134 A 
ATOM     22  C   UNL     1       3.272 -11.452 -35.083  1.00  0.00     0.111 A 
ATOM     23  O   UNL     1       3.027 -10.846 -32.795  1.00  0.00    -0.452 OA
ATOM     24  C   UNL     1       2.403 -12.533 -34.871  1.00  0.00     0.197 A 
ATOM     25  C   UNL     1       2.218 -11.869 -32.545  1.00  0.00     0.138 A 
ATOM     26  C   UNL     1       1.874 -12.737 -33.605  1.00  0.00     0.100 A 
ATOM     27  O   UNL     1       2.134 -13.364 -35.796  1.00  0.00    -0.289 OA
BRANCH  18  28
ATOM     28  O   UNL     1       4.591  -8.566 -33.122  1.00  0.00    -0.490 OA
ATOM     29  C   UNL     1       5.493  -8.694 -32.016  1.00  0.00     0.278 C 
ENDBRANCH  18  28
BRANCH  21  30
ATOM     30  O   UNL     1       3.571 -11.934 -37.474  1.00  0.00    -0.507 OA
ATOM     31  H   UNL     1       2.622 -12.014 -37.822  1.00  0.00     0.293 HD
ENDBRANCH  21  30
BRANCH  25  32
ATOM     32  C   UNL     1       1.757 -12.096 -31.133  1.00  0.00     0.017 A 
ATOM     33  C   UNL     1       0.592 -11.465 -30.661  1.00  0.00     0.012 A 
ATOM     34  C   UNL     1       2.522 -12.839 -30.194  1.00  0.00     0.012 A 
ATOM     35  C   UNL     1       0.206 -11.550 -29.326  1.00  0.00     0.001 A 
ATOM     36  C   UNL     1       2.121 -12.936 -28.846  1.00  0.00     0.001 A 
ATOM     37  C   UNL     1       0.974 -12.283 -28.415  1.00  0.00     0.000 A 
ENDBRANCH  25  32
ENDBRANCH   1  17
TORSDOF 9
ENDMDL
MODEL 4
REMARK VINA RESULT:    -6.614      2.997      6.182
REMARK INTER + INTRA:         -10.873
REMARK INTER:                  -9.709
REMARK INTRA:                  -1.165
REMARK UNBOUND:                -1.553
REMARK SMILES COc1c(O[C@H]2O[C@@H](C(=O)[O-])[C@@H](O)[C@@H](O)[C@H]2O)cc(O)c2c(=O)cc(-c3ccccc3)oc12
REMARK SMILES IDX 5 1 6 2 8 3 12 4 7 5 14 6 16 7 9 8 10 9 11 10 13 11 15 13
REMARK SMILES IDX 17 15 4 17 3 18 18 19 33 20 19 21 21 22 32 23 22 24 25 25
REMARK SMILES IDX 24 26 23 27 2 28 1 29 20 30 26 32 27 33 31 34 28 35 30 36
REMARK SMILES IDX 29 37
REMARK H PARENT 13 12 15 14 17 16 20 31
REMARK Flexibility Score: inf
ROOT
ATOM      1  O   UNL     1       4.319 -12.250 -33.042  1.00  0.00    -0.458 OA
ENDROOT
BRANCH   1   2
ATOM      2  C   UNL     1       3.878 -11.506 -34.187  1.00  0.00     0.339 C 
ATOM      3  C   UNL     1       3.337  -9.312 -34.906  1.00  0.00     0.199 C 
ATOM      4  C   UNL     1       3.699  -9.687 -36.396  1.00  0.00     0.180 C 
ATOM      5  O   UNL     1       3.944 -10.128 -33.889  1.00  0.00    -0.328 OA
ATOM      6  C   UNL     1       3.915 -11.199 -36.623  1.00  0.00     0.181 C 
ATOM      7  C   UNL     1       4.732 -11.782 -35.456  1.00  0.00     0.214 C 
BRANCH   3   8
ATOM      8  C   UNL     1       3.760  -7.880 -34.646  1.00  0.00     0.073 C 
ATOM      9  O   UNL     1       4.808  -7.647 -33.982  1.00  0.00    -0.547 OA
ATOM     10  O   UNL     1       3.092  -6.820 -35.261  1.00  0.00    -0.547 OA
ENDBRANCH   3   8
BRANCH   4  11
ATOM     11  O   UNL     1       4.850  -9.002 -36.858  1.00  0.00    -0.387 OA
ATOM     12  H   UNL     1       4.819  -8.083 -36.474  1.00  0.00     0.211 HD
ENDBRANCH   4  11
BRANCH   6  13
ATOM     13  O   UNL     1       4.557 -11.422 -37.850  1.00  0.00    -0.387 OA
ATOM     14  H   UNL     1       3.849 -11.314 -38.542  1.00  0.00     0.211 HD
ENDBRANCH   6  13
BRANCH   7  15
ATOM     15  O   UNL     1       6.010 -11.180 -35.414  1.00  0.00    -0.384 OA
ATOM     16  H   UNL     1       6.503 -11.403 -36.263  1.00  0.00     0.211 HD
ENDBRANCH   7  15
ENDBRANCH   1   2
BRANCH   1  17
ATOM     17  C   UNL     1       4.185 -11.860 -31.693  1.00  0.00     0.172 A 
ATOM     18  C   UNL     1       3.169 -12.429 -30.908  1.00  0.00     0.205 A 
ATOM     19  C   UNL     1       5.074 -10.956 -31.094  1.00  0.00     0.097 A 
ATOM     20  C   UNL     1       2.804 -11.796 -29.704  1.00  0.00     0.188 A 
ATOM     21  C   UNL     1       4.758 -10.338 -29.876  1.00  0.00     0.134 A 
ATOM     22  C   UNL     1       3.589 -10.734 -29.184  1.00  0.00     0.111 A 
ATOM     23  O   UNL     1       1.701 -12.178 -29.076  1.00  0.00    -0.452 OA
ATOM     24  C   UNL     1       3.141 -10.090 -28.020  1.00  0.00     0.197 A 
ATOM     25  C   UNL     1       1.229 -11.583 -27.985  1.00  0.00     0.138 A 
ATOM     26  C   UNL     1       1.965 -10.518 -27.421  1.00  0.00     0.100 A 
ATOM     27  O   UNL     1       3.754  -9.087 -27.534  1.00  0.00    -0.289 OA
BRANCH  18  28
ATOM     28  O   UNL     1       2.570 -13.653 -31.270  1.00  0.00    -0.490 OA
ATOM     29  C   UNL     1       1.317 -13.695 -31.963  1.00  0.00     0.278 C 
ENDBRANCH  18  28
BRANCH  21  30
ATOM     30  O   UNL     1       5.609  -9.348 -29.384  1.00  0.00    -0.507 OA
ATOM     31  H   UNL     1       5.954  -8.595 -29.970  1.00  0.00     0.293 HD
ENDBRANCH  21  30
BRANCH  25  32
ATOM     32  C   UNL     1      -0.100 -12.025 -27.440  1.00  0.00     0.017 A 
ATOM     33  C   UNL     1      -1.189 -11.133 -27.426  1.00  0.00     0.012 A 
ATOM     34  C   UNL     1      -0.284 -13.288 -26.817  1.00  0.00     0.012 A 
ATOM     35  C   UNL     1      -2.395 -11.465 -26.816  1.00  0.00     0.001 A 
ATOM     36  C   UNL     1      -1.511 -13.627 -26.212  1.00  0.00     0.001 A 
ATOM     37  C   UNL     1      -2.556 -12.713 -26.203  1.00  0.00     0.000 A 
ENDBRANCH  25  32
ENDBRANCH   1  17
TORSDOF 9
ENDMDL
MODEL 5
REMARK VINA RESULT:    -6.601      2.051      3.951
REMARK INTER + INTRA:         -10.856
REMARK INTER:                  -9.644
REMARK INTRA:                  -1.212
REMARK UNBOUND:                -1.553
REMARK SMILES COc1c(O[C@H]2O[C@@H](C(=O)[O-])[C@@H](O)[C@@H](O)[C@H]2O)cc(O)c2c(=O)cc(-c3ccccc3)oc12
REMARK SMILES IDX 5 1 6 2 8 3 12 4 7 5 14 6 16 7 9 8 10 9 11 10 13 11 15 13
REMARK SMILES IDX 17 15 4 17 3 18 18 19 33 20 19 21 21 22 32 23 22 24 25 25
REMARK SMILES IDX 24 26 23 27 2 28 1 29 20 30 26 32 27 33 31 34 28 35 30 36
REMARK SMILES IDX 29 37
REMARK H PARENT 13 12 15 14 17 16 20 31
REMARK Flexibility Score: inf
ROOT
ATOM      1  O   UNL     1       5.552  -9.883 -33.986  1.00  0.00    -0.458 OA
ENDROOT
BRANCH   1   2
ATOM      2  C   UNL     1       5.583  -8.560 -34.543  1.00  0.00     0.339 C 
ATOM      3  C   UNL     1       7.051  -6.961 -35.498  1.00  0.00     0.199 C 
ATOM      4  C   UNL     1       5.855  -6.310 -36.298  1.00  0.00     0.180 C 
ATOM      5  O   UNL     1       6.862  -8.328 -35.093  1.00  0.00    -0.328 OA
ATOM      6  C   UNL     1       4.463  -6.819 -35.863  1.00  0.00     0.181 C 
ATOM      7  C   UNL     1       4.517  -8.343 -35.652  1.00  0.00     0.214 C 
BRANCH   3   8
ATOM      8  C   UNL     1       8.297  -6.914 -36.358  1.00  0.00     0.073 C 
ATOM      9  O   UNL     1       8.673  -7.950 -36.973  1.00  0.00    -0.547 OA
ATOM     10  O   UNL     1       8.946  -5.702 -36.603  1.00  0.00    -0.547 OA
ENDBRANCH   3   8
BRANCH   4  11
ATOM     11  O   UNL     1       5.978  -6.499 -37.696  1.00  0.00    -0.387 OA
ATOM     12  H   UNL     1       5.251  -7.121 -37.974  1.00  0.00     0.211 HD
ENDBRANCH   4  11
BRANCH   6  13
ATOM     13  O   UNL     1       3.497  -6.475 -36.819  1.00  0.00    -0.387 OA
ATOM     14  H   UNL     1       3.956  -5.851 -37.445  1.00  0.00     0.211 HD
ENDBRANCH   6  13
BRANCH   7  15
ATOM     15  O   UNL     1       4.835  -8.987 -36.870  1.00  0.00    -0.384 OA
ATOM     16  H   UNL     1       4.570  -9.956 -36.804  1.00  0.00     0.211 HD
ENDBRANCH   7  15
ENDBRANCH   1   2
BRANCH   1  17
ATOM     17  C   UNL     1       4.450 -10.495 -33.354  1.00  0.00     0.172 A 
ATOM     18  C   UNL     1       4.160 -10.184 -32.016  1.00  0.00     0.205 A 
ATOM     19  C   UNL     1       3.598 -11.372 -34.043  1.00  0.00     0.097 A 
ATOM     20  C   UNL     1       3.313 -11.040 -31.286  1.00  0.00     0.188 A 
ATOM     21  C   UNL     1       2.715 -12.209 -33.347  1.00  0.00     0.134 A 
ATOM     22  C   UNL     1       2.592 -12.070 -31.944  1.00  0.00     0.111 A 
ATOM     23  O   UNL     1       3.218 -10.896 -29.971  1.00  0.00    -0.452 OA
ATOM     24  C   UNL     1       1.819 -12.940 -31.160  1.00  0.00     0.197 A 
ATOM     25  C   UNL     1       2.516 -11.710 -29.189  1.00  0.00     0.138 A 
ATOM     26  C   UNL     1       1.779 -12.756 -29.785  1.00  0.00     0.100 A 
ATOM     27  O   UNL     1       1.201 -13.927 -31.670  1.00  0.00    -0.289 OA
BRANCH  18  28
ATOM     28  O   UNL     1       4.642  -8.998 -31.426  1.00  0.00    -0.490 OA
ATOM     29  C   UNL     1       3.849  -7.805 -31.391  1.00  0.00     0.278 C 
ENDBRANCH  18  28
BRANCH  21  30
ATOM     30  O   UNL     1       1.983 -13.157 -34.063  1.00  0.00    -0.507 OA
ATOM     31  H   UNL     1       0.969 -13.173 -34.054  1.00  0.00     0.293 HD
ENDBRANCH  21  30
BRANCH  25  32
ATOM     32  C   UNL     1       2.592 -11.521 -27.700  1.00  0.00     0.017 A 
ATOM     33  C   UNL     1       3.242 -10.393 -27.164  1.00  0.00     0.012 A 
ATOM     34  C   UNL     1       2.135 -12.505 -26.784  1.00  0.00     0.012 A 
ATOM     35  C   UNL     1       3.442 -10.249 -25.794  1.00  0.00     0.001 A 
ATOM     36  C   UNL     1       2.326 -12.351 -25.396  1.00  0.00     0.001 A 
ATOM     37  C   UNL     1       2.988 -11.232 -24.908  1.00  0.00     0.000 A 
ENDBRANCH  25  32
ENDBRANCH   1  17
TORSDOF 9
ENDMDL
MODEL 6
REMARK VINA RESULT:    -6.301      4.676      9.993
REMARK INTER + INTRA:         -10.433
REMARK INTER:                  -9.187
REMARK INTRA:                  -1.247
REMARK UNBOUND:                -1.553
REMARK SMILES COc1c(O[C@H]2O[C@@H](C(=O)[O-])[C@@H](O)[C@@H](O)[C@H]2O)cc(O)c2c(=O)cc(-c3ccccc3)oc12
REMARK SMILES IDX 5 1 6 2 8 3 12 4 7 5 14 6 16 7 9 8 10 9 11 10 13 11 15 13
REMARK SMILES IDX 17 15 4 17 3 18 18 19 33 20 19 21 21 22 32 23 22 24 25 25
REMARK SMILES IDX 24 26 23 27 2 28 1 29 20 30 26 32 27 33 31 34 28 35 30 36
REMARK SMILES IDX 29 37
REMARK H PARENT 13 12 15 14 17 16 20 31
REMARK Flexibility Score: inf
ROOT
ATOM      1  O   UNL     1       2.282 -10.902 -27.815  1.00  0.00    -0.458 OA
ENDROOT
BRANCH   1   2
ATOM      2  C   UNL     1       2.504 -11.496 -26.528  1.00  0.00     0.339 C 
ATOM      3  C   UNL     1       4.037 -11.537 -24.719  1.00  0.00     0.199 C 
ATOM      4  C   UNL     1       2.883 -11.942 -23.721  1.00  0.00     0.180 C 
ATOM      5  O   UNL     1       3.619 -10.874 -25.924  1.00  0.00    -0.328 OA
ATOM      6  C   UNL     1       1.564 -12.337 -24.421  1.00  0.00     0.181 C 
ATOM      7  C   UNL     1       1.283 -11.359 -25.576  1.00  0.00     0.214 C 
BRANCH   3   8
ATOM      8  C   UNL     1       4.997 -10.607 -24.003  1.00  0.00     0.073 C 
ATOM      9  O   UNL     1       4.924  -9.362 -24.199  1.00  0.00    -0.547 OA
ATOM     10  O   UNL     1       5.854 -11.094 -23.016  1.00  0.00    -0.547 OA
ENDBRANCH   3   8
BRANCH   4  11
ATOM     11  O   UNL     1       2.597 -10.918 -22.785  1.00  0.00    -0.387 OA
ATOM     12  H   UNL     1       2.041 -11.324 -22.065  1.00  0.00     0.211 HD
ENDBRANCH   4  11
BRANCH   6  13
ATOM     13  O   UNL     1       0.507 -12.348 -23.500  1.00  0.00    -0.387 OA
ATOM     14  H   UNL     1      -0.211 -11.795 -23.914  1.00  0.00     0.211 HD
ENDBRANCH   6  13
BRANCH   7  15
ATOM     15  O   UNL     1       1.110 -10.051 -25.069  1.00  0.00    -0.384 OA
ATOM     16  H   UNL     1       0.144  -9.926 -24.816  1.00  0.00     0.211 HD
ENDBRANCH   7  15
ENDBRANCH   1   2
BRANCH   1  17
ATOM     17  C   UNL     1       2.682 -11.432 -29.059  1.00  0.00     0.172 A 
ATOM     18  C   UNL     1       3.683 -10.779 -29.797  1.00  0.00     0.205 A 
ATOM     19  C   UNL     1       2.146 -12.627 -29.559  1.00  0.00     0.097 A 
ATOM     20  C   UNL     1       3.825 -11.081 -31.166  1.00  0.00     0.188 A 
ATOM     21  C   UNL     1       2.304 -12.977 -30.907  1.00  0.00     0.134 A 
ATOM     22  C   UNL     1       3.125 -12.177 -31.736  1.00  0.00     0.111 A 
ATOM     23  O   UNL     1       4.595 -10.314 -31.925  1.00  0.00    -0.452 OA
ATOM     24  C   UNL     1       3.247 -12.390 -33.118  1.00  0.00     0.197 A 
ATOM     25  C   UNL     1       4.720 -10.467 -33.239  1.00  0.00     0.138 A 
ATOM     26  C   UNL     1       4.046 -11.538 -33.866  1.00  0.00     0.100 A 
ATOM     27  O   UNL     1       2.596 -13.308 -33.711  1.00  0.00    -0.289 OA
BRANCH  18  28
ATOM     28  O   UNL     1       4.583  -9.891 -29.174  1.00  0.00    -0.490 OA
ATOM     29  C   UNL     1       4.250  -8.513 -28.966  1.00  0.00     0.278 C 
ENDBRANCH  18  28
BRANCH  21  30
ATOM     30  O   UNL     1       1.643 -14.106 -31.390  1.00  0.00    -0.507 OA
ATOM     31  H   UNL     1       2.042 -15.035 -31.318  1.00  0.00     0.293 HD
ENDBRANCH  21  30
BRANCH  25  32
ATOM     32  C   UNL     1       5.519  -9.453 -34.009  1.00  0.00     0.017 A 
ATOM     33  C   UNL     1       5.832  -9.682 -35.362  1.00  0.00     0.012 A 
ATOM     34  C   UNL     1       6.088  -8.306 -33.394  1.00  0.00     0.012 A 
ATOM     35  C   UNL     1       6.674  -8.829 -36.070  1.00  0.00     0.001 A 
ATOM     36  C   UNL     1       6.929  -7.436 -34.116  1.00  0.00     0.001 A 
ATOM     37  C   UNL     1       7.229  -7.706 -35.445  1.00  0.00     0.000 A 
ENDBRANCH  25  32
ENDBRANCH   1  17
TORSDOF 9
ENDMDL
MODEL 7
REMARK VINA RESULT:    -6.228      1.569      2.050
REMARK INTER + INTRA:         -10.330
REMARK INTER:                  -9.182
REMARK INTRA:                  -1.147
REMARK UNBOUND:                -1.553
REMARK SMILES COc1c(O[C@H]2O[C@@H](C(=O)[O-])[C@@H](O)[C@@H](O)[C@H]2O)cc(O)c2c(=O)cc(-c3ccccc3)oc12
REMARK SMILES IDX 5 1 6 2 8 3 12 4 7 5 14 6 16 7 9 8 10 9 11 10 13 11 15 13
REMARK SMILES IDX 17 15 4 17 3 18 18 19 33 20 19 21 21 22 32 23 22 24 25 25
REMARK SMILES IDX 24 26 23 27 2 28 1 29 20 30 26 32 27 33 31 34 28 35 30 36
REMARK SMILES IDX 29 37
REMARK H PARENT 13 12 15 14 17 16 20 31
REMARK Flexibility Score: inf
ROOT
ATOM      1  O   UNL     1       5.940  -8.242 -34.096  1.00  0.00    -0.458 OA
ENDROOT
BRANCH   1   2
ATOM      2  C   UNL     1       6.652  -7.738 -35.236  1.00  0.00     0.339 C 
ATOM      3  C   UNL     1       6.375  -6.423 -37.190  1.00  0.00     0.199 C 
ATOM      4  C   UNL     1       7.908  -6.044 -37.178  1.00  0.00     0.180 C 
ATOM      5  O   UNL     1       5.821  -6.829 -35.926  1.00  0.00    -0.328 OA
ATOM      6  C   UNL     1       8.747  -6.870 -36.177  1.00  0.00     0.181 C 
ATOM      7  C   UNL     1       7.973  -7.012 -34.855  1.00  0.00     0.214 C 
BRANCH   3   8
ATOM      8  C   UNL     1       5.579  -5.224 -37.666  1.00  0.00     0.073 C 
ATOM      9  O   UNL     1       5.918  -4.630 -38.727  1.00  0.00    -0.547 OA
ATOM     10  O   UNL     1       4.389  -4.866 -37.032  1.00  0.00    -0.547 OA
ENDBRANCH   3   8
BRANCH   4  11
ATOM     11  O   UNL     1       8.120  -4.670 -36.904  1.00  0.00    -0.387 OA
ATOM     12  H   UNL     1       8.818  -4.616 -36.195  1.00  0.00     0.211 HD
ENDBRANCH   4  11
BRANCH   6  13
ATOM     13  O   UNL     1       9.994  -6.264 -35.970  1.00  0.00    -0.387 OA
ATOM     14  H   UNL     1      10.342  -6.657 -35.124  1.00  0.00     0.211 HD
ENDBRANCH   6  13
BRANCH   7  15
ATOM     15  O   UNL     1       7.768  -5.739 -34.276  1.00  0.00    -0.384 OA
ATOM     16  H   UNL     1       8.647  -5.396 -33.926  1.00  0.00     0.211 HD
ENDBRANCH   7  15
ENDBRANCH   1   2
BRANCH   1  17
ATOM     17  C   UNL     1       4.869  -9.158 -34.121  1.00  0.00     0.172 A 
ATOM     18  C   UNL     1       4.081  -9.330 -32.971  1.00  0.00     0.205 A 
ATOM     19  C   UNL     1       4.532  -9.869 -35.282  1.00  0.00     0.097 A 
ATOM     20  C   UNL     1       3.265 -10.474 -32.869  1.00  0.00     0.188 A 
ATOM     21  C   UNL     1       3.690 -10.988 -35.220  1.00  0.00     0.134 A 
ATOM     22  C   UNL     1       3.074 -11.322 -33.991  1.00  0.00     0.111 A 
ATOM     23  O   UNL     1       2.703 -10.771 -31.706  1.00  0.00    -0.452 OA
ATOM     24  C   UNL     1       2.311 -12.486 -33.816  1.00  0.00     0.197 A 
ATOM     25  C   UNL     1       1.992 -11.873 -31.490  1.00  0.00     0.138 A 
ATOM     26  C   UNL     1       1.769 -12.758 -32.568  1.00  0.00     0.100 A 
ATOM     27  O   UNL     1       2.153 -13.328 -34.756  1.00  0.00    -0.289 OA
BRANCH  18  28
ATOM     28  O   UNL     1       4.040  -8.344 -31.964  1.00  0.00    -0.490 OA
ATOM     29  C   UNL     1       3.177  -7.205 -32.068  1.00  0.00     0.278 C 
ENDBRANCH  18  28
BRANCH  21  30
ATOM     30  O   UNL     1       3.489 -11.742 -36.377  1.00  0.00    -0.507 OA
ATOM     31  H   UNL     1       4.142 -12.459 -36.672  1.00  0.00     0.293 HD
ENDBRANCH  21  30
BRANCH  25  32
ATOM     32  C   UNL     1       1.516 -12.162 -30.095  1.00  0.00     0.017 A 
ATOM     33  C   UNL     1       0.311 -11.603 -29.631  1.00  0.00     0.012 A 
ATOM     34  C   UNL     1       2.298 -12.892 -29.160  1.00  0.00     0.012 A 
ATOM     35  C   UNL     1      -0.097 -11.745 -28.307  1.00  0.00     0.001 A 
ATOM     36  C   UNL     1       1.876 -13.047 -27.824  1.00  0.00     0.001 A 
ATOM     37  C   UNL     1       0.689 -12.464 -27.400  1.00  0.00     0.000 A 
ENDBRANCH  25  32
ENDBRANCH   1  17
TORSDOF 9
ENDMDL
MODEL 8
REMARK VINA RESULT:    -6.194      2.225      3.845
REMARK INTER + INTRA:         -10.282
REMARK INTER:                  -9.738
REMARK INTRA:                  -0.544
REMARK UNBOUND:                -1.553
REMARK SMILES COc1c(O[C@H]2O[C@@H](C(=O)[O-])[C@@H](O)[C@@H](O)[C@H]2O)cc(O)c2c(=O)cc(-c3ccccc3)oc12
REMARK SMILES IDX 5 1 6 2 8 3 12 4 7 5 14 6 16 7 9 8 10 9 11 10 13 11 15 13
REMARK SMILES IDX 17 15 4 17 3 18 18 19 33 20 19 21 21 22 32 23 22 24 25 25
REMARK SMILES IDX 24 26 23 27 2 28 1 29 20 30 26 32 27 33 31 34 28 35 30 36
REMARK SMILES IDX 29 37
REMARK H PARENT 13 12 15 14 17 16 20 31
REMARK Flexibility Score: inf
ROOT
ATOM      1  O   UNL     1       2.173  -7.813 -34.871  1.00  0.00    -0.458 OA
ENDROOT
BRANCH   1   2
ATOM      2  C   UNL     1       3.055  -6.760 -35.288  1.00  0.00     0.339 C 
ATOM      3  C   UNL     1       5.205  -6.368 -36.210  1.00  0.00     0.199 C 
ATOM      4  C   UNL     1       4.716  -4.996 -36.820  1.00  0.00     0.180 C 
ATOM      5  O   UNL     1       4.174  -7.331 -35.933  1.00  0.00    -0.328 OA
ATOM      6  C   UNL     1       3.331  -4.544 -36.308  1.00  0.00     0.181 C 
ATOM      7  C   UNL     1       2.381  -5.754 -36.262  1.00  0.00     0.214 C 
BRANCH   3   8
ATOM      8  C   UNL     1       6.176  -7.014 -37.178  1.00  0.00     0.073 C 
ATOM      9  O   UNL     1       6.982  -6.293 -37.830  1.00  0.00    -0.547 OA
ATOM     10  O   UNL     1       6.298  -8.403 -37.240  1.00  0.00    -0.547 OA
ENDBRANCH   3   8
BRANCH   4  11
ATOM     11  O   UNL     1       4.678  -5.020 -38.236  1.00  0.00    -0.387 OA
ATOM     12  H   UNL     1       5.025  -5.908 -38.524  1.00  0.00     0.211 HD
ENDBRANCH   4  11
BRANCH   6  13
ATOM     13  O   UNL     1       2.816  -3.528 -37.126  1.00  0.00    -0.387 OA
ATOM     14  H   UNL     1       2.810  -3.907 -38.047  1.00  0.00     0.211 HD
ENDBRANCH   6  13
BRANCH   7  15
ATOM     15  O   UNL     1       2.196  -6.271 -37.565  1.00  0.00    -0.384 OA
ATOM     16  H   UNL     1       2.964  -6.884 -37.783  1.00  0.00     0.211 HD
ENDBRANCH   7  15
ENDBRANCH   1   2
BRANCH   1  17
ATOM     17  C   UNL     1       2.559  -9.072 -34.367  1.00  0.00     0.172 A 
ATOM     18  C   UNL     1       1.798  -9.671 -33.349  1.00  0.00     0.205 A 
ATOM     19  C   UNL     1       3.655  -9.773 -34.891  1.00  0.00     0.097 A 
ATOM     20  C   UNL     1       2.366 -10.724 -32.605  1.00  0.00     0.188 A 
ATOM     21  C   UNL     1       4.218 -10.851 -34.194  1.00  0.00     0.134 A 
ATOM     22  C   UNL     1       3.590 -11.315 -33.015  1.00  0.00     0.111 A 
ATOM     23  O   UNL     1       1.763 -11.137 -31.499  1.00  0.00    -0.452 OA
ATOM     24  C   UNL     1       4.147 -12.310 -32.198  1.00  0.00     0.197 A 
ATOM     25  C   UNL     1       2.267 -12.060 -30.686  1.00  0.00     0.138 A 
ATOM     26  C   UNL     1       3.484 -12.684 -31.038  1.00  0.00     0.100 A 
ATOM     27  O   UNL     1       5.274 -12.837 -32.463  1.00  0.00    -0.289 OA
BRANCH  18  28
ATOM     28  O   UNL     1       0.462  -9.284 -33.118  1.00  0.00    -0.490 OA
ATOM     29  C   UNL     1      -0.616  -9.823 -33.892  1.00  0.00     0.278 C 
ENDBRANCH  18  28
BRANCH  21  30
ATOM     30  O   UNL     1       5.386 -11.433 -34.687  1.00  0.00    -0.507 OA
ATOM     31  H   UNL     1       6.306 -11.090 -34.436  1.00  0.00     0.293 HD
ENDBRANCH  21  30
BRANCH  25  32
ATOM     32  C   UNL     1       1.553 -12.351 -29.396  1.00  0.00     0.017 A 
ATOM     33  C   UNL     1       0.262 -11.838 -29.173  1.00  0.00     0.012 A 
ATOM     34  C   UNL     1       2.178 -13.033 -28.318  1.00  0.00     0.012 A 
ATOM     35  C   UNL     1      -0.377 -11.980 -27.944  1.00  0.00     0.001 A 
ATOM     36  C   UNL     1       1.524 -13.188 -27.080  1.00  0.00     0.001 A 
ATOM     37  C   UNL     1       0.256 -12.651 -26.893  1.00  0.00     0.000 A 
ENDBRANCH  25  32
ENDBRANCH   1  17
TORSDOF 9
ENDMDL
MODEL 9
REMARK VINA RESULT:    -6.175      2.466      8.207
REMARK INTER + INTRA:         -10.255
REMARK INTER:                  -9.006
REMARK INTRA:                  -1.249
REMARK UNBOUND:                -1.553
REMARK SMILES COc1c(O[C@H]2O[C@@H](C(=O)[O-])[C@@H](O)[C@@H](O)[C@H]2O)cc(O)c2c(=O)cc(-c3ccccc3)oc12
REMARK SMILES IDX 5 1 6 2 8 3 12 4 7 5 14 6 16 7 9 8 10 9 11 10 13 11 15 13
REMARK SMILES IDX 17 15 4 17 3 18 18 19 33 20 19 21 21 22 32 23 22 24 25 25
REMARK SMILES IDX 24 26 23 27 2 28 1 29 20 30 26 32 27 33 31 34 28 35 30 36
REMARK SMILES IDX 29 37
REMARK H PARENT 13 12 15 14 17 16 20 31
REMARK Flexibility Score: inf
ROOT
ATOM      1  O   UNL     1       2.999 -10.535 -34.728  1.00  0.00    -0.458 OA
ENDROOT
BRANCH   1   2
ATOM      2  C   UNL     1       3.485 -11.231 -33.571  1.00  0.00     0.339 C 
ATOM      3  C   UNL     1       4.403 -10.873 -31.414  1.00  0.00     0.199 C 
ATOM      4  C   UNL     1       3.847 -12.266 -30.922  1.00  0.00     0.180 C 
ATOM      5  O   UNL     1       3.729 -10.293 -32.544  1.00  0.00    -0.328 OA
ATOM      6  C   UNL     1       3.307 -13.159 -32.061  1.00  0.00     0.181 C 
ATOM      7  C   UNL     1       2.489 -12.300 -33.042  1.00  0.00     0.214 C 
BRANCH   3   8
ATOM      8  C   UNL     1       4.306  -9.879 -30.274  1.00  0.00     0.073 C 
ATOM      9  O   UNL     1       3.387  -9.014 -30.274  1.00  0.00    -0.547 OA
ATOM     10  O   UNL     1       5.125 -10.006 -29.150  1.00  0.00    -0.547 OA
ENDBRANCH   3   8
BRANCH   4  11
ATOM     11  O   UNL     1       2.827 -12.125 -29.950  1.00  0.00    -0.387 OA
ATOM     12  H   UNL     1       1.980 -12.451 -30.361  1.00  0.00     0.211 HD
ENDBRANCH   4  11
BRANCH   6  13
ATOM     13  O   UNL     1       2.531 -14.203 -31.537  1.00  0.00    -0.387 OA
ATOM     14  H   UNL     1       2.178 -14.694 -32.328  1.00  0.00     0.211 HD
ENDBRANCH   6  13
BRANCH   7  15
ATOM     15  O   UNL     1       1.370 -11.746 -32.380  1.00  0.00    -0.384 OA
ATOM     16  H   UNL     1       0.541 -11.952 -32.914  1.00  0.00     0.211 HD
ENDBRANCH   7  15
ENDBRANCH   1   2
BRANCH   1  17
ATOM     17  C   UNL     1       3.639  -9.466 -35.388  1.00  0.00     0.172 A 
ATOM     18  C   UNL     1       5.007  -9.562 -35.692  1.00  0.00     0.205 A 
ATOM     19  C   UNL     1       2.935  -8.324 -35.798  1.00  0.00     0.097 A 
ATOM     20  C   UNL     1       5.718  -8.388 -36.008  1.00  0.00     0.188 A 
ATOM     21  C   UNL     1       3.615  -7.152 -36.157  1.00  0.00     0.134 A 
ATOM     22  C   UNL     1       5.028  -7.167 -36.230  1.00  0.00     0.111 A 
ATOM     23  O   UNL     1       7.042  -8.424 -36.065  1.00  0.00    -0.452 OA
ATOM     24  C   UNL     1       5.788  -6.013 -36.471  1.00  0.00     0.197 A 
ATOM     25  C   UNL     1       7.801  -7.352 -36.267  1.00  0.00     0.138 A 
ATOM     26  C   UNL     1       7.172  -6.108 -36.493  1.00  0.00     0.100 A 
ATOM     27  O   UNL     1       5.244  -4.872 -36.610  1.00  0.00    -0.289 OA
BRANCH  18  28
ATOM     28  O   UNL     1       5.650 -10.815 -35.758  1.00  0.00    -0.490 OA
ATOM     29  C   UNL     1       5.470 -11.689 -36.878  1.00  0.00     0.278 C 
ENDBRANCH  18  28
BRANCH  21  30
ATOM     30  O   UNL     1       2.873  -6.002 -36.430  1.00  0.00    -0.507 OA
ATOM     31  H   UNL     1       3.086  -5.109 -35.998  1.00  0.00     0.293 HD
ENDBRANCH  21  30
BRANCH  25  32
ATOM     32  C   UNL     1       9.294  -7.499 -36.180  1.00  0.00     0.017 A 
ATOM     33  C   UNL     1       9.925  -8.630 -36.732  1.00  0.00     0.012 A 
ATOM     34  C   UNL     1      10.106  -6.593 -35.449  1.00  0.00     0.012 A 
ATOM     35  C   UNL     1      11.286  -8.862 -36.561  1.00  0.00     0.001 A 
ATOM     36  C   UNL     1      11.488  -6.822 -35.289  1.00  0.00     0.001 A 
ATOM     37  C   UNL     1      12.070  -7.959 -35.834  1.00  0.00     0.000 A 
ENDBRANCH  25  32
ENDBRANCH   1  17
TORSDOF 9
ENDMDL
