MODEL 1
REMARK VINA RESULT:    -5.272      0.000      0.000
REMARK INTER + INTRA:          -7.681
REMARK INTER:                  -6.505
REMARK INTRA:                  -1.176
REMARK UNBOUND:                -1.176
REMARK SMILES C=C(CCC=C(C)C)[C@H]1CC=C(C)CC1
REMARK SMILES IDX 3 1 2 2 1 3 9 4 13 5 12 6 11 7 14 8 10 9 15 10 4 11 5 12
REMARK SMILES IDX 6 13 7 14 8 15
REMARK H PARENT
REMARK Flexibility Score: inf
ROOT
ATOM      1  C   UNL     1     144.323 144.350 134.110  1.00  0.00     0.035 C 
ENDROOT
BRANCH   1   2
ATOM      2  C   UNL     1     143.664 144.503 132.754  1.00  0.00    -0.074 C 
ATOM      3  C   UNL     1     143.408 143.400 132.028  1.00  0.00     0.008 C 
BRANCH   2   4
ATOM      4  C   UNL     1     143.326 145.908 132.253  1.00  0.00     0.018 C 
ATOM      5  C   UNL     1     147.236 147.891 131.668  1.00  0.00     0.039 C 
ATOM      6  C   UNL     1     145.859 147.304 131.823  1.00  0.00    -0.077 C 
ATOM      7  C   UNL     1     145.171 147.544 132.958  1.00  0.00    -0.027 C 
ATOM      8  C   UNL     1     145.345 146.355 130.761  1.00  0.00     0.031 C 
ATOM      9  C   UNL     1     143.771 147.036 133.210  1.00  0.00     0.035 C 
ATOM     10  C   UNL     1     143.827 146.160 130.823  1.00  0.00     0.013 C 
ENDBRANCH   2   4
ENDBRANCH   1   2
BRANCH   1  11
ATOM     11  C   UNL     1     145.384 143.239 134.114  1.00  0.00     0.032 C 
BRANCH  11  12
ATOM     12  C   UNL     1     146.189 143.220 132.837  1.00  0.00    -0.028 C 
ATOM     13  C   UNL     1     147.270 143.995 132.595  1.00  0.00    -0.080 C 
ATOM     14  C   UNL     1     147.932 143.899 131.246  1.00  0.00     0.039 C 
ATOM     15  C   UNL     1     147.837 144.929 133.638  1.00  0.00     0.039 C 
ENDBRANCH  11  12
ENDBRANCH   1  11
TORSDOF 4
ENDMDL
MODEL 2
REMARK VINA RESULT:    -5.228      1.254      4.506
REMARK INTER + INTRA:          -7.626
REMARK INTER:                  -6.528
REMARK INTRA:                  -1.098
REMARK UNBOUND:                -1.176
REMARK SMILES C=C(CCC=C(C)C)[C@H]1CC=C(C)CC1
REMARK SMILES IDX 3 1 2 2 1 3 9 4 13 5 12 6 11 7 14 8 10 9 15 10 4 11 5 12
REMARK SMILES IDX 6 13 7 14 8 15
REMARK H PARENT
REMARK Flexibility Score: inf
ROOT
ATOM      1  C   UNL     1     146.446 146.486 134.079  1.00  0.00     0.035 C 
ENDROOT
BRANCH   1   2
ATOM      2  C   UNL     1     147.070 146.325 132.707  1.00  0.00    -0.074 C 
ATOM      3  C   UNL     1     147.285 147.422 131.959  1.00  0.00     0.008 C 
BRANCH   2   4
ATOM      4  C   UNL     1     147.420 144.920 132.216  1.00  0.00     0.018 C 
ATOM      5  C   UNL     1     143.530 142.883 131.691  1.00  0.00     0.039 C 
ATOM      6  C   UNL     1     144.900 143.488 131.827  1.00  0.00    -0.077 C 
ATOM      7  C   UNL     1     145.604 143.268 132.956  1.00  0.00    -0.027 C 
ATOM      8  C   UNL     1     145.391 144.433 130.750  1.00  0.00     0.031 C 
ATOM      9  C   UNL     1     146.999 143.796 133.188  1.00  0.00     0.035 C 
ATOM     10  C   UNL     1     146.908 144.648 130.794  1.00  0.00     0.013 C 
ENDBRANCH   2   4
ENDBRANCH   1   2
BRANCH   1  11
ATOM     11  C   UNL     1     145.359 147.572 134.095  1.00  0.00     0.032 C 
BRANCH  11  12
ATOM     12  C   UNL     1     144.545 147.578 132.823  1.00  0.00    -0.028 C 
ATOM     13  C   UNL     1     143.481 146.779 132.584  1.00  0.00    -0.080 C 
ATOM     14  C   UNL     1     142.808 146.866 131.240  1.00  0.00     0.039 C 
ATOM     15  C   UNL     1     142.942 145.828 133.626  1.00  0.00     0.039 C 
ENDBRANCH  11  12
ENDBRANCH   1  11
TORSDOF 4
ENDMDL
MODEL 3
REMARK VINA RESULT:    -5.098      1.155      3.429
REMARK INTER + INTRA:          -7.466
REMARK INTER:                  -5.629
REMARK INTRA:                  -1.837
REMARK UNBOUND:                -1.176
REMARK SMILES C=C(CCC=C(C)C)[C@H]1CC=C(C)CC1
REMARK SMILES IDX 3 1 2 2 1 3 9 4 13 5 12 6 11 7 14 8 10 9 15 10 4 11 5 12
REMARK SMILES IDX 6 13 7 14 8 15
REMARK H PARENT
REMARK Flexibility Score: inf
ROOT
ATOM      1  C   UNL     1     146.912 143.787 133.151  1.00  0.00     0.035 C 
ENDROOT
BRANCH   1   2
ATOM      2  C   UNL     1     146.510 143.881 131.693  1.00  0.00    -0.074 C 
ATOM      3  C   UNL     1     147.431 144.256 130.788  1.00  0.00     0.008 C 
BRANCH   2   4
ATOM      4  C   UNL     1     145.065 143.560 131.305  1.00  0.00     0.018 C 
ATOM      5  C   UNL     1     142.774 147.214 132.282  1.00  0.00     0.039 C 
ATOM      6  C   UNL     1     143.463 145.931 131.905  1.00  0.00    -0.077 C 
ATOM      7  C   UNL     1     143.455 144.904 132.780  1.00  0.00    -0.027 C 
ATOM      8  C   UNL     1     144.256 145.878 130.616  1.00  0.00     0.031 C 
ATOM      9  C   UNL     1     144.084 143.561 132.497  1.00  0.00     0.035 C 
ATOM     10  C   UNL     1     144.553 144.446 130.159  1.00  0.00     0.013 C 
ENDBRANCH   2   4
ENDBRANCH   1   2
BRANCH   1  11
ATOM     11  C   UNL     1     147.604 145.067 133.642  1.00  0.00     0.032 C 
BRANCH  11  12
ATOM     12  C   UNL     1     146.612 146.098 134.125  1.00  0.00    -0.028 C 
ATOM     13  C   UNL     1     146.323 147.251 133.481  1.00  0.00    -0.080 C 
ATOM     14  C   UNL     1     145.350 148.204 134.123  1.00  0.00     0.039 C 
ATOM     15  C   UNL     1     146.928 147.595 132.141  1.00  0.00     0.039 C 
ENDBRANCH  11  12
ENDBRANCH   1  11
TORSDOF 4
ENDMDL
MODEL 4
REMARK VINA RESULT:    -5.047      1.056      3.222
REMARK INTER + INTRA:          -7.403
REMARK INTER:                  -5.598
REMARK INTRA:                  -1.805
REMARK UNBOUND:                -1.176
REMARK SMILES C=C(CCC=C(C)C)[C@H]1CC=C(C)CC1
REMARK SMILES IDX 3 1 2 2 1 3 9 4 13 5 12 6 11 7 14 8 10 9 15 10 4 11 5 12
REMARK SMILES IDX 6 13 7 14 8 15
REMARK H PARENT
REMARK Flexibility Score: inf
ROOT
ATOM      1  C   UNL     1     143.810 147.028 133.102  1.00  0.00     0.035 C 
ENDROOT
BRANCH   1   2
ATOM      2  C   UNL     1     144.196 146.896 131.643  1.00  0.00    -0.074 C 
ATOM      3  C   UNL     1     143.262 146.504 130.757  1.00  0.00     0.008 C 
BRANCH   2   4
ATOM      4  C   UNL     1     145.638 147.197 131.231  1.00  0.00     0.018 C 
ATOM      5  C   UNL     1     147.920 143.559 132.285  1.00  0.00     0.039 C 
ATOM      6  C   UNL     1     147.234 144.835 131.880  1.00  0.00    -0.077 C 
ATOM      7  C   UNL     1     147.257 145.886 132.726  1.00  0.00    -0.027 C 
ATOM      8  C   UNL     1     146.428 144.857 130.599  1.00  0.00     0.031 C 
ATOM      9  C   UNL     1     146.632 147.224 132.413  1.00  0.00     0.035 C 
ATOM     10  C   UNL     1     146.134 146.277 130.105  1.00  0.00     0.013 C 
ENDBRANCH   2   4
ENDBRANCH   1   2
BRANCH   1  11
ATOM     11  C   UNL     1     143.123 145.762 133.635  1.00  0.00     0.032 C 
BRANCH  11  12
ATOM     12  C   UNL     1     144.122 144.734 134.112  1.00  0.00    -0.028 C 
ATOM     13  C   UNL     1     144.380 143.562 133.488  1.00  0.00    -0.080 C 
ATOM     14  C   UNL     1     145.365 142.616 134.122  1.00  0.00     0.039 C 
ATOM     15  C   UNL     1     143.730 143.191 132.176  1.00  0.00     0.039 C 
ENDBRANCH  11  12
ENDBRANCH   1  11
TORSDOF 4
ENDMDL
MODEL 5
REMARK VINA RESULT:    -4.504      1.092      3.614
REMARK INTER + INTRA:          -6.733
REMARK INTER:                  -5.357
REMARK INTRA:                  -1.376
REMARK UNBOUND:                -1.176
REMARK SMILES C=C(CCC=C(C)C)[C@H]1CC=C(C)CC1
REMARK SMILES IDX 3 1 2 2 1 3 9 4 13 5 12 6 11 7 14 8 10 9 15 10 4 11 5 12
REMARK SMILES IDX 6 13 7 14 8 15
REMARK H PARENT
REMARK Flexibility Score: inf
ROOT
ATOM      1  C   UNL     1     146.097 147.615 131.775  1.00  0.00     0.035 C 
ENDROOT
BRANCH   1   2
ATOM      2  C   UNL     1     145.084 147.595 132.902  1.00  0.00    -0.074 C 
ATOM      3  C   UNL     1     145.465 148.004 134.125  1.00  0.00     0.008 C 
BRANCH   2   4
ATOM      4  C   UNL     1     143.667 147.098 132.611  1.00  0.00     0.018 C 
ATOM      5  C   UNL     1     144.084 142.739 131.991  1.00  0.00     0.039 C 
ATOM      6  C   UNL     1     143.835 144.208 132.195  1.00  0.00    -0.077 C 
ATOM      7  C   UNL     1     143.771 145.016 131.117  1.00  0.00    -0.027 C 
ATOM      8  C   UNL     1     143.797 144.754 133.607  1.00  0.00     0.031 C 
ATOM      9  C   UNL     1     143.493 146.498 131.198  1.00  0.00     0.035 C 
ATOM     10  C   UNL     1     143.146 146.138 133.692  1.00  0.00     0.013 C 
ENDBRANCH   2   4
ENDBRANCH   1   2
BRANCH   1  11
ATOM     11  C   UNL     1     147.492 147.176 132.245  1.00  0.00     0.032 C 
BRANCH  11  12
ATOM     12  C   UNL     1     147.472 145.802 132.873  1.00  0.00    -0.028 C 
ATOM     13  C   UNL     1     147.325 144.644 132.190  1.00  0.00    -0.080 C 
ATOM     14  C   UNL     1     147.268 143.357 132.969  1.00  0.00     0.039 C 
ATOM     15  C   UNL     1     147.237 144.607 130.683  1.00  0.00     0.039 C 
ENDBRANCH  11  12
ENDBRANCH   1  11
TORSDOF 4
ENDMDL
MODEL 6
REMARK VINA RESULT:    -4.467      0.930      3.775
REMARK INTER + INTRA:          -6.687
REMARK INTER:                  -5.407
REMARK INTRA:                  -1.280
REMARK UNBOUND:                -1.176
REMARK SMILES C=C(CCC=C(C)C)[C@H]1CC=C(C)CC1
REMARK SMILES IDX 3 1 2 2 1 3 9 4 13 5 12 6 11 7 14 8 10 9 15 10 4 11 5 12
REMARK SMILES IDX 6 13 7 14 8 15
REMARK H PARENT
REMARK Flexibility Score: inf
ROOT
ATOM      1  C   UNL     1     144.645 143.127 131.749  1.00  0.00     0.035 C 
ENDROOT
BRANCH   1   2
ATOM      2  C   UNL     1     145.644 143.189 132.887  1.00  0.00    -0.074 C 
ATOM      3  C   UNL     1     145.249 142.820 134.119  1.00  0.00     0.008 C 
BRANCH   2   4
ATOM      4  C   UNL     1     147.062 143.684 132.597  1.00  0.00     0.018 C 
ATOM      5  C   UNL     1     146.660 148.049 132.015  1.00  0.00     0.039 C 
ATOM      6  C   UNL     1     146.904 146.577 132.206  1.00  0.00    -0.077 C 
ATOM      7  C   UNL     1     146.963 145.778 131.121  1.00  0.00    -0.027 C 
ATOM      8  C   UNL     1     146.944 146.019 133.613  1.00  0.00     0.031 C 
ATOM      9  C   UNL     1     147.235 144.294 131.189  1.00  0.00     0.035 C 
ATOM     10  C   UNL     1     147.589 144.632 133.685  1.00  0.00     0.013 C 
ENDBRANCH   2   4
ENDBRANCH   1   2
BRANCH   1  11
ATOM     11  C   UNL     1     143.244 143.579 132.185  1.00  0.00     0.032 C 
BRANCH  11  12
ATOM     12  C   UNL     1     143.266 144.940 132.841  1.00  0.00    -0.028 C 
ATOM     13  C   UNL     1     143.437 146.109 132.186  1.00  0.00    -0.080 C 
ATOM     14  C   UNL     1     143.493 147.380 132.992  1.00  0.00     0.039 C 
ATOM     15  C   UNL     1     143.551 146.177 130.681  1.00  0.00     0.039 C 
ENDBRANCH  11  12
ENDBRANCH   1  11
TORSDOF 4
ENDMDL
MODEL 7
REMARK VINA RESULT:    -4.066      1.096      3.660
REMARK INTER + INTRA:          -6.193
REMARK INTER:                  -4.218
REMARK INTRA:                  -1.975
REMARK UNBOUND:                -1.176
REMARK SMILES C=C(CCC=C(C)C)[C@H]1CC=C(C)CC1
REMARK SMILES IDX 3 1 2 2 1 3 9 4 13 5 12 6 11 7 14 8 10 9 15 10 4 11 5 12
REMARK SMILES IDX 6 13 7 14 8 15
REMARK H PARENT
REMARK Flexibility Score: inf
ROOT
ATOM      1  C   UNL     1     143.131 146.180 131.761  1.00  0.00     0.035 C 
ENDROOT
BRANCH   1   2
ATOM      2  C   UNL     1     143.275 145.123 132.837  1.00  0.00    -0.074 C 
ATOM      3  C   UNL     1     142.909 145.424 134.096  1.00  0.00     0.008 C 
BRANCH   2   4
ATOM      4  C   UNL     1     143.845 143.755 132.457  1.00  0.00     0.018 C 
ATOM      5  C   UNL     1     148.236 144.257 132.611  1.00  0.00     0.039 C 
ATOM      6  C   UNL     1     146.759 143.981 132.541  1.00  0.00    -0.077 C 
ATOM      7  C   UNL     1     146.137 144.053 131.346  1.00  0.00    -0.027 C 
ATOM      8  C   UNL     1     145.994 143.762 133.829  1.00  0.00     0.031 C 
ATOM      9  C   UNL     1     144.668 143.764 131.150  1.00  0.00     0.035 C 
ATOM     10  C   UNL     1     144.629 143.103 133.606  1.00  0.00     0.013 C 
ENDBRANCH   2   4
ENDBRANCH   1   2
BRANCH   1  11
ATOM     11  C   UNL     1     143.769 147.514 132.174  1.00  0.00     0.032 C 
BRANCH  11  12
ATOM     12  C   UNL     1     145.226 147.592 131.781  1.00  0.00    -0.028 C 
ATOM     13  C   UNL     1     146.262 147.526 132.646  1.00  0.00    -0.080 C 
ATOM     14  C   UNL     1     147.659 147.676 132.102  1.00  0.00     0.039 C 
ATOM     15  C   UNL     1     146.061 147.288 134.124  1.00  0.00     0.039 C 
ENDBRANCH  11  12
ENDBRANCH   1  11
TORSDOF 4
ENDMDL
MODEL 8
REMARK VINA RESULT:    -3.782      1.049      3.573
REMARK INTER + INTRA:          -5.842
REMARK INTER:                  -3.950
REMARK INTRA:                  -1.893
REMARK UNBOUND:                -1.176
REMARK SMILES C=C(CCC=C(C)C)[C@H]1CC=C(C)CC1
REMARK SMILES IDX 3 1 2 2 1 3 9 4 13 5 12 6 11 7 14 8 10 9 15 10 4 11 5 12
REMARK SMILES IDX 6 13 7 14 8 15
REMARK H PARENT
REMARK Flexibility Score: inf
ROOT
ATOM      1  C   UNL     1     147.577 144.915 131.709  1.00  0.00     0.035 C 
ENDROOT
BRANCH   1   2
ATOM      2  C   UNL     1     147.519 145.745 132.976  1.00  0.00    -0.074 C 
ATOM      3  C   UNL     1     147.966 145.208 134.125  1.00  0.00     0.008 C 
BRANCH   2   4
ATOM      4  C   UNL     1     146.939 147.159 132.906  1.00  0.00     0.018 C 
ATOM      5  C   UNL     1     142.794 146.630 131.456  1.00  0.00     0.039 C 
ATOM      6  C   UNL     1     144.181 146.915 131.963  1.00  0.00    -0.077 C 
ATOM      7  C   UNL     1     145.140 147.266 131.081  1.00  0.00    -0.027 C 
ATOM      8  C   UNL     1     144.490 146.671 133.425  1.00  0.00     0.031 C 
ATOM      9  C   UNL     1     146.557 147.606 131.478  1.00  0.00     0.035 C 
ATOM     10  C   UNL     1     145.774 147.367 133.886  1.00  0.00     0.013 C 
ENDBRANCH   2   4
ENDBRANCH   1   2
BRANCH   1  11
ATOM     11  C   UNL     1     147.002 143.506 131.915  1.00  0.00     0.032 C 
BRANCH  11  12
ATOM     12  C   UNL     1     145.511 143.463 131.680  1.00  0.00    -0.028 C 
ATOM     13  C   UNL     1     144.583 143.271 132.645  1.00  0.00    -0.080 C 
ATOM     14  C   UNL     1     143.135 143.196 132.240  1.00  0.00     0.039 C 
ATOM     15  C   UNL     1     144.956 143.151 134.104  1.00  0.00     0.039 C 
ENDBRANCH  11  12
ENDBRANCH   1  11
TORSDOF 4
ENDMDL
