MODEL 1
REMARK VINA RESULT:    -5.784      0.000      0.000
REMARK INTER + INTRA:          -8.735
REMARK INTER:                  -7.812
REMARK INTRA:                  -0.922
REMARK UNBOUND:                -0.922
REMARK SMILES O=c1c(-c2ccc(O)cc2)coc2c([C@@H]3O[C@@H](CO)[C@@H](O)[C@H](O)[C@@H]3O)c(O)ccc12
REMARK SMILES IDX 3 1 11 2 12 3 13 4 30 5 2 6 1 7 29 8 28 9 26 10 14 11 4 12
REMARK SMILES IDX 5 13 6 14 7 15 10 16 9 17 8 18 15 20 24 21 16 22 22 23 17 24
REMARK SMILES IDX 20 25 25 26 23 28 18 30 19 31 21 33 27 35
REMARK H PARENT 8 19 25 27 23 29 19 32 21 34 27 36
REMARK Flexibility Score: inf
ROOT
ATOM      1  C   UNL     1     -15.149  15.150 -10.987  1.00  0.00     0.065 A 
ATOM      2  C   UNL     1     -16.397  14.570 -11.251  1.00  0.00     0.208 A 
ATOM      3  O   UNL     1     -17.518  15.147 -10.832  1.00  0.00    -0.463 OA
ATOM      4  C   UNL     1     -17.544  16.289 -10.147  1.00  0.00     0.147 A 
ATOM      5  C   UNL     1     -16.329  16.960  -9.875  1.00  0.00     0.066 A 
ATOM      6  C   UNL     1     -15.121  16.373 -10.296  1.00  0.00     0.200 A 
ATOM      7  O   UNL     1     -14.021  16.954 -10.078  1.00  0.00    -0.288 OA
ATOM      8  C   UNL     1     -16.355  18.199  -9.224  1.00  0.00     0.020 A 
ATOM      9  C   UNL     1     -17.571  18.796  -8.916  1.00  0.00     0.047 A 
ATOM     10  C   UNL     1     -18.783  18.153  -9.202  1.00  0.00     0.125 A 
ATOM     11  C   UNL     1     -18.787  16.827  -9.713  1.00  0.00     0.069 A 
ENDROOT
BRANCH   1  12
ATOM     12  C   UNL     1     -13.908  14.479 -11.449  1.00  0.00    -0.011 A 
ATOM     13  C   UNL     1     -13.395  13.374 -10.746  1.00  0.00     0.013 A 
ATOM     14  C   UNL     1     -12.221  12.745 -11.174  1.00  0.00     0.047 A 
ATOM     15  C   UNL     1     -11.543  13.214 -12.303  1.00  0.00     0.115 A 
ATOM     16  C   UNL     1     -13.217  14.949 -12.580  1.00  0.00     0.013 A 
ATOM     17  C   UNL     1     -12.044  14.319 -13.004  1.00  0.00     0.047 A 
BRANCH  15  18
ATOM     18  O   UNL     1     -10.375  12.579 -12.717  1.00  0.00    -0.508 OA
ATOM     19  H   UNL     1      -9.709  13.039 -13.325  1.00  0.00     0.293 HD
ENDBRANCH  15  18
ENDBRANCH   1  12
BRANCH  11  20
ATOM     20  C   UNL     1     -20.073  16.001  -9.944  1.00  0.00     0.188 C 
ATOM     21  C   UNL     1     -20.743  15.344  -8.671  1.00  0.00     0.179 C 
ATOM     22  O   UNL     1     -21.001  16.598 -10.849  1.00  0.00    -0.362 OA
ATOM     23  C   UNL     1     -21.941  16.118  -8.090  1.00  0.00     0.177 C 
ATOM     24  C   UNL     1     -22.002  17.395 -10.227  1.00  0.00     0.176 C 
ATOM     25  C   UNL     1     -22.853  16.597  -9.221  1.00  0.00     0.177 C 
BRANCH  21  26
ATOM     26  O   UNL     1     -19.826  15.020  -7.654  1.00  0.00    -0.387 OA
ATOM     27  H   UNL     1     -19.974  14.074  -7.394  1.00  0.00     0.211 HD
ENDBRANCH  21  26
BRANCH  23  28
ATOM     28  O   UNL     1     -21.490  17.218  -7.338  1.00  0.00    -0.387 OA
ATOM     29  H   UNL     1     -21.358  16.898  -6.408  1.00  0.00     0.211 HD
ENDBRANCH  23  28
BRANCH  24  30
ATOM     30  C   UNL     1     -22.868  18.054 -11.311  1.00  0.00     0.191 C 
BRANCH  30  31
ATOM     31  O   UNL     1     -23.279  17.115 -12.269  1.00  0.00    -0.394 OA
ATOM     32  H   UNL     1     -23.597  16.314 -11.776  1.00  0.00     0.210 HD
ENDBRANCH  30  31
ENDBRANCH  24  30
BRANCH  25  33
ATOM     33  O   UNL     1     -23.545  15.522  -9.814  1.00  0.00    -0.388 OA
ATOM     34  H   UNL     1     -24.253  15.886 -10.403  1.00  0.00     0.211 HD
ENDBRANCH  25  33
ENDBRANCH  11  20
BRANCH  10  35
ATOM     35  O   UNL     1     -19.960  18.875  -9.026  1.00  0.00    -0.507 OA
ATOM     36  H   UNL     1     -20.859  18.420  -8.913  1.00  0.00     0.293 HD
ENDBRANCH  10  35
TORSDOF 9
ENDMDL
MODEL 2
REMARK VINA RESULT:    -5.569      2.135      9.666
REMARK INTER + INTRA:          -8.445
REMARK INTER:                  -7.478
REMARK INTRA:                  -0.967
REMARK UNBOUND:                -0.922
REMARK SMILES O=c1c(-c2ccc(O)cc2)coc2c([C@@H]3O[C@@H](CO)[C@@H](O)[C@H](O)[C@@H]3O)c(O)ccc12
REMARK SMILES IDX 3 1 11 2 12 3 13 4 30 5 2 6 1 7 29 8 28 9 26 10 14 11 4 12
REMARK SMILES IDX 5 13 6 14 7 15 10 16 9 17 8 18 15 20 24 21 16 22 22 23 17 24
REMARK SMILES IDX 20 25 25 26 23 28 18 30 19 31 21 33 27 35
REMARK H PARENT 8 19 25 27 23 29 19 32 21 34 27 36
REMARK Flexibility Score: inf
ROOT
ATOM      1  C   UNL     1     -15.872  15.577 -10.938  1.00  0.00     0.065 A 
ATOM      2  C   UNL     1     -15.316  15.756 -12.212  1.00  0.00     0.208 A 
ATOM      3  O   UNL     1     -14.146  15.214 -12.527  1.00  0.00    -0.463 OA
ATOM      4  C   UNL     1     -13.427  14.479 -11.680  1.00  0.00     0.147 A 
ATOM      5  C   UNL     1     -13.936  14.216 -10.387  1.00  0.00     0.066 A 
ATOM      6  C   UNL     1     -15.170  14.782 -10.016  1.00  0.00     0.200 A 
ATOM      7  O   UNL     1     -15.656  14.556  -8.873  1.00  0.00    -0.288 OA
ATOM      8  C   UNL     1     -13.222  13.381  -9.520  1.00  0.00     0.020 A 
ATOM      9  C   UNL     1     -12.061  12.756  -9.957  1.00  0.00     0.047 A 
ATOM     10  C   UNL     1     -11.557  12.988 -11.243  1.00  0.00     0.125 A 
ATOM     11  C   UNL     1     -12.169  13.955 -12.088  1.00  0.00     0.069 A 
ENDROOT
BRANCH   1  12
ATOM     12  C   UNL     1     -17.174  16.207 -10.602  1.00  0.00    -0.011 A 
ATOM     13  C   UNL     1     -18.378  15.527 -10.855  1.00  0.00     0.013 A 
ATOM     14  C   UNL     1     -19.606  16.122 -10.548  1.00  0.00     0.047 A 
ATOM     15  C   UNL     1     -19.646  17.403  -9.990  1.00  0.00     0.115 A 
ATOM     16  C   UNL     1     -17.223  17.498 -10.048  1.00  0.00     0.013 A 
ATOM     17  C   UNL     1     -18.451  18.091  -9.742  1.00  0.00     0.047 A 
BRANCH  15  18
ATOM     18  O   UNL     1     -20.876  17.984  -9.689  1.00  0.00    -0.508 OA
ATOM     19  H   UNL     1     -21.507  18.294 -10.418  1.00  0.00     0.293 HD
ENDBRANCH  15  18
ENDBRANCH   1  12
BRANCH  11  20
ATOM     20  C   UNL     1     -11.611  14.360 -13.472  1.00  0.00     0.188 C 
ATOM     21  C   UNL     1     -10.327  15.283 -13.486  1.00  0.00     0.179 C 
ATOM     22  O   UNL     1     -11.578  13.299 -14.427  1.00  0.00    -0.362 OA
ATOM     23  C   UNL     1      -8.995  14.545 -13.720  1.00  0.00     0.177 C 
ATOM     24  C   UNL     1     -10.343  12.596 -14.485  1.00  0.00     0.176 C 
ATOM     25  C   UNL     1      -9.157  13.513 -14.838  1.00  0.00     0.177 C 
BRANCH  21  26
ATOM     26  O   UNL     1     -10.230  16.133 -12.371  1.00  0.00    -0.387 OA
ATOM     27  H   UNL     1     -11.056  16.032 -11.831  1.00  0.00     0.211 HD
ENDBRANCH  21  26
BRANCH  23  28
ATOM     28  O   UNL     1      -8.577  13.910 -12.537  1.00  0.00    -0.387 OA
ATOM     29  H   UNL     1      -7.814  14.436 -12.180  1.00  0.00     0.211 HD
ENDBRANCH  23  28
BRANCH  24  30
ATOM     30  C   UNL     1     -10.474  11.427 -15.472  1.00  0.00     0.191 C 
BRANCH  30  31
ATOM     31  O   UNL     1     -11.206  11.805 -16.608  1.00  0.00    -0.394 OA
ATOM     32  H   UNL     1     -12.112  11.410 -16.517  1.00  0.00     0.210 HD
ENDBRANCH  30  31
ENDBRANCH  24  30
BRANCH  25  33
ATOM     33  O   UNL     1      -9.295  14.135 -16.095  1.00  0.00    -0.388 OA
ATOM     34  H   UNL     1      -9.632  15.057 -15.958  1.00  0.00     0.211 HD
ENDBRANCH  25  33
ENDBRANCH  11  20
BRANCH  10  35
ATOM     35  O   UNL     1     -10.491  12.206 -11.677  1.00  0.00    -0.507 OA
ATOM     36  H   UNL     1     -10.613  11.244 -11.971  1.00  0.00     0.293 HD
ENDBRANCH  10  35
TORSDOF 9
ENDMDL
MODEL 3
REMARK VINA RESULT:    -5.403      3.878      7.183
REMARK INTER + INTRA:          -8.221
REMARK INTER:                  -7.257
REMARK INTRA:                  -0.964
REMARK UNBOUND:                -0.922
REMARK SMILES O=c1c(-c2ccc(O)cc2)coc2c([C@@H]3O[C@@H](CO)[C@@H](O)[C@H](O)[C@@H]3O)c(O)ccc12
REMARK SMILES IDX 3 1 11 2 12 3 13 4 30 5 2 6 1 7 29 8 28 9 26 10 14 11 4 12
REMARK SMILES IDX 5 13 6 14 7 15 10 16 9 17 8 18 15 20 24 21 16 22 22 23 17 24
REMARK SMILES IDX 20 25 25 26 23 28 18 30 19 31 21 33 27 35
REMARK H PARENT 8 19 25 27 23 29 19 32 21 34 27 36
REMARK Flexibility Score: inf
ROOT
ATOM      1  C   UNL     1      -9.998  13.392 -15.134  1.00  0.00     0.065 A 
ATOM      2  C   UNL     1     -11.389  13.251 -15.054  1.00  0.00     0.208 A 
ATOM      3  O   UNL     1     -12.083  13.861 -14.100  1.00  0.00    -0.463 OA
ATOM      4  C   UNL     1     -11.526  14.635 -13.170  1.00  0.00     0.147 A 
ATOM      5  C   UNL     1     -10.131  14.863 -13.203  1.00  0.00     0.066 A 
ATOM      6  C   UNL     1      -9.363  14.224 -14.195  1.00  0.00     0.200 A 
ATOM      7  O   UNL     1      -8.117  14.418 -14.259  1.00  0.00    -0.288 OA
ATOM      8  C   UNL     1      -9.551  15.736 -12.276  1.00  0.00     0.020 A 
ATOM      9  C   UNL     1     -10.353  16.429 -11.378  1.00  0.00     0.047 A 
ATOM     10  C   UNL     1     -11.740  16.231 -11.349  1.00  0.00     0.125 A 
ATOM     11  C   UNL     1     -12.338  15.233 -12.166  1.00  0.00     0.069 A 
ENDROOT
BRANCH   1  12
ATOM     12  C   UNL     1      -9.240  12.686 -16.197  1.00  0.00    -0.011 A 
ATOM     13  C   UNL     1      -9.056  13.286 -17.456  1.00  0.00     0.013 A 
ATOM     14  C   UNL     1      -8.351  12.619 -18.462  1.00  0.00     0.047 A 
ATOM     15  C   UNL     1      -7.825  11.344 -18.226  1.00  0.00     0.115 A 
ATOM     16  C   UNL     1      -8.715  11.401 -15.970  1.00  0.00     0.013 A 
ATOM     17  C   UNL     1      -8.011  10.737 -16.978  1.00  0.00     0.047 A 
BRANCH  15  18
ATOM     18  O   UNL     1      -7.126  10.691 -19.238  1.00  0.00    -0.508 OA
ATOM     19  H   UNL     1      -6.467   9.950 -19.033  1.00  0.00     0.293 HD
ENDBRANCH  15  18
ENDBRANCH   1  12
BRANCH  11  20
ATOM     20  C   UNL     1     -13.839  14.866 -12.111  1.00  0.00     0.188 C 
ATOM     21  C   UNL     1     -14.313  13.962 -10.904  1.00  0.00     0.179 C 
ATOM     22  O   UNL     1     -14.721  15.947 -12.413  1.00  0.00    -0.362 OA
ATOM     23  C   UNL     1     -14.968  14.723  -9.736  1.00  0.00     0.177 C 
ATOM     24  C   UNL     1     -15.178  16.669 -11.275  1.00  0.00     0.176 C 
ATOM     25  C   UNL     1     -15.938  15.776 -10.275  1.00  0.00     0.177 C 
BRANCH  21  26
ATOM     26  O   UNL     1     -13.319  13.089 -10.427  1.00  0.00    -0.387 OA
ATOM     27  H   UNL     1     -13.524  12.176 -10.758  1.00  0.00     0.211 HD
ENDBRANCH  21  26
BRANCH  23  28
ATOM     28  O   UNL     1     -13.982  15.338  -8.943  1.00  0.00    -0.387 OA
ATOM     29  H   UNL     1     -14.088  14.982  -8.022  1.00  0.00     0.211 HD
ENDBRANCH  23  28
BRANCH  24  30
ATOM     30  C   UNL     1     -16.032  17.857 -11.742  1.00  0.00     0.191 C 
BRANCH  30  31
ATOM     31  O   UNL     1     -17.201  17.972 -10.974  1.00  0.00    -0.394 OA
ATOM     32  H   UNL     1     -16.923  18.000 -10.021  1.00  0.00     0.210 HD
ENDBRANCH  30  31
ENDBRANCH  24  30
BRANCH  25  33
ATOM     33  O   UNL     1     -17.088  15.180 -10.830  1.00  0.00    -0.388 OA
ATOM     34  H   UNL     1     -17.376  15.714 -11.613  1.00  0.00     0.211 HD
ENDBRANCH  25  33
ENDBRANCH  11  20
BRANCH  10  35
ATOM     35  O   UNL     1     -12.503  17.076 -10.548  1.00  0.00    -0.507 OA
ATOM     36  H   UNL     1     -13.185  16.723  -9.888  1.00  0.00     0.293 HD
ENDBRANCH  10  35
TORSDOF 9
ENDMDL
MODEL 4
REMARK VINA RESULT:    -5.396      3.795      6.711
REMARK INTER + INTRA:          -8.211
REMARK INTER:                  -7.236
REMARK INTRA:                  -0.975
REMARK UNBOUND:                -0.922
REMARK SMILES O=c1c(-c2ccc(O)cc2)coc2c([C@@H]3O[C@@H](CO)[C@@H](O)[C@H](O)[C@@H]3O)c(O)ccc12
REMARK SMILES IDX 3 1 11 2 12 3 13 4 30 5 2 6 1 7 29 8 28 9 26 10 14 11 4 12
REMARK SMILES IDX 5 13 6 14 7 15 10 16 9 17 8 18 15 20 24 21 16 22 22 23 17 24
REMARK SMILES IDX 20 25 25 26 23 28 18 30 19 31 21 33 27 35
REMARK H PARENT 8 19 25 27 23 29 19 32 21 34 27 36
REMARK Flexibility Score: inf
ROOT
ATOM      1  C   UNL     1     -10.625  12.813 -14.036  1.00  0.00     0.065 A 
ATOM      2  C   UNL     1     -11.551  13.775 -14.460  1.00  0.00     0.208 A 
ATOM      3  O   UNL     1     -12.314  14.419 -13.584  1.00  0.00    -0.463 OA
ATOM      4  C   UNL     1     -12.262  14.206 -12.270  1.00  0.00     0.147 A 
ATOM      5  C   UNL     1     -11.325  13.280 -11.756  1.00  0.00     0.066 A 
ATOM      6  C   UNL     1     -10.506  12.573 -12.656  1.00  0.00     0.200 A 
ATOM      7  O   UNL     1      -9.651  11.748 -12.226  1.00  0.00    -0.288 OA
ATOM      8  C   UNL     1     -11.211  13.109 -10.371  1.00  0.00     0.020 A 
ATOM      9  C   UNL     1     -11.961  13.899  -9.510  1.00  0.00     0.047 A 
ATOM     10  C   UNL     1     -12.876  14.837 -10.005  1.00  0.00     0.125 A 
ATOM     11  C   UNL     1     -13.133  14.920 -11.401  1.00  0.00     0.069 A 
ENDROOT
BRANCH   1  12
ATOM     12  C   UNL     1      -9.795  12.092 -15.034  1.00  0.00    -0.011 A 
ATOM     13  C   UNL     1      -8.533  12.592 -15.400  1.00  0.00     0.013 A 
ATOM     14  C   UNL     1      -7.753  11.919 -16.346  1.00  0.00     0.047 A 
ATOM     15  C   UNL     1      -8.225  10.745 -16.941  1.00  0.00     0.115 A 
ATOM     16  C   UNL     1     -10.266  10.915 -15.641  1.00  0.00     0.013 A 
ATOM     17  C   UNL     1      -9.484  10.245 -16.587  1.00  0.00     0.047 A 
BRANCH  15  18
ATOM     18  O   UNL     1      -7.437  10.087 -17.883  1.00  0.00    -0.508 OA
ATOM     19  H   UNL     1      -7.212  10.511 -18.774  1.00  0.00     0.293 HD
ENDBRANCH  15  18
ENDBRANCH   1  12
BRANCH  11  20
ATOM     20  C   UNL     1     -14.209  15.840 -12.022  1.00  0.00     0.188 C 
ATOM     21  C   UNL     1     -15.714  15.376 -11.888  1.00  0.00     0.179 C 
ATOM     22  O   UNL     1     -14.003  17.232 -11.783  1.00  0.00    -0.362 OA
ATOM     23  C   UNL     1     -16.506  16.052 -10.752  1.00  0.00     0.177 C 
ATOM     24  C   UNL     1     -14.679  17.740 -10.639  1.00  0.00     0.176 C 
ATOM     25  C   UNL     1     -16.206  17.552 -10.724  1.00  0.00     0.177 C 
BRANCH  21  26
ATOM     26  O   UNL     1     -15.873  13.980 -11.836  1.00  0.00    -0.387 OA
ATOM     27  H   UNL     1     -15.834  13.699 -10.886  1.00  0.00     0.211 HD
ENDBRANCH  21  26
BRANCH  23  28
ATOM     28  O   UNL     1     -16.173  15.471  -9.515  1.00  0.00    -0.387 OA
ATOM     29  H   UNL     1     -15.932  14.525  -9.694  1.00  0.00     0.211 HD
ENDBRANCH  23  28
BRANCH  24  30
ATOM     30  C   UNL     1     -14.297  19.213 -10.440  1.00  0.00     0.191 C 
BRANCH  30  31
ATOM     31  O   UNL     1     -14.586  19.971 -11.586  1.00  0.00    -0.394 OA
ATOM     32  H   UNL     1     -14.604  20.924 -11.309  1.00  0.00     0.210 HD
ENDBRANCH  30  31
ENDBRANCH  24  30
BRANCH  25  33
ATOM     33  O   UNL     1     -16.784  18.212 -11.826  1.00  0.00    -0.388 OA
ATOM     34  H   UNL     1     -16.074  18.401 -12.491  1.00  0.00     0.211 HD
ENDBRANCH  25  33
ENDBRANCH  11  20
BRANCH  10  35
ATOM     35  O   UNL     1     -13.469  15.712  -9.098  1.00  0.00    -0.507 OA
ATOM     36  H   UNL     1     -14.292  15.458  -8.564  1.00  0.00     0.293 HD
ENDBRANCH  10  35
TORSDOF 9
ENDMDL
MODEL 5
REMARK VINA RESULT:    -5.372      2.171      3.577
REMARK INTER + INTRA:          -8.178
REMARK INTER:                  -7.385
REMARK INTRA:                  -0.793
REMARK UNBOUND:                -0.922
REMARK SMILES O=c1c(-c2ccc(O)cc2)coc2c([C@@H]3O[C@@H](CO)[C@@H](O)[C@H](O)[C@@H]3O)c(O)ccc12
REMARK SMILES IDX 3 1 11 2 12 3 13 4 30 5 2 6 1 7 29 8 28 9 26 10 14 11 4 12
REMARK SMILES IDX 5 13 6 14 7 15 10 16 9 17 8 18 15 20 24 21 16 22 22 23 17 24
REMARK SMILES IDX 20 25 25 26 23 28 18 30 19 31 21 33 27 35
REMARK H PARENT 8 19 25 27 23 29 19 32 21 34 27 36
REMARK Flexibility Score: inf
ROOT
ATOM      1  C   UNL     1     -13.192  14.028  -9.742  1.00  0.00     0.065 A 
ATOM      2  C   UNL     1     -14.068  14.177  -8.658  1.00  0.00     0.208 A 
ATOM      3  O   UNL     1     -15.297  14.646  -8.836  1.00  0.00    -0.463 OA
ATOM      4  C   UNL     1     -15.782  15.002 -10.025  1.00  0.00     0.147 A 
ATOM      5  C   UNL     1     -14.976  14.843 -11.176  1.00  0.00     0.066 A 
ATOM      6  C   UNL     1     -13.664  14.358 -11.024  1.00  0.00     0.200 A 
ATOM      7  O   UNL     1     -12.924  14.194 -12.034  1.00  0.00    -0.288 OA
ATOM      8  C   UNL     1     -15.506  15.142 -12.437  1.00  0.00     0.020 A 
ATOM      9  C   UNL     1     -16.837  15.519 -12.560  1.00  0.00     0.047 A 
ATOM     10  C   UNL     1     -17.654  15.657 -11.429  1.00  0.00     0.125 A 
ATOM     11  C   UNL     1     -17.103  15.519 -10.126  1.00  0.00     0.069 A 
ENDROOT
BRANCH   1  12
ATOM     12  C   UNL     1     -11.815  13.519  -9.517  1.00  0.00    -0.011 A 
ATOM     13  C   UNL     1     -11.558  12.137  -9.531  1.00  0.00     0.013 A 
ATOM     14  C   UNL     1     -10.264  11.655  -9.311  1.00  0.00     0.047 A 
ATOM     15  C   UNL     1      -9.213  12.545  -9.070  1.00  0.00     0.115 A 
ATOM     16  C   UNL     1     -10.755  14.408  -9.267  1.00  0.00     0.013 A 
ATOM     17  C   UNL     1      -9.462  13.923  -9.047  1.00  0.00     0.047 A 
BRANCH  15  18
ATOM     18  O   UNL     1      -7.930  12.050  -8.852  1.00  0.00    -0.508 OA
ATOM     19  H   UNL     1      -7.552  11.953  -7.917  1.00  0.00     0.293 HD
ENDBRANCH  15  18
ENDBRANCH   1  12
BRANCH  11  20
ATOM     20  C   UNL     1     -17.902  15.772  -8.827  1.00  0.00     0.188 C 
ATOM     21  C   UNL     1     -18.136  17.278  -8.409  1.00  0.00     0.179 C 
ATOM     22  O   UNL     1     -19.049  14.937  -8.670  1.00  0.00    -0.362 OA
ATOM     23  C   UNL     1     -19.517  17.851  -8.778  1.00  0.00     0.177 C 
ATOM     24  C   UNL     1     -20.261  15.505  -9.152  1.00  0.00     0.176 C 
ATOM     25  C   UNL     1     -20.611  16.832  -8.453  1.00  0.00     0.177 C 
BRANCH  21  26
ATOM     26  O   UNL     1     -17.113  18.147  -8.830  1.00  0.00    -0.387 OA
ATOM     27  H   UNL     1     -17.410  18.590  -9.666  1.00  0.00     0.211 HD
ENDBRANCH  21  26
BRANCH  23  28
ATOM     28  O   UNL     1     -19.557  18.180 -10.145  1.00  0.00    -0.387 OA
ATOM     29  H   UNL     1     -18.857  17.639 -10.594  1.00  0.00     0.211 HD
ENDBRANCH  23  28
BRANCH  24  30
ATOM     30  C   UNL     1     -21.391  14.473  -9.015  1.00  0.00     0.191 C 
BRANCH  30  31
ATOM     31  O   UNL     1     -21.140  13.341  -9.807  1.00  0.00    -0.394 OA
ATOM     32  H   UNL     1     -22.015  13.032 -10.158  1.00  0.00     0.210 HD
ENDBRANCH  30  31
ENDBRANCH  24  30
BRANCH  25  33
ATOM     33  O   UNL     1     -20.788  16.695  -7.062  1.00  0.00    -0.388 OA
ATOM     34  H   UNL     1     -20.133  16.032  -6.723  1.00  0.00     0.211 HD
ENDBRANCH  25  33
ENDBRANCH  11  20
BRANCH  10  35
ATOM     35  O   UNL     1     -19.015  15.870 -11.631  1.00  0.00    -0.507 OA
ATOM     36  H   UNL     1     -19.431  15.855 -12.555  1.00  0.00     0.293 HD
ENDBRANCH  10  35
TORSDOF 9
ENDMDL
MODEL 6
REMARK VINA RESULT:    -5.351      4.335     11.583
REMARK INTER + INTRA:          -8.151
REMARK INTER:                  -7.300
REMARK INTRA:                  -0.851
REMARK UNBOUND:                -0.922
REMARK SMILES O=c1c(-c2ccc(O)cc2)coc2c([C@@H]3O[C@@H](CO)[C@@H](O)[C@H](O)[C@@H]3O)c(O)ccc12
REMARK SMILES IDX 3 1 11 2 12 3 13 4 30 5 2 6 1 7 29 8 28 9 26 10 14 11 4 12
REMARK SMILES IDX 5 13 6 14 7 15 10 16 9 17 8 18 15 20 24 21 16 22 22 23 17 24
REMARK SMILES IDX 20 25 25 26 23 28 18 30 19 31 21 33 27 35
REMARK H PARENT 8 19 25 27 23 29 19 32 21 34 27 36
REMARK Flexibility Score: inf
ROOT
ATOM      1  C   UNL     1     -12.626  14.539 -12.291  1.00  0.00     0.065 A 
ATOM      2  C   UNL     1     -12.341  14.134 -13.601  1.00  0.00     0.208 A 
ATOM      3  O   UNL     1     -11.387  13.243 -13.847  1.00  0.00    -0.463 OA
ATOM      4  C   UNL     1     -10.645  12.682 -12.894  1.00  0.00     0.147 A 
ATOM      5  C   UNL     1     -10.896  13.006 -11.540  1.00  0.00     0.066 A 
ATOM      6  C   UNL     1     -11.894  13.953 -11.244  1.00  0.00     0.200 A 
ATOM      7  O   UNL     1     -12.150  14.254 -10.044  1.00  0.00    -0.288 OA
ATOM      8  C   UNL     1     -10.173  12.361 -10.529  1.00  0.00     0.020 A 
ATOM      9  C   UNL     1      -9.270  11.357 -10.854  1.00  0.00     0.047 A 
ATOM     10  C   UNL     1      -9.029  11.009 -12.190  1.00  0.00     0.125 A 
ATOM     11  C   UNL     1      -9.624  11.755 -13.243  1.00  0.00     0.069 A 
ENDROOT
BRANCH   1  12
ATOM     12  C   UNL     1     -13.685  15.549 -12.041  1.00  0.00    -0.011 A 
ATOM     13  C   UNL     1     -15.041  15.208 -12.189  1.00  0.00     0.013 A 
ATOM     14  C   UNL     1     -16.040  16.160 -11.962  1.00  0.00     0.047 A 
ATOM     15  C   UNL     1     -15.697  17.464 -11.592  1.00  0.00     0.115 A 
ATOM     16  C   UNL     1     -13.348  16.864 -11.675  1.00  0.00     0.013 A 
ATOM     17  C   UNL     1     -14.349  17.814 -11.450  1.00  0.00     0.047 A 
BRANCH  15  18
ATOM     18  O   UNL     1     -16.703  18.402 -11.370  1.00  0.00    -0.508 OA
ATOM     19  H   UNL     1     -17.497  18.197 -10.776  1.00  0.00     0.293 HD
ENDBRANCH  15  18
ENDBRANCH   1  12
BRANCH  11  20
ATOM     20  C   UNL     1      -9.320  11.517 -14.740  1.00  0.00     0.188 C 
ATOM     21  C   UNL     1      -7.925  12.028 -15.280  1.00  0.00     0.179 C 
ATOM     22  O   UNL     1      -9.694  10.225 -15.219  1.00  0.00    -0.362 OA
ATOM     23  C   UNL     1      -6.835  10.947 -15.400  1.00  0.00     0.177 C 
ATOM     24  C   UNL     1      -8.651   9.257 -15.177  1.00  0.00     0.176 C 
ATOM     25  C   UNL     1      -7.425   9.674 -16.012  1.00  0.00     0.177 C 
BRANCH  21  26
ATOM     26  O   UNL     1      -7.431  13.151 -14.593  1.00  0.00    -0.387 OA
ATOM     27  H   UNL     1      -6.575  12.897 -14.161  1.00  0.00     0.211 HD
ENDBRANCH  21  26
BRANCH  23  28
ATOM     28  O   UNL     1      -6.290  10.663 -14.134  1.00  0.00    -0.387 OA
ATOM     29  H   UNL     1      -5.745   9.839 -14.232  1.00  0.00     0.211 HD
ENDBRANCH  23  28
BRANCH  24  30
ATOM     30  C   UNL     1      -9.208   7.897 -15.622  1.00  0.00     0.191 C 
BRANCH  30  31
ATOM     31  O   UNL     1     -10.241   8.055 -16.558  1.00  0.00    -0.394 OA
ATOM     32  H   UNL     1      -9.896   8.644 -17.278  1.00  0.00     0.210 HD
ENDBRANCH  30  31
ENDBRANCH  24  30
BRANCH  25  33
ATOM     33  O   UNL     1      -7.720   9.850 -17.378  1.00  0.00    -0.388 OA
ATOM     34  H   UNL     1      -7.856  10.816 -17.551  1.00  0.00     0.211 HD
ENDBRANCH  25  33
ENDBRANCH  11  20
BRANCH  10  35
ATOM     35  O   UNL     1      -8.245   9.886 -12.439  1.00  0.00    -0.507 OA
ATOM     36  H   UNL     1      -8.078   9.178 -11.734  1.00  0.00     0.293 HD
ENDBRANCH  10  35
TORSDOF 9
ENDMDL
MODEL 7
REMARK VINA RESULT:    -5.333      1.913      3.206
REMARK INTER + INTRA:          -8.127
REMARK INTER:                  -7.399
REMARK INTRA:                  -0.727
REMARK UNBOUND:                -0.922
REMARK SMILES O=c1c(-c2ccc(O)cc2)coc2c([C@@H]3O[C@@H](CO)[C@@H](O)[C@H](O)[C@@H]3O)c(O)ccc12
REMARK SMILES IDX 3 1 11 2 12 3 13 4 30 5 2 6 1 7 29 8 28 9 26 10 14 11 4 12
REMARK SMILES IDX 5 13 6 14 7 15 10 16 9 17 8 18 15 20 24 21 16 22 22 23 17 24
REMARK SMILES IDX 20 25 25 26 23 28 18 30 19 31 21 33 27 35
REMARK H PARENT 8 19 25 27 23 29 19 32 21 34 27 36
REMARK Flexibility Score: inf
ROOT
ATOM      1  C   UNL     1     -16.164  16.351 -10.268  1.00  0.00     0.065 A 
ATOM      2  C   UNL     1     -16.999  17.375 -10.735  1.00  0.00     0.208 A 
ATOM      3  O   UNL     1     -18.257  17.471 -10.320  1.00  0.00    -0.463 OA
ATOM      4  C   UNL     1     -18.809  16.625  -9.452  1.00  0.00     0.147 A 
ATOM      5  C   UNL     1     -18.022  15.586  -8.901  1.00  0.00     0.066 A 
ATOM      6  C   UNL     1     -16.688  15.449  -9.325  1.00  0.00     0.200 A 
ATOM      7  O   UNL     1     -15.957  14.539  -8.843  1.00  0.00    -0.288 OA
ATOM      8  C   UNL     1     -18.575  14.741  -7.931  1.00  0.00     0.020 A 
ATOM      9  C   UNL     1     -19.861  14.971  -7.461  1.00  0.00     0.047 A 
ATOM     10  C   UNL     1     -20.644  16.011  -7.981  1.00  0.00     0.125 A 
ATOM     11  C   UNL     1     -20.173  16.782  -9.078  1.00  0.00     0.069 A 
ENDROOT
BRANCH   1  12
ATOM     12  C   UNL     1     -14.767  16.252 -10.759  1.00  0.00    -0.011 A 
ATOM     13  C   UNL     1     -14.445  15.376 -11.812  1.00  0.00     0.013 A 
ATOM     14  C   UNL     1     -13.128  15.274 -12.271  1.00  0.00     0.047 A 
ATOM     15  C   UNL     1     -12.117  16.040 -11.682  1.00  0.00     0.115 A 
ATOM     16  C   UNL     1     -13.744  17.013 -10.168  1.00  0.00     0.013 A 
ATOM     17  C   UNL     1     -12.428  16.909 -10.629  1.00  0.00     0.047 A 
BRANCH  15  18
ATOM     18  O   UNL     1     -10.810  15.928 -12.149  1.00  0.00    -0.508 OA
ATOM     19  H   UNL     1     -10.510  16.388 -13.001  1.00  0.00     0.293 HD
ENDBRANCH  15  18
ENDBRANCH   1  12
BRANCH  11  20
ATOM     20  C   UNL     1     -21.016  17.866  -9.789  1.00  0.00     0.188 C 
ATOM     21  C   UNL     1     -21.884  17.404 -11.027  1.00  0.00     0.179 C 
ATOM     22  O   UNL     1     -21.690  18.761  -8.905  1.00  0.00    -0.362 OA
ATOM     23  C   UNL     1     -23.372  17.153 -10.723  1.00  0.00     0.177 C 
ATOM     24  C   UNL     1     -23.023  18.381  -8.585  1.00  0.00     0.176 C 
ATOM     25  C   UNL     1     -23.921  18.270  -9.832  1.00  0.00     0.177 C 
BRANCH  21  26
ATOM     26  O   UNL     1     -21.334  16.315 -11.727  1.00  0.00    -0.387 OA
ATOM     27  H   UNL     1     -20.602  16.655 -12.303  1.00  0.00     0.211 HD
ENDBRANCH  21  26
BRANCH  23  28
ATOM     28  O   UNL     1     -23.537  15.908 -10.089  1.00  0.00    -0.387 OA
ATOM     29  H   UNL     1     -22.815  15.830  -9.412  1.00  0.00     0.211 HD
ENDBRANCH  23  28
BRANCH  24  30
ATOM     30  C   UNL     1     -23.595  19.367  -7.556  1.00  0.00     0.191 C 
BRANCH  30  31
ATOM     31  O   UNL     1     -24.981  19.520  -7.719  1.00  0.00    -0.394 OA
ATOM     32  H   UNL     1     -25.122  20.330  -8.275  1.00  0.00     0.210 HD
ENDBRANCH  30  31
ENDBRANCH  24  30
BRANCH  25  33
ATOM     33  O   UNL     1     -24.035  19.483 -10.541  1.00  0.00    -0.388 OA
ATOM     34  H   UNL     1     -24.534  19.314 -11.380  1.00  0.00     0.211 HD
ENDBRANCH  25  33
ENDBRANCH  11  20
BRANCH  10  35
ATOM     35  O   UNL     1     -21.853  16.294  -7.351  1.00  0.00    -0.507 OA
ATOM     36  H   UNL     1     -22.557  16.885  -7.778  1.00  0.00     0.293 HD
ENDBRANCH  10  35
TORSDOF 9
ENDMDL
MODEL 8
REMARK VINA RESULT:    -5.315      1.894      2.992
REMARK INTER + INTRA:          -8.102
REMARK INTER:                  -7.496
REMARK INTRA:                  -0.606
REMARK UNBOUND:                -0.922
REMARK SMILES O=c1c(-c2ccc(O)cc2)coc2c([C@@H]3O[C@@H](CO)[C@@H](O)[C@H](O)[C@@H]3O)c(O)ccc12
REMARK SMILES IDX 3 1 11 2 12 3 13 4 30 5 2 6 1 7 29 8 28 9 26 10 14 11 4 12
REMARK SMILES IDX 5 13 6 14 7 15 10 16 9 17 8 18 15 20 24 21 16 22 22 23 17 24
REMARK SMILES IDX 20 25 25 26 23 28 18 30 19 31 21 33 27 35
REMARK H PARENT 8 19 25 27 23 29 19 32 21 34 27 36
REMARK Flexibility Score: inf
ROOT
ATOM      1  C   UNL     1     -12.847  14.098 -11.607  1.00  0.00     0.065 A 
ATOM      2  C   UNL     1     -13.951  13.487 -10.999  1.00  0.00     0.208 A 
ATOM      3  O   UNL     1     -15.011  14.201 -10.637  1.00  0.00    -0.463 OA
ATOM      4  C   UNL     1     -15.105  15.517 -10.817  1.00  0.00     0.147 A 
ATOM      5  C   UNL     1     -14.050  16.204 -11.461  1.00  0.00     0.066 A 
ATOM      6  C   UNL     1     -12.908  15.481 -11.850  1.00  0.00     0.200 A 
ATOM      7  O   UNL     1     -11.954  16.065 -12.438  1.00  0.00    -0.288 OA
ATOM      8  C   UNL     1     -14.177  17.574 -11.723  1.00  0.00     0.020 A 
ATOM      9  C   UNL     1     -15.361  18.233 -11.419  1.00  0.00     0.047 A 
ATOM     10  C   UNL     1     -16.423  17.559 -10.802  1.00  0.00     0.125 A 
ATOM     11  C   UNL     1     -16.266  16.211 -10.376  1.00  0.00     0.069 A 
ENDROOT
BRANCH   1  12
ATOM     12  C   UNL     1     -11.665  13.284 -11.987  1.00  0.00    -0.011 A 
ATOM     13  C   UNL     1     -10.809  12.770 -10.996  1.00  0.00     0.013 A 
ATOM     14  C   UNL     1      -9.691  12.010 -11.351  1.00  0.00     0.047 A 
ATOM     15  C   UNL     1      -9.410  11.759 -12.698  1.00  0.00     0.115 A 
ATOM     16  C   UNL     1     -11.372  13.033 -13.338  1.00  0.00     0.013 A 
ATOM     17  C   UNL     1     -10.253  12.274 -13.691  1.00  0.00     0.047 A 
BRANCH  15  18
ATOM     18  O   UNL     1      -8.291  11.001 -13.037  1.00  0.00    -0.508 OA
ATOM     19  H   UNL     1      -7.512  11.405 -13.544  1.00  0.00     0.293 HD
ENDBRANCH  15  18
ENDBRANCH   1  12
BRANCH  11  20
ATOM     20  C   UNL     1     -17.341  15.432  -9.584  1.00  0.00     0.188 C 
ATOM     21  C   UNL     1     -17.356  15.624  -8.015  1.00  0.00     0.179 C 
ATOM     22  O   UNL     1     -18.635  15.436 -10.186  1.00  0.00    -0.362 OA
ATOM     23  C   UNL     1     -18.407  16.620  -7.490  1.00  0.00     0.177 C 
ATOM     24  C   UNL     1     -19.496  16.470  -9.724  1.00  0.00     0.176 C 
ATOM     25  C   UNL     1     -19.742  16.400  -8.205  1.00  0.00     0.177 C 
BRANCH  21  26
ATOM     26  O   UNL     1     -16.093  15.908  -7.468  1.00  0.00    -0.387 OA
ATOM     27  H   UNL     1     -15.529  15.096  -7.554  1.00  0.00     0.211 HD
ENDBRANCH  21  26
BRANCH  23  28
ATOM     28  O   UNL     1     -17.967  17.942  -7.690  1.00  0.00    -0.387 OA
ATOM     29  H   UNL     1     -17.855  18.064  -8.669  1.00  0.00     0.211 HD
ENDBRANCH  23  28
BRANCH  24  30
ATOM     30  C   UNL     1     -20.810  16.424 -10.518  1.00  0.00     0.191 C 
BRANCH  30  31
ATOM     31  O   UNL     1     -20.566  16.407 -11.900  1.00  0.00    -0.394 OA
ATOM     32  H   UNL     1     -21.448  16.348 -12.351  1.00  0.00     0.210 HD
ENDBRANCH  30  31
ENDBRANCH  24  30
BRANCH  25  33
ATOM     33  O   UNL     1     -20.350  15.196  -7.799  1.00  0.00    -0.388 OA
ATOM     34  H   UNL     1     -21.261  15.154  -8.185  1.00  0.00     0.211 HD
ENDBRANCH  25  33
ENDBRANCH  11  20
BRANCH  10  35
ATOM     35  O   UNL     1     -17.637  18.229 -10.680  1.00  0.00    -0.507 OA
ATOM     36  H   UNL     1     -17.705  19.151 -10.264  1.00  0.00     0.293 HD
ENDBRANCH  10  35
TORSDOF 9
ENDMDL
MODEL 9
REMARK VINA RESULT:    -5.196      2.489      4.865
REMARK INTER + INTRA:          -7.941
REMARK INTER:                  -6.985
REMARK INTRA:                  -0.956
REMARK UNBOUND:                -0.922
REMARK SMILES O=c1c(-c2ccc(O)cc2)coc2c([C@@H]3O[C@@H](CO)[C@@H](O)[C@H](O)[C@@H]3O)c(O)ccc12
REMARK SMILES IDX 3 1 11 2 12 3 13 4 30 5 2 6 1 7 29 8 28 9 26 10 14 11 4 12
REMARK SMILES IDX 5 13 6 14 7 15 10 16 9 17 8 18 15 20 24 21 16 22 22 23 17 24
REMARK SMILES IDX 20 25 25 26 23 28 18 30 19 31 21 33 27 35
REMARK H PARENT 8 19 25 27 23 29 19 32 21 34 27 36
REMARK Flexibility Score: inf
ROOT
ATOM      1  C   UNL     1     -11.924  13.994 -12.627  1.00  0.00     0.065 A 
ATOM      2  C   UNL     1     -12.741  15.102 -12.886  1.00  0.00     0.208 A 
ATOM      3  O   UNL     1     -13.740  15.417 -12.070  1.00  0.00    -0.463 OA
ATOM      4  C   UNL     1     -14.037  14.724 -10.972  1.00  0.00     0.147 A 
ATOM      5  C   UNL     1     -13.236  13.614 -10.616  1.00  0.00     0.066 A 
ATOM      6  C   UNL     1     -12.173  13.246 -11.463  1.00  0.00     0.200 A 
ATOM      7  O   UNL     1     -11.432  12.268 -11.166  1.00  0.00    -0.288 OA
ATOM      8  C   UNL     1     -13.495  12.929  -9.424  1.00  0.00     0.020 A 
ATOM      9  C   UNL     1     -14.484  13.384  -8.562  1.00  0.00     0.047 A 
ATOM     10  C   UNL     1     -15.270  14.497  -8.890  1.00  0.00     0.125 A 
ATOM     11  C   UNL     1     -15.142  15.114 -10.164  1.00  0.00     0.069 A 
ENDROOT
BRANCH   1  12
ATOM     12  C   UNL     1     -10.824  13.649 -13.562  1.00  0.00    -0.011 A 
ATOM     13  C   UNL     1      -9.505  14.051 -13.286  1.00  0.00     0.013 A 
ATOM     14  C   UNL     1      -8.469  13.735 -14.170  1.00  0.00     0.047 A 
ATOM     15  C   UNL     1      -8.736  13.020 -15.341  1.00  0.00     0.115 A 
ATOM     16  C   UNL     1     -11.086  12.936 -14.745  1.00  0.00     0.013 A 
ATOM     17  C   UNL     1     -10.048  12.622 -15.627  1.00  0.00     0.047 A 
BRANCH  15  18
ATOM     18  O   UNL     1      -7.694  12.713 -16.212  1.00  0.00    -0.508 OA
ATOM     19  H   UNL     1      -7.204  11.827 -16.161  1.00  0.00     0.293 HD
ENDBRANCH  15  18
ENDBRANCH   1  12
BRANCH  11  20
ATOM     20  C   UNL     1     -16.048  16.266 -10.654  1.00  0.00     0.188 C 
ATOM     21  C   UNL     1     -17.495  15.877 -11.160  1.00  0.00     0.179 C 
ATOM     22  O   UNL     1     -16.010  17.434  -9.834  1.00  0.00    -0.362 OA
ATOM     23  C   UNL     1     -18.624  16.091 -10.134  1.00  0.00     0.177 C 
ATOM     24  C   UNL     1     -17.021  17.485  -8.834  1.00  0.00     0.176 C 
ATOM     25  C   UNL     1     -18.442  17.436  -9.428  1.00  0.00     0.177 C 
BRANCH  21  26
ATOM     26  O   UNL     1     -17.571  14.587 -11.715  1.00  0.00    -0.387 OA
ATOM     27  H   UNL     1     -18.460  14.488 -12.144  1.00  0.00     0.211 HD
ENDBRANCH  21  26
BRANCH  23  28
ATOM     28  O   UNL     1     -18.627  15.049  -9.190  1.00  0.00    -0.387 OA
ATOM     29  H   UNL     1     -19.554  14.694  -9.154  1.00  0.00     0.211 HD
ENDBRANCH  23  28
BRANCH  24  30
ATOM     30  C   UNL     1     -16.808  18.732  -7.965  1.00  0.00     0.191 C 
BRANCH  30  31
ATOM     31  O   UNL     1     -16.728  19.891  -8.754  1.00  0.00    -0.394 OA
ATOM     32  H   UNL     1     -17.637  20.289  -8.781  1.00  0.00     0.210 HD
ENDBRANCH  30  31
ENDBRANCH  24  30
BRANCH  25  33
ATOM     33  O   UNL     1     -18.716  18.513 -10.294  1.00  0.00    -0.388 OA
ATOM     34  H   UNL     1     -19.229  19.199  -9.796  1.00  0.00     0.211 HD
ENDBRANCH  25  33
ENDBRANCH  11  20
BRANCH  10  35
ATOM     35  O   UNL     1     -16.124  15.002  -7.914  1.00  0.00    -0.507 OA
ATOM     36  H   UNL     1     -16.814  15.715  -8.118  1.00  0.00     0.293 HD
ENDBRANCH  10  35
TORSDOF 9
ENDMDL
