MODEL 1
REMARK VINA RESULT:    -2.634      0.000      0.000
REMARK INTER + INTRA:          -2.634
REMARK INTER:                  -2.634
REMARK INTRA:                   0.000
REMARK UNBOUND:                 0.000
REMARK SMILES CC(=O)[O-]
REMARK SMILES IDX 1 1 2 2 3 3 4 4
REMARK H PARENT
REMARK Flexibility Score: inf
ROOT
ATOM      1  C   UNL     1     -16.721  -8.738  -9.579  1.00  0.00     0.063 C 
ATOM      2  C   UNL     1     -17.964  -9.524  -9.821  1.00  0.00     0.038 C 
ATOM      3  O   UNL     1     -19.075  -9.089  -9.421  1.00  0.00    -0.550 OA
ATOM      4  O   UNL     1     -17.907 -10.714 -10.536  1.00  0.00    -0.550 OA
ENDROOT
TORSDOF 0
ENDMDL
MODEL 2
REMARK VINA RESULT:    -2.626      0.112      1.621
REMARK INTER + INTRA:          -2.626
REMARK INTER:                  -2.626
REMARK INTRA:                   0.000
REMARK UNBOUND:                 0.000
REMARK SMILES CC(=O)[O-]
REMARK SMILES IDX 1 1 2 2 3 3 4 4
REMARK H PARENT
REMARK Flexibility Score: inf
ROOT
ATOM      1  C   UNL     1     -16.637  -8.738  -9.591  1.00  0.00     0.063 C 
ATOM      2  C   UNL     1     -17.867  -9.540  -9.849  1.00  0.00     0.038 C 
ATOM      3  O   UNL     1     -17.783 -10.657 -10.423  1.00  0.00    -0.550 OA
ATOM      4  O   UNL     1     -19.102  -9.083  -9.409  1.00  0.00    -0.550 OA
ENDROOT
TORSDOF 0
ENDMDL
MODEL 3
REMARK VINA RESULT:    -2.625      1.231      1.536
REMARK INTER + INTRA:          -2.625
REMARK INTER:                  -2.625
REMARK INTRA:                   0.000
REMARK UNBOUND:                 0.000
REMARK SMILES CC(=O)[O-]
REMARK SMILES IDX 1 1 2 2 3 3 4 4
REMARK H PARENT
REMARK Flexibility Score: inf
ROOT
ATOM      1  C   UNL     1     -16.701  -8.722  -9.524  1.00  0.00     0.063 C 
ATOM      2  C   UNL     1     -17.942  -9.272  -8.907  1.00  0.00     0.038 C 
ATOM      3  O   UNL     1     -19.048  -9.145  -9.493  1.00  0.00    -0.550 OA
ATOM      4  O   UNL     1     -17.873  -9.975  -7.711  1.00  0.00    -0.550 OA
ENDROOT
TORSDOF 0
ENDMDL
MODEL 4
REMARK VINA RESULT:    -2.486      2.942      3.297
REMARK INTER + INTRA:          -2.486
REMARK INTER:                  -2.486
REMARK INTRA:                   0.000
REMARK UNBOUND:                 0.000
REMARK SMILES CC(=O)[O-]
REMARK SMILES IDX 1 1 2 2 3 3 4 4
REMARK H PARENT
REMARK Flexibility Score: inf
ROOT
ATOM      1  C   UNL     1     -16.805  -8.359  -8.698  1.00  0.00     0.063 C 
ATOM      2  C   UNL     1     -16.750  -8.822  -7.282  1.00  0.00     0.038 C 
ATOM      3  O   UNL     1     -15.887  -8.352  -6.497  1.00  0.00    -0.550 OA
ATOM      4  O   UNL     1     -17.686  -9.733  -6.810  1.00  0.00    -0.550 OA
ENDROOT
TORSDOF 0
ENDMDL
MODEL 5
REMARK VINA RESULT:    -2.473      1.725      2.129
REMARK INTER + INTRA:          -2.473
REMARK INTER:                  -2.473
REMARK INTRA:                   0.000
REMARK UNBOUND:                 0.000
REMARK SMILES CC(=O)[O-]
REMARK SMILES IDX 1 1 2 2 3 3 4 4
REMARK H PARENT
REMARK Flexibility Score: inf
ROOT
ATOM      1  C   UNL     1     -18.728  -9.302  -9.526  1.00  0.00     0.063 C 
ATOM      2  C   UNL     1     -18.630 -10.212 -10.703  1.00  0.00     0.038 C 
ATOM      3  O   UNL     1     -17.686 -11.039 -10.785  1.00  0.00    -0.550 OA
ATOM      4  O   UNL     1     -19.611 -10.186 -11.685  1.00  0.00    -0.550 OA
ENDROOT
TORSDOF 0
ENDMDL
MODEL 6
REMARK VINA RESULT:    -2.453      2.450      3.367
REMARK INTER + INTRA:          -2.453
REMARK INTER:                  -2.453
REMARK INTRA:                   0.000
REMARK UNBOUND:                 0.000
REMARK SMILES CC(=O)[O-]
REMARK SMILES IDX 1 1 2 2 3 3 4 4
REMARK H PARENT
REMARK Flexibility Score: inf
ROOT
ATOM      1  C   UNL     1     -19.687 -11.461 -12.616  1.00  0.00     0.063 C 
ATOM      2  C   UNL     1     -18.820 -11.089 -11.461  1.00  0.00     0.038 C 
ATOM      3  O   UNL     1     -17.771 -11.742 -11.223  1.00  0.00    -0.550 OA
ATOM      4  O   UNL     1     -19.139  -9.988 -10.677  1.00  0.00    -0.550 OA
ENDROOT
TORSDOF 0
ENDMDL
MODEL 7
REMARK VINA RESULT:    -2.421     12.155     12.397
REMARK INTER + INTRA:          -2.421
REMARK INTER:                  -2.421
REMARK INTRA:                   0.000
REMARK UNBOUND:                 0.000
REMARK SMILES CC(=O)[O-]
REMARK SMILES IDX 1 1 2 2 3 3 4 4
REMARK H PARENT
REMARK Flexibility Score: inf
ROOT
ATOM      1  C   UNL     1     -11.367 -12.059  -1.209  1.00  0.00     0.063 C 
ATOM      2  C   UNL     1     -10.141 -12.825  -0.846  1.00  0.00     0.038 C 
ATOM      3  O   UNL     1      -9.879 -13.062   0.361  1.00  0.00    -0.550 OA
ATOM      4  O   UNL     1      -9.313 -13.327  -1.842  1.00  0.00    -0.550 OA
ENDROOT
TORSDOF 0
ENDMDL
MODEL 8
REMARK VINA RESULT:    -2.414      1.314      1.884
REMARK INTER + INTRA:          -2.414
REMARK INTER:                  -2.414
REMARK INTRA:                   0.000
REMARK UNBOUND:                 0.000
REMARK SMILES CC(=O)[O-]
REMARK SMILES IDX 1 1 2 2 3 3 4 4
REMARK H PARENT
REMARK Flexibility Score: inf
ROOT
ATOM      1  C   UNL     1     -19.203 -10.366 -11.519  1.00  0.00     0.063 C 
ATOM      2  C   UNL     1     -18.580  -9.914 -10.242  1.00  0.00     0.038 C 
ATOM      3  O   UNL     1     -19.213  -9.155  -9.464  1.00  0.00    -0.550 OA
ATOM      4  O   UNL     1     -17.320 -10.374  -9.882  1.00  0.00    -0.550 OA
ENDROOT
TORSDOF 0
ENDMDL
MODEL 9
REMARK VINA RESULT:    -2.392      2.247      2.684
REMARK INTER + INTRA:          -2.392
REMARK INTER:                  -2.392
REMARK INTRA:                   0.000
REMARK UNBOUND:                 0.000
REMARK SMILES CC(=O)[O-]
REMARK SMILES IDX 1 1 2 2 3 3 4 4
REMARK H PARENT
REMARK Flexibility Score: inf
ROOT
ATOM      1  C   UNL     1     -17.048  -8.346  -8.445  1.00  0.00     0.063 C 
ATOM      2  C   UNL     1     -17.076  -9.783  -8.049  1.00  0.00     0.038 C 
ATOM      3  O   UNL     1     -16.358 -10.619  -8.656  1.00  0.00    -0.550 OA
ATOM      4  O   UNL     1     -17.852 -10.194  -6.973  1.00  0.00    -0.550 OA
ENDROOT
TORSDOF 0
ENDMDL
