MODEL 1
REMARK VINA RESULT:    -4.366      0.000      0.000
REMARK INTER + INTRA:          -6.836
REMARK INTER:                  -6.152
REMARK INTRA:                  -0.683
REMARK UNBOUND:                -0.683
REMARK SMILES CCCCCCCCC(=O)[O-]
REMARK SMILES IDX 6 1 7 2 8 3 9 4 10 5 11 6 5 7 4 8 3 9 2 10 1 11
REMARK H PARENT
REMARK Flexibility Score: inf
ROOT
ATOM      1  C   UNL     1      15.325  43.542   3.602  1.00  0.00     0.000 C 
ENDROOT
BRANCH   1   2
ATOM      2  C   UNL     1      14.734  44.961   3.653  1.00  0.00     0.006 C 
BRANCH   2   3
ATOM      3  C   UNL     1      13.254  44.957   4.057  1.00  0.00     0.053 C 
BRANCH   3   4
ATOM      4  C   UNL     1      12.706  46.347   4.170  1.00  0.00     0.041 C 
ATOM      5  O   UNL     1      13.061  47.092   5.120  1.00  0.00    -0.550 OA
ATOM      6  O   UNL     1      11.832  46.831   3.204  1.00  0.00    -0.550 OA
ENDBRANCH   3   4
ENDBRANCH   2   3
ENDBRANCH   1   2
BRANCH   1   7
ATOM      7  C   UNL     1      16.715  43.451   4.257  1.00  0.00     0.000 C 
BRANCH   7   8
ATOM      8  C   UNL     1      16.712  42.989   5.728  1.00  0.00    -0.000 C 
BRANCH   8   9
ATOM      9  C   UNL     1      17.334  43.982   6.730  1.00  0.00    -0.000 C 
BRANCH   9  10
ATOM     10  C   UNL     1      16.488  45.238   7.002  1.00  0.00    -0.003 C 
ATOM     11  C   UNL     1      15.057  44.912   7.426  1.00  0.00     0.004 C 
ENDBRANCH   9  10
ENDBRANCH   8   9
ENDBRANCH   7   8
ENDBRANCH   1   7
TORSDOF 7
ENDMDL
MODEL 2
REMARK VINA RESULT:    -4.360      2.905      4.583
REMARK INTER + INTRA:          -6.828
REMARK INTER:                  -6.086
REMARK INTRA:                  -0.742
REMARK UNBOUND:                -0.683
REMARK SMILES CCCCCCCCC(=O)[O-]
REMARK SMILES IDX 6 1 7 2 8 3 9 4 10 5 11 6 5 7 4 8 3 9 2 10 1 11
REMARK H PARENT
REMARK Flexibility Score: inf
ROOT
ATOM      1  C   UNL     1      16.905  43.506   5.508  1.00  0.00     0.000 C 
ENDROOT
BRANCH   1   2
ATOM      2  C   UNL     1      16.050  42.581   6.391  1.00  0.00     0.006 C 
BRANCH   2   3
ATOM      3  C   UNL     1      15.539  43.294   7.650  1.00  0.00     0.053 C 
BRANCH   3   4
ATOM      4  C   UNL     1      16.646  43.997   8.377  1.00  0.00     0.041 C 
ATOM      5  O   UNL     1      16.615  45.247   8.520  1.00  0.00    -0.550 OA
ATOM      6  O   UNL     1      17.691  43.266   8.927  1.00  0.00    -0.550 OA
ENDBRANCH   3   4
ENDBRANCH   2   3
ENDBRANCH   1   2
BRANCH   1   7
ATOM      7  C   UNL     1      16.631  43.314   4.005  1.00  0.00     0.000 C 
BRANCH   7   8
ATOM      8  C   UNL     1      15.213  43.711   3.547  1.00  0.00    -0.000 C 
BRANCH   8   9
ATOM      9  C   UNL     1      14.865  45.205   3.705  1.00  0.00    -0.000 C 
BRANCH   9  10
ATOM     10  C   UNL     1      13.690  45.496   4.654  1.00  0.00    -0.003 C 
ATOM     11  C   UNL     1      14.105  46.297   5.887  1.00  0.00     0.004 C 
ENDBRANCH   9  10
ENDBRANCH   8   9
ENDBRANCH   7   8
ENDBRANCH   1   7
TORSDOF 7
ENDMDL
MODEL 3
REMARK VINA RESULT:    -4.355      2.977      4.680
REMARK INTER + INTRA:          -6.821
REMARK INTER:                  -6.112
REMARK INTRA:                  -0.708
REMARK UNBOUND:                -0.683
REMARK SMILES CCCCCCCCC(=O)[O-]
REMARK SMILES IDX 6 1 7 2 8 3 9 4 10 5 11 6 5 7 4 8 3 9 2 10 1 11
REMARK H PARENT
REMARK Flexibility Score: inf
ROOT
ATOM      1  C   UNL     1      16.646  43.367   4.211  1.00  0.00     0.000 C 
ENDROOT
BRANCH   1   2
ATOM      2  C   UNL     1      16.631  43.026   5.711  1.00  0.00     0.006 C 
BRANCH   2   3
ATOM      3  C   UNL     1      17.705  43.796   6.489  1.00  0.00     0.053 C 
BRANCH   3   4
ATOM      4  C   UNL     1      17.421  43.810   7.961  1.00  0.00     0.041 C 
ATOM      5  O   UNL     1      16.833  44.793   8.483  1.00  0.00    -0.550 OA
ATOM      6  O   UNL     1      17.772  42.720   8.748  1.00  0.00    -0.550 OA
ENDBRANCH   3   4
ENDBRANCH   2   3
ENDBRANCH   1   2
BRANCH   1   7
ATOM      7  C   UNL     1      15.250  43.713   3.664  1.00  0.00     0.000 C 
BRANCH   7   8
ATOM      8  C   UNL     1      14.948  45.222   3.558  1.00  0.00    -0.000 C 
BRANCH   8   9
ATOM      9  C   UNL     1      13.890  45.751   4.546  1.00  0.00    -0.000 C 
BRANCH   9  10
ATOM     10  C   UNL     1      14.405  45.990   5.976  1.00  0.00    -0.003 C 
ATOM     11  C   UNL     1      13.637  45.190   7.027  1.00  0.00     0.004 C 
ENDBRANCH   9  10
ENDBRANCH   8   9
ENDBRANCH   7   8
ENDBRANCH   1   7
TORSDOF 7
ENDMDL
MODEL 4
REMARK VINA RESULT:    -4.297      2.784      4.722
REMARK INTER + INTRA:          -6.738
REMARK INTER:                  -6.083
REMARK INTRA:                  -0.656
REMARK UNBOUND:                -0.683
REMARK SMILES CCCCCCCCC(=O)[O-]
REMARK SMILES IDX 6 1 7 2 8 3 9 4 10 5 11 6 5 7 4 8 3 9 2 10 1 11
REMARK H PARENT
REMARK Flexibility Score: inf
ROOT
ATOM      1  C   UNL     1      15.597  43.630   3.634  1.00  0.00     0.000 C 
ENDROOT
BRANCH   1   2
ATOM      2  C   UNL     1      16.807  43.276   4.515  1.00  0.00     0.006 C 
BRANCH   2   3
ATOM      3  C   UNL     1      16.391  42.898   5.943  1.00  0.00     0.053 C 
BRANCH   3   4
ATOM      4  C   UNL     1      17.115  43.720   6.966  1.00  0.00     0.041 C 
ATOM      5  O   UNL     1      17.723  43.158   7.915  1.00  0.00    -0.550 OA
ATOM      6  O   UNL     1      17.150  45.104   6.850  1.00  0.00    -0.550 OA
ENDBRANCH   3   4
ENDBRANCH   2   3
ENDBRANCH   1   2
BRANCH   1   7
ATOM      7  C   UNL     1      15.205  45.115   3.728  1.00  0.00     0.000 C 
BRANCH   7   8
ATOM      8  C   UNL     1      13.849  45.388   4.409  1.00  0.00    -0.000 C 
BRANCH   8   9
ATOM      9  C   UNL     1      12.721  44.402   4.045  1.00  0.00    -0.000 C 
BRANCH   9  10
ATOM     10  C   UNL     1      12.229  43.526   5.210  1.00  0.00    -0.003 C 
ATOM     11  C   UNL     1      12.333  42.031   4.916  1.00  0.00     0.004 C 
ENDBRANCH   9  10
ENDBRANCH   8   9
ENDBRANCH   7   8
ENDBRANCH   1   7
TORSDOF 7
ENDMDL
MODEL 5
REMARK VINA RESULT:    -4.292      1.890      2.503
REMARK INTER + INTRA:          -6.732
REMARK INTER:                  -6.000
REMARK INTRA:                  -0.732
REMARK UNBOUND:                -0.683
REMARK SMILES CCCCCCCCC(=O)[O-]
REMARK SMILES IDX 6 1 7 2 8 3 9 4 10 5 11 6 5 7 4 8 3 9 2 10 1 11
REMARK H PARENT
REMARK Flexibility Score: inf
ROOT
ATOM      1  C   UNL     1      14.953  45.252   3.594  1.00  0.00     0.000 C 
ENDROOT
BRANCH   1   2
ATOM      2  C   UNL     1      13.737  45.644   4.450  1.00  0.00     0.006 C 
BRANCH   2   3
ATOM      3  C   UNL     1      14.149  46.177   5.829  1.00  0.00     0.053 C 
BRANCH   3   4
ATOM      4  C   UNL     1      13.571  45.351   6.937  1.00  0.00     0.041 C 
ATOM      5  O   UNL     1      13.284  45.884   8.041  1.00  0.00    -0.550 OA
ATOM      6  O   UNL     1      13.317  43.999   6.738  1.00  0.00    -0.550 OA
ENDBRANCH   3   4
ENDBRANCH   2   3
ENDBRANCH   1   2
BRANCH   1   7
ATOM      7  C   UNL     1      15.231  43.738   3.611  1.00  0.00     0.000 C 
BRANCH   7   8
ATOM      8  C   UNL     1      16.595  43.334   4.205  1.00  0.00    -0.000 C 
BRANCH   8   9
ATOM      9  C   UNL     1      16.599  43.079   5.726  1.00  0.00    -0.000 C 
BRANCH   9  10
ATOM     10  C   UNL     1      17.734  43.778   6.494  1.00  0.00    -0.003 C 
ATOM     11  C   UNL     1      17.229  44.844   7.464  1.00  0.00     0.004 C 
ENDBRANCH   9  10
ENDBRANCH   8   9
ENDBRANCH   7   8
ENDBRANCH   1   7
TORSDOF 7
ENDMDL
MODEL 6
REMARK VINA RESULT:    -4.252      2.283      4.492
REMARK INTER + INTRA:          -6.675
REMARK INTER:                  -6.125
REMARK INTRA:                  -0.550
REMARK UNBOUND:                -0.683
REMARK SMILES CCCCCCCCC(=O)[O-]
REMARK SMILES IDX 6 1 7 2 8 3 9 4 10 5 11 6 5 7 4 8 3 9 2 10 1 11
REMARK H PARENT
REMARK Flexibility Score: inf
ROOT
ATOM      1  C   UNL     1      16.775  43.363   4.238  1.00  0.00     0.000 C 
ENDROOT
BRANCH   1   2
ATOM      2  C   UNL     1      16.603  42.968   5.714  1.00  0.00     0.006 C 
BRANCH   2   3
ATOM      3  C   UNL     1      17.543  43.756   6.637  1.00  0.00     0.053 C 
BRANCH   3   4
ATOM      4  C   UNL     1      16.787  44.698   7.524  1.00  0.00     0.041 C 
ATOM      5  O   UNL     1      16.049  45.586   7.023  1.00  0.00    -0.550 OA
ATOM      6  O   UNL     1      16.869  44.570   8.906  1.00  0.00    -0.550 OA
ENDBRANCH   3   4
ENDBRANCH   2   3
ENDBRANCH   1   2
BRANCH   1   7
ATOM      7  C   UNL     1      15.439  43.688   3.548  1.00  0.00     0.000 C 
BRANCH   7   8
ATOM      8  C   UNL     1      14.994  45.161   3.654  1.00  0.00    -0.000 C 
BRANCH   8   9
ATOM      9  C   UNL     1      13.641  45.389   4.359  1.00  0.00    -0.000 C 
BRANCH   9  10
ATOM     10  C   UNL     1      12.633  44.237   4.208  1.00  0.00    -0.003 C 
ATOM     11  C   UNL     1      12.094  43.739   5.548  1.00  0.00     0.004 C 
ENDBRANCH   9  10
ENDBRANCH   8   9
ENDBRANCH   7   8
ENDBRANCH   1   7
TORSDOF 7
ENDMDL
MODEL 7
REMARK VINA RESULT:    -4.112      2.970      4.887
REMARK INTER + INTRA:          -6.479
REMARK INTER:                  -5.635
REMARK INTRA:                  -0.843
REMARK UNBOUND:                -0.683
REMARK SMILES CCCCCCCCC(=O)[O-]
REMARK SMILES IDX 6 1 7 2 8 3 9 4 10 5 11 6 5 7 4 8 3 9 2 10 1 11
REMARK H PARENT
REMARK Flexibility Score: inf
ROOT
ATOM      1  C   UNL     1      13.318  45.213   6.830  1.00  0.00     0.000 C 
ENDROOT
BRANCH   1   2
ATOM      2  C   UNL     1      14.260  44.128   7.379  1.00  0.00     0.006 C 
BRANCH   2   3
ATOM      3  C   UNL     1      15.732  44.557   7.322  1.00  0.00     0.053 C 
BRANCH   3   4
ATOM      4  C   UNL     1      16.609  43.463   6.793  1.00  0.00     0.041 C 
ATOM      5  O   UNL     1      16.155  42.296   6.662  1.00  0.00    -0.550 OA
ATOM      6  O   UNL     1      17.915  43.741   6.409  1.00  0.00    -0.550 OA
ENDBRANCH   3   4
ENDBRANCH   2   3
ENDBRANCH   1   2
BRANCH   1   7
ATOM      7  C   UNL     1      14.020  46.172   5.852  1.00  0.00     0.000 C 
BRANCH   7   8
ATOM      8  C   UNL     1      13.753  45.888   4.360  1.00  0.00    -0.000 C 
BRANCH   8   9
ATOM      9  C   UNL     1      14.917  45.220   3.601  1.00  0.00    -0.000 C 
BRANCH   9  10
ATOM     10  C   UNL     1      14.849  43.684   3.538  1.00  0.00    -0.003 C 
ATOM     11  C   UNL     1      13.417  43.152   3.525  1.00  0.00     0.004 C 
ENDBRANCH   9  10
ENDBRANCH   8   9
ENDBRANCH   7   8
ENDBRANCH   1   7
TORSDOF 7
ENDMDL
MODEL 8
REMARK VINA RESULT:    -4.091      3.566      5.212
REMARK INTER + INTRA:          -6.449
REMARK INTER:                  -5.818
REMARK INTRA:                  -0.630
REMARK UNBOUND:                -0.683
REMARK SMILES CCCCCCCCC(=O)[O-]
REMARK SMILES IDX 6 1 7 2 8 3 9 4 10 5 11 6 5 7 4 8 3 9 2 10 1 11
REMARK H PARENT
REMARK Flexibility Score: inf
ROOT
ATOM      1  C   UNL     1      16.919  43.524   4.745  1.00  0.00     0.000 C 
ENDROOT
BRANCH   1   2
ATOM      2  C   UNL     1      16.403  43.840   6.159  1.00  0.00     0.006 C 
BRANCH   2   3
ATOM      3  C   UNL     1      15.686  42.642   6.794  1.00  0.00     0.053 C 
BRANCH   3   4
ATOM      4  C   UNL     1      16.416  42.135   8.001  1.00  0.00     0.041 C 
ATOM      5  O   UNL     1      16.109  41.024   8.507  1.00  0.00    -0.550 OA
ATOM      6  O   UNL     1      17.459  42.875   8.545  1.00  0.00    -0.550 OA
ENDBRANCH   3   4
ENDBRANCH   2   3
ENDBRANCH   1   2
BRANCH   1   7
ATOM      7  C   UNL     1      15.786  43.389   3.713  1.00  0.00     0.000 C 
BRANCH   7   8
ATOM      8  C   UNL     1      14.827  44.595   3.639  1.00  0.00    -0.000 C 
BRANCH   8   9
ATOM      9  C   UNL     1      13.374  44.305   4.065  1.00  0.00    -0.000 C 
BRANCH   9  10
ATOM     10  C   UNL     1      12.839  42.927   3.639  1.00  0.00    -0.003 C 
ATOM     11  C   UNL     1      12.449  42.047   4.825  1.00  0.00     0.004 C 
ENDBRANCH   9  10
ENDBRANCH   8   9
ENDBRANCH   7   8
ENDBRANCH   1   7
TORSDOF 7
ENDMDL
MODEL 9
REMARK VINA RESULT:    -4.059      2.717      4.193
REMARK INTER + INTRA:          -6.403
REMARK INTER:                  -5.663
REMARK INTRA:                  -0.739
REMARK UNBOUND:                -0.683
REMARK SMILES CCCCCCCCC(=O)[O-]
REMARK SMILES IDX 6 1 7 2 8 3 9 4 10 5 11 6 5 7 4 8 3 9 2 10 1 11
REMARK H PARENT
REMARK Flexibility Score: inf
ROOT
ATOM      1  C   UNL     1      14.899  45.164   3.582  1.00  0.00     0.000 C 
ENDROOT
BRANCH   1   2
ATOM      2  C   UNL     1      15.265  43.670   3.555  1.00  0.00     0.006 C 
BRANCH   2   3
ATOM      3  C   UNL     1      16.592  43.387   4.271  1.00  0.00     0.053 C 
BRANCH   3   4
ATOM      4  C   UNL     1      16.434  43.414   5.762  1.00  0.00     0.041 C 
ATOM      5  O   UNL     1      15.697  42.570   6.335  1.00  0.00    -0.550 OA
ATOM      6  O   UNL     1      17.131  44.347   6.519  1.00  0.00    -0.550 OA
ENDBRANCH   3   4
ENDBRANCH   2   3
ENDBRANCH   1   2
BRANCH   1   7
ATOM      7  C   UNL     1      13.442  45.413   4.012  1.00  0.00     0.000 C 
BRANCH   7   8
ATOM      8  C   UNL     1      12.730  44.194   4.632  1.00  0.00    -0.000 C 
BRANCH   8   9
ATOM      9  C   UNL     1      12.425  44.309   6.139  1.00  0.00    -0.000 C 
BRANCH   9  10
ATOM     10  C   UNL     1      13.355  45.257   6.915  1.00  0.00    -0.003 C 
ATOM     11  C   UNL     1      12.613  46.430   7.552  1.00  0.00     0.004 C 
ENDBRANCH   9  10
ENDBRANCH   8   9
ENDBRANCH   7   8
ENDBRANCH   1   7
TORSDOF 7
ENDMDL
