MODEL 1
REMARK VINA RESULT:    -4.253      0.000      0.000
REMARK INTER + INTRA:          -5.993
REMARK INTER:                  -5.993
REMARK INTRA:                   0.000
REMARK UNBOUND:                 0.000
REMARK SMILES CC1=CCC(=C(C)C)C(=O)CC(C)=CCC1
REMARK SMILES IDX 12 1 14 2 13 3 15 4 16 5 2 6 1 7 3 8 11 10 9 11 10 12 5 13
REMARK SMILES IDX 6 14 7 15 8 16 4 17
REMARK H PARENT
REMARK Flexibility Score: 60.00
ROOT
ATOM      1  C   UNL     1     -33.824  15.615   7.128  1.00  0.00    -0.070 C 
ATOM      2  C   UNL     1     -33.397  16.327   6.060  1.00  0.00    -0.027 C 
ATOM      3  C   UNL     1     -32.774  14.896   7.940  1.00  0.00     0.039 C 
ENDROOT
BRANCH   2   4
ATOM      4  C   UNL     1     -34.262  17.085   5.084  1.00  0.00     0.032 C 
BRANCH   4   5
ATOM      5  C   UNL     1     -34.192  18.626   5.201  1.00  0.00     0.034 C 
BRANCH   5   6
ATOM      6  C   UNL     1     -34.146  19.175   6.619  1.00  0.00    -0.077 C 
ATOM      7  C   UNL     1     -32.850  19.790   7.088  1.00  0.00     0.039 C 
ATOM      8  C   UNL     1     -35.198  19.212   7.483  1.00  0.00    -0.023 CG0
ATOM      9  G   UNL     1     -36.571  18.563   7.376  1.00  0.00     0.000 G0
ENDBRANCH   5   6
ENDBRANCH   4   5
ENDBRANCH   2   4
BRANCH   1  10
ATOM     10  C   UNL     1     -35.283  15.443   7.539  1.00  0.00     0.111 C 
BRANCH  10  11
ATOM     11  C   UNL     1     -35.802  16.387   8.599  1.00  0.00     0.163 C 
ATOM     12  O   UNL     1     -35.298  16.271   9.749  1.00  0.00    -0.294 OA
BRANCH  11  13
ATOM     13  C   UNL     1     -36.873  17.421   8.350  1.00  0.00    -0.002 C 
ATOM     14  C   UNL     1     -38.110  17.342   8.936  1.00  0.00    -0.069 C 
ATOM     15  C   UNL     1     -39.214  18.317   8.581  1.00  0.00     0.039 C 
ATOM     16  C   UNL     1     -38.439  16.310   9.990  1.00  0.00     0.039 C 
BRANCH  13  17
ATOM     17  C   UNL     1     -36.574  18.543   7.369  1.00  0.00     0.066 CG0
ATOM     18  G   UNL     1     -35.210  19.208   7.483  1.00  0.00     0.000 G0
ENDBRANCH  13  17
ENDBRANCH  11  13
ENDBRANCH  10  11
ENDBRANCH   1  10
TORSDOF 0
ENDMDL
MODEL 2
REMARK VINA RESULT:    -4.216      5.851      9.004
REMARK INTER + INTRA:          -5.941
REMARK INTER:                  -5.940
REMARK INTRA:                  -0.000
REMARK UNBOUND:                 0.000
REMARK SMILES CC1=CCC(=C(C)C)C(=O)CC(C)=CCC1
REMARK SMILES IDX 12 1 14 2 13 3 15 4 16 5 2 6 1 7 3 8 11 10 9 11 10 12 5 13
REMARK SMILES IDX 6 14 7 15 8 16 4 17
REMARK H PARENT
REMARK Flexibility Score: 60.00
ROOT
ATOM      1  C   UNL     1     -39.373  15.155  15.378  1.00  0.00    -0.070 C 
ATOM      2  C   UNL     1     -40.338  15.462  16.276  1.00  0.00    -0.027 C 
ATOM      3  C   UNL     1     -38.883  13.727  15.356  1.00  0.00     0.039 C 
ENDROOT
BRANCH   2   4
ATOM      4  C   UNL     1     -40.947  16.822  16.509  1.00  0.00     0.032 C 
BRANCH   4   5
ATOM      5  C   UNL     1     -42.256  17.100  15.732  1.00  0.00     0.034 C 
BRANCH   5   6
ATOM      6  C   UNL     1     -42.326  18.445  15.025  1.00  0.00    -0.077 C 
ATOM      7  C   UNL     1     -42.863  19.619  15.807  1.00  0.00     0.039 C 
ATOM      8  C   UNL     1     -41.888  18.692  13.759  1.00  0.00    -0.023 CG0
ATOM      9  G   UNL     1     -41.435  17.723  12.677  1.00  0.00     0.000 G0
ENDBRANCH   5   6
ENDBRANCH   4   5
ENDBRANCH   2   4
BRANCH   1  10
ATOM     10  C   UNL     1     -38.713  16.150  14.429  1.00  0.00     0.111 C 
BRANCH  10  11
ATOM     11  C   UNL     1     -39.313  16.267  13.047  1.00  0.00     0.163 C 
ATOM     12  O   UNL     1     -39.264  15.233  12.326  1.00  0.00    -0.294 OA
BRANCH  11  13
ATOM     13  C   UNL     1     -39.935  17.531  12.506  1.00  0.00    -0.002 C 
ATOM     14  C   UNL     1     -39.186  18.517  11.920  1.00  0.00    -0.069 C 
ATOM     15  C   UNL     1     -39.807  19.831  11.494  1.00  0.00     0.039 C 
ATOM     16  C   UNL     1     -37.712  18.346  11.631  1.00  0.00     0.039 C 
BRANCH  13  17
ATOM     17  C   UNL     1     -41.433  17.725  12.681  1.00  0.00     0.066 CG0
ATOM     18  G   UNL     1     -41.877  18.702  13.760  1.00  0.00     0.000 G0
ENDBRANCH  13  17
ENDBRANCH  11  13
ENDBRANCH  10  11
ENDBRANCH   1  10
TORSDOF 0
ENDMDL
MODEL 3
REMARK VINA RESULT:    -4.062      5.668      8.903
REMARK INTER + INTRA:          -5.724
REMARK INTER:                  -5.451
REMARK INTRA:                  -0.273
REMARK UNBOUND:                 0.000
REMARK SMILES CC1=CCC(=C(C)C)C(=O)CC(C)=CCC1
REMARK SMILES IDX 12 1 14 2 13 3 15 4 16 5 2 6 1 7 3 8 11 10 9 11 10 12 5 13
REMARK SMILES IDX 6 14 7 15 8 16 4 17
REMARK H PARENT
REMARK Flexibility Score: 60.00
ROOT
ATOM      1  C   UNL     1     -41.559  18.292  13.273  1.00  0.00    -0.070 C 
ATOM      2  C   UNL     1     -41.828  18.140  14.591  1.00  0.00    -0.027 C 
ATOM      3  C   UNL     1     -41.499  19.704  12.742  1.00  0.00     0.039 C 
ENDROOT
BRANCH   2   4
ATOM      4  C   UNL     1     -41.979  16.834  15.329  1.00  0.00     0.032 C 
BRANCH   4   5
ATOM      5  C   UNL     1     -40.727  16.369  16.111  1.00  0.00     0.034 C 
BRANCH   5   6
ATOM      6  C   UNL     1     -39.891  15.293  15.431  1.00  0.00    -0.077 C 
ATOM      7  C   UNL     1     -40.184  13.855  15.783  1.00  0.00     0.039 C 
ATOM      8  C   UNL     1     -38.938  15.519  14.485  1.00  0.00    -0.023 CG0
ATOM      9  G   UNL     1     -38.317  16.827  14.019  1.00  0.00     0.000 G0
ENDBRANCH   5   6
ENDBRANCH   4   5
ENDBRANCH   2   4
BRANCH   1  10
ATOM     10  C   UNL     1     -41.366  17.150  12.281  1.00  0.00     0.111 C 
BRANCH  10  11
ATOM     11  C   UNL     1     -39.941  16.739  11.992  1.00  0.00     0.163 C 
ATOM     12  O   UNL     1     -39.785  15.816  11.147  1.00  0.00    -0.294 OA
BRANCH  11  13
ATOM     13  C   UNL     1     -38.737  17.356  12.659  1.00  0.00    -0.002 C 
ATOM     14  C   UNL     1     -37.985  18.326  12.049  1.00  0.00    -0.069 C 
ATOM     15  C   UNL     1     -36.710  18.848  12.679  1.00  0.00     0.039 C 
ATOM     16  C   UNL     1     -38.395  18.959  10.739  1.00  0.00     0.039 C 
BRANCH  13  17
ATOM     17  C   UNL     1     -38.324  16.830  14.025  1.00  0.00     0.066 CG0
ATOM     18  G   UNL     1     -38.951  15.518  14.472  1.00  0.00     0.000 G0
ENDBRANCH  13  17
ENDBRANCH  11  13
ENDBRANCH  10  11
ENDBRANCH   1  10
TORSDOF 0
ENDMDL
MODEL 4
REMARK VINA RESULT:    -3.779      7.675      9.759
REMARK INTER + INTRA:          -5.326
REMARK INTER:                  -5.734
REMARK INTRA:                   0.408
REMARK UNBOUND:                 0.000
REMARK SMILES CC1=CCC(=C(C)C)C(=O)CC(C)=CCC1
REMARK SMILES IDX 12 1 14 2 13 3 15 4 16 5 2 6 1 7 3 8 11 10 9 11 10 12 5 13
REMARK SMILES IDX 6 14 7 15 8 16 4 17
REMARK H PARENT
REMARK Flexibility Score: 60.00
ROOT
ATOM      1  C   UNL     1     -39.686  15.360  14.955  1.00  0.00    -0.070 C 
ATOM      2  C   UNL     1     -39.641  15.334  13.603  1.00  0.00    -0.027 C 
ATOM      3  C   UNL     1     -39.804  14.033  15.666  1.00  0.00     0.039 C 
ENDROOT
BRANCH   2   4
ATOM      4  C   UNL     1     -39.568  16.528  12.685  1.00  0.00     0.032 C 
BRANCH   4   5
ATOM      5  C   UNL     1     -40.935  17.105  12.245  1.00  0.00     0.034 C 
BRANCH   5   6
ATOM      6  C   UNL     1     -41.375  18.372  12.964  1.00  0.00    -0.077 C 
ATOM      7  C   UNL     1     -40.965  19.694  12.364  1.00  0.00     0.039 C 
ATOM      8  C   UNL     1     -42.161  18.413  14.076  1.00  0.00    -0.023 CG0
ATOM      9  G   UNL     1     -42.617  17.285  14.991  1.00  0.00     0.000 G0
ENDBRANCH   5   6
ENDBRANCH   4   5
ENDBRANCH   2   4
BRANCH   1  10
ATOM     10  C   UNL     1     -39.679  16.625  15.807  1.00  0.00     0.111 C 
BRANCH  10  11
ATOM     11  C   UNL     1     -40.808  16.779  16.799  1.00  0.00     0.163 C 
ATOM     12  O   UNL     1     -40.581  16.375  17.973  1.00  0.00    -0.294 OA
BRANCH  11  13
ATOM     13  C   UNL     1     -42.155  17.365  16.455  1.00  0.00    -0.002 C 
ATOM     14  C   UNL     1     -42.977  17.909  17.407  1.00  0.00    -0.069 C 
ATOM     15  C   UNL     1     -44.375  18.380  17.065  1.00  0.00     0.039 C 
ATOM     16  C   UNL     1     -42.533  18.105  18.839  1.00  0.00     0.039 C 
BRANCH  13  17
ATOM     17  C   UNL     1     -42.624  17.285  15.011  1.00  0.00     0.066 CG0
ATOM     18  G   UNL     1     -42.178  18.404  14.081  1.00  0.00     0.000 G0
ENDBRANCH  13  17
ENDBRANCH  11  13
ENDBRANCH  10  11
ENDBRANCH   1  10
TORSDOF 0
ENDMDL
MODEL 5
REMARK VINA RESULT:    -3.745      4.341      6.185
REMARK INTER + INTRA:          -5.278
REMARK INTER:                  -5.013
REMARK INTRA:                  -0.264
REMARK UNBOUND:                 0.000
REMARK SMILES CC1=CCC(=C(C)C)C(=O)CC(C)=CCC1
REMARK SMILES IDX 12 1 14 2 13 3 15 4 16 5 2 6 1 7 3 8 11 10 9 11 10 12 5 13
REMARK SMILES IDX 6 14 7 15 8 16 4 17
REMARK H PARENT
REMARK Flexibility Score: 60.00
ROOT
ATOM      1  C   UNL     1     -39.435  15.535  10.941  1.00  0.00    -0.070 C 
ATOM      2  C   UNL     1     -38.374  15.607  10.103  1.00  0.00    -0.027 C 
ATOM      3  C   UNL     1     -39.890  14.158  11.358  1.00  0.00     0.039 C 
ENDROOT
BRANCH   2   4
ATOM      4  C   UNL     1     -37.774  16.862   9.522  1.00  0.00     0.032 C 
BRANCH   4   5
ATOM      5  C   UNL     1     -36.547  17.420  10.283  1.00  0.00     0.034 C 
BRANCH   5   6
ATOM      6  C   UNL     1     -36.830  18.585  11.220  1.00  0.00    -0.077 C 
ATOM      7  C   UNL     1     -36.688  19.980  10.662  1.00  0.00     0.039 C 
ATOM      8  C   UNL     1     -37.260  18.473  12.507  1.00  0.00    -0.023 CG0
ATOM      9  G   UNL     1     -37.366  17.243  13.397  1.00  0.00     0.000 G0
ENDBRANCH   5   6
ENDBRANCH   4   5
ENDBRANCH   2   4
BRANCH   1  10
ATOM     10  C   UNL     1     -40.230  16.733  11.449  1.00  0.00     0.111 C 
BRANCH  10  11
ATOM     11  C   UNL     1     -39.908  17.216  12.844  1.00  0.00     0.163 C 
ATOM     12  O   UNL     1     -40.654  18.119  13.311  1.00  0.00    -0.294 OA
BRANCH  11  13
ATOM     13  C   UNL     1     -38.760  16.690  13.671  1.00  0.00    -0.002 C 
ATOM     14  C   UNL     1     -38.948  15.786  14.684  1.00  0.00    -0.069 C 
ATOM     15  C   UNL     1     -37.806  15.362  15.584  1.00  0.00     0.039 C 
ATOM     16  C   UNL     1     -40.286  15.133  14.945  1.00  0.00     0.039 C 
BRANCH  13  17
ATOM     17  C   UNL     1     -37.368  17.237  13.397  1.00  0.00     0.066 CG0
ATOM     18  G   UNL     1     -37.278  18.468  12.506  1.00  0.00     0.000 G0
ENDBRANCH  13  17
ENDBRANCH  11  13
ENDBRANCH  10  11
ENDBRANCH   1  10
TORSDOF 0
ENDMDL
MODEL 6
REMARK VINA RESULT:    -3.672      2.086      4.997
REMARK INTER + INTRA:          -5.174
REMARK INTER:                  -5.151
REMARK INTRA:                  -0.023
REMARK UNBOUND:                 0.000
REMARK SMILES CC1=CCC(=C(C)C)C(=O)CC(C)=CCC1
REMARK SMILES IDX 12 1 14 2 13 3 15 4 16 5 2 6 1 7 3 8 11 10 9 11 10 12 5 13
REMARK SMILES IDX 6 14 7 15 8 16 4 17
REMARK H PARENT
REMARK Flexibility Score: 60.00
ROOT
ATOM      1  C   UNL     1     -39.269  15.994  10.602  1.00  0.00    -0.070 C 
ATOM      2  C   UNL     1     -40.016  17.042  10.185  1.00  0.00    -0.027 C 
ATOM      3  C   UNL     1     -39.676  15.330  11.895  1.00  0.00     0.039 C 
ENDROOT
BRANCH   2   4
ATOM      4  C   UNL     1     -39.775  17.881   8.955  1.00  0.00     0.032 C 
BRANCH   4   5
ATOM      5  C   UNL     1     -39.334  19.339   9.228  1.00  0.00     0.034 C 
BRANCH   5   6
ATOM      6  C   UNL     1     -38.574  19.562  10.527  1.00  0.00    -0.077 C 
ATOM      7  C   UNL     1     -39.342  20.123  11.699  1.00  0.00     0.039 C 
ATOM      8  C   UNL     1     -37.267  19.241  10.739  1.00  0.00    -0.023 CG0
ATOM      9  G   UNL     1     -36.198  18.801   9.749  1.00  0.00     0.000 G0
ENDBRANCH   5   6
ENDBRANCH   4   5
ENDBRANCH   2   4
BRANCH   1  10
ATOM     10  C   UNL     1     -38.023  15.470   9.894  1.00  0.00     0.111 C 
BRANCH  10  11
ATOM     11  C   UNL     1     -36.759  16.280  10.061  1.00  0.00     0.163 C 
ATOM     12  O   UNL     1     -36.027  15.980  11.044  1.00  0.00    -0.294 OA
BRANCH  11  13
ATOM     13  C   UNL     1     -36.354  17.405   9.140  1.00  0.00    -0.002 C 
ATOM     14  C   UNL     1     -36.070  17.194   7.816  1.00  0.00    -0.069 C 
ATOM     15  C   UNL     1     -35.547  18.310   6.935  1.00  0.00     0.039 C 
ATOM     16  C   UNL     1     -36.293  15.857   7.146  1.00  0.00     0.039 C 
BRANCH  13  17
ATOM     17  C   UNL     1     -36.202  18.798   9.732  1.00  0.00     0.066 CG0
ATOM     18  G   UNL     1     -37.265  19.240  10.726  1.00  0.00     0.000 G0
ENDBRANCH  13  17
ENDBRANCH  11  13
ENDBRANCH  10  11
ENDBRANCH   1  10
TORSDOF 0
ENDMDL
MODEL 7
REMARK VINA RESULT:    -3.665      2.782      5.761
REMARK INTER + INTRA:          -5.165
REMARK INTER:                  -4.772
REMARK INTRA:                  -0.393
REMARK UNBOUND:                 0.000
REMARK SMILES CC1=CCC(=C(C)C)C(=O)CC(C)=CCC1
REMARK SMILES IDX 12 1 14 2 13 3 15 4 16 5 2 6 1 7 3 8 11 10 9 11 10 12 5 13
REMARK SMILES IDX 6 14 7 15 8 16 4 17
REMARK H PARENT
REMARK Flexibility Score: 60.00
ROOT
ATOM      1  C   UNL     1     -37.000  17.867  11.715  1.00  0.00    -0.070 C 
ATOM      2  C   UNL     1     -38.115  17.850  12.482  1.00  0.00    -0.027 C 
ATOM      3  C   UNL     1     -36.227  19.161  11.654  1.00  0.00     0.039 C 
ENDROOT
BRANCH   2   4
ATOM      4  C   UNL     1     -39.064  16.691  12.659  1.00  0.00     0.032 C 
BRANCH   4   5
ATOM      5  C   UNL     1     -40.299  16.701  11.726  1.00  0.00     0.034 C 
BRANCH   5   6
ATOM      6  C   UNL     1     -40.577  18.020  11.019  1.00  0.00    -0.077 C 
ATOM      7  C   UNL     1     -41.349  19.071  11.779  1.00  0.00     0.039 C 
ATOM      8  C   UNL     1     -40.134  18.355   9.775  1.00  0.00    -0.023 CG0
ATOM      9  G   UNL     1     -39.467  17.493   8.713  1.00  0.00     0.000 G0
ENDBRANCH   5   6
ENDBRANCH   4   5
ENDBRANCH   2   4
BRANCH   1  10
ATOM     10  C   UNL     1     -36.499  16.697  10.874  1.00  0.00     0.111 C 
BRANCH  10  11
ATOM     11  C   UNL     1     -37.282  16.381   9.620  1.00  0.00     0.163 C 
ATOM     12  O   UNL     1     -37.365  15.163   9.304  1.00  0.00    -0.294 OA
BRANCH  11  13
ATOM     13  C   UNL     1     -37.935  17.428   8.752  1.00  0.00    -0.002 C 
ATOM     14  C   UNL     1     -37.205  18.353   8.053  1.00  0.00    -0.069 C 
ATOM     15  C   UNL     1     -37.877  19.472   7.286  1.00  0.00     0.039 C 
ATOM     16  C   UNL     1     -35.696  18.295   7.972  1.00  0.00     0.039 C 
BRANCH  13  17
ATOM     17  C   UNL     1     -39.455  17.483   8.714  1.00  0.00     0.066 CG0
ATOM     18  G   UNL     1     -40.136  18.353   9.760  1.00  0.00     0.000 G0
ENDBRANCH  13  17
ENDBRANCH  11  13
ENDBRANCH  10  11
ENDBRANCH   1  10
TORSDOF 0
ENDMDL
MODEL 8
REMARK VINA RESULT:    -3.659      2.489      4.213
REMARK INTER + INTRA:          -5.157
REMARK INTER:                  -5.070
REMARK INTRA:                  -0.086
REMARK UNBOUND:                 0.000
REMARK SMILES CC1=CCC(=C(C)C)C(=O)CC(C)=CCC1
REMARK SMILES IDX 12 1 14 2 13 3 15 4 16 5 2 6 1 7 3 8 11 10 9 11 10 12 5 13
REMARK SMILES IDX 6 14 7 15 8 16 4 17
REMARK H PARENT
REMARK Flexibility Score: 60.00
ROOT
ATOM      1  C   UNL     1     -36.303  19.429  11.382  1.00  0.00    -0.070 C 
ATOM      2  C   UNL     1     -36.190  20.124  10.226  1.00  0.00    -0.027 C 
ATOM      3  C   UNL     1     -36.983  20.122  12.538  1.00  0.00     0.039 C 
ENDROOT
BRANCH   2   4
ATOM      4  C   UNL     1     -35.515  19.657   8.961  1.00  0.00     0.032 C 
BRANCH   4   5
ATOM      5  C   UNL     1     -36.467  19.123   7.865  1.00  0.00     0.034 C 
BRANCH   5   6
ATOM      6  C   UNL     1     -36.484  17.611   7.690  1.00  0.00    -0.077 C 
ATOM      7  C   UNL     1     -35.509  17.011   6.706  1.00  0.00     0.039 C 
ATOM      8  C   UNL     1     -37.267  16.746   8.392  1.00  0.00    -0.023 CG0
ATOM      9  G   UNL     1     -38.429  17.027   9.334  1.00  0.00     0.000 G0
ENDBRANCH   5   6
ENDBRANCH   4   5
ENDBRANCH   2   4
BRANCH   1  10
ATOM     10  C   UNL     1     -35.751  18.027  11.617  1.00  0.00     0.111 C 
BRANCH  10  11
ATOM     11  C   UNL     1     -36.654  16.873  11.243  1.00  0.00     0.163 C 
ATOM     12  O   UNL     1     -36.137  15.723  11.280  1.00  0.00    -0.294 OA
BRANCH  11  13
ATOM     13  C   UNL     1     -38.096  17.035  10.829  1.00  0.00    -0.002 C 
ATOM     14  C   UNL     1     -39.108  17.138  11.747  1.00  0.00    -0.069 C 
ATOM     15  C   UNL     1     -40.560  17.176  11.317  1.00  0.00     0.039 C 
ATOM     16  C   UNL     1     -38.844  17.256  13.230  1.00  0.00     0.039 C 
BRANCH  13  17
ATOM     17  C   UNL     1     -38.422  17.020   9.344  1.00  0.00     0.066 CG0
ATOM     18  G   UNL     1     -37.266  16.760   8.390  1.00  0.00     0.000 G0
ENDBRANCH  13  17
ENDBRANCH  11  13
ENDBRANCH  10  11
ENDBRANCH   1  10
TORSDOF 0
ENDMDL
MODEL 9
REMARK VINA RESULT:    -3.626      4.216      7.056
REMARK INTER + INTRA:          -5.109
REMARK INTER:                  -4.862
REMARK INTRA:                  -0.247
REMARK UNBOUND:                 0.000
REMARK SMILES CC1=CCC(=C(C)C)C(=O)CC(C)=CCC1
REMARK SMILES IDX 12 1 14 2 13 3 15 4 16 5 2 6 1 7 3 8 11 10 9 11 10 12 5 13
REMARK SMILES IDX 6 14 7 15 8 16 4 17
REMARK H PARENT
REMARK Flexibility Score: 60.00
ROOT
ATOM      1  C   UNL     1     -41.176  18.101  12.513  1.00  0.00    -0.070 C 
ATOM      2  C   UNL     1     -40.599  19.270  12.151  1.00  0.00    -0.027 C 
ATOM      3  C   UNL     1     -42.077  18.125  13.724  1.00  0.00     0.039 C 
ENDROOT
BRANCH   2   4
ATOM      4  C   UNL     1     -39.634  19.477  11.010  1.00  0.00     0.032 C 
BRANCH   4   5
ATOM      5  C   UNL     1     -38.165  19.731  11.427  1.00  0.00     0.034 C 
BRANCH   5   6
ATOM      6  C   UNL     1     -37.236  18.530  11.321  1.00  0.00    -0.077 C 
ATOM      7  C   UNL     1     -36.373  18.421  10.088  1.00  0.00     0.039 C 
ATOM      8  C   UNL     1     -37.075  17.574  12.277  1.00  0.00    -0.023 CG0
ATOM      9  G   UNL     1     -37.876  17.318  13.546  1.00  0.00     0.000 G0
ENDBRANCH   5   6
ENDBRANCH   4   5
ENDBRANCH   2   4
BRANCH   1  10
ATOM     10  C   UNL     1     -40.944  16.760  11.825  1.00  0.00     0.111 C 
BRANCH  10  11
ATOM     11  C   UNL     1     -39.672  16.027  12.183  1.00  0.00     0.163 C 
ATOM     12  O   UNL     1     -39.238  15.207  11.328  1.00  0.00    -0.294 OA
BRANCH  11  13
ATOM     13  C   UNL     1     -38.930  16.218  13.483  1.00  0.00    -0.002 C 
ATOM     14  C   UNL     1     -39.223  15.485  14.603  1.00  0.00    -0.069 C 
ATOM     15  C   UNL     1     -38.556  15.773  15.931  1.00  0.00     0.039 C 
ATOM     16  C   UNL     1     -40.197  14.329  14.577  1.00  0.00     0.039 C 
BRANCH  13  17
ATOM     17  C   UNL     1     -37.869  17.305  13.550  1.00  0.00     0.066 CG0
ATOM     18  G   UNL     1     -37.082  17.576  12.276  1.00  0.00     0.000 G0
ENDBRANCH  13  17
ENDBRANCH  11  13
ENDBRANCH  10  11
ENDBRANCH   1  10
TORSDOF 0
ENDMDL
