MODEL 1
REMARK VINA RESULT:    -3.516      0.000      0.000
REMARK INTER + INTRA:          -4.017
REMARK INTER:                  -3.927
REMARK INTRA:                  -0.090
REMARK UNBOUND:                -0.090
REMARK SMILES O=C([O-])c1ccccc1C(=O)[O-]
REMARK SMILES IDX 4 1 9 2 5 3 8 4 6 5 7 6 2 7 1 8 3 9 10 10 11 11 12 12
REMARK H PARENT
REMARK Flexibility Score: inf
ROOT
ATOM      1  C   UNL     1      54.087  54.773  46.373  1.00  0.00     0.006 A 
ATOM      2  C   UNL     1      53.558  55.880  45.654  1.00  0.00     0.006 A 
ATOM      3  C   UNL     1      55.359  54.277  46.029  1.00  0.00     0.010 A 
ATOM      4  C   UNL     1      54.292  56.408  44.576  1.00  0.00     0.010 A 
ATOM      5  C   UNL     1      56.079  54.831  44.970  1.00  0.00     0.001 A 
ATOM      6  C   UNL     1      55.541  55.887  44.237  1.00  0.00     0.001 A 
ENDROOT
BRANCH   1   7
ATOM      7  C   UNL     1      53.323  54.067  47.428  1.00  0.00     0.072 C 
ATOM      8  O   UNL     1      53.095  54.631  48.531  1.00  0.00    -0.545 OA
ATOM      9  O   UNL     1      52.907  52.754  47.243  1.00  0.00    -0.545 OA
ENDBRANCH   1   7
BRANCH   2  10
ATOM     10  C   UNL     1      52.296  56.552  46.038  1.00  0.00     0.072 C 
ATOM     11  O   UNL     1      51.230  56.302  45.416  1.00  0.00    -0.545 OA
ATOM     12  O   UNL     1      52.282  57.512  47.044  1.00  0.00    -0.545 OA
ENDBRANCH   2  10
TORSDOF 2
ENDMDL
MODEL 2
REMARK VINA RESULT:    -3.510      0.055      3.160
REMARK INTER + INTRA:          -4.010
REMARK INTER:                  -3.937
REMARK INTRA:                  -0.073
REMARK UNBOUND:                -0.090
REMARK SMILES O=C([O-])c1ccccc1C(=O)[O-]
REMARK SMILES IDX 4 1 9 2 5 3 8 4 6 5 7 6 2 7 1 8 3 9 10 10 11 11 12 12
REMARK H PARENT
REMARK Flexibility Score: inf
ROOT
ATOM      1  C   UNL     1      53.542  55.904  45.691  1.00  0.00     0.006 A 
ATOM      2  C   UNL     1      54.084  54.787  46.384  1.00  0.00     0.006 A 
ATOM      3  C   UNL     1      54.261  56.459  44.615  1.00  0.00     0.010 A 
ATOM      4  C   UNL     1      55.356  54.307  46.018  1.00  0.00     0.010 A 
ATOM      5  C   UNL     1      55.510  55.952  44.255  1.00  0.00     0.001 A 
ATOM      6  C   UNL     1      56.062  54.886  44.963  1.00  0.00     0.001 A 
ENDROOT
BRANCH   1   7
ATOM      7  C   UNL     1      52.278  56.560  46.099  1.00  0.00     0.072 C 
ATOM      8  O   UNL     1      51.210  56.323  45.475  1.00  0.00    -0.545 OA
ATOM      9  O   UNL     1      52.265  57.493  47.129  1.00  0.00    -0.545 OA
ENDBRANCH   1   7
BRANCH   2  10
ATOM     10  C   UNL     1      53.335  54.056  47.431  1.00  0.00     0.072 C 
ATOM     11  O   UNL     1      53.089  54.608  48.536  1.00  0.00    -0.545 OA
ATOM     12  O   UNL     1      52.950  52.735  47.235  1.00  0.00    -0.545 OA
ENDBRANCH   2  10
TORSDOF 2
ENDMDL
MODEL 3
REMARK VINA RESULT:    -3.482      2.682      3.881
REMARK INTER + INTRA:          -3.979
REMARK INTER:                  -3.761
REMARK INTRA:                  -0.218
REMARK UNBOUND:                -0.090
REMARK SMILES O=C([O-])c1ccccc1C(=O)[O-]
REMARK SMILES IDX 4 1 9 2 5 3 8 4 6 5 7 6 2 7 1 8 3 9 10 10 11 11 12 12
REMARK H PARENT
REMARK Flexibility Score: inf
ROOT
ATOM      1  C   UNL     1      53.061  56.950  47.737  1.00  0.00     0.006 A 
ATOM      2  C   UNL     1      52.755  55.963  46.761  1.00  0.00     0.006 A 
ATOM      3  C   UNL     1      53.514  56.542  49.006  1.00  0.00     0.010 A 
ATOM      4  C   UNL     1      52.851  54.603  47.110  1.00  0.00     0.010 A 
ATOM      5  C   UNL     1      53.623  55.188  49.323  1.00  0.00     0.001 A 
ATOM      6  C   UNL     1      53.280  54.220  48.381  1.00  0.00     0.001 A 
ENDROOT
BRANCH   1   7
ATOM      7  C   UNL     1      52.854  58.398  47.500  1.00  0.00     0.072 C 
ATOM      8  O   UNL     1      51.772  58.947  47.839  1.00  0.00    -0.545 OA
ATOM      9  O   UNL     1      53.818  59.154  46.844  1.00  0.00    -0.545 OA
ENDBRANCH   1   7
BRANCH   2  10
ATOM     10  C   UNL     1      52.409  56.303  45.362  1.00  0.00     0.072 C 
ATOM     11  O   UNL     1      51.202  56.406  45.015  1.00  0.00    -0.545 OA
ATOM     12  O   UNL     1      53.403  56.450  44.401  1.00  0.00    -0.545 OA
ENDBRANCH   2  10
TORSDOF 2
ENDMDL
MODEL 4
REMARK VINA RESULT:    -3.482      2.644      3.663
REMARK INTER + INTRA:          -3.978
REMARK INTER:                  -3.770
REMARK INTRA:                  -0.208
REMARK UNBOUND:                -0.090
REMARK SMILES O=C([O-])c1ccccc1C(=O)[O-]
REMARK SMILES IDX 4 1 9 2 5 3 8 4 6 5 7 6 2 7 1 8 3 9 10 10 11 11 12 12
REMARK H PARENT
REMARK Flexibility Score: inf
ROOT
ATOM      1  C   UNL     1      52.805  55.891  46.798  1.00  0.00     0.006 A 
ATOM      2  C   UNL     1      53.103  56.887  47.768  1.00  0.00     0.006 A 
ATOM      3  C   UNL     1      52.873  54.534  47.167  1.00  0.00     0.010 A 
ATOM      4  C   UNL     1      53.521  56.489  49.052  1.00  0.00     0.010 A 
ATOM      5  C   UNL     1      53.267  54.162  48.452  1.00  0.00     0.001 A 
ATOM      6  C   UNL     1      53.602  55.138  49.389  1.00  0.00     0.001 A 
ENDROOT
BRANCH   1   7
ATOM      7  C   UNL     1      52.495  56.218  45.387  1.00  0.00     0.072 C 
ATOM      8  O   UNL     1      51.300  56.383  45.022  1.00  0.00    -0.545 OA
ATOM      9  O   UNL     1      53.506  56.282  44.436  1.00  0.00    -0.545 OA
ENDBRANCH   1   7
BRANCH   2  10
ATOM     10  C   UNL     1      52.922  58.334  47.509  1.00  0.00     0.072 C 
ATOM     11  O   UNL     1      51.859  58.913  47.860  1.00  0.00    -0.545 OA
ATOM     12  O   UNL     1      53.889  59.058  46.821  1.00  0.00    -0.545 OA
ENDBRANCH   2  10
TORSDOF 2
ENDMDL
MODEL 5
REMARK VINA RESULT:    -3.477      1.777      3.163
REMARK INTER + INTRA:          -3.974
REMARK INTER:                  -3.752
REMARK INTRA:                  -0.222
REMARK UNBOUND:                -0.090
REMARK SMILES O=C([O-])c1ccccc1C(=O)[O-]
REMARK SMILES IDX 4 1 9 2 5 3 8 4 6 5 7 6 2 7 1 8 3 9 10 10 11 11 12 12
REMARK H PARENT
REMARK Flexibility Score: inf
ROOT
ATOM      1  C   UNL     1      54.543  55.119  45.851  1.00  0.00     0.006 A 
ATOM      2  C   UNL     1      53.272  55.162  46.487  1.00  0.00     0.006 A 
ATOM      3  C   UNL     1      55.334  53.962  45.978  1.00  0.00     0.010 A 
ATOM      4  C   UNL     1      52.867  54.072  47.280  1.00  0.00     0.010 A 
ATOM      5  C   UNL     1      54.902  52.883  46.751  1.00  0.00     0.001 A 
ATOM      6  C   UNL     1      53.677  52.943  47.410  1.00  0.00     0.001 A 
ENDROOT
BRANCH   1   7
ATOM      7  C   UNL     1      55.107  56.275  45.116  1.00  0.00     0.072 C 
ATOM      8  O   UNL     1      54.916  56.392  43.876  1.00  0.00    -0.545 OA
ATOM      9  O   UNL     1      55.907  57.206  45.766  1.00  0.00    -0.545 OA
ENDBRANCH   1   7
BRANCH   2  10
ATOM     10  C   UNL     1      52.318  56.278  46.292  1.00  0.00     0.072 C 
ATOM     11  O   UNL     1      51.488  56.243  45.344  1.00  0.00    -0.545 OA
ATOM     12  O   UNL     1      52.366  57.403  47.107  1.00  0.00    -0.545 OA
ENDBRANCH   2  10
TORSDOF 2
ENDMDL
MODEL 6
REMARK VINA RESULT:    -3.439      3.586      5.519
REMARK INTER + INTRA:          -3.931
REMARK INTER:                  -3.704
REMARK INTRA:                  -0.227
REMARK UNBOUND:                -0.090
REMARK SMILES O=C([O-])c1ccccc1C(=O)[O-]
REMARK SMILES IDX 4 1 9 2 5 3 8 4 6 5 7 6 2 7 1 8 3 9 10 10 11 11 12 12
REMARK H PARENT
REMARK Flexibility Score: inf
ROOT
ATOM      1  C   UNL     1      53.027  54.782  49.575  1.00  0.00     0.006 A 
ATOM      2  C   UNL     1      52.603  54.748  50.932  1.00  0.00     0.006 A 
ATOM      3  C   UNL     1      52.882  53.627  48.782  1.00  0.00     0.010 A 
ATOM      4  C   UNL     1      52.108  53.542  51.463  1.00  0.00     0.010 A 
ATOM      5  C   UNL     1      52.368  52.449  49.325  1.00  0.00     0.001 A 
ATOM      6  C   UNL     1      51.994  52.403  50.666  1.00  0.00     0.001 A 
ENDROOT
BRANCH   1   7
ATOM      7  C   UNL     1      53.688  55.964  48.975  1.00  0.00     0.072 C 
ATOM      8  O   UNL     1      54.940  56.091  49.038  1.00  0.00    -0.545 OA
ATOM      9  O   UNL     1      52.936  56.979  48.396  1.00  0.00    -0.545 OA
ENDBRANCH   1   7
BRANCH   2  10
ATOM     10  C   UNL     1      52.588  55.951  51.795  1.00  0.00     0.072 C 
ATOM     11  O   UNL     1      53.548  56.181  52.577  1.00  0.00    -0.545 OA
ATOM     12  O   UNL     1      51.492  56.806  51.801  1.00  0.00    -0.545 OA
ENDBRANCH   2  10
TORSDOF 2
ENDMDL
MODEL 7
REMARK VINA RESULT:    -3.434      3.554      5.281
REMARK INTER + INTRA:          -3.925
REMARK INTER:                  -3.691
REMARK INTRA:                  -0.234
REMARK UNBOUND:                -0.090
REMARK SMILES O=C([O-])c1ccccc1C(=O)[O-]
REMARK SMILES IDX 4 1 9 2 5 3 8 4 6 5 7 6 2 7 1 8 3 9 10 10 11 11 12 12
REMARK H PARENT
REMARK Flexibility Score: inf
ROOT
ATOM      1  C   UNL     1      52.602  54.743  50.930  1.00  0.00     0.006 A 
ATOM      2  C   UNL     1      53.043  54.746  49.578  1.00  0.00     0.006 A 
ATOM      3  C   UNL     1      52.105  53.550  51.486  1.00  0.00     0.010 A 
ATOM      4  C   UNL     1      52.912  53.572  48.814  1.00  0.00     0.010 A 
ATOM      5  C   UNL     1      52.004  52.391  50.716  1.00  0.00     0.001 A 
ATOM      6  C   UNL     1      52.395  52.405  49.379  1.00  0.00     0.001 A 
ENDROOT
BRANCH   1   7
ATOM      7  C   UNL     1      52.573  55.968  51.762  1.00  0.00     0.072 C 
ATOM      8  O   UNL     1      51.559  56.715  51.758  1.00  0.00    -0.545 OA
ATOM      9  O   UNL     1      53.685  56.346  52.505  1.00  0.00    -0.545 OA
ENDBRANCH   1   7
BRANCH   2  10
ATOM     10  C   UNL     1      53.707  55.915  48.957  1.00  0.00     0.072 C 
ATOM     11  O   UNL     1      54.950  56.078  49.083  1.00  0.00    -0.545 OA
ATOM     12  O   UNL     1      52.964  56.877  48.283  1.00  0.00    -0.545 OA
ENDBRANCH   2  10
TORSDOF 2
ENDMDL
MODEL 8
REMARK VINA RESULT:    -3.360      2.820      5.047
REMARK INTER + INTRA:          -3.842
REMARK INTER:                  -3.637
REMARK INTRA:                  -0.206
REMARK UNBOUND:                -0.090
REMARK SMILES O=C([O-])c1ccccc1C(=O)[O-]
REMARK SMILES IDX 4 1 9 2 5 3 8 4 6 5 7 6 2 7 1 8 3 9 10 10 11 11 12 12
REMARK H PARENT
REMARK Flexibility Score: inf
ROOT
ATOM      1  C   UNL     1      53.129  55.023  49.908  1.00  0.00     0.006 A 
ATOM      2  C   UNL     1      52.958  54.025  48.910  1.00  0.00     0.006 A 
ATOM      3  C   UNL     1      52.740  54.743  51.232  1.00  0.00     0.010 A 
ATOM      4  C   UNL     1      52.345  52.807  49.259  1.00  0.00     0.010 A 
ATOM      5  C   UNL     1      52.156  53.519  51.559  1.00  0.00     0.001 A 
ATOM      6  C   UNL     1      51.947  52.558  50.573  1.00  0.00     0.001 A 
ENDROOT
BRANCH   1   7
ATOM      7  C   UNL     1      53.634  56.382  49.600  1.00  0.00     0.072 C 
ATOM      8  O   UNL     1      52.828  57.312  49.330  1.00  0.00    -0.545 OA
ATOM      9  O   UNL     1      54.999  56.633  49.539  1.00  0.00    -0.545 OA
ENDBRANCH   1   7
BRANCH   2  10
ATOM     10  C   UNL     1      53.465  54.183  47.527  1.00  0.00     0.072 C 
ATOM     11  O   UNL     1      54.572  53.678  47.197  1.00  0.00    -0.545 OA
ATOM     12  O   UNL     1      52.763  54.939  46.596  1.00  0.00    -0.545 OA
ENDBRANCH   2  10
TORSDOF 2
ENDMDL
