MODEL 1
REMARK VINA RESULT:    -3.149      0.000      0.000
REMARK INTER + INTRA:          -4.669
REMARK INTER:                  -4.253
REMARK INTRA:                  -0.416
REMARK UNBOUND:                -0.416
REMARK SMILES CCCCCCCC(=O)[O-]
REMARK SMILES IDX 5 1 6 2 7 3 8 4 9 5 10 6 4 7 3 8 2 9 1 10
REMARK H PARENT
REMARK Flexibility Score: inf
ROOT
ATOM      1  C   UNL     1      -0.477 -10.560  39.862  1.00  0.00     0.000 C 
ENDROOT
BRANCH   1   2
ATOM      2  C   UNL     1      -1.342 -10.516  41.131  1.00  0.00     0.006 C 
BRANCH   2   3
ATOM      3  C   UNL     1      -2.162 -11.801  41.280  1.00  0.00     0.053 C 
BRANCH   3   4
ATOM      4  C   UNL     1      -1.594 -12.663  42.362  1.00  0.00     0.041 C 
ATOM      5  O   UNL     1      -0.581 -12.285  43.008  1.00  0.00    -0.550 OA
ATOM      6  O   UNL     1      -2.153 -13.907  42.625  1.00  0.00    -0.550 OA
ENDBRANCH   3   4
ENDBRANCH   2   3
ENDBRANCH   1   2
BRANCH   1   7
ATOM      7  C   UNL     1      -0.282  -9.174  39.227  1.00  0.00     0.000 C 
BRANCH   7   8
ATOM      8  C   UNL     1      -1.320  -8.149  39.715  1.00  0.00    -0.000 C 
BRANCH   8   9
ATOM      9  C   UNL     1      -2.444  -7.917  38.693  1.00  0.00    -0.003 C 
ATOM     10  C   UNL     1      -3.826  -8.271  39.241  1.00  0.00     0.004 C 
ENDBRANCH   8   9
ENDBRANCH   7   8
ENDBRANCH   1   7
TORSDOF 6
ENDMDL
MODEL 2
REMARK VINA RESULT:    -3.130      1.187      2.575
REMARK INTER + INTRA:          -4.643
REMARK INTER:                  -4.094
REMARK INTRA:                  -0.549
REMARK UNBOUND:                -0.416
REMARK SMILES CCCCCCCC(=O)[O-]
REMARK SMILES IDX 5 1 6 2 7 3 8 4 9 5 10 6 4 7 3 8 2 9 1 10
REMARK H PARENT
REMARK Flexibility Score: inf
ROOT
ATOM      1  C   UNL     1      -4.008  -9.012  40.227  1.00  0.00     0.000 C 
ENDROOT
BRANCH   1   2
ATOM      2  C   UNL     1      -3.426  -9.687  41.479  1.00  0.00     0.006 C 
BRANCH   2   3
ATOM      3  C   UNL     1      -3.440 -11.211  41.336  1.00  0.00     0.053 C 
BRANCH   3   4
ATOM      4  C   UNL     1      -2.291 -11.818  42.077  1.00  0.00     0.041 C 
ATOM      5  O   UNL     1      -2.194 -13.069  42.181  1.00  0.00    -0.550 OA
ATOM      6  O   UNL     1      -1.353 -11.001  42.695  1.00  0.00    -0.550 OA
ENDBRANCH   3   4
ENDBRANCH   2   3
ENDBRANCH   1   2
BRANCH   1   7
ATOM      7  C   UNL     1      -2.924  -8.428  39.307  1.00  0.00     0.000 C 
BRANCH   7   8
ATOM      8  C   UNL     1      -1.579  -8.232  40.028  1.00  0.00    -0.000 C 
BRANCH   8   9
ATOM      9  C   UNL     1      -0.396  -8.809  39.234  1.00  0.00    -0.003 C 
ATOM     10  C   UNL     1      -0.268 -10.325  39.377  1.00  0.00     0.004 C 
ENDBRANCH   8   9
ENDBRANCH   7   8
ENDBRANCH   1   7
TORSDOF 6
ENDMDL
MODEL 3
REMARK VINA RESULT:    -3.096      1.030      1.481
REMARK INTER + INTRA:          -4.597
REMARK INTER:                  -4.304
REMARK INTRA:                  -0.294
REMARK UNBOUND:                -0.416
REMARK SMILES CCCCCCCC(=O)[O-]
REMARK SMILES IDX 5 1 6 2 7 3 8 4 9 5 10 6 4 7 3 8 2 9 1 10
REMARK H PARENT
REMARK Flexibility Score: inf
ROOT
ATOM      1  C   UNL     1      -0.713 -10.736  39.980  1.00  0.00     0.000 C 
ENDROOT
BRANCH   1   2
ATOM      2  C   UNL     1      -1.601 -10.682  41.232  1.00  0.00     0.006 C 
BRANCH   2   3
ATOM      3  C   UNL     1      -1.163 -11.729  42.260  1.00  0.00     0.053 C 
BRANCH   3   4
ATOM      4  C   UNL     1      -2.102 -12.893  42.256  1.00  0.00     0.041 C 
ATOM      5  O   UNL     1      -3.229 -12.796  41.703  1.00  0.00    -0.550 OA
ATOM      6  O   UNL     1      -1.754 -14.070  42.906  1.00  0.00    -0.550 OA
ENDBRANCH   3   4
ENDBRANCH   2   3
ENDBRANCH   1   2
BRANCH   1   7
ATOM      7  C   UNL     1      -0.324  -9.341  39.465  1.00  0.00     0.000 C 
BRANCH   7   8
ATOM      8  C   UNL     1      -1.330  -8.255  39.884  1.00  0.00    -0.000 C 
BRANCH   8   9
ATOM      9  C   UNL     1      -2.148  -7.721  38.696  1.00  0.00    -0.003 C 
ATOM     10  C   UNL     1      -1.341  -7.663  37.399  1.00  0.00     0.004 C 
ENDBRANCH   8   9
ENDBRANCH   7   8
ENDBRANCH   1   7
TORSDOF 6
ENDMDL
MODEL 4
REMARK VINA RESULT:    -3.025      3.053      6.221
REMARK INTER + INTRA:          -4.502
REMARK INTER:                  -4.381
REMARK INTRA:                  -0.121
REMARK UNBOUND:                -0.416
REMARK SMILES CCCCCCCC(=O)[O-]
REMARK SMILES IDX 5 1 6 2 7 3 8 4 9 5 10 6 4 7 3 8 2 9 1 10
REMARK H PARENT
REMARK Flexibility Score: inf
ROOT
ATOM      1  C   UNL     1      -2.343 -12.915  42.179  1.00  0.00     0.000 C 
ENDROOT
BRANCH   1   2
ATOM      2  C   UNL     1      -1.387 -11.713  42.242  1.00  0.00     0.006 C 
BRANCH   2   3
ATOM      3  C   UNL     1      -1.383 -10.947  40.916  1.00  0.00     0.053 C 
BRANCH   3   4
ATOM      4  C   UNL     1      -2.090  -9.637  41.065  1.00  0.00     0.041 C 
ATOM      5  O   UNL     1      -3.243  -9.593  41.570  1.00  0.00    -0.550 OA
ATOM      6  O   UNL     1      -1.496  -8.470  40.604  1.00  0.00    -0.550 OA
ENDBRANCH   3   4
ENDBRANCH   2   3
ENDBRANCH   1   2
BRANCH   1   7
ATOM      7  C   UNL     1      -1.836 -14.121  42.986  1.00  0.00     0.000 C 
BRANCH   7   8
ATOM      8  C   UNL     1      -2.965 -15.092  43.370  1.00  0.00    -0.000 C 
BRANCH   8   9
ATOM      9  C   UNL     1      -2.437 -16.381  44.018  1.00  0.00    -0.003 C 
ATOM     10  C   UNL     1      -2.116 -17.471  42.996  1.00  0.00     0.004 C 
ENDBRANCH   8   9
ENDBRANCH   7   8
ENDBRANCH   1   7
TORSDOF 6
ENDMDL
MODEL 5
REMARK VINA RESULT:    -2.947      3.246      6.547
REMARK INTER + INTRA:          -4.396
REMARK INTER:                  -4.230
REMARK INTRA:                  -0.166
REMARK UNBOUND:                -0.416
REMARK SMILES CCCCCCCC(=O)[O-]
REMARK SMILES IDX 5 1 6 2 7 3 8 4 9 5 10 6 4 7 3 8 2 9 1 10
REMARK H PARENT
REMARK Flexibility Score: inf
ROOT
ATOM      1  C   UNL     1      -2.110 -14.137  42.719  1.00  0.00     0.000 C 
ENDROOT
BRANCH   1   2
ATOM      2  C   UNL     1      -2.440 -12.766  42.109  1.00  0.00     0.006 C 
BRANCH   2   3
ATOM      3  C   UNL     1      -1.268 -11.796  42.275  1.00  0.00     0.053 C 
BRANCH   3   4
ATOM      4  C   UNL     1      -1.290 -10.758  41.198  1.00  0.00     0.041 C 
ATOM      5  O   UNL     1      -0.589 -10.905  40.162  1.00  0.00    -0.550 OA
ATOM      6  O   UNL     1      -2.047  -9.605  41.359  1.00  0.00    -0.550 OA
ENDBRANCH   3   4
ENDBRANCH   2   3
ENDBRANCH   1   2
BRANCH   1   7
ATOM      7  C   UNL     1      -3.364 -14.916  43.146  1.00  0.00     0.000 C 
BRANCH   7   8
ATOM      8  C   UNL     1      -3.037 -16.102  44.069  1.00  0.00    -0.000 C 
BRANCH   8   9
ATOM      9  C   UNL     1      -2.090 -17.117  43.409  1.00  0.00    -0.003 C 
ATOM     10  C   UNL     1      -2.832 -18.192  42.616  1.00  0.00     0.004 C 
ENDBRANCH   8   9
ENDBRANCH   7   8
ENDBRANCH   1   7
TORSDOF 6
ENDMDL
MODEL 6
REMARK VINA RESULT:    -2.942      1.841      2.089
REMARK INTER + INTRA:          -4.390
REMARK INTER:                  -3.961
REMARK INTRA:                  -0.429
REMARK UNBOUND:                -0.416
REMARK SMILES CCCCCCCC(=O)[O-]
REMARK SMILES IDX 5 1 6 2 7 3 8 4 9 5 10 6 4 7 3 8 2 9 1 10
REMARK H PARENT
REMARK Flexibility Score: inf
ROOT
ATOM      1  C   UNL     1      -0.584 -10.640  39.637  1.00  0.00     0.000 C 
ENDROOT
BRANCH   1   2
ATOM      2  C   UNL     1      -1.256 -10.753  41.015  1.00  0.00     0.006 C 
BRANCH   2   3
ATOM      3  C   UNL     1      -2.591 -11.494  40.914  1.00  0.00     0.053 C 
BRANCH   3   4
ATOM      4  C   UNL     1      -3.594 -10.897  41.851  1.00  0.00     0.041 C 
ATOM      5  O   UNL     1      -3.839  -9.663  41.816  1.00  0.00    -0.550 OA
ATOM      6  O   UNL     1      -4.223 -11.697  42.797  1.00  0.00    -0.550 OA
ENDBRANCH   3   4
ENDBRANCH   2   3
ENDBRANCH   1   2
BRANCH   1   7
ATOM      7  C   UNL     1      -0.277  -9.186  39.242  1.00  0.00     0.000 C 
BRANCH   7   8
ATOM      8  C   UNL     1      -1.253  -8.182  39.879  1.00  0.00    -0.000 C 
BRANCH   8   9
ATOM      9  C   UNL     1      -2.374  -7.759  38.916  1.00  0.00    -0.003 C 
ATOM     10  C   UNL     1      -1.866  -7.479  37.502  1.00  0.00     0.004 C 
ENDBRANCH   8   9
ENDBRANCH   7   8
ENDBRANCH   1   7
TORSDOF 6
ENDMDL
MODEL 7
REMARK VINA RESULT:    -2.936      2.527      4.039
REMARK INTER + INTRA:          -4.381
REMARK INTER:                  -4.008
REMARK INTRA:                  -0.373
REMARK UNBOUND:                -0.416
REMARK SMILES CCCCCCCC(=O)[O-]
REMARK SMILES IDX 5 1 6 2 7 3 8 4 9 5 10 6 4 7 3 8 2 9 1 10
REMARK H PARENT
REMARK Flexibility Score: inf
ROOT
ATOM      1  C   UNL     1      -3.521  -9.576  40.899  1.00  0.00     0.000 C 
ENDROOT
BRANCH   1   2
ATOM      2  C   UNL     1      -2.087  -9.664  41.443  1.00  0.00     0.006 C 
BRANCH   2   3
ATOM      3  C   UNL     1      -1.432 -10.991  41.050  1.00  0.00     0.053 C 
BRANCH   3   4
ATOM      4  C   UNL     1      -1.392 -11.923  42.220  1.00  0.00     0.041 C 
ATOM      5  O   UNL     1      -0.529 -11.768  43.123  1.00  0.00    -0.550 OA
ATOM      6  O   UNL     1      -2.276 -12.991  42.288  1.00  0.00    -0.550 OA
ENDBRANCH   3   4
ENDBRANCH   2   3
ENDBRANCH   1   2
BRANCH   1   7
ATOM      7  C   UNL     1      -4.584  -9.688  42.003  1.00  0.00     0.000 C 
BRANCH   7   8
ATOM      8  C   UNL     1      -5.225 -11.085  42.066  1.00  0.00    -0.000 C 
BRANCH   8   9
ATOM      9  C   UNL     1      -5.677 -11.461  43.486  1.00  0.00    -0.003 C 
ATOM     10  C   UNL     1      -5.559 -12.958  43.769  1.00  0.00     0.004 C 
ENDBRANCH   8   9
ENDBRANCH   7   8
ENDBRANCH   1   7
TORSDOF 6
ENDMDL
MODEL 8
REMARK VINA RESULT:    -2.921      2.188      3.085
REMARK INTER + INTRA:          -4.361
REMARK INTER:                  -4.127
REMARK INTRA:                  -0.234
REMARK UNBOUND:                -0.416
REMARK SMILES CCCCCCCC(=O)[O-]
REMARK SMILES IDX 5 1 6 2 7 3 8 4 9 5 10 6 4 7 3 8 2 9 1 10
REMARK H PARENT
REMARK Flexibility Score: inf
ROOT
ATOM      1  C   UNL     1      -2.307  -7.943  38.898  1.00  0.00     0.000 C 
ENDROOT
BRANCH   1   2
ATOM      2  C   UNL     1      -1.361  -8.205  40.080  1.00  0.00     0.006 C 
BRANCH   2   3
ATOM      3  C   UNL     1      -1.895  -9.329  40.972  1.00  0.00     0.053 C 
BRANCH   3   4
ATOM      4  C   UNL     1      -1.078 -10.570  40.797  1.00  0.00     0.041 C 
ATOM      5  O   UNL     1      -0.402 -10.741  39.748  1.00  0.00    -0.550 OA
ATOM      6  O   UNL     1      -1.099 -11.559  41.771  1.00  0.00    -0.550 OA
ENDBRANCH   3   4
ENDBRANCH   2   3
ENDBRANCH   1   2
BRANCH   1   7
ATOM      7  C   UNL     1      -1.557  -7.632  37.593  1.00  0.00     0.000 C 
BRANCH   7   8
ATOM      8  C   UNL     1      -2.442  -6.914  36.560  1.00  0.00    -0.000 C 
BRANCH   8   9
ATOM      9  C   UNL     1      -3.723  -6.337  37.183  1.00  0.00    -0.003 C 
ATOM     10  C   UNL     1      -4.308  -5.180  36.374  1.00  0.00     0.004 C 
ENDBRANCH   8   9
ENDBRANCH   7   8
ENDBRANCH   1   7
TORSDOF 6
ENDMDL
MODEL 9
REMARK VINA RESULT:    -2.880      3.615      4.810
REMARK INTER + INTRA:          -4.306
REMARK INTER:                  -3.919
REMARK INTRA:                  -0.387
REMARK UNBOUND:                -0.416
REMARK SMILES CCCCCCCC(=O)[O-]
REMARK SMILES IDX 5 1 6 2 7 3 8 4 9 5 10 6 4 7 3 8 2 9 1 10
REMARK H PARENT
REMARK Flexibility Score: inf
ROOT
ATOM      1  C   UNL     1      -1.262 -10.619  40.193  1.00  0.00     0.000 C 
ENDROOT
BRANCH   1   2
ATOM      2  C   UNL     1      -0.586  -9.404  39.539  1.00  0.00     0.006 C 
BRANCH   2   3
ATOM      3  C   UNL     1      -1.362  -8.119  39.837  1.00  0.00     0.053 C 
BRANCH   3   4
ATOM      4  C   UNL     1      -2.180  -7.713  38.652  1.00  0.00     0.041 C 
ATOM      5  O   UNL     1      -3.437  -7.689  38.727  1.00  0.00    -0.550 OA
ATOM      6  O   UNL     1      -1.557  -7.408  37.449  1.00  0.00    -0.550 OA
ENDBRANCH   3   4
ENDBRANCH   2   3
ENDBRANCH   1   2
BRANCH   1   7
ATOM      7  C   UNL     1      -1.823 -10.308  41.590  1.00  0.00     0.000 C 
BRANCH   7   8
ATOM      8  C   UNL     1      -3.283 -10.761  41.755  1.00  0.00    -0.000 C 
BRANCH   8   9
ATOM      9  C   UNL     1      -4.281  -9.605  41.581  1.00  0.00    -0.003 C 
ATOM     10  C   UNL     1      -5.353  -9.578  42.670  1.00  0.00     0.004 C 
ENDBRANCH   8   9
ENDBRANCH   7   8
ENDBRANCH   1   7
TORSDOF 6
ENDMDL
