MODEL 1
REMARK VINA RESULT:    -3.731      0.000      0.000
REMARK INTER + INTRA:          -8.503
REMARK INTER:                  -6.567
REMARK INTRA:                  -1.936
REMARK UNBOUND:                -1.936
REMARK SMILES CCCCCCCCCCCCCCC(=O)[O-]
REMARK SMILES IDX 9 1 10 2 11 3 12 4 13 5 14 6 15 7 16 8 17 9 8 10 7 11 6 12
REMARK SMILES IDX 5 13 4 14 3 15 2 16 1 17
REMARK H PARENT
REMARK Flexibility Score: inf
ROOT
ATOM      1  C   UNL     1      61.212  24.988  24.095  1.00  0.00     0.000 C 
ENDROOT
BRANCH   1   2
ATOM      2  C   UNL     1      60.178  23.887  23.799  1.00  0.00     0.000 C 
BRANCH   2   3
ATOM      3  C   UNL     1      60.359  22.650  24.695  1.00  0.00     0.000 C 
BRANCH   3   4
ATOM      4  C   UNL     1      59.391  21.512  24.338  1.00  0.00     0.000 C 
BRANCH   4   5
ATOM      5  C   UNL     1      58.579  21.857  23.081  1.00  0.00     0.006 C 
BRANCH   5   6
ATOM      6  C   UNL     1      57.334  20.971  22.931  1.00  0.00     0.053 C 
BRANCH   6   7
ATOM      7  C   UNL     1      56.070  21.768  23.039  1.00  0.00     0.041 C 
ATOM      8  O   UNL     1      56.064  22.990  22.738  1.00  0.00    -0.550 OA
ATOM      9  O   UNL     1      54.906  21.168  23.503  1.00  0.00    -0.550 OA
ENDBRANCH   6   7
ENDBRANCH   5   6
ENDBRANCH   4   5
ENDBRANCH   3   4
ENDBRANCH   2   3
ENDBRANCH   1   2
BRANCH   1  10
ATOM     10  C   UNL     1      61.717  25.680  22.818  1.00  0.00     0.000 C 
BRANCH  10  11
ATOM     11  C   UNL     1      63.253  25.752  22.753  1.00  0.00    -0.000 C 
BRANCH  11  12
ATOM     12  C   UNL     1      63.918  24.386  22.991  1.00  0.00    -0.000 C 
BRANCH  12  13
ATOM     13  C   UNL     1      63.784  23.442  21.786  1.00  0.00    -0.000 C 
BRANCH  13  14
ATOM     14  C   UNL     1      63.272  22.062  22.226  1.00  0.00    -0.000 C 
BRANCH  14  15
ATOM     15  C   UNL     1      61.976  21.654  21.509  1.00  0.00    -0.000 C 
BRANCH  15  16
ATOM     16  C   UNL     1      61.516  22.697  20.479  1.00  0.00    -0.003 C 
ATOM     17  C   UNL     1      61.700  22.181  19.055  1.00  0.00     0.004 C 
ENDBRANCH  15  16
ENDBRANCH  14  15
ENDBRANCH  13  14
ENDBRANCH  12  13
ENDBRANCH  11  12
ENDBRANCH  10  11
ENDBRANCH   1  10
TORSDOF 13
ENDMDL
MODEL 2
REMARK VINA RESULT:    -3.600      2.907      5.225
REMARK INTER + INTRA:          -8.272
REMARK INTER:                  -6.165
REMARK INTRA:                  -2.108
REMARK UNBOUND:                -1.936
REMARK SMILES CCCCCCCCCCCCCCC(=O)[O-]
REMARK SMILES IDX 9 1 10 2 11 3 12 4 13 5 14 6 15 7 16 8 17 9 8 10 7 11 6 12
REMARK SMILES IDX 5 13 4 14 3 15 2 16 1 17
REMARK H PARENT
REMARK Flexibility Score: inf
ROOT
ATOM      1  C   UNL     1      62.183  24.857  24.915  1.00  0.00     0.000 C 
ENDROOT
BRANCH   1   2
ATOM      2  C   UNL     1      61.517  25.382  23.631  1.00  0.00     0.000 C 
BRANCH   2   3
ATOM      3  C   UNL     1      62.075  24.718  22.361  1.00  0.00     0.000 C 
BRANCH   3   4
ATOM      4  C   UNL     1      62.811  23.402  22.654  1.00  0.00     0.000 C 
BRANCH   4   5
ATOM      5  C   UNL     1      61.997  22.198  22.156  1.00  0.00     0.006 C 
BRANCH   5   6
ATOM      6  C   UNL     1      61.274  22.491  20.834  1.00  0.00     0.053 C 
BRANCH   6   7
ATOM      7  C   UNL     1      62.077  22.045  19.651  1.00  0.00     0.041 C 
ATOM      8  O   UNL     1      61.792  22.461  18.498  1.00  0.00    -0.550 OA
ATOM      9  O   UNL     1      63.121  21.144  19.818  1.00  0.00    -0.550 OA
ENDBRANCH   6   7
ENDBRANCH   5   6
ENDBRANCH   4   5
ENDBRANCH   3   4
ENDBRANCH   2   3
ENDBRANCH   1   2
BRANCH   1  10
ATOM     10  C   UNL     1      61.171  24.246  25.898  1.00  0.00     0.000 C 
BRANCH  10  11
ATOM     11  C   UNL     1      61.262  22.711  25.960  1.00  0.00    -0.000 C 
BRANCH  11  12
ATOM     12  C   UNL     1      59.994  22.022  25.429  1.00  0.00    -0.000 C 
BRANCH  12  13
ATOM     13  C   UNL     1      58.906  23.023  25.009  1.00  0.00    -0.000 C 
BRANCH  13  14
ATOM     14  C   UNL     1      58.613  22.914  23.505  1.00  0.00    -0.000 C 
BRANCH  14  15
ATOM     15  C   UNL     1      58.311  21.474  23.063  1.00  0.00    -0.000 C 
BRANCH  15  16
ATOM     16  C   UNL     1      56.807  21.162  23.047  1.00  0.00    -0.003 C 
ATOM     17  C   UNL     1      55.997  22.382  22.616  1.00  0.00     0.004 C 
ENDBRANCH  15  16
ENDBRANCH  14  15
ENDBRANCH  13  14
ENDBRANCH  12  13
ENDBRANCH  11  12
ENDBRANCH  10  11
ENDBRANCH   1  10
TORSDOF 13
ENDMDL
MODEL 3
REMARK VINA RESULT:    -3.492      2.965      5.007
REMARK INTER + INTRA:          -8.082
REMARK INTER:                  -6.272
REMARK INTRA:                  -1.810
REMARK UNBOUND:                -1.936
REMARK SMILES CCCCCCCCCCCCCCC(=O)[O-]
REMARK SMILES IDX 9 1 10 2 11 3 12 4 13 5 14 6 15 7 16 8 17 9 8 10 7 11 6 12
REMARK SMILES IDX 5 13 4 14 3 15 2 16 1 17
REMARK H PARENT
REMARK Flexibility Score: inf
ROOT
ATOM      1  C   UNL     1      61.705  25.618  23.636  1.00  0.00     0.000 C 
ENDROOT
BRANCH   1   2
ATOM      2  C   UNL     1      62.249  24.908  22.383  1.00  0.00     0.000 C 
BRANCH   2   3
ATOM      3  C   UNL     1      62.944  23.577  22.713  1.00  0.00     0.000 C 
BRANCH   3   4
ATOM      4  C   UNL     1      62.026  22.361  22.510  1.00  0.00     0.000 C 
BRANCH   4   5
ATOM      5  C   UNL     1      60.861  22.706  21.570  1.00  0.00     0.006 C 
BRANCH   5   6
ATOM      6  C   UNL     1      60.759  21.731  20.388  1.00  0.00     0.053 C 
BRANCH   6   7
ATOM      7  C   UNL     1      61.927  21.861  19.460  1.00  0.00     0.041 C 
ATOM      8  O   UNL     1      62.986  21.216  19.680  1.00  0.00    -0.550 OA
ATOM      9  O   UNL     1      61.858  22.718  18.369  1.00  0.00    -0.550 OA
ENDBRANCH   6   7
ENDBRANCH   5   6
ENDBRANCH   4   5
ENDBRANCH   3   4
ENDBRANCH   2   3
ENDBRANCH   1   2
BRANCH   1  10
ATOM     10  C   UNL     1      62.444  25.200  24.919  1.00  0.00     0.000 C 
BRANCH  10  11
ATOM     11  C   UNL     1      61.504  24.576  25.966  1.00  0.00    -0.000 C 
BRANCH  11  12
ATOM     12  C   UNL     1      60.179  24.091  25.355  1.00  0.00    -0.000 C 
BRANCH  12  13
ATOM     13  C   UNL     1      59.839  22.644  25.746  1.00  0.00    -0.000 C 
BRANCH  13  14
ATOM     14  C   UNL     1      58.953  21.983  24.680  1.00  0.00    -0.000 C 
BRANCH  14  15
ATOM     15  C   UNL     1      57.758  22.860  24.275  1.00  0.00    -0.000 C 
BRANCH  15  16
ATOM     16  C   UNL     1      56.981  22.287  23.080  1.00  0.00    -0.003 C 
ATOM     17  C   UNL     1      57.451  20.875  22.744  1.00  0.00     0.004 C 
ENDBRANCH  15  16
ENDBRANCH  14  15
ENDBRANCH  13  14
ENDBRANCH  12  13
ENDBRANCH  11  12
ENDBRANCH  10  11
ENDBRANCH   1  10
TORSDOF 13
ENDMDL
MODEL 4
REMARK VINA RESULT:    -3.426      2.837      6.207
REMARK INTER + INTRA:          -7.965
REMARK INTER:                  -6.688
REMARK INTRA:                  -1.278
REMARK UNBOUND:                -1.936
REMARK SMILES CCCCCCCCCCCCCCC(=O)[O-]
REMARK SMILES IDX 9 1 10 2 11 3 12 4 13 5 14 6 15 7 16 8 17 9 8 10 7 11 6 12
REMARK SMILES IDX 5 13 4 14 3 15 2 16 1 17
REMARK H PARENT
REMARK Flexibility Score: inf
ROOT
ATOM      1  C   UNL     1      61.538  22.597  20.636  1.00  0.00     0.000 C 
ENDROOT
BRANCH   1   2
ATOM      2  C   UNL     1      62.864  22.051  20.079  1.00  0.00     0.000 C 
BRANCH   2   3
ATOM      3  C   UNL     1      64.092  22.754  20.681  1.00  0.00     0.000 C 
BRANCH   3   4
ATOM      4  C   UNL     1      63.864  23.211  22.130  1.00  0.00     0.000 C 
BRANCH   4   5
ATOM      5  C   UNL     1      64.125  24.717  22.277  1.00  0.00     0.006 C 
BRANCH   5   6
ATOM      6  C   UNL     1      62.857  25.492  22.664  1.00  0.00     0.053 C 
BRANCH   6   7
ATOM      7  C   UNL     1      62.765  25.703  24.144  1.00  0.00     0.041 C 
ATOM      8  O   UNL     1      63.606  26.431  24.733  1.00  0.00    -0.550 OA
ATOM      9  O   UNL     1      61.770  25.069  24.877  1.00  0.00    -0.550 OA
ENDBRANCH   6   7
ENDBRANCH   5   6
ENDBRANCH   4   5
ENDBRANCH   3   4
ENDBRANCH   2   3
ENDBRANCH   1   2
BRANCH   1  10
ATOM     10  C   UNL     1      60.452  21.513  20.745  1.00  0.00     0.000 C 
BRANCH  10  11
ATOM     11  C   UNL     1      60.264  21.009  22.187  1.00  0.00    -0.000 C 
BRANCH  11  12
ATOM     12  C   UNL     1      60.506  22.109  23.233  1.00  0.00    -0.000 C 
BRANCH  12  13
ATOM     13  C   UNL     1      59.450  22.111  24.350  1.00  0.00    -0.000 C 
BRANCH  13  14
ATOM     14  C   UNL     1      58.104  21.582  23.831  1.00  0.00    -0.000 C 
BRANCH  14  15
ATOM     15  C   UNL     1      57.025  22.674  23.765  1.00  0.00    -0.000 C 
BRANCH  15  16
ATOM     16  C   UNL     1      55.912  22.345  22.758  1.00  0.00    -0.003 C 
ATOM     17  C   UNL     1      54.596  22.049  23.471  1.00  0.00     0.004 C 
ENDBRANCH  15  16
ENDBRANCH  14  15
ENDBRANCH  13  14
ENDBRANCH  12  13
ENDBRANCH  11  12
ENDBRANCH  10  11
ENDBRANCH   1  10
TORSDOF 13
ENDMDL
MODEL 5
REMARK VINA RESULT:    -3.414      3.293      5.582
REMARK INTER + INTRA:          -7.945
REMARK INTER:                  -6.338
REMARK INTRA:                  -1.607
REMARK UNBOUND:                -1.936
REMARK SMILES CCCCCCCCCCCCCCC(=O)[O-]
REMARK SMILES IDX 9 1 10 2 11 3 12 4 13 5 14 6 15 7 16 8 17 9 8 10 7 11 6 12
REMARK SMILES IDX 5 13 4 14 3 15 2 16 1 17
REMARK H PARENT
REMARK Flexibility Score: inf
ROOT
ATOM      1  C   UNL     1      57.200  22.289  22.799  1.00  0.00     0.000 C 
ENDROOT
BRANCH   1   2
ATOM      2  C   UNL     1      57.807  20.875  22.739  1.00  0.00     0.000 C 
BRANCH   2   3
ATOM      3  C   UNL     1      59.266  20.878  22.254  1.00  0.00     0.000 C 
BRANCH   3   4
ATOM      4  C   UNL     1      59.716  22.252  21.735  1.00  0.00     0.000 C 
BRANCH   4   5
ATOM      5  C   UNL     1      60.620  22.102  20.502  1.00  0.00     0.006 C 
BRANCH   5   6
ATOM      6  C   UNL     1      62.038  22.636  20.752  1.00  0.00     0.053 C 
BRANCH   6   7
ATOM      7  C   UNL     1      63.062  21.876  19.967  1.00  0.00     0.041 C 
ATOM      8  O   UNL     1      62.963  21.787  18.715  1.00  0.00    -0.550 OA
ATOM      9  O   UNL     1      64.110  21.240  20.620  1.00  0.00    -0.550 OA
ENDBRANCH   6   7
ENDBRANCH   5   6
ENDBRANCH   4   5
ENDBRANCH   3   4
ENDBRANCH   2   3
ENDBRANCH   1   2
BRANCH   1  10
ATOM     10  C   UNL     1      56.968  22.770  24.241  1.00  0.00     0.000 C 
BRANCH  10  11
ATOM     11  C   UNL     1      58.119  23.648  24.763  1.00  0.00    -0.000 C 
BRANCH  11  12
ATOM     12  C   UNL     1      58.912  22.972  25.893  1.00  0.00    -0.000 C 
BRANCH  12  13
ATOM     13  C   UNL     1      60.365  22.662  25.498  1.00  0.00    -0.000 C 
BRANCH  13  14
ATOM     14  C   UNL     1      61.188  23.954  25.381  1.00  0.00    -0.000 C 
BRANCH  14  15
ATOM     15  C   UNL     1      61.958  24.047  24.054  1.00  0.00    -0.000 C 
BRANCH  15  16
ATOM     16  C   UNL     1      61.866  25.440  23.413  1.00  0.00    -0.003 C 
ATOM     17  C   UNL     1      63.193  26.185  23.524  1.00  0.00     0.004 C 
ENDBRANCH  15  16
ENDBRANCH  14  15
ENDBRANCH  13  14
ENDBRANCH  12  13
ENDBRANCH  11  12
ENDBRANCH  10  11
ENDBRANCH   1  10
TORSDOF 13
ENDMDL
MODEL 6
REMARK VINA RESULT:    -3.406      2.988      4.777
REMARK INTER + INTRA:          -7.931
REMARK INTER:                  -5.738
REMARK INTRA:                  -2.193
REMARK UNBOUND:                -1.936
REMARK SMILES CCCCCCCCCCCCCCC(=O)[O-]
REMARK SMILES IDX 9 1 10 2 11 3 12 4 13 5 14 6 15 7 16 8 17 9 8 10 7 11 6 12
REMARK SMILES IDX 5 13 4 14 3 15 2 16 1 17
REMARK H PARENT
REMARK Flexibility Score: inf
ROOT
ATOM      1  C   UNL     1      58.143  23.446  24.761  1.00  0.00     0.000 C 
ENDROOT
BRANCH   1   2
ATOM      2  C   UNL     1      57.589  22.333  23.853  1.00  0.00     0.000 C 
BRANCH   2   3
ATOM      3  C   UNL     1      58.119  22.426  22.413  1.00  0.00     0.000 C 
BRANCH   3   4
ATOM      4  C   UNL     1      59.350  21.537  22.175  1.00  0.00     0.000 C 
BRANCH   4   5
ATOM      5  C   UNL     1      60.456  22.316  21.450  1.00  0.00     0.006 C 
BRANCH   5   6
ATOM      6  C   UNL     1      61.563  21.395  20.916  1.00  0.00     0.053 C 
BRANCH   6   7
ATOM      7  C   UNL     1      62.366  22.059  19.840  1.00  0.00     0.041 C 
ATOM      8  O   UNL     1      63.574  22.350  20.039  1.00  0.00    -0.550 OA
ATOM      9  O   UNL     1      61.771  22.385  18.627  1.00  0.00    -0.550 OA
ENDBRANCH   6   7
ENDBRANCH   5   6
ENDBRANCH   4   5
ENDBRANCH   3   4
ENDBRANCH   2   3
ENDBRANCH   1   2
BRANCH   1  10
ATOM     10  C   UNL     1      58.980  22.894  25.927  1.00  0.00     0.000 C 
BRANCH  10  11
ATOM     11  C   UNL     1      60.492  23.090  25.714  1.00  0.00    -0.000 C 
BRANCH  11  12
ATOM     12  C   UNL     1      61.194  21.803  25.253  1.00  0.00    -0.000 C 
BRANCH  12  13
ATOM     13  C   UNL     1      62.542  22.075  24.565  1.00  0.00    -0.000 C 
BRANCH  13  14
ATOM     14  C   UNL     1      62.822  23.583  24.487  1.00  0.00    -0.000 C 
BRANCH  14  15
ATOM     15  C   UNL     1      63.484  23.994  23.162  1.00  0.00    -0.000 C 
BRANCH  15  16
ATOM     16  C   UNL     1      62.700  25.091  22.425  1.00  0.00    -0.003 C 
ATOM     17  C   UNL     1      61.493  25.547  23.240  1.00  0.00     0.004 C 
ENDBRANCH  15  16
ENDBRANCH  14  15
ENDBRANCH  13  14
ENDBRANCH  12  13
ENDBRANCH  11  12
ENDBRANCH  10  11
ENDBRANCH   1  10
TORSDOF 13
ENDMDL
MODEL 7
REMARK VINA RESULT:    -3.170      2.613      5.830
REMARK INTER + INTRA:          -7.514
REMARK INTER:                  -6.258
REMARK INTRA:                  -1.256
REMARK UNBOUND:                -1.936
REMARK SMILES CCCCCCCCCCCCCCC(=O)[O-]
REMARK SMILES IDX 9 1 10 2 11 3 12 4 13 5 14 6 15 7 16 8 17 9 8 10 7 11 6 12
REMARK SMILES IDX 5 13 4 14 3 15 2 16 1 17
REMARK H PARENT
REMARK Flexibility Score: inf
ROOT
ATOM      1  C   UNL     1      59.382  24.189  25.804  1.00  0.00     0.000 C 
ENDROOT
BRANCH   1   2
ATOM      2  C   UNL     1      60.792  24.307  25.197  1.00  0.00     0.000 C 
BRANCH   2   3
ATOM      3  C   UNL     1      60.778  24.907  23.782  1.00  0.00     0.000 C 
BRANCH   3   4
ATOM      4  C   UNL     1      62.132  25.510  23.378  1.00  0.00     0.000 C 
BRANCH   4   5
ATOM      5  C   UNL     1      62.854  24.607  22.368  1.00  0.00     0.006 C 
BRANCH   5   6
ATOM      6  C   UNL     1      62.212  23.216  22.267  1.00  0.00     0.053 C 
BRANCH   6   7
ATOM      7  C   UNL     1      62.188  22.716  20.856  1.00  0.00     0.041 C 
ATOM      8  O   UNL     1      61.091  22.530  20.268  1.00  0.00    -0.550 OA
ATOM      9  O   UNL     1      63.378  22.425  20.200  1.00  0.00    -0.550 OA
ENDBRANCH   6   7
ENDBRANCH   5   6
ENDBRANCH   4   5
ENDBRANCH   3   4
ENDBRANCH   2   3
ENDBRANCH   1   2
BRANCH   1  10
ATOM     10  C   UNL     1      58.846  22.748  25.775  1.00  0.00     0.000 C 
BRANCH  10  11
ATOM     11  C   UNL     1      59.932  21.721  25.405  1.00  0.00    -0.000 C 
BRANCH  11  12
ATOM     12  C   UNL     1      59.608  20.961  24.109  1.00  0.00    -0.000 C 
BRANCH  12  13
ATOM     13  C   UNL     1      58.846  21.822  23.089  1.00  0.00    -0.000 C 
BRANCH  13  14
ATOM     14  C   UNL     1      57.512  21.163  22.705  1.00  0.00    -0.000 C 
BRANCH  14  15
ATOM     15  C   UNL     1      56.309  22.095  22.919  1.00  0.00    -0.000 C 
BRANCH  15  16
ATOM     16  C   UNL     1      55.074  21.354  23.453  1.00  0.00    -0.003 C 
ATOM     17  C   UNL     1      53.957  22.331  23.808  1.00  0.00     0.004 C 
ENDBRANCH  15  16
ENDBRANCH  14  15
ENDBRANCH  13  14
ENDBRANCH  12  13
ENDBRANCH  11  12
ENDBRANCH  10  11
ENDBRANCH   1  10
TORSDOF 13
ENDMDL
MODEL 8
REMARK VINA RESULT:    -3.160      3.423      5.032
REMARK INTER + INTRA:          -7.497
REMARK INTER:                  -5.497
REMARK INTRA:                  -2.001
REMARK UNBOUND:                -1.936
REMARK SMILES CCCCCCCCCCCCCCC(=O)[O-]
REMARK SMILES IDX 9 1 10 2 11 3 12 4 13 5 14 6 15 7 16 8 17 9 8 10 7 11 6 12
REMARK SMILES IDX 5 13 4 14 3 15 2 16 1 17
REMARK H PARENT
REMARK Flexibility Score: inf
ROOT
ATOM      1  C   UNL     1      58.350  22.889  25.078  1.00  0.00     0.000 C 
ENDROOT
BRANCH   1   2
ATOM      2  C   UNL     1      59.166  24.180  24.882  1.00  0.00     0.000 C 
BRANCH   2   3
ATOM      3  C   UNL     1      60.623  24.035  25.350  1.00  0.00     0.000 C 
BRANCH   3   4
ATOM      4  C   UNL     1      61.049  22.569  25.522  1.00  0.00     0.000 C 
BRANCH   4   5
ATOM      5  C   UNL     1      62.578  22.447  25.582  1.00  0.00     0.006 C 
BRANCH   5   6
ATOM      6  C   UNL     1      63.118  21.404  24.592  1.00  0.00     0.053 C 
BRANCH   6   7
ATOM      7  C   UNL     1      63.677  22.044  23.360  1.00  0.00     0.041 C 
ATOM      8  O   UNL     1      63.851  23.291  23.317  1.00  0.00    -0.550 OA
ATOM      9  O   UNL     1      63.978  21.270  22.247  1.00  0.00    -0.550 OA
ENDBRANCH   6   7
ENDBRANCH   5   6
ENDBRANCH   4   5
ENDBRANCH   3   4
ENDBRANCH   2   3
ENDBRANCH   1   2
BRANCH   1  10
ATOM     10  C   UNL     1      57.229  22.735  24.037  1.00  0.00     0.000 C 
BRANCH  10  11
ATOM     11  C   UNL     1      57.742  22.188  22.693  1.00  0.00    -0.000 C 
BRANCH  11  12
ATOM     12  C   UNL     1      58.730  21.023  22.869  1.00  0.00    -0.000 C 
BRANCH  12  13
ATOM     13  C   UNL     1      60.052  21.246  22.116  1.00  0.00    -0.000 C 
BRANCH  13  14
ATOM     14  C   UNL     1      60.284  22.741  21.849  1.00  0.00    -0.000 C 
BRANCH  14  15
ATOM     15  C   UNL     1      61.381  22.991  20.802  1.00  0.00    -0.000 C 
BRANCH  15  16
ATOM     16  C   UNL     1      61.346  21.972  19.652  1.00  0.00    -0.003 C 
ATOM     17  C   UNL     1      62.662  21.969  18.880  1.00  0.00     0.004 C 
ENDBRANCH  15  16
ENDBRANCH  14  15
ENDBRANCH  13  14
ENDBRANCH  12  13
ENDBRANCH  11  12
ENDBRANCH  10  11
ENDBRANCH   1  10
TORSDOF 13
ENDMDL
MODEL 9
REMARK VINA RESULT:    -2.989      3.167      5.586
REMARK INTER + INTRA:          -7.196
REMARK INTER:                  -5.794
REMARK INTRA:                  -1.402
REMARK UNBOUND:                -1.936
REMARK SMILES CCCCCCCCCCCCCCC(=O)[O-]
REMARK SMILES IDX 9 1 10 2 11 3 12 4 13 5 14 6 15 7 16 8 17 9 8 10 7 11 6 12
REMARK SMILES IDX 5 13 4 14 3 15 2 16 1 17
REMARK H PARENT
REMARK Flexibility Score: inf
ROOT
ATOM      1  C   UNL     1      59.470  21.526  22.894  1.00  0.00     0.000 C 
ENDROOT
BRANCH   1   2
ATOM      2  C   UNL     1      59.714  22.344  21.613  1.00  0.00     0.000 C 
BRANCH   2   3
ATOM      3  C   UNL     1      60.377  21.515  20.500  1.00  0.00     0.000 C 
BRANCH   3   4
ATOM      4  C   UNL     1      61.293  22.357  19.599  1.00  0.00     0.000 C 
BRANCH   4   5
ATOM      5  C   UNL     1      62.692  21.729  19.502  1.00  0.00     0.006 C 
BRANCH   5   6
ATOM      6  C   UNL     1      63.141  21.102  20.829  1.00  0.00     0.053 C 
BRANCH   6   7
ATOM      7  C   UNL     1      63.722  22.123  21.758  1.00  0.00     0.041 C 
ATOM      8  O   UNL     1      64.125  23.229  21.311  1.00  0.00    -0.550 OA
ATOM      9  O   UNL     1      63.850  21.840  23.112  1.00  0.00    -0.550 OA
ENDBRANCH   6   7
ENDBRANCH   5   6
ENDBRANCH   4   5
ENDBRANCH   3   4
ENDBRANCH   2   3
ENDBRANCH   1   2
BRANCH   1  10
ATOM     10  C   UNL     1      58.571  22.261  23.902  1.00  0.00     0.000 C 
BRANCH  10  11
ATOM     11  C   UNL     1      59.262  22.482  25.259  1.00  0.00    -0.000 C 
BRANCH  11  12
ATOM     12  C   UNL     1      60.763  22.155  25.217  1.00  0.00    -0.000 C 
BRANCH  12  13
ATOM     13  C   UNL     1      61.647  23.381  25.498  1.00  0.00    -0.000 C 
BRANCH  13  14
ATOM     14  C   UNL     1      61.106  24.623  24.774  1.00  0.00    -0.000 C 
BRANCH  14  15
ATOM     15  C   UNL     1      61.573  24.708  23.313  1.00  0.00    -0.000 C 
BRANCH  15  16
ATOM     16  C   UNL     1      62.566  25.856  23.074  1.00  0.00    -0.003 C 
ATOM     17  C   UNL     1      63.688  25.837  24.108  1.00  0.00     0.004 C 
ENDBRANCH  15  16
ENDBRANCH  14  15
ENDBRANCH  13  14
ENDBRANCH  12  13
ENDBRANCH  11  12
ENDBRANCH  10  11
ENDBRANCH   1  10
TORSDOF 13
ENDMDL
