MODEL 1
REMARK VINA RESULT:    -2.910      0.000      0.000
REMARK INTER + INTRA:          -6.092
REMARK INTER:                  -4.611
REMARK INTRA:                  -1.481
REMARK UNBOUND:                -1.481
REMARK SMILES C[C@H]1O[C@H](O[C@H]2CC[C@]3(C)[C@@H](CC[C@@]4(C)[C@H]3C=C[C@@]35OC[C@]6(CCC(C)(C)C[C@@H]63)[C@H](O)C[C@@]45C)[C@@]2(C)CO)[C@H](O)[C@H](O[C@@H]2O[C@@H](CO)[C@@H](O)[C@H](O)[C@@H]2O)[C@H]1O
REMARK SMILES IDX 1 1 2 2 54 3 41 4 39 5 4 6 3 7 55 8 42 10 43 11 52 12 44 13
REMARK SMILES IDX 50 14 45 15 48 16 53 17 51 19 46 21 47 22 49 24 5 26 6 27
REMARK SMILES IDX 7 28 35 29 8 30 11 31 36 32 9 33 12 34 10 35 16 36 13 37
REMARK SMILES IDX 14 38 17 39 15 40 33 41 18 42 19 43 32 44 34 45 29 46 20 47
REMARK SMILES IDX 30 48 22 49 28 50 21 51 23 52 25 53 24 54 26 55 27 56 37 57
REMARK SMILES IDX 38 58 31 60 40 62
REMARK H PARENT 55 9 53 18 51 20 47 23 49 25 38 59 31 61 40 63
REMARK Flexibility Score: inf
ROOT
ATOM      1  C   UNL     1      71.416  56.010  13.260  1.00  0.00     0.041 C 
ATOM      2  C   UNL     1      71.433  56.673  14.642  1.00  0.00     0.150 C 
ATOM      3  C   UNL     1      70.844  58.102  14.562  1.00  0.00     0.175 C 
ATOM      4  C   UNL     1      70.844  58.748  15.956  1.00  0.00     0.186 C 
ATOM      5  C   UNL     1      72.254  58.635  16.559  1.00  0.00     0.202 C 
ATOM      6  C   UNL     1      72.824  57.193  16.475  1.00  0.00     0.282 C 
ATOM      7  O   UNL     1      72.765  56.715  15.133  1.00  0.00    -0.344 OA
ENDROOT
BRANCH   3   8
ATOM      8  O   UNL     1      71.606  58.909  13.697  1.00  0.00    -0.388 OA
ATOM      9  H   UNL     1      72.015  59.628  14.246  1.00  0.00     0.211 HD
ENDBRANCH   3   8
BRANCH   4  10
ATOM     10  O   UNL     1      69.887  58.111  16.792  1.00  0.00    -0.341 OA
BRANCH  10  11
ATOM     11  C   UNL     1      69.100  59.056  17.516  1.00  0.00     0.282 C 
ATOM     12  C   UNL     1      67.589  58.730  17.418  1.00  0.00     0.202 C 
ATOM     13  O   UNL     1      69.523  59.125  18.873  1.00  0.00    -0.341 OA
ATOM     14  C   UNL     1      67.208  57.476  18.232  1.00  0.00     0.179 C 
ATOM     15  C   UNL     1      69.294  57.904  19.562  1.00  0.00     0.178 C 
ATOM     16  C   UNL     1      67.779  57.603  19.654  1.00  0.00     0.177 C 
BRANCH  12  17
ATOM     17  O   UNL     1      67.147  58.648  16.086  1.00  0.00    -0.385 OA
ATOM     18  H   UNL     1      66.229  59.018  16.048  1.00  0.00     0.211 HD
ENDBRANCH  12  17
BRANCH  14  19
ATOM     19  O   UNL     1      67.711  56.308  17.631  1.00  0.00    -0.387 OA
ATOM     20  H   UNL     1      67.578  55.569  18.278  1.00  0.00     0.211 HD
ENDBRANCH  14  19
BRANCH  15  21
ATOM     21  C   UNL     1      69.942  57.981  20.950  1.00  0.00     0.191 C 
BRANCH  21  22
ATOM     22  O   UNL     1      69.374  59.033  21.691  1.00  0.00    -0.394 OA
ATOM     23  H   UNL     1      68.689  59.454  21.114  1.00  0.00     0.210 HD
ENDBRANCH  21  22
ENDBRANCH  15  21
BRANCH  16  24
ATOM     24  O   UNL     1      67.126  58.647  20.326  1.00  0.00    -0.387 OA
ATOM     25  H   UNL     1      66.571  58.241  21.044  1.00  0.00     0.211 HD
ENDBRANCH  16  24
ENDBRANCH  10  11
ENDBRANCH   4  10
BRANCH   6  26
ATOM     26  O   UNL     1      72.169  56.278  17.349  1.00  0.00    -0.346 OA
BRANCH  26  27
ATOM     27  C   UNL     1      72.923  55.980  18.525  1.00  0.00     0.130 C 
ATOM     28  C   UNL     1      72.788  57.171  19.492  1.00  0.00     0.033 C 
ATOM     29  C   UNL     1      72.484  54.634  19.187  1.00  0.00     0.020 C 
ATOM     30  C   UNL     1      73.055  56.842  20.967  1.00  0.00     0.010 C 
ATOM     31  C   UNL     1      73.501  54.333  20.374  1.00  0.00     0.006 C 
ATOM     32  C   UNL     1      72.614  53.513  18.114  1.00  0.00     0.017 C 
ATOM     33  C   UNL     1      73.974  55.604  21.228  1.00  0.00    -0.022 C 
ATOM     34  C   UNL     1      73.070  53.133  21.258  1.00  0.00     0.005 C 
ATOM     35  C   UNL     1      75.423  56.015  20.809  1.00  0.00     0.012 C 
ATOM     36  C   UNL     1      73.872  55.306  22.783  1.00  0.00     0.024 C 
ATOM     37  C   UNL     1      74.150  52.799  22.304  1.00  0.00     0.008 C 
ATOM     38  C   UNL     1      74.436  53.951  23.337  1.00  0.00    -0.017 C 
ATOM     39  C   UNL     1      74.311  56.433  23.697  1.00  0.00    -0.024 C 
ATOM     40  C   UNL     1      75.998  54.059  23.456  1.00  0.00     0.013 C 
ATOM     41  C   UNL     1      73.775  53.693  24.817  1.00  0.00     0.009 C 
ATOM     42  C   UNL     1      74.227  56.268  25.021  1.00  0.00     0.005 C 
ATOM     43  C   UNL     1      73.495  55.083  25.611  1.00  0.00     0.096 C 
ATOM     44  C   UNL     1      72.442  52.869  24.763  1.00  0.00     0.043 C 
ATOM     45  C   UNL     1      74.744  52.782  25.649  1.00  0.00     0.015 C 
ATOM     46  C   UNL     1      72.012  55.494  25.786  1.00  0.00     0.037 C 
ATOM     47  O   UNL     1      73.916  54.915  26.958  1.00  0.00    -0.369 OA
ATOM     48  C   UNL     1      71.494  53.017  25.994  1.00  0.00     0.124 C 
ATOM     49  C   UNL     1      71.572  54.416  26.723  1.00  0.00     0.026 C 
ATOM     50  C   UNL     1      71.003  55.796  24.655  1.00  0.00     0.014 C 
ATOM     51  C   UNL     1      72.775  54.482  27.694  1.00  0.00     0.171 C 
ATOM     52  C   UNL     1      70.222  54.822  27.373  1.00  0.00     0.013 C 
ATOM     53  C   UNL     1      69.607  56.188  25.230  1.00  0.00    -0.035 C 
ATOM     54  C   UNL     1      69.139  55.171  26.320  1.00  0.00     0.007 C 
ATOM     55  C   UNL     1      69.632  57.619  25.813  1.00  0.00     0.011 C 
ATOM     56  C   UNL     1      68.587  56.174  24.068  1.00  0.00     0.011 C 
BRANCH  29  57
ATOM     57  C   UNL     1      70.996  54.651  19.678  1.00  0.00     0.165 C 
BRANCH  57  58
ATOM     58  O   UNL     1      70.066  54.635  18.627  1.00  0.00    -0.396 OA
ATOM     59  H   UNL     1      69.444  55.391  18.786  1.00  0.00     0.210 HD
ENDBRANCH  57  58
ENDBRANCH  29  57
BRANCH  48  60
ATOM     60  O   UNL     1      71.724  51.962  26.893  1.00  0.00    -0.392 OA
ATOM     61  H   UNL     1      72.506  51.455  26.554  1.00  0.00     0.210 HD
ENDBRANCH  48  60
ENDBRANCH  26  27
ENDBRANCH   6  26
BRANCH   5  62
ATOM     62  O   UNL     1      72.250  59.125  17.874  1.00  0.00    -0.385 OA
ATOM     63  H   UNL     1      72.590  58.397  18.457  1.00  0.00     0.211 HD
ENDBRANCH   5  62
TORSDOF 14
ENDMDL
MODEL 2
REMARK VINA RESULT:    -2.702      2.079      4.693
REMARK INTER + INTRA:          -5.763
REMARK INTER:                  -6.329
REMARK INTRA:                   0.566
REMARK UNBOUND:                -1.481
REMARK SMILES C[C@H]1O[C@H](O[C@H]2CC[C@]3(C)[C@@H](CC[C@@]4(C)[C@H]3C=C[C@@]35OC[C@]6(CCC(C)(C)C[C@@H]63)[C@H](O)C[C@@]45C)[C@@]2(C)CO)[C@H](O)[C@H](O[C@@H]2O[C@@H](CO)[C@@H](O)[C@H](O)[C@@H]2O)[C@H]1O
REMARK SMILES IDX 1 1 2 2 54 3 41 4 39 5 4 6 3 7 55 8 42 10 43 11 52 12 44 13
REMARK SMILES IDX 50 14 45 15 48 16 53 17 51 19 46 21 47 22 49 24 5 26 6 27
REMARK SMILES IDX 7 28 35 29 8 30 11 31 36 32 9 33 12 34 10 35 16 36 13 37
REMARK SMILES IDX 14 38 17 39 15 40 33 41 18 42 19 43 32 44 34 45 29 46 20 47
REMARK SMILES IDX 30 48 22 49 28 50 21 51 23 52 25 53 24 54 26 55 27 56 37 57
REMARK SMILES IDX 38 58 31 60 40 62
REMARK H PARENT 55 9 53 18 51 20 47 23 49 25 38 59 31 61 40 63
REMARK Flexibility Score: inf
ROOT
ATOM      1  C   UNL     1      73.487  58.809  14.290  1.00  0.00     0.041 C 
ATOM      2  C   UNL     1      72.676  58.134  15.402  1.00  0.00     0.150 C 
ATOM      3  C   UNL     1      71.777  57.019  14.813  1.00  0.00     0.175 C 
ATOM      4  C   UNL     1      70.987  56.334  15.938  1.00  0.00     0.186 C 
ATOM      5  C   UNL     1      70.267  57.409  16.769  1.00  0.00     0.202 C 
ATOM      6  C   UNL     1      71.214  58.560  17.203  1.00  0.00     0.282 C 
ATOM      7  O   UNL     1      71.884  59.105  16.069  1.00  0.00    -0.344 OA
ENDROOT
BRANCH   3   8
ATOM      8  O   UNL     1      70.863  57.551  13.886  1.00  0.00    -0.388 OA
ATOM      9  H   UNL     1      70.865  58.537  14.001  1.00  0.00     0.211 HD
ENDBRANCH   3   8
BRANCH   4  10
ATOM     10  O   UNL     1      71.862  55.568  16.756  1.00  0.00    -0.341 OA
BRANCH  10  11
ATOM     11  C   UNL     1      71.831  54.183  16.416  1.00  0.00     0.282 C 
ATOM     12  C   UNL     1      72.771  53.353  17.326  1.00  0.00     0.202 C 
ATOM     13  O   UNL     1      70.499  53.684  16.464  1.00  0.00    -0.341 OA
ATOM     14  C   UNL     1      72.228  53.226  18.765  1.00  0.00     0.179 C 
ATOM     15  C   UNL     1      69.970  53.715  17.782  1.00  0.00     0.178 C 
ATOM     16  C   UNL     1      70.762  52.765  18.714  1.00  0.00     0.177 C 
BRANCH  12  17
ATOM     17  O   UNL     1      74.093  53.831  17.303  1.00  0.00    -0.385 OA
ATOM     18  H   UNL     1      74.343  54.078  18.229  1.00  0.00     0.211 HD
ENDBRANCH  12  17
BRANCH  14  19
ATOM     19  O   UNL     1      72.306  54.453  19.448  1.00  0.00    -0.387 OA
ATOM     20  H   UNL     1      71.608  54.438  20.152  1.00  0.00     0.211 HD
ENDBRANCH  14  19
BRANCH  15  21
ATOM     21  C   UNL     1      68.481  53.349  17.735  1.00  0.00     0.191 C 
BRANCH  21  22
ATOM     22  O   UNL     1      68.084  52.781  18.958  1.00  0.00    -0.394 OA
ATOM     23  H   UNL     1      68.826  52.923  19.597  1.00  0.00     0.210 HD
ENDBRANCH  21  22
ENDBRANCH  15  21
BRANCH  16  24
ATOM     24  O   UNL     1      70.703  51.454  18.218  1.00  0.00    -0.387 OA
ATOM     25  H   UNL     1      71.322  50.899  18.764  1.00  0.00     0.211 HD
ENDBRANCH  16  24
ENDBRANCH  10  11
ENDBRANCH   4  10
BRANCH   6  26
ATOM     26  O   UNL     1      72.165  58.163  18.188  1.00  0.00    -0.346 OA
BRANCH  26  27
ATOM     27  C   UNL     1      71.675  58.276  19.525  1.00  0.00     0.130 C 
ATOM     28  C   UNL     1      70.534  57.258  19.702  1.00  0.00     0.033 C 
ATOM     29  C   UNL     1      72.804  58.082  20.589  1.00  0.00     0.020 C 
ATOM     30  C   UNL     1      70.249  56.848  21.153  1.00  0.00     0.010 C 
ATOM     31  C   UNL     1      72.172  58.398  22.016  1.00  0.00     0.006 C 
ATOM     32  C   UNL     1      73.922  59.125  20.290  1.00  0.00     0.017 C 
ATOM     33  C   UNL     1      70.671  57.886  22.244  1.00  0.00    -0.022 C 
ATOM     34  C   UNL     1      73.120  58.046  23.194  1.00  0.00     0.005 C 
ATOM     35  C   UNL     1      69.679  59.091  22.136  1.00  0.00     0.012 C 
ATOM     36  C   UNL     1      70.538  57.135  23.635  1.00  0.00     0.024 C 
ATOM     37  C   UNL     1      72.520  58.494  24.540  1.00  0.00     0.008 C 
ATOM     38  C   UNL     1      71.164  57.789  24.917  1.00  0.00    -0.017 C 
ATOM     39  C   UNL     1      69.153  56.619  23.972  1.00  0.00    -0.024 C 
ATOM     40  C   UNL     1      70.206  58.920  25.432  1.00  0.00     0.013 C 
ATOM     41  C   UNL     1      71.320  56.620  26.058  1.00  0.00     0.009 C 
ATOM     42  C   UNL     1      68.968  55.949  25.114  1.00  0.00     0.005 C 
ATOM     43  C   UNL     1      70.145  55.503  25.952  1.00  0.00     0.096 C 
ATOM     44  C   UNL     1      72.709  55.892  26.012  1.00  0.00     0.043 C 
ATOM     45  C   UNL     1      71.299  57.294  27.475  1.00  0.00     0.015 C 
ATOM     46  C   UNL     1      70.565  54.099  25.451  1.00  0.00     0.037 C 
ATOM     47  O   UNL     1      69.684  55.220  27.267  1.00  0.00    -0.369 OA
ATOM     48  C   UNL     1      72.763  54.477  26.666  1.00  0.00     0.124 C 
ATOM     49  C   UNL     1      71.405  53.671  26.611  1.00  0.00     0.026 C 
ATOM     50  C   UNL     1      71.177  53.762  24.072  1.00  0.00     0.014 C 
ATOM     51  C   UNL     1      70.440  54.110  27.738  1.00  0.00     0.171 C 
ATOM     52  C   UNL     1      71.629  52.137  26.541  1.00  0.00     0.013 C 
ATOM     53  C   UNL     1      71.457  52.233  23.935  1.00  0.00    -0.035 C 
ATOM     54  C   UNL     1      72.221  51.685  25.182  1.00  0.00     0.007 C 
ATOM     55  C   UNL     1      70.142  51.448  23.727  1.00  0.00     0.011 C 
ATOM     56  C   UNL     1      72.334  52.016  22.680  1.00  0.00     0.011 C 
BRANCH  29  57
ATOM     57  C   UNL     1      73.456  56.658  20.536  1.00  0.00     0.165 C 
BRANCH  57  58
ATOM     58  O   UNL     1      74.188  56.428  19.361  1.00  0.00    -0.396 OA
ATOM     59  H   UNL     1      73.705  56.893  18.630  1.00  0.00     0.210 HD
ENDBRANCH  57  58
ENDBRANCH  29  57
BRANCH  48  60
ATOM     60  O   UNL     1      73.235  54.587  27.985  1.00  0.00    -0.392 OA
ATOM     61  H   UNL     1      73.191  53.682  28.388  1.00  0.00     0.210 HD
ENDBRANCH  48  60
ENDBRANCH  26  27
ENDBRANCH   6  26
BRANCH   5  62
ATOM     62  O   UNL     1      69.624  56.812  17.865  1.00  0.00    -0.385 OA
ATOM     63  H   UNL     1      68.942  57.457  18.189  1.00  0.00     0.211 HD
ENDBRANCH   5  62
TORSDOF 14
ENDMDL
MODEL 3
REMARK VINA RESULT:    -2.000      2.331      5.510
REMARK INTER + INTRA:          -4.651
REMARK INTER:                  -4.341
REMARK INTRA:                  -0.309
REMARK UNBOUND:                -1.481
REMARK SMILES C[C@H]1O[C@H](O[C@H]2CC[C@]3(C)[C@@H](CC[C@@]4(C)[C@H]3C=C[C@@]35OC[C@]6(CCC(C)(C)C[C@@H]63)[C@H](O)C[C@@]45C)[C@@]2(C)CO)[C@H](O)[C@H](O[C@@H]2O[C@@H](CO)[C@@H](O)[C@H](O)[C@@H]2O)[C@H]1O
REMARK SMILES IDX 1 1 2 2 54 3 41 4 39 5 4 6 3 7 55 8 42 10 43 11 52 12 44 13
REMARK SMILES IDX 50 14 45 15 48 16 53 17 51 19 46 21 47 22 49 24 5 26 6 27
REMARK SMILES IDX 7 28 35 29 8 30 11 31 36 32 9 33 12 34 10 35 16 36 13 37
REMARK SMILES IDX 14 38 17 39 15 40 33 41 18 42 19 43 32 44 34 45 29 46 20 47
REMARK SMILES IDX 30 48 22 49 28 50 21 51 23 52 25 53 24 54 26 55 27 56 37 57
REMARK SMILES IDX 38 58 31 60 40 62
REMARK H PARENT 55 9 53 18 51 20 47 23 49 25 38 59 31 61 40 63
REMARK Flexibility Score: inf
ROOT
ATOM      1  C   UNL     1      72.389  58.195  13.916  1.00  0.00     0.041 C 
ATOM      2  C   UNL     1      72.171  57.266  15.115  1.00  0.00     0.150 C 
ATOM      3  C   UNL     1      72.492  55.802  14.729  1.00  0.00     0.175 C 
ATOM      4  C   UNL     1      72.293  54.884  15.944  1.00  0.00     0.186 C 
ATOM      5  C   UNL     1      70.895  55.132  16.534  1.00  0.00     0.202 C 
ATOM      6  C   UNL     1      70.604  56.639  16.763  1.00  0.00     0.282 C 
ATOM      7  O   UNL     1      70.827  57.375  15.563  1.00  0.00    -0.344 OA
ENDROOT
BRANCH   3   8
ATOM      8  O   UNL     1      71.647  55.361  13.694  1.00  0.00    -0.388 OA
ATOM      9  H   UNL     1      71.599  54.371  13.752  1.00  0.00     0.211 HD
ENDBRANCH   3   8
BRANCH   4  10
ATOM     10  O   UNL     1      73.301  55.131  16.916  1.00  0.00    -0.341 OA
BRANCH  10  11
ATOM     11  C   UNL     1      74.000  53.939  17.272  1.00  0.00     0.282 C 
ATOM     12  C   UNL     1      75.502  54.218  17.531  1.00  0.00     0.202 C 
ATOM     13  O   UNL     1      73.392  53.318  18.399  1.00  0.00    -0.341 OA
ATOM     14  C   UNL     1      75.733  54.995  18.844  1.00  0.00     0.179 C 
ATOM     15  C   UNL     1      73.492  54.123  19.565  1.00  0.00     0.178 C 
ATOM     16  C   UNL     1      74.971  54.300  19.985  1.00  0.00     0.177 C 
BRANCH  12  17
ATOM     17  O   UNL     1      76.125  54.840  16.435  1.00  0.00    -0.385 OA
ATOM     18  H   UNL     1      75.672  54.527  15.611  1.00  0.00     0.211 HD
ENDBRANCH  12  17
BRANCH  14  19
ATOM     19  O   UNL     1      75.290  56.326  18.733  1.00  0.00    -0.387 OA
ATOM     20  H   UNL     1      74.953  56.594  19.625  1.00  0.00     0.211 HD
ENDBRANCH  14  19
BRANCH  15  21
ATOM     21  C   UNL     1      72.657  53.490  20.685  1.00  0.00     0.191 C 
BRANCH  21  22
ATOM     22  O   UNL     1      71.467  52.956  20.158  1.00  0.00    -0.394 OA
ATOM     23  H   UNL     1      70.733  53.556  20.438  1.00  0.00     0.210 HD
ENDBRANCH  21  22
ENDBRANCH  15  21
BRANCH  16  24
ATOM     24  O   UNL     1      75.548  53.045  20.233  1.00  0.00    -0.387 OA
ATOM     25  H   UNL     1      74.848  52.357  20.077  1.00  0.00     0.211 HD
ENDBRANCH  16  24
ENDBRANCH  10  11
ENDBRANCH   4  10
BRANCH   6  26
ATOM     26  O   UNL     1      71.363  57.202  17.829  1.00  0.00    -0.346 OA
BRANCH  26  27
ATOM     27  C   UNL     1      70.608  57.384  19.028  1.00  0.00     0.130 C 
ATOM     28  C   UNL     1      69.850  56.076  19.317  1.00  0.00     0.033 C 
ATOM     29  C   UNL     1      71.502  57.823  20.233  1.00  0.00     0.020 C 
ATOM     30  C   UNL     1      69.431  55.878  20.781  1.00  0.00     0.010 C 
ATOM     31  C   UNL     1      70.531  58.156  21.450  1.00  0.00     0.006 C 
ATOM     32  C   UNL     1      72.254  59.122  19.817  1.00  0.00     0.017 C 
ATOM     33  C   UNL     1      69.265  57.188  21.619  1.00  0.00    -0.022 C 
ATOM     34  C   UNL     1      71.286  58.407  22.782  1.00  0.00     0.005 C 
ATOM     35  C   UNL     1      67.977  57.904  21.096  1.00  0.00     0.012 C 
ATOM     36  C   UNL     1      69.110  56.724  23.127  1.00  0.00     0.024 C 
ATOM     37  C   UNL     1      70.317  58.857  23.892  1.00  0.00     0.008 C 
ATOM     38  C   UNL     1      69.219  57.794  24.269  1.00  0.00    -0.017 C 
ATOM     39  C   UNL     1      67.931  55.814  23.416  1.00  0.00    -0.024 C 
ATOM     40  C   UNL     1      67.862  58.576  24.367  1.00  0.00     0.013 C 
ATOM     41  C   UNL     1      69.518  57.005  25.678  1.00  0.00     0.009 C 
ATOM     42  C   UNL     1      67.751  55.356  24.659  1.00  0.00     0.005 C 
ATOM     43  C   UNL     1      68.818  55.540  25.716  1.00  0.00     0.096 C 
ATOM     44  C   UNL     1      71.048  56.838  25.980  1.00  0.00     0.043 C 
ATOM     45  C   UNL     1      68.996  57.885  26.867  1.00  0.00     0.015 C 
ATOM     46  C   UNL     1      69.764  54.317  25.637  1.00  0.00     0.037 C 
ATOM     47  O   UNL     1      68.222  55.368  26.996  1.00  0.00    -0.369 OA
ATOM     48  C   UNL     1      71.429  55.693  26.970  1.00  0.00     0.124 C 
ATOM     49  C   UNL     1      70.449  54.455  26.958  1.00  0.00     0.026 C 
ATOM     50  C   UNL     1      70.715  53.966  24.469  1.00  0.00     0.014 C 
ATOM     51  C   UNL     1      69.190  54.721  27.816  1.00  0.00     0.171 C 
ATOM     52  C   UNL     1      71.171  53.125  27.302  1.00  0.00     0.013 C 
ATOM     53  C   UNL     1      71.499  52.648  24.753  1.00  0.00    -0.035 C 
ATOM     54  C   UNL     1      72.136  52.666  26.180  1.00  0.00     0.007 C 
ATOM     55  C   UNL     1      70.583  51.413  24.594  1.00  0.00     0.011 C 
ATOM     56  C   UNL     1      72.631  52.527  23.706  1.00  0.00     0.011 C 
BRANCH  29  57
ATOM     57  C   UNL     1      72.580  56.752  20.616  1.00  0.00     0.165 C 
BRANCH  57  58
ATOM     58  O   UNL     1      73.841  57.306  20.879  1.00  0.00    -0.396 OA
ATOM     59  H   UNL     1      74.497  56.786  20.347  1.00  0.00     0.210 HD
ENDBRANCH  57  58
ENDBRANCH  29  57
BRANCH  48  60
ATOM     60  O   UNL     1      71.567  56.220  28.265  1.00  0.00    -0.392 OA
ATOM     61  H   UNL     1      70.703  56.078  28.732  1.00  0.00     0.210 HD
ENDBRANCH  48  60
ENDBRANCH  26  27
ENDBRANCH   6  26
BRANCH   5  62
ATOM     62  O   UNL     1      70.733  54.378  17.708  1.00  0.00    -0.385 OA
ATOM     63  H   UNL     1      70.562  53.441  17.431  1.00  0.00     0.211 HD
ENDBRANCH   5  62
TORSDOF 14
ENDMDL
MODEL 4
REMARK VINA RESULT:    -1.667      2.697      8.273
REMARK INTER + INTRA:          -4.122
REMARK INTER:                  -3.971
REMARK INTRA:                  -0.151
REMARK UNBOUND:                -1.481
REMARK SMILES C[C@H]1O[C@H](O[C@H]2CC[C@]3(C)[C@@H](CC[C@@]4(C)[C@H]3C=C[C@@]35OC[C@]6(CCC(C)(C)C[C@@H]63)[C@H](O)C[C@@]45C)[C@@]2(C)CO)[C@H](O)[C@H](O[C@@H]2O[C@@H](CO)[C@@H](O)[C@H](O)[C@@H]2O)[C@H]1O
REMARK SMILES IDX 1 1 2 2 54 3 41 4 39 5 4 6 3 7 55 8 42 10 43 11 52 12 44 13
REMARK SMILES IDX 50 14 45 15 48 16 53 17 51 19 46 21 47 22 49 24 5 26 6 27
REMARK SMILES IDX 7 28 35 29 8 30 11 31 36 32 9 33 12 34 10 35 16 36 13 37
REMARK SMILES IDX 14 38 17 39 15 40 33 41 18 42 19 43 32 44 34 45 29 46 20 47
REMARK SMILES IDX 30 48 22 49 28 50 21 51 23 52 25 53 24 54 26 55 27 56 37 57
REMARK SMILES IDX 38 58 31 60 40 62
REMARK H PARENT 55 9 53 18 51 20 47 23 49 25 38 59 31 61 40 63
REMARK Flexibility Score: inf
ROOT
ATOM      1  C   UNL     1      63.896  55.632  25.529  1.00  0.00     0.041 C 
ATOM      2  C   UNL     1      65.167  56.320  25.020  1.00  0.00     0.150 C 
ATOM      3  C   UNL     1      65.777  57.214  26.128  1.00  0.00     0.175 C 
ATOM      4  C   UNL     1      67.062  57.880  25.615  1.00  0.00     0.186 C 
ATOM      5  C   UNL     1      66.765  58.578  24.278  1.00  0.00     0.202 C 
ATOM      6  C   UNL     1      66.029  57.650  23.273  1.00  0.00     0.282 C 
ATOM      7  O   UNL     1      64.860  57.099  23.872  1.00  0.00    -0.344 OA
ENDROOT
BRANCH   3   8
ATOM      8  O   UNL     1      64.875  58.222  26.511  1.00  0.00    -0.388 OA
ATOM      9  H   UNL     1      64.291  57.844  27.219  1.00  0.00     0.211 HD
ENDBRANCH   3   8
BRANCH   4  10
ATOM     10  O   UNL     1      68.090  56.909  25.459  1.00  0.00    -0.341 OA
BRANCH  10  11
ATOM     11  C   UNL     1      68.963  56.872  26.587  1.00  0.00     0.282 C 
ATOM     12  C   UNL     1      69.345  55.418  26.961  1.00  0.00     0.202 C 
ATOM     13  O   UNL     1      70.123  57.661  26.348  1.00  0.00    -0.341 OA
ATOM     14  C   UNL     1      70.304  54.782  25.934  1.00  0.00     0.179 C 
ATOM     15  C   UNL     1      70.917  57.132  25.295  1.00  0.00     0.178 C 
ATOM     16  C   UNL     1      71.479  55.741  25.678  1.00  0.00     0.177 C 
BRANCH  12  17
ATOM     17  O   UNL     1      68.215  54.614  27.194  1.00  0.00    -0.385 OA
ATOM     18  H   UNL     1      68.123  53.991  26.429  1.00  0.00     0.211 HD
ENDBRANCH  12  17
BRANCH  14  19
ATOM     19  O   UNL     1      69.647  54.518  24.719  1.00  0.00    -0.387 OA
ATOM     20  H   UNL     1      70.120  53.759  24.293  1.00  0.00     0.211 HD
ENDBRANCH  14  19
BRANCH  15  21
ATOM     21  C   UNL     1      72.038  58.125  24.964  1.00  0.00     0.191 C 
BRANCH  21  22
ATOM     22  O   UNL     1      72.439  58.806  26.127  1.00  0.00    -0.394 OA
ATOM     23  H   UNL     1      72.509  59.764  25.890  1.00  0.00     0.210 HD
ENDBRANCH  21  22
ENDBRANCH  15  21
BRANCH  16  24
ATOM     24  O   UNL     1      72.256  55.846  26.841  1.00  0.00    -0.387 OA
ATOM     25  H   UNL     1      71.640  55.797  27.620  1.00  0.00     0.211 HD
ENDBRANCH  16  24
ENDBRANCH  10  11
ENDBRANCH   4  10
BRANCH   6  26
ATOM     26  O   UNL     1      66.855  56.607  22.764  1.00  0.00    -0.346 OA
BRANCH  26  27
ATOM     27  C   UNL     1      67.792  57.054  21.781  1.00  0.00     0.130 C 
ATOM     28  C   UNL     1      69.081  57.474  22.509  1.00  0.00     0.033 C 
ATOM     29  C   UNL     1      68.061  55.975  20.683  1.00  0.00     0.020 C 
ATOM     30  C   UNL     1      70.347  57.467  21.641  1.00  0.00     0.010 C 
ATOM     31  C   UNL     1      68.976  56.649  19.568  1.00  0.00     0.006 C 
ATOM     32  C   UNL     1      66.692  55.590  20.048  1.00  0.00     0.017 C 
ATOM     33  C   UNL     1      70.114  57.642  20.104  1.00  0.00    -0.022 C 
ATOM     34  C   UNL     1      69.500  55.637  18.515  1.00  0.00     0.005 C 
ATOM     35  C   UNL     1      69.674  59.125  19.875  1.00  0.00     0.012 C 
ATOM     36  C   UNL     1      71.506  57.326  19.413  1.00  0.00     0.024 C 
ATOM     37  C   UNL     1      70.264  56.356  17.387  1.00  0.00     0.008 C 
ATOM     38  C   UNL     1      71.557  57.120  17.859  1.00  0.00    -0.017 C 
ATOM     39  C   UNL     1      72.662  58.216  19.829  1.00  0.00    -0.024 C 
ATOM     40  C   UNL     1      71.522  58.523  17.156  1.00  0.00     0.013 C 
ATOM     41  C   UNL     1      72.955  56.342  17.495  1.00  0.00     0.009 C 
ATOM     42  C   UNL     1      73.874  57.993  19.312  1.00  0.00     0.005 C 
ATOM     43  C   UNL     1      74.158  56.742  18.510  1.00  0.00     0.096 C 
ATOM     44  C   UNL     1      72.809  54.780  17.483  1.00  0.00     0.043 C 
ATOM     45  C   UNL     1      73.355  56.691  16.018  1.00  0.00     0.015 C 
ATOM     46  C   UNL     1      74.620  55.649  19.504  1.00  0.00     0.037 C 
ATOM     47  O   UNL     1      75.335  56.956  17.740  1.00  0.00    -0.369 OA
ATOM     48  C   UNL     1      74.128  53.967  17.667  1.00  0.00     0.124 C 
ATOM     49  C   UNL     1      75.232  54.687  18.538  1.00  0.00     0.026 C 
ATOM     50  C   UNL     1      73.757  54.979  20.598  1.00  0.00     0.014 C 
ATOM     51  C   UNL     1      76.031  55.714  17.702  1.00  0.00     0.171 C 
ATOM     52  C   UNL     1      76.125  53.681  19.312  1.00  0.00     0.013 C 
ATOM     53  C   UNL     1      74.581  53.931  21.408  1.00  0.00    -0.035 C 
ATOM     54  C   UNL     1      75.359  52.967  20.455  1.00  0.00     0.007 C 
ATOM     55  C   UNL     1      75.562  54.628  22.377  1.00  0.00     0.011 C 
ATOM     56  C   UNL     1      73.595  53.098  22.259  1.00  0.00     0.011 C 
BRANCH  29  57
ATOM     57  C   UNL     1      68.703  54.665  21.258  1.00  0.00     0.165 C 
BRANCH  57  58
ATOM     58  O   UNL     1      68.129  53.495  20.740  1.00  0.00    -0.396 OA
ATOM     59  H   UNL     1      67.549  53.772  19.984  1.00  0.00     0.210 HD
ENDBRANCH  57  58
ENDBRANCH  29  57
BRANCH  48  60
ATOM     60  O   UNL     1      74.632  53.600  16.408  1.00  0.00    -0.392 OA
ATOM     61  H   UNL     1      75.556  53.956  16.349  1.00  0.00     0.210 HD
ENDBRANCH  48  60
ENDBRANCH  26  27
ENDBRANCH   6  26
BRANCH   5  62
ATOM     62  O   UNL     1      67.951  59.103  23.741  1.00  0.00    -0.385 OA
ATOM     63  H   UNL     1      68.621  58.371  23.743  1.00  0.00     0.211 HD
ENDBRANCH   5  62
TORSDOF 14
ENDMDL
MODEL 5
REMARK VINA RESULT:    -1.572      2.174      5.106
REMARK INTER + INTRA:          -3.973
REMARK INTER:                  -6.528
REMARK INTRA:                   2.555
REMARK UNBOUND:                -1.481
REMARK SMILES C[C@H]1O[C@H](O[C@H]2CC[C@]3(C)[C@@H](CC[C@@]4(C)[C@H]3C=C[C@@]35OC[C@]6(CCC(C)(C)C[C@@H]63)[C@H](O)C[C@@]45C)[C@@]2(C)CO)[C@H](O)[C@H](O[C@@H]2O[C@@H](CO)[C@@H](O)[C@H](O)[C@@H]2O)[C@H]1O
REMARK SMILES IDX 1 1 2 2 54 3 41 4 39 5 4 6 3 7 55 8 42 10 43 11 52 12 44 13
REMARK SMILES IDX 50 14 45 15 48 16 53 17 51 19 46 21 47 22 49 24 5 26 6 27
REMARK SMILES IDX 7 28 35 29 8 30 11 31 36 32 9 33 12 34 10 35 16 36 13 37
REMARK SMILES IDX 14 38 17 39 15 40 33 41 18 42 19 43 32 44 34 45 29 46 20 47
REMARK SMILES IDX 30 48 22 49 28 50 21 51 23 52 25 53 24 54 26 55 27 56 37 57
REMARK SMILES IDX 38 58 31 60 40 62
REMARK H PARENT 55 9 53 18 51 20 47 23 49 25 38 59 31 61 40 63
REMARK Flexibility Score: inf
ROOT
ATOM      1  C   UNL     1      70.414  53.525  16.828  1.00  0.00     0.041 C 
ATOM      2  C   UNL     1      70.866  54.961  16.542  1.00  0.00     0.150 C 
ATOM      3  C   UNL     1      71.598  55.035  15.180  1.00  0.00     0.175 C 
ATOM      4  C   UNL     1      72.026  56.481  14.892  1.00  0.00     0.186 C 
ATOM      5  C   UNL     1      72.805  57.022  16.103  1.00  0.00     0.202 C 
ATOM      6  C   UNL     1      72.059  56.785  17.444  1.00  0.00     0.282 C 
ATOM      7  O   UNL     1      71.720  55.408  17.585  1.00  0.00    -0.344 OA
ENDROOT
BRANCH   3   8
ATOM      8  O   UNL     1      72.746  54.223  15.185  1.00  0.00    -0.388 OA
ATOM      9  H   UNL     1      73.091  54.190  14.254  1.00  0.00     0.211 HD
ENDBRANCH   3   8
BRANCH   4  10
ATOM     10  O   UNL     1      70.885  57.288  14.627  1.00  0.00    -0.341 OA
BRANCH  10  11
ATOM     11  C   UNL     1      71.193  58.374  13.755  1.00  0.00     0.282 C 
ATOM     12  C   UNL     1      71.904  57.885  12.468  1.00  0.00     0.202 C 
ATOM     13  O   UNL     1      70.018  59.114  13.441  1.00  0.00    -0.341 OA
ATOM     14  C   UNL     1      70.949  57.125  11.525  1.00  0.00     0.179 C 
ATOM     15  C   UNL     1      69.089  58.341  12.694  1.00  0.00     0.178 C 
ATOM     16  C   UNL     1      69.676  57.962  11.313  1.00  0.00     0.177 C 
BRANCH  12  17
ATOM     17  O   UNL     1      73.065  57.144  12.751  1.00  0.00    -0.385 OA
ATOM     18  H   UNL     1      73.573  57.629  13.449  1.00  0.00     0.211 HD
ENDBRANCH  12  17
BRANCH  14  19
ATOM     19  O   UNL     1      70.598  55.872  12.057  1.00  0.00    -0.387 OA
ATOM     20  H   UNL     1      71.443  55.414  12.300  1.00  0.00     0.211 HD
ENDBRANCH  14  19
BRANCH  15  21
ATOM     21  C   UNL     1      67.778  59.125  12.557  1.00  0.00     0.191 C 
BRANCH  21  22
ATOM     22  O   UNL     1      67.004  58.979  13.722  1.00  0.00    -0.394 OA
ATOM     23  H   UNL     1      66.380  58.229  13.562  1.00  0.00     0.210 HD
ENDBRANCH  21  22
ENDBRANCH  15  21
BRANCH  16  24
ATOM     24  O   UNL     1      69.996  59.125  10.597  1.00  0.00    -0.387 OA
ATOM     25  H   UNL     1      70.950  59.056  10.324  1.00  0.00     0.211 HD
ENDBRANCH  16  24
ENDBRANCH  10  11
ENDBRANCH   4  10
BRANCH   6  26
ATOM     26  O   UNL     1      70.895  57.592  17.590  1.00  0.00    -0.346 OA
BRANCH  26  27
ATOM     27  C   UNL     1      70.492  57.766  18.951  1.00  0.00     0.130 C 
ATOM     28  C   UNL     1      69.580  56.586  19.331  1.00  0.00     0.033 C 
ATOM     29  C   UNL     1      71.713  57.900  19.918  1.00  0.00     0.020 C 
ATOM     30  C   UNL     1      69.485  56.299  20.836  1.00  0.00     0.010 C 
ATOM     31  C   UNL     1      71.139  58.257  21.360  1.00  0.00     0.006 C 
ATOM     32  C   UNL     1      72.589  59.086  19.415  1.00  0.00     0.017 C 
ATOM     33  C   UNL     1      69.782  57.513  21.776  1.00  0.00    -0.022 C 
ATOM     34  C   UNL     1      72.220  58.217  22.473  1.00  0.00     0.005 C 
ATOM     35  C   UNL     1      68.576  58.500  21.644  1.00  0.00     0.012 C 
ATOM     36  C   UNL     1      69.896  56.913  23.240  1.00  0.00     0.024 C 
ATOM     37  C   UNL     1      71.647  58.700  23.819  1.00  0.00     0.008 C 
ATOM     38  C   UNL     1      70.480  57.810  24.388  1.00  0.00    -0.017 C 
ATOM     39  C   UNL     1      68.662  56.198  23.754  1.00  0.00    -0.024 C 
ATOM     40  C   UNL     1      69.366  58.802  24.877  1.00  0.00     0.013 C 
ATOM     41  C   UNL     1      70.938  56.825  25.619  1.00  0.00     0.009 C 
ATOM     42  C   UNL     1      68.691  55.640  24.968  1.00  0.00     0.005 C 
ATOM     43  C   UNL     1      69.990  55.511  25.733  1.00  0.00     0.096 C 
ATOM     44  C   UNL     1      72.431  56.358  25.515  1.00  0.00     0.043 C 
ATOM     45  C   UNL     1      70.893  57.641  26.958  1.00  0.00     0.015 C 
ATOM     46  C   UNL     1      70.629  54.158  25.334  1.00  0.00     0.037 C 
ATOM     47  O   UNL     1      69.688  55.301  27.106  1.00  0.00    -0.369 OA
ATOM     48  C   UNL     1      72.799  55.059  26.296  1.00  0.00     0.124 C 
ATOM     49  C   UNL     1      71.618  54.021  26.447  1.00  0.00     0.026 C 
ATOM     50  C   UNL     1      71.190  53.781  23.944  1.00  0.00     0.014 C 
ATOM     51  C   UNL     1      70.673  54.405  27.611  1.00  0.00     0.171 C 
ATOM     52  C   UNL     1      72.122  52.555  26.507  1.00  0.00     0.013 C 
ATOM     53  C   UNL     1      71.743  52.323  23.931  1.00  0.00    -0.035 C 
ATOM     54  C   UNL     1      72.686  52.066  25.150  1.00  0.00     0.007 C 
ATOM     55  C   UNL     1      70.588  51.295  23.925  1.00  0.00     0.011 C 
ATOM     56  C   UNL     1      72.550  52.126  22.627  1.00  0.00     0.011 C 
BRANCH  29  57
ATOM     57  C   UNL     1      72.616  56.619  19.944  1.00  0.00     0.165 C 
BRANCH  57  58
ATOM     58  O   UNL     1      73.987  56.911  19.995  1.00  0.00    -0.396 OA
ATOM     59  H   UNL     1      74.185  57.484  19.210  1.00  0.00     0.210 HD
ENDBRANCH  57  58
ENDBRANCH  29  57
BRANCH  48  60
ATOM     60  O   UNL     1      73.338  55.402  27.548  1.00  0.00    -0.392 OA
ATOM     61  H   UNL     1      73.764  54.585  27.916  1.00  0.00     0.210 HD
ENDBRANCH  48  60
ENDBRANCH  26  27
ENDBRANCH   6  26
BRANCH   5  62
ATOM     62  O   UNL     1      73.114  58.377  15.904  1.00  0.00    -0.385 OA
ATOM     63  H   UNL     1      73.578  58.444  15.029  1.00  0.00     0.211 HD
ENDBRANCH   5  62
TORSDOF 14
ENDMDL
MODEL 6
REMARK VINA RESULT:    -0.016      2.144      5.159
REMARK INTER + INTRA:          -1.507
REMARK INTER:                  -3.781
REMARK INTRA:                   2.275
REMARK UNBOUND:                -1.481
REMARK SMILES C[C@H]1O[C@H](O[C@H]2CC[C@]3(C)[C@@H](CC[C@@]4(C)[C@H]3C=C[C@@]35OC[C@]6(CCC(C)(C)C[C@@H]63)[C@H](O)C[C@@]45C)[C@@]2(C)CO)[C@H](O)[C@H](O[C@@H]2O[C@@H](CO)[C@@H](O)[C@H](O)[C@@H]2O)[C@H]1O
REMARK SMILES IDX 1 1 2 2 54 3 41 4 39 5 4 6 3 7 55 8 42 10 43 11 52 12 44 13
REMARK SMILES IDX 50 14 45 15 48 16 53 17 51 19 46 21 47 22 49 24 5 26 6 27
REMARK SMILES IDX 7 28 35 29 8 30 11 31 36 32 9 33 12 34 10 35 16 36 13 37
REMARK SMILES IDX 14 38 17 39 15 40 33 41 18 42 19 43 32 44 34 45 29 46 20 47
REMARK SMILES IDX 30 48 22 49 28 50 21 51 23 52 25 53 24 54 26 55 27 56 37 57
REMARK SMILES IDX 38 58 31 60 40 62
REMARK H PARENT 55 9 53 18 51 20 47 23 49 25 38 59 31 61 40 63
REMARK Flexibility Score: inf
ROOT
ATOM      1  C   UNL     1      70.201  53.327  16.197  1.00  0.00     0.041 C 
ATOM      2  C   UNL     1      70.812  54.726  16.061  1.00  0.00     0.150 C 
ATOM      3  C   UNL     1      71.327  54.952  14.618  1.00  0.00     0.175 C 
ATOM      4  C   UNL     1      71.915  56.364  14.486  1.00  0.00     0.186 C 
ATOM      5  C   UNL     1      72.943  56.584  15.609  1.00  0.00     0.202 C 
ATOM      6  C   UNL     1      72.387  56.204  17.008  1.00  0.00     0.282 C 
ATOM      7  O   UNL     1      71.874  54.875  16.992  1.00  0.00    -0.344 OA
ENDROOT
BRANCH   3   8
ATOM      8  O   UNL     1      72.329  54.020  14.293  1.00  0.00    -0.388 OA
ATOM      9  H   UNL     1      72.749  54.319  13.445  1.00  0.00     0.211 HD
ENDBRANCH   3   8
BRANCH   4  10
ATOM     10  O   UNL     1      70.879  57.336  14.555  1.00  0.00    -0.341 OA
BRANCH  10  11
ATOM     11  C   UNL     1      71.072  58.387  13.609  1.00  0.00     0.282 C 
ATOM     12  C   UNL     1      71.601  57.844  12.258  1.00  0.00     0.202 C 
ATOM     13  O   UNL     1      69.869  59.125  13.428  1.00  0.00    -0.341 OA
ATOM     14  C   UNL     1      70.524  57.058  11.481  1.00  0.00     0.179 C 
ATOM     15  C   UNL     1      68.844  58.334  12.843  1.00  0.00     0.178 C 
ATOM     16  C   UNL     1      69.238  57.898  11.411  1.00  0.00     0.177 C 
BRANCH  12  17
ATOM     17  O   UNL     1      72.786  57.102  12.411  1.00  0.00    -0.385 OA
ATOM     18  H   UNL     1      73.531  57.639  12.038  1.00  0.00     0.211 HD
ENDBRANCH  12  17
BRANCH  14  19
ATOM     19  O   UNL     1      70.243  55.829  12.103  1.00  0.00    -0.387 OA
ATOM     20  H   UNL     1      69.287  55.630  11.932  1.00  0.00     0.211 HD
ENDBRANCH  14  19
BRANCH  15  21
ATOM     21  C   UNL     1      67.530  59.125  12.853  1.00  0.00     0.191 C 
BRANCH  21  22
ATOM     22  O   UNL     1      66.966  59.107  14.141  1.00  0.00    -0.394 OA
ATOM     23  H   UNL     1      67.683  59.360  14.774  1.00  0.00     0.210 HD
ENDBRANCH  21  22
ENDBRANCH  15  21
BRANCH  16  24
ATOM     24  O   UNL     1      69.465  59.031  10.615  1.00  0.00    -0.387 OA
ATOM     25  H   UNL     1      69.389  58.750   9.664  1.00  0.00     0.211 HD
ENDBRANCH  16  24
ENDBRANCH  10  11
ENDBRANCH   4  10
BRANCH   6  26
ATOM     26  O   UNL     1      71.392  57.107  17.481  1.00  0.00    -0.346 OA
BRANCH  26  27
ATOM     27  C   UNL     1      70.822  56.717  18.732  1.00  0.00     0.130 C 
ATOM     28  C   UNL     1      71.491  55.401  19.170  1.00  0.00     0.033 C 
ATOM     29  C   UNL     1      70.954  57.833  19.819  1.00  0.00     0.020 C 
ATOM     30  C   UNL     1      71.423  55.110  20.676  1.00  0.00     0.010 C 
ATOM     31  C   UNL     1      70.138  57.349  21.098  1.00  0.00     0.006 C 
ATOM     32  C   UNL     1      70.290  59.124  19.255  1.00  0.00     0.017 C 
ATOM     33  C   UNL     1      70.242  55.788  21.444  1.00  0.00    -0.022 C 
ATOM     34  C   UNL     1      70.349  58.261  22.336  1.00  0.00     0.005 C 
ATOM     35  C   UNL     1      68.931  55.059  21.000  1.00  0.00     0.012 C 
ATOM     36  C   UNL     1      70.543  55.573  22.986  1.00  0.00     0.024 C 
ATOM     37  C   UNL     1      69.439  57.832  23.502  1.00  0.00     0.008 C 
ATOM     38  C   UNL     1      69.714  56.381  24.045  1.00  0.00    -0.017 C 
ATOM     39  C   UNL     1      70.646  54.129  23.439  1.00  0.00    -0.024 C 
ATOM     40  C   UNL     1      68.311  55.701  24.220  1.00  0.00     0.013 C 
ATOM     41  C   UNL     1      70.537  56.351  25.465  1.00  0.00     0.009 C 
ATOM     42  C   UNL     1      70.928  53.867  24.719  1.00  0.00     0.005 C 
ATOM     43  C   UNL     1      71.368  54.968  25.659  1.00  0.00     0.096 C 
ATOM     44  C   UNL     1      71.525  57.557  25.633  1.00  0.00     0.043 C 
ATOM     45  C   UNL     1      69.516  56.537  26.641  1.00  0.00     0.015 C 
ATOM     46  C   UNL     1      72.910  55.067  25.566  1.00  0.00     0.037 C 
ATOM     47  O   UNL     1      71.181  54.524  26.996  1.00  0.00    -0.369 OA
ATOM     48  C   UNL     1      72.689  57.352  26.651  1.00  0.00     0.124 C 
ATOM     49  C   UNL     1      73.176  55.858  26.807  1.00  0.00     0.026 C 
ATOM     50  C   UNL     1      73.729  55.529  24.339  1.00  0.00     0.014 C 
ATOM     51  C   UNL     1      72.256  55.059  27.761  1.00  0.00     0.171 C 
ATOM     52  C   UNL     1      74.683  55.760  27.163  1.00  0.00     0.013 C 
ATOM     53  C   UNL     1      75.261  55.483  24.629  1.00  0.00    -0.035 C 
ATOM     54  C   UNL     1      75.600  56.179  25.986  1.00  0.00     0.007 C 
ATOM     55  C   UNL     1      75.779  54.027  24.633  1.00  0.00     0.011 C 
ATOM     56  C   UNL     1      75.988  56.235  23.490  1.00  0.00     0.011 C 
BRANCH  29  57
ATOM     57  C   UNL     1      72.443  58.176  20.165  1.00  0.00     0.165 C 
BRANCH  57  58
ATOM     58  O   UNL     1      73.078  58.942  19.176  1.00  0.00    -0.396 OA
ATOM     59  H   UNL     1      74.010  58.606  19.111  1.00  0.00     0.210 HD
ENDBRANCH  57  58
ENDBRANCH  29  57
BRANCH  48  60
ATOM     60  O   UNL     1      72.328  57.901  27.893  1.00  0.00    -0.392 OA
ATOM     61  H   UNL     1      72.016  57.152  28.464  1.00  0.00     0.210 HD
ENDBRANCH  48  60
ENDBRANCH  26  27
ENDBRANCH   6  26
BRANCH   5  62
ATOM     62  O   UNL     1      73.415  57.906  15.569  1.00  0.00    -0.385 OA
ATOM     63  H   UNL     1      72.720  58.476  15.990  1.00  0.00     0.211 HD
ENDBRANCH   5  62
TORSDOF 14
ENDMDL
