MODEL 1
REMARK VINA RESULT:    -5.412      0.000      0.000
REMARK INTER + INTRA:          -6.670
REMARK INTER:                  -6.362
REMARK INTRA:                  -0.309
REMARK UNBOUND:                -0.309
REMARK SMILES O=c1cc(-c2ccc(O)c(O)c2)oc2cc(O)cc(O)c12
REMARK SMILES IDX 4 1 3 2 2 3 1 4 21 5 19 6 18 7 16 8 15 9 14 10 13 11 5 12
REMARK SMILES IDX 6 13 7 14 8 15 12 16 10 17 9 18 11 20 20 22 17 24
REMARK H PARENT 9 19 11 21 20 23 17 25
REMARK Flexibility Score: inf
ROOT
ATOM      1  C   UNL     1      28.074   5.663 -13.181  1.00  0.00     0.138 A 
ATOM      2  C   UNL     1      29.054   6.587 -13.569  1.00  0.00     0.100 A 
ATOM      3  C   UNL     1      29.957   6.253 -14.579  1.00  0.00     0.197 A 
ATOM      4  O   UNL     1      30.785   7.125 -14.948  1.00  0.00    -0.289 OA
ATOM      5  C   UNL     1      29.896   4.973 -15.181  1.00  0.00     0.107 A 
ATOM      6  C   UNL     1      30.790   4.508 -16.191  1.00  0.00     0.134 A 
ATOM      7  C   UNL     1      30.560   3.265 -16.796  1.00  0.00     0.093 A 
ATOM      8  C   UNL     1      29.508   2.448 -16.385  1.00  0.00     0.123 A 
ATOM      9  C   UNL     1      28.660   2.869 -15.361  1.00  0.00     0.094 A 
ATOM     10  C   UNL     1      28.841   4.118 -14.762  1.00  0.00     0.146 A 
ATOM     11  O   UNL     1      28.004   4.490 -13.800  1.00  0.00    -0.456 OA
ENDROOT
BRANCH   1  12
ATOM     12  C   UNL     1      27.089   5.967 -12.112  1.00  0.00     0.021 A 
ATOM     13  C   UNL     1      27.385   6.866 -11.068  1.00  0.00     0.016 A 
ATOM     14  C   UNL     1      26.442   7.125 -10.069  1.00  0.00     0.051 A 
ATOM     15  C   UNL     1      25.196   6.487 -10.090  1.00  0.00     0.157 A 
ATOM     16  C   UNL     1      25.839   5.323 -12.117  1.00  0.00     0.062 A 
ATOM     17  C   UNL     1      24.894   5.583 -11.115  1.00  0.00     0.158 A 
BRANCH  15  18
ATOM     18  O   UNL     1      24.254   6.746  -9.096  1.00  0.00    -0.504 OA
ATOM     19  H   UNL     1      23.656   7.564  -9.131  1.00  0.00     0.293 HD
ENDBRANCH  15  18
BRANCH  17  20
ATOM     20  O   UNL     1      23.654   4.948 -11.132  1.00  0.00    -0.504 OA
ATOM     21  H   UNL     1      23.329   4.441 -11.946  1.00  0.00     0.293 HD
ENDBRANCH  17  20
ENDBRANCH   1  12
BRANCH   6  22
ATOM     22  O   UNL     1      31.922   5.208 -16.616  1.00  0.00    -0.507 OA
ATOM     23  H   UNL     1      32.556   4.897 -17.336  1.00  0.00     0.293 HD
ENDBRANCH   6  22
BRANCH   8  24
ATOM     24  O   UNL     1      29.319   1.211 -16.999  1.00  0.00    -0.508 OA
ATOM     25  H   UNL     1      29.446   0.343 -16.493  1.00  0.00     0.293 HD
ENDBRANCH   8  24
TORSDOF 5
ENDMDL
MODEL 2
REMARK VINA RESULT:    -5.161      3.071      3.645
REMARK INTER + INTRA:          -6.375
REMARK INTER:                  -6.065
REMARK INTRA:                  -0.310
REMARK UNBOUND:                -0.309
REMARK SMILES O=c1cc(-c2ccc(O)c(O)c2)oc2cc(O)cc(O)c12
REMARK SMILES IDX 4 1 3 2 2 3 1 4 21 5 19 6 18 7 16 8 15 9 14 10 13 11 5 12
REMARK SMILES IDX 6 13 7 14 8 15 12 16 10 17 9 18 11 20 20 22 17 24
REMARK H PARENT 9 19 11 21 20 23 17 25
REMARK Flexibility Score: inf
ROOT
ATOM      1  C   UNL     1      26.870   3.778 -14.370  1.00  0.00     0.138 A 
ATOM      2  C   UNL     1      26.574   5.077 -14.807  1.00  0.00     0.100 A 
ATOM      3  C   UNL     1      27.490   5.763 -15.606  1.00  0.00     0.197 A 
ATOM      4  O   UNL     1      27.169   6.902 -16.033  1.00  0.00    -0.289 OA
ATOM      5  C   UNL     1      28.722   5.154 -15.943  1.00  0.00     0.107 A 
ATOM      6  C   UNL     1      29.748   5.774 -16.716  1.00  0.00     0.134 A 
ATOM      7  C   UNL     1      30.878   5.031 -17.084  1.00  0.00     0.093 A 
ATOM      8  C   UNL     1      31.046   3.715 -16.657  1.00  0.00     0.123 A 
ATOM      9  C   UNL     1      30.074   3.117 -15.854  1.00  0.00     0.094 A 
ATOM     10  C   UNL     1      28.920   3.819 -15.499  1.00  0.00     0.146 A 
ATOM     11  O   UNL     1      28.010   3.209 -14.746  1.00  0.00    -0.456 OA
ENDROOT
BRANCH   1  12
ATOM     12  C   UNL     1      25.932   3.004 -13.518  1.00  0.00     0.021 A 
ATOM     13  C   UNL     1      24.556   3.300 -13.475  1.00  0.00     0.016 A 
ATOM     14  C   UNL     1      23.698   2.561 -12.656  1.00  0.00     0.051 A 
ATOM     15  C   UNL     1      24.199   1.523 -11.861  1.00  0.00     0.157 A 
ATOM     16  C   UNL     1      26.428   1.968 -12.706  1.00  0.00     0.062 A 
ATOM     17  C   UNL     1      25.567   1.227 -11.884  1.00  0.00     0.158 A 
BRANCH  15  18
ATOM     18  O   UNL     1      23.345   0.785 -11.044  1.00  0.00    -0.504 OA
ATOM     19  H   UNL     1      23.245   0.991 -10.056  1.00  0.00     0.293 HD
ENDBRANCH  15  18
BRANCH  17  20
ATOM     20  O   UNL     1      26.063   0.195 -11.090  1.00  0.00    -0.504 OA
ATOM     21  H   UNL     1      26.945   0.282 -10.599  1.00  0.00     0.293 HD
ENDBRANCH  17  20
ENDBRANCH   1  12
BRANCH   6  22
ATOM     22  O   UNL     1      29.720   7.111 -17.125  1.00  0.00    -0.507 OA
ATOM     23  H   UNL     1      29.009   7.519 -17.710  1.00  0.00     0.293 HD
ENDBRANCH   6  22
BRANCH   8  24
ATOM     24  O   UNL     1      32.189   3.012 -17.030  1.00  0.00    -0.508 OA
ATOM     25  H   UNL     1      33.062   3.485 -17.228  1.00  0.00     0.293 HD
ENDBRANCH   8  24
TORSDOF 5
ENDMDL
MODEL 3
REMARK VINA RESULT:    -5.108      1.678      7.301
REMARK INTER + INTRA:          -6.312
REMARK INTER:                  -6.023
REMARK INTRA:                  -0.289
REMARK UNBOUND:                -0.309
REMARK SMILES O=c1cc(-c2ccc(O)c(O)c2)oc2cc(O)cc(O)c12
REMARK SMILES IDX 4 1 3 2 2 3 1 4 21 5 19 6 18 7 16 8 15 9 14 10 13 11 5 12
REMARK SMILES IDX 6 13 7 14 8 15 12 16 10 17 9 18 11 20 20 22 17 24
REMARK H PARENT 9 19 11 21 20 23 17 25
REMARK Flexibility Score: inf
ROOT
ATOM      1  C   UNL     1      27.113   4.427 -13.827  1.00  0.00     0.138 A 
ATOM      2  C   UNL     1      26.239   3.373 -14.125  1.00  0.00     0.100 A 
ATOM      3  C   UNL     1      25.053   3.233 -13.403  1.00  0.00     0.197 A 
ATOM      4  O   UNL     1      24.260   2.314 -13.735  1.00  0.00    -0.289 OA
ATOM      5  C   UNL     1      24.758   4.137 -12.354  1.00  0.00     0.107 A 
ATOM      6  C   UNL     1      23.600   4.066 -11.524  1.00  0.00     0.134 A 
ATOM      7  C   UNL     1      23.356   5.085 -10.594  1.00  0.00     0.093 A 
ATOM      8  C   UNL     1      24.256   6.135 -10.422  1.00  0.00     0.123 A 
ATOM      9  C   UNL     1      25.419   6.185 -11.191  1.00  0.00     0.094 A 
ATOM     10  C   UNL     1      25.674   5.203 -12.151  1.00  0.00     0.146 A 
ATOM     11  O   UNL     1      26.786   5.294 -12.874  1.00  0.00    -0.456 OA
ENDROOT
BRANCH   1  12
ATOM     12  C   UNL     1      28.387   4.622 -14.564  1.00  0.00     0.021 A 
ATOM     13  C   UNL     1      29.013   5.882 -14.639  1.00  0.00     0.016 A 
ATOM     14  C   UNL     1      30.207   6.038 -15.349  1.00  0.00     0.051 A 
ATOM     15  C   UNL     1      30.790   4.944 -16.000  1.00  0.00     0.157 A 
ATOM     16  C   UNL     1      28.975   3.532 -15.232  1.00  0.00     0.062 A 
ATOM     17  C   UNL     1      30.172   3.690 -15.943  1.00  0.00     0.158 A 
BRANCH  15  18
ATOM     18  O   UNL     1      31.982   5.097 -16.707  1.00  0.00    -0.504 OA
ATOM     19  H   UNL     1      32.099   5.832 -17.396  1.00  0.00     0.293 HD
ENDBRANCH  15  18
BRANCH  17  20
ATOM     20  O   UNL     1      30.754   2.604 -16.595  1.00  0.00    -0.504 OA
ATOM     21  H   UNL     1      31.556   2.121 -16.209  1.00  0.00     0.293 HD
ENDBRANCH  17  20
ENDBRANCH   1  12
BRANCH   6  22
ATOM     22  O   UNL     1      22.679   3.015 -11.554  1.00  0.00    -0.507 OA
ATOM     23  H   UNL     1      22.747   2.173 -11.004  1.00  0.00     0.293 HD
ENDBRANCH   6  22
BRANCH   8  24
ATOM     24  O   UNL     1      23.988   7.123  -9.476  1.00  0.00    -0.508 OA
ATOM     25  H   UNL     1      23.269   7.003  -8.774  1.00  0.00     0.293 HD
ENDBRANCH   8  24
TORSDOF 5
ENDMDL
MODEL 4
REMARK VINA RESULT:    -4.942      2.796      4.347
REMARK INTER + INTRA:          -6.117
REMARK INTER:                  -5.855
REMARK INTRA:                  -0.262
REMARK UNBOUND:                -0.309
REMARK SMILES O=c1cc(-c2ccc(O)c(O)c2)oc2cc(O)cc(O)c12
REMARK SMILES IDX 4 1 3 2 2 3 1 4 21 5 19 6 18 7 16 8 15 9 14 10 13 11 5 12
REMARK SMILES IDX 6 13 7 14 8 15 12 16 10 17 9 18 11 20 20 22 17 24
REMARK H PARENT 9 19 11 21 20 23 17 25
REMARK Flexibility Score: inf
ROOT
ATOM      1  C   UNL     1      26.258   3.949 -13.535  1.00  0.00     0.138 A 
ATOM      2  C   UNL     1      26.225   4.173 -14.918  1.00  0.00     0.100 A 
ATOM      3  C   UNL     1      27.188   4.993 -15.508  1.00  0.00     0.197 A 
ATOM      4  O   UNL     1      27.170   5.126 -16.759  1.00  0.00    -0.289 OA
ATOM      5  C   UNL     1      28.171   5.616 -14.701  1.00  0.00     0.107 A 
ATOM      6  C   UNL     1      29.176   6.503 -15.187  1.00  0.00     0.134 A 
ATOM      7  C   UNL     1      30.167   6.968 -14.312  1.00  0.00     0.093 A 
ATOM      8  C   UNL     1      30.153   6.626 -12.961  1.00  0.00     0.123 A 
ATOM      9  C   UNL     1      29.143   5.802 -12.464  1.00  0.00     0.094 A 
ATOM     10  C   UNL     1      28.160   5.295 -13.317  1.00  0.00     0.146 A 
ATOM     11  O   UNL     1      27.223   4.501 -12.809  1.00  0.00    -0.456 OA
ENDROOT
BRANCH   1  12
ATOM     12  C   UNL     1      25.257   3.086 -12.857  1.00  0.00     0.021 A 
ATOM     13  C   UNL     1      25.493   1.716 -12.632  1.00  0.00     0.016 A 
ATOM     14  C   UNL     1      24.529   0.926 -12.000  1.00  0.00     0.051 A 
ATOM     15  C   UNL     1      23.313   1.487 -11.591  1.00  0.00     0.157 A 
ATOM     16  C   UNL     1      24.028   3.638 -12.453  1.00  0.00     0.062 A 
ATOM     17  C   UNL     1      23.061   2.845 -11.819  1.00  0.00     0.158 A 
BRANCH  15  18
ATOM     18  O   UNL     1      22.350   0.701 -10.959  1.00  0.00    -0.504 OA
ATOM     19  H   UNL     1      22.352   0.566  -9.955  1.00  0.00     0.293 HD
ENDBRANCH  15  18
BRANCH  17  20
ATOM     20  O   UNL     1      21.849   3.400 -11.413  1.00  0.00    -0.504 OA
ATOM     21  H   UNL     1      21.255   2.937 -10.736  1.00  0.00     0.293 HD
ENDBRANCH  17  20
ENDBRANCH   1  12
BRANCH   6  22
ATOM     22  O   UNL     1      29.234   6.976 -16.502  1.00  0.00    -0.507 OA
ATOM     23  H   UNL     1      29.856   6.626 -17.213  1.00  0.00     0.293 HD
ENDBRANCH   6  22
BRANCH   8  24
ATOM     24  O   UNL     1      31.146   7.119 -12.117  1.00  0.00    -0.508 OA
ATOM     25  H   UNL     1      31.665   7.959 -12.342  1.00  0.00     0.293 HD
ENDBRANCH   8  24
TORSDOF 5
ENDMDL
MODEL 5
REMARK VINA RESULT:    -4.852      1.919      2.801
REMARK INTER + INTRA:          -6.012
REMARK INTER:                  -5.722
REMARK INTRA:                  -0.290
REMARK UNBOUND:                -0.309
REMARK SMILES O=c1cc(-c2ccc(O)c(O)c2)oc2cc(O)cc(O)c12
REMARK SMILES IDX 4 1 3 2 2 3 1 4 21 5 19 6 18 7 16 8 15 9 14 10 13 11 5 12
REMARK SMILES IDX 6 13 7 14 8 15 12 16 10 17 9 18 11 20 20 22 17 24
REMARK H PARENT 9 19 11 21 20 23 17 25
REMARK Flexibility Score: inf
ROOT
ATOM      1  C   UNL     1      26.921   4.159 -13.943  1.00  0.00     0.138 A 
ATOM      2  C   UNL     1      27.291   5.511 -13.955  1.00  0.00     0.100 A 
ATOM      3  C   UNL     1      28.473   5.898 -14.588  1.00  0.00     0.197 A 
ATOM      4  O   UNL     1      28.747   7.125 -14.636  1.00  0.00    -0.289 OA
ATOM      5  C   UNL     1      29.303   4.919 -15.185  1.00  0.00     0.107 A 
ATOM      6  C   UNL     1      30.550   5.192 -15.823  1.00  0.00     0.134 A 
ATOM      7  C   UNL     1      31.229   4.158 -16.481  1.00  0.00     0.093 A 
ATOM      8  C   UNL     1      30.738   2.854 -16.472  1.00  0.00     0.123 A 
ATOM      9  C   UNL     1      29.547   2.565 -15.805  1.00  0.00     0.094 A 
ATOM     10  C   UNL     1      28.828   3.581 -15.169  1.00  0.00     0.146 A 
ATOM     11  O   UNL     1      27.691   3.268 -14.557  1.00  0.00    -0.456 OA
ENDROOT
BRANCH   1  12
ATOM     12  C   UNL     1      25.675   3.693 -13.282  1.00  0.00     0.021 A 
ATOM     13  C   UNL     1      25.081   2.459 -13.611  1.00  0.00     0.016 A 
ATOM     14  C   UNL     1      23.902   2.051 -12.981  1.00  0.00     0.051 A 
ATOM     15  C   UNL     1      23.294   2.869 -12.020  1.00  0.00     0.157 A 
ATOM     16  C   UNL     1      25.050   4.513 -12.325  1.00  0.00     0.062 A 
ATOM     17  C   UNL     1      23.868   4.103 -11.694  1.00  0.00     0.158 A 
BRANCH  15  18
ATOM     18  O   UNL     1      22.119   2.463 -11.390  1.00  0.00    -0.504 OA
ATOM     19  H   UNL     1      21.343   2.074 -11.913  1.00  0.00     0.293 HD
ENDBRANCH  15  18
BRANCH  17  20
ATOM     20  O   UNL     1      23.258   4.917 -10.740  1.00  0.00    -0.504 OA
ATOM     21  H   UNL     1      22.254   4.925 -10.614  1.00  0.00     0.293 HD
ENDBRANCH  17  20
ENDBRANCH   1  12
BRANCH   6  22
ATOM     22  O   UNL     1      31.173   6.444 -15.819  1.00  0.00    -0.507 OA
ATOM     23  H   UNL     1      30.753   7.295 -15.479  1.00  0.00     0.293 HD
ENDBRANCH   6  22
BRANCH   8  24
ATOM     24  O   UNL     1      31.447   1.848 -17.125  1.00  0.00    -0.508 OA
ATOM     25  H   UNL     1      32.459   1.814 -17.104  1.00  0.00     0.293 HD
ENDBRANCH   8  24
TORSDOF 5
ENDMDL
MODEL 6
REMARK VINA RESULT:    -4.784      1.210      2.684
REMARK INTER + INTRA:          -5.932
REMARK INTER:                  -5.654
REMARK INTRA:                  -0.277
REMARK UNBOUND:                -0.309
REMARK SMILES O=c1cc(-c2ccc(O)c(O)c2)oc2cc(O)cc(O)c12
REMARK SMILES IDX 4 1 3 2 2 3 1 4 21 5 19 6 18 7 16 8 15 9 14 10 13 11 5 12
REMARK SMILES IDX 6 13 7 14 8 15 12 16 10 17 9 18 11 20 20 22 17 24
REMARK H PARENT 9 19 11 21 20 23 17 25
REMARK Flexibility Score: inf
ROOT
ATOM      1  C   UNL     1      28.296   5.144 -13.359  1.00  0.00     0.138 A 
ATOM      2  C   UNL     1      28.282   3.791 -13.726  1.00  0.00     0.100 A 
ATOM      3  C   UNL     1      29.144   3.338 -14.726  1.00  0.00     0.197 A 
ATOM      4  O   UNL     1      29.152   2.108 -14.990  1.00  0.00    -0.289 OA
ATOM      5  C   UNL     1      30.002   4.253 -15.382  1.00  0.00     0.107 A 
ATOM      6  C   UNL     1      30.892   3.912 -16.443  1.00  0.00     0.134 A 
ATOM      7  C   UNL     1      31.778   4.879 -16.937  1.00  0.00     0.093 A 
ATOM      8  C   UNL     1      31.762   6.185 -16.452  1.00  0.00     0.123 A 
ATOM      9  C   UNL     1      30.858   6.544 -15.452  1.00  0.00     0.094 A 
ATOM     10  C   UNL     1      29.986   5.594 -14.914  1.00  0.00     0.146 A 
ATOM     11  O   UNL     1      29.149   5.971 -13.953  1.00  0.00    -0.456 OA
ENDROOT
BRANCH   1  12
ATOM     12  C   UNL     1      27.400   5.679 -12.302  1.00  0.00     0.021 A 
ATOM     13  C   UNL     1      27.866   6.576 -11.322  1.00  0.00     0.016 A 
ATOM     14  C   UNL     1      27.002   7.056 -10.333  1.00  0.00     0.051 A 
ATOM     15  C   UNL     1      25.665   6.642 -10.302  1.00  0.00     0.157 A 
ATOM     16  C   UNL     1      26.058   5.260 -12.255  1.00  0.00     0.062 A 
ATOM     17  C   UNL     1      25.192   5.741 -11.263  1.00  0.00     0.158 A 
BRANCH  15  18
ATOM     18  O   UNL     1      24.801   7.120  -9.317  1.00  0.00    -0.504 OA
ATOM     19  H   UNL     1      24.676   6.630  -8.438  1.00  0.00     0.293 HD
ENDBRANCH  15  18
BRANCH  17  20
ATOM     20  O   UNL     1      23.861   5.329 -11.227  1.00  0.00    -0.504 OA
ATOM     21  H   UNL     1      23.422   5.030 -10.365  1.00  0.00     0.293 HD
ENDBRANCH  17  20
ENDBRANCH   1  12
BRANCH   6  22
ATOM     22  O   UNL     1      30.931   2.658 -17.059  1.00  0.00    -0.507 OA
ATOM     23  H   UNL     1      30.130   2.178 -17.440  1.00  0.00     0.293 HD
ENDBRANCH   6  22
BRANCH   8  24
ATOM     24  O   UNL     1      32.647   7.125 -16.978  1.00  0.00    -0.508 OA
ATOM     25  H   UNL     1      33.531   6.849 -17.388  1.00  0.00     0.293 HD
ENDBRANCH   8  24
TORSDOF 5
ENDMDL
MODEL 7
REMARK VINA RESULT:    -4.461      1.534      6.848
REMARK INTER + INTRA:          -5.552
REMARK INTER:                  -5.247
REMARK INTRA:                  -0.305
REMARK UNBOUND:                -0.309
REMARK SMILES O=c1cc(-c2ccc(O)c(O)c2)oc2cc(O)cc(O)c12
REMARK SMILES IDX 4 1 3 2 2 3 1 4 21 5 19 6 18 7 16 8 15 9 14 10 13 11 5 12
REMARK SMILES IDX 6 13 7 14 8 15 12 16 10 17 9 18 11 20 20 22 17 24
REMARK H PARENT 9 19 11 21 20 23 17 25
REMARK Flexibility Score: inf
ROOT
ATOM      1  C   UNL     1      27.692   4.814 -13.345  1.00  0.00     0.138 A 
ATOM      2  C   UNL     1      27.878   5.877 -12.451  1.00  0.00     0.100 A 
ATOM      3  C   UNL     1      26.864   6.207 -11.550  1.00  0.00     0.197 A 
ATOM      4  O   UNL     1      27.084   7.125 -10.719  1.00  0.00    -0.289 OA
ATOM      5  C   UNL     1      25.646   5.486 -11.568  1.00  0.00     0.107 A 
ATOM      6  C   UNL     1      24.528   5.760 -10.725  1.00  0.00     0.134 A 
ATOM      7  C   UNL     1      23.419   4.905 -10.752  1.00  0.00     0.093 A 
ATOM      8  C   UNL     1      23.362   3.826 -11.632  1.00  0.00     0.123 A 
ATOM      9  C   UNL     1      24.426   3.580 -12.499  1.00  0.00     0.094 A 
ATOM     10  C   UNL     1      25.562   4.394 -12.473  1.00  0.00     0.146 A 
ATOM     11  O   UNL     1      26.561   4.118 -13.305  1.00  0.00    -0.456 OA
ENDROOT
BRANCH   1  12
ATOM     12  C   UNL     1      28.738   4.421 -14.325  1.00  0.00     0.021 A 
ATOM     13  C   UNL     1      29.600   5.371 -14.906  1.00  0.00     0.016 A 
ATOM     14  C   UNL     1      30.568   4.975 -15.833  1.00  0.00     0.051 A 
ATOM     15  C   UNL     1      30.685   3.629 -16.200  1.00  0.00     0.157 A 
ATOM     16  C   UNL     1      28.855   3.073 -14.710  1.00  0.00     0.062 A 
ATOM     17  C   UNL     1      29.826   2.677 -15.640  1.00  0.00     0.158 A 
BRANCH  15  18
ATOM     18  O   UNL     1      31.651   3.231 -17.124  1.00  0.00    -0.504 OA
ATOM     19  H   UNL     1      31.414   3.040 -18.091  1.00  0.00     0.293 HD
ENDBRANCH  15  18
BRANCH  17  20
ATOM     20  O   UNL     1      29.944   1.338 -16.010  1.00  0.00    -0.504 OA
ATOM     21  H   UNL     1      30.572   1.046 -16.748  1.00  0.00     0.293 HD
ENDBRANCH  17  20
ENDBRANCH   1  12
BRANCH   6  22
ATOM     22  O   UNL     1      24.447   6.862  -9.868  1.00  0.00    -0.507 OA
ATOM     23  H   UNL     1      25.158   7.131  -9.207  1.00  0.00     0.293 HD
ENDBRANCH   6  22
BRANCH   8  24
ATOM     24  O   UNL     1      22.235   3.005 -11.642  1.00  0.00    -0.508 OA
ATOM     25  H   UNL     1      22.198   2.163 -12.202  1.00  0.00     0.293 HD
ENDBRANCH   8  24
TORSDOF 5
ENDMDL
MODEL 8
REMARK VINA RESULT:    -4.179      1.744      6.568
REMARK INTER + INTRA:          -5.220
REMARK INTER:                  -4.908
REMARK INTRA:                  -0.313
REMARK UNBOUND:                -0.309
REMARK SMILES O=c1cc(-c2ccc(O)c(O)c2)oc2cc(O)cc(O)c12
REMARK SMILES IDX 4 1 3 2 2 3 1 4 21 5 19 6 18 7 16 8 15 9 14 10 13 11 5 12
REMARK SMILES IDX 6 13 7 14 8 15 12 16 10 17 9 18 11 20 20 22 17 24
REMARK H PARENT 9 19 11 21 20 23 17 25
REMARK Flexibility Score: inf
ROOT
ATOM      1  C   UNL     1      28.188   5.473 -13.830  1.00  0.00     0.138 A 
ATOM      2  C   UNL     1      27.853   6.437 -12.869  1.00  0.00     0.100 A 
ATOM      3  C   UNL     1      26.701   6.272 -12.099  1.00  0.00     0.197 A 
ATOM      4  O   UNL     1      26.460   7.122 -11.203  1.00  0.00    -0.289 OA
ATOM      5  C   UNL     1      25.865   5.151 -12.315  1.00  0.00     0.107 A 
ATOM      6  C   UNL     1      24.645   4.902 -11.618  1.00  0.00     0.134 A 
ATOM      7  C   UNL     1      23.961   3.699 -11.835  1.00  0.00     0.093 A 
ATOM      8  C   UNL     1      24.419   2.767 -12.765  1.00  0.00     0.123 A 
ATOM      9  C   UNL     1      25.581   3.025 -13.492  1.00  0.00     0.094 A 
ATOM     10  C   UNL     1      26.305   4.199 -13.274  1.00  0.00     0.146 A 
ATOM     11  O   UNL     1      27.416   4.402 -13.975  1.00  0.00    -0.456 OA
ENDROOT
BRANCH   1  12
ATOM     12  C   UNL     1      29.402   5.599 -14.677  1.00  0.00     0.021 A 
ATOM     13  C   UNL     1      30.026   6.842 -14.896  1.00  0.00     0.016 A 
ATOM     14  C   UNL     1      31.160   6.933 -15.706  1.00  0.00     0.051 A 
ATOM     15  C   UNL     1      31.686   5.788 -16.317  1.00  0.00     0.157 A 
ATOM     16  C   UNL     1      29.930   4.456 -15.306  1.00  0.00     0.062 A 
ATOM     17  C   UNL     1      31.068   4.547 -16.118  1.00  0.00     0.158 A 
BRANCH  15  18
ATOM     18  O   UNL     1      32.818   5.875 -17.125  1.00  0.00    -0.504 OA
ATOM     19  H   UNL     1      33.344   5.051 -17.392  1.00  0.00     0.293 HD
ENDBRANCH  15  18
BRANCH  17  20
ATOM     20  O   UNL     1      31.592   3.410 -16.731  1.00  0.00    -0.504 OA
ATOM     21  H   UNL     1      31.324   2.479 -16.436  1.00  0.00     0.293 HD
ENDBRANCH  17  20
ENDBRANCH   1  12
BRANCH   6  22
ATOM     22  O   UNL     1      24.054   5.804 -10.729  1.00  0.00    -0.507 OA
ATOM     23  H   UNL     1      23.827   5.601  -9.768  1.00  0.00     0.293 HD
ENDBRANCH   6  22
BRANCH   8  24
ATOM     24  O   UNL     1      23.704   1.588 -12.965  1.00  0.00    -0.508 OA
ATOM     25  H   UNL     1      23.774   1.066 -13.830  1.00  0.00     0.293 HD
ENDBRANCH   8  24
TORSDOF 5
ENDMDL
MODEL 9
REMARK VINA RESULT:    -3.832      4.864      5.753
REMARK INTER + INTRA:          -4.813
REMARK INTER:                  -4.522
REMARK INTRA:                  -0.291
REMARK UNBOUND:                -0.309
REMARK SMILES O=c1cc(-c2ccc(O)c(O)c2)oc2cc(O)cc(O)c12
REMARK SMILES IDX 4 1 3 2 2 3 1 4 21 5 19 6 18 7 16 8 15 9 14 10 13 11 5 12
REMARK SMILES IDX 6 13 7 14 8 15 12 16 10 17 9 18 11 20 20 22 17 24
REMARK H PARENT 9 19 11 21 20 23 17 25
REMARK Flexibility Score: inf
ROOT
ATOM      1  C   UNL     1      28.331   3.443  -9.390  1.00  0.00     0.138 A 
ATOM      2  C   UNL     1      28.097   4.819  -9.263  1.00  0.00     0.100 A 
ATOM      3  C   UNL     1      27.848   5.585 -10.404  1.00  0.00     0.197 A 
ATOM      4  O   UNL     1      27.580   6.805 -10.253  1.00  0.00    -0.289 OA
ATOM      5  C   UNL     1      27.866   4.972 -11.679  1.00  0.00     0.107 A 
ATOM      6  C   UNL     1      27.666   5.660 -12.913  1.00  0.00     0.134 A 
ATOM      7  C   UNL     1      27.590   4.929 -14.106  1.00  0.00     0.093 A 
ATOM      8  C   UNL     1      27.765   3.547 -14.116  1.00  0.00     0.123 A 
ATOM      9  C   UNL     1      28.015   2.870 -12.922  1.00  0.00     0.094 A 
ATOM     10  C   UNL     1      28.062   3.565 -11.711  1.00  0.00     0.146 A 
ATOM     11  O   UNL     1      28.288   2.883 -10.593  1.00  0.00    -0.456 OA
ENDROOT
BRANCH   1  12
ATOM     12  C   UNL     1      28.601   2.582  -8.210  1.00  0.00     0.021 A 
ATOM     13  C   UNL     1      28.406   1.188  -8.251  1.00  0.00     0.016 A 
ATOM     14  C   UNL     1      28.658   0.404  -7.122  1.00  0.00     0.051 A 
ATOM     15  C   UNL     1      29.102   0.998  -5.934  1.00  0.00     0.157 A 
ATOM     16  C   UNL     1      29.035   3.170  -7.008  1.00  0.00     0.062 A 
ATOM     17  C   UNL     1      29.289   2.384  -5.876  1.00  0.00     0.158 A 
BRANCH  15  18
ATOM     18  O   UNL     1      29.356   0.217  -4.808  1.00  0.00    -0.504 OA
ATOM     19  H   UNL     1      29.272  -0.793  -4.832  1.00  0.00     0.293 HD
ENDBRANCH  15  18
BRANCH  17  20
ATOM     20  O   UNL     1      29.727   2.972  -4.691  1.00  0.00    -0.504 OA
ATOM     21  H   UNL     1      29.823   2.436  -3.837  1.00  0.00     0.293 HD
ENDBRANCH  17  20
ENDBRANCH   1  12
BRANCH   6  22
ATOM     22  O   UNL     1      27.563   7.050 -13.026  1.00  0.00    -0.507 OA
ATOM     23  H   UNL     1      26.704   7.553 -13.180  1.00  0.00     0.293 HD
ENDBRANCH   6  22
BRANCH   8  24
ATOM     24  O   UNL     1      27.698   2.854 -15.323  1.00  0.00    -0.508 OA
ATOM     25  H   UNL     1      28.238   2.012 -15.483  1.00  0.00     0.293 HD
ENDBRANCH   8  24
TORSDOF 5
ENDMDL
