MODEL 1
REMARK VINA RESULT:    -5.381      0.000      0.000
REMARK INTER + INTRA:          -5.381
REMARK INTER:                  -5.381
REMARK INTRA:                   0.000
REMARK UNBOUND:                 0.000
REMARK SMILES CC1=CC(=O)[C@@H]2C[C@H]1C2(C)C
REMARK SMILES IDX 1 1 2 2 3 3 4 4 5 5 6 6 7 7 8 8 9 9 10 10 11 11
REMARK H PARENT
REMARK Flexibility Score: inf
ROOT
ATOM      1  C   UNL     1      11.860 -28.956  23.517  1.00  0.00     0.040 C 
ATOM      2  C   UNL     1      12.745 -30.035  22.978  1.00  0.00    -0.066 C 
ATOM      3  C   UNL     1      12.514 -30.631  21.774  1.00  0.00     0.047 C 
ATOM      4  C   UNL     1      13.486 -31.695  21.365  1.00  0.00     0.159 C 
ATOM      5  O   UNL     1      13.405 -32.289  20.258  1.00  0.00    -0.295 OA
ATOM      6  C   UNL     1      14.581 -32.009  22.385  1.00  0.00     0.067 C 
ATOM      7  C   UNL     1      13.827 -32.104  23.730  1.00  0.00     0.021 C 
ATOM      8  C   UNL     1      13.937 -30.565  23.801  1.00  0.00     0.022 C 
ATOM      9  C   UNL     1      15.191 -30.669  22.885  1.00  0.00    -0.019 C 
ATOM     10  C   UNL     1      15.439 -29.538  21.846  1.00  0.00     0.012 C 
ATOM     11  C   UNL     1      16.496 -30.880  23.693  1.00  0.00     0.012 C 
ENDROOT
TORSDOF 0
ENDMDL
MODEL 2
REMARK VINA RESULT:    -5.189      1.694      2.986
REMARK INTER + INTRA:          -5.189
REMARK INTER:                  -5.189
REMARK INTRA:                   0.000
REMARK UNBOUND:                 0.000
REMARK SMILES CC1=CC(=O)[C@@H]2C[C@H]1C2(C)C
REMARK SMILES IDX 1 1 2 2 3 3 4 4 5 5 6 6 7 7 8 8 9 9 10 10 11 11
REMARK H PARENT
REMARK Flexibility Score: inf
ROOT
ATOM      1  C   UNL     1      13.283 -32.127  20.124  1.00  0.00     0.040 C 
ATOM      2  C   UNL     1      13.621 -31.317  21.336  1.00  0.00    -0.066 C 
ATOM      3  C   UNL     1      12.676 -30.626  22.035  1.00  0.00     0.047 C 
ATOM      4  C   UNL     1      13.163 -29.861  23.228  1.00  0.00     0.159 C 
ATOM      5  O   UNL     1      12.383 -29.219  23.979  1.00  0.00    -0.295 OA
ATOM      6  C   UNL     1      14.672 -29.915  23.469  1.00  0.00     0.067 C 
ATOM      7  C   UNL     1      15.286 -29.673  22.072  1.00  0.00     0.021 C 
ATOM      8  C   UNL     1      15.080 -31.182  21.816  1.00  0.00     0.022 C 
ATOM      9  C   UNL     1      15.139 -31.394  23.357  1.00  0.00    -0.019 C 
ATOM     10  C   UNL     1      14.242 -32.500  23.981  1.00  0.00     0.012 C 
ATOM     11  C   UNL     1      16.587 -31.596  23.870  1.00  0.00     0.012 C 
ENDROOT
TORSDOF 0
ENDMDL
MODEL 3
REMARK VINA RESULT:    -5.065      3.546      4.931
REMARK INTER + INTRA:          -5.065
REMARK INTER:                  -5.065
REMARK INTRA:                   0.000
REMARK UNBOUND:                 0.000
REMARK SMILES CC1=CC(=O)[C@@H]2C[C@H]1C2(C)C
REMARK SMILES IDX 1 1 2 2 3 3 4 4 5 5 6 6 7 7 8 8 9 9 10 10 11 11
REMARK H PARENT
REMARK Flexibility Score: inf
ROOT
ATOM      1  C   UNL     1      17.076 -34.778  23.668  1.00  0.00     0.040 C 
ATOM      2  C   UNL     1      16.481 -34.414  22.345  1.00  0.00    -0.066 C 
ATOM      3  C   UNL     1      15.341 -33.674  22.239  1.00  0.00     0.047 C 
ATOM      4  C   UNL     1      14.865 -33.387  20.848  1.00  0.00     0.159 C 
ATOM      5  O   UNL     1      13.850 -32.679  20.617  1.00  0.00    -0.295 OA
ATOM      6  C   UNL     1      15.697 -34.014  19.728  1.00  0.00     0.067 C 
ATOM      7  C   UNL     1      15.927 -35.467  20.199  1.00  0.00     0.021 C 
ATOM      8  C   UNL     1      17.109 -34.918  21.029  1.00  0.00     0.022 C 
ATOM      9  C   UNL     1      17.200 -33.741  20.016  1.00  0.00    -0.019 C 
ATOM     10  C   UNL     1      17.605 -32.338  20.553  1.00  0.00     0.012 C 
ATOM     11  C   UNL     1      18.103 -34.075  18.802  1.00  0.00     0.012 C 
ENDROOT
TORSDOF 0
ENDMDL
MODEL 4
REMARK VINA RESULT:    -5.015      0.940      3.285
REMARK INTER + INTRA:          -5.015
REMARK INTER:                  -5.015
REMARK INTRA:                   0.000
REMARK UNBOUND:                 0.000
REMARK SMILES CC1=CC(=O)[C@@H]2C[C@H]1C2(C)C
REMARK SMILES IDX 1 1 2 2 3 3 4 4 5 5 6 6 7 7 8 8 9 9 10 10 11 11
REMARK H PARENT
REMARK Flexibility Score: inf
ROOT
ATOM      1  C   UNL     1      17.470 -31.409  24.031  1.00  0.00     0.040 C 
ATOM      2  C   UNL     1      16.254 -31.434  23.159  1.00  0.00    -0.066 C 
ATOM      3  C   UNL     1      15.989 -32.467  22.310  1.00  0.00     0.047 C 
ATOM      4  C   UNL     1      14.734 -32.353  21.501  1.00  0.00     0.159 C 
ATOM      5  O   UNL     1      14.357 -33.260  20.713  1.00  0.00    -0.295 OA
ATOM      6  C   UNL     1      13.942 -31.060  21.698  1.00  0.00     0.067 C 
ATOM      7  C   UNL     1      15.015 -29.950  21.649  1.00  0.00     0.021 C 
ATOM      8  C   UNL     1      15.268 -30.249  23.143  1.00  0.00     0.022 C 
ATOM      9  C   UNL     1      13.810 -30.788  23.223  1.00  0.00    -0.019 C 
ATOM     10  C   UNL     1      13.522 -31.991  24.165  1.00  0.00     0.012 C 
ATOM     11  C   UNL     1      12.784 -29.670  23.536  1.00  0.00     0.012 C 
ENDROOT
TORSDOF 0
ENDMDL
MODEL 5
REMARK VINA RESULT:    -4.878      8.488     10.442
REMARK INTER + INTRA:          -4.878
REMARK INTER:                  -4.878
REMARK INTRA:                   0.000
REMARK UNBOUND:                 0.000
REMARK SMILES CC1=CC(=O)[C@@H]2C[C@H]1C2(C)C
REMARK SMILES IDX 1 1 2 2 3 3 4 4 5 5 6 6 7 7 8 8 9 9 10 10 11 11
REMARK H PARENT
REMARK Flexibility Score: inf
ROOT
ATOM      1  C   UNL     1      23.625 -24.626  18.625  1.00  0.00     0.040 C 
ATOM      2  C   UNL     1      23.093 -25.099  19.941  1.00  0.00    -0.066 C 
ATOM      3  C   UNL     1      22.895 -24.253  20.992  1.00  0.00     0.047 C 
ATOM      4  C   UNL     1      22.356 -24.870  22.246  1.00  0.00     0.159 C 
ATOM      5  O   UNL     1      22.091 -24.189  23.270  1.00  0.00    -0.295 OA
ATOM      6  C   UNL     1      22.151 -26.385  22.194  1.00  0.00     0.067 C 
ATOM      7  C   UNL     1      23.447 -26.919  21.547  1.00  0.00     0.021 C 
ATOM      8  C   UNL     1      22.798 -26.593  20.184  1.00  0.00     0.022 C 
ATOM      9  C   UNL     1      21.411 -26.740  20.874  1.00  0.00    -0.019 C 
ATOM     10  C   UNL     1      20.254 -25.812  20.404  1.00  0.00     0.012 C 
ATOM     11  C   UNL     1      20.897 -28.202  20.860  1.00  0.00     0.012 C 
ENDROOT
TORSDOF 0
ENDMDL
MODEL 6
REMARK VINA RESULT:    -4.856      1.864      3.595
REMARK INTER + INTRA:          -4.856
REMARK INTER:                  -4.856
REMARK INTRA:                   0.000
REMARK UNBOUND:                 0.000
REMARK SMILES CC1=CC(=O)[C@@H]2C[C@H]1C2(C)C
REMARK SMILES IDX 1 1 2 2 3 3 4 4 5 5 6 6 7 7 8 8 9 9 10 10 11 11
REMARK H PARENT
REMARK Flexibility Score: inf
ROOT
ATOM      1  C   UNL     1      15.487 -33.440  24.503  1.00  0.00     0.040 C 
ATOM      2  C   UNL     1      15.446 -32.389  23.439  1.00  0.00    -0.066 C 
ATOM      3  C   UNL     1      16.541 -32.066  22.694  1.00  0.00     0.047 C 
ATOM      4  C   UNL     1      16.349 -30.995  21.665  1.00  0.00     0.159 C 
ATOM      5  O   UNL     1      17.271 -30.638  20.886  1.00  0.00    -0.295 OA
ATOM      6  C   UNL     1      14.955 -30.367  21.626  1.00  0.00     0.067 C 
ATOM      7  C   UNL     1      14.619 -30.103  23.110  1.00  0.00     0.021 C 
ATOM      8  C   UNL     1      14.162 -31.577  23.178  1.00  0.00     0.022 C 
ATOM      9  C   UNL     1      13.898 -31.506  21.646  1.00  0.00    -0.019 C 
ATOM     10  C   UNL     1      14.168 -32.779  20.794  1.00  0.00     0.012 C 
ATOM     11  C   UNL     1      12.472 -30.994  21.316  1.00  0.00     0.012 C 
ENDROOT
TORSDOF 0
ENDMDL
MODEL 7
REMARK VINA RESULT:    -4.805      8.516     10.357
REMARK INTER + INTRA:          -4.805
REMARK INTER:                  -4.805
REMARK INTRA:                   0.000
REMARK UNBOUND:                 0.000
REMARK SMILES CC1=CC(=O)[C@@H]2C[C@H]1C2(C)C
REMARK SMILES IDX 1 1 2 2 3 3 4 4 5 5 6 6 7 7 8 8 9 9 10 10 11 11
REMARK H PARENT
REMARK Flexibility Score: inf
ROOT
ATOM      1  C   UNL     1      23.670 -27.863  22.895  1.00  0.00     0.040 C 
ATOM      2  C   UNL     1      23.181 -26.794  21.970  1.00  0.00    -0.066 C 
ATOM      3  C   UNL     1      23.617 -26.690  20.682  1.00  0.00     0.047 C 
ATOM      4  C   UNL     1      23.036 -25.569  19.875  1.00  0.00     0.159 C 
ATOM      5  O   UNL     1      23.325 -25.394  18.663  1.00  0.00    -0.295 OA
ATOM      6  C   UNL     1      22.067 -24.655  20.627  1.00  0.00     0.067 C 
ATOM      7  C   UNL     1      22.778 -24.374  21.969  1.00  0.00     0.021 C 
ATOM      8  C   UNL     1      22.192 -25.716  22.460  1.00  0.00     0.022 C 
ATOM      9  C   UNL     1      21.057 -25.540  21.410  1.00  0.00    -0.019 C 
ATOM     10  C   UNL     1      20.496 -26.812  20.714  1.00  0.00     0.012 C 
ATOM     11  C   UNL     1      19.863 -24.723  21.964  1.00  0.00     0.012 C 
ENDROOT
TORSDOF 0
ENDMDL
MODEL 8
REMARK VINA RESULT:    -4.797      4.557      6.011
REMARK INTER + INTRA:          -4.797
REMARK INTER:                  -4.797
REMARK INTRA:                   0.000
REMARK UNBOUND:                 0.000
REMARK SMILES CC1=CC(=O)[C@@H]2C[C@H]1C2(C)C
REMARK SMILES IDX 1 1 2 2 3 3 4 4 5 5 6 6 7 7 8 8 9 9 10 10 11 11
REMARK H PARENT
REMARK Flexibility Score: inf
ROOT
ATOM      1  C   UNL     1      17.632 -37.355  19.715  1.00  0.00     0.040 C 
ATOM      2  C   UNL     1      17.193 -35.941  19.924  1.00  0.00    -0.066 C 
ATOM      3  C   UNL     1      15.884 -35.566  19.840  1.00  0.00     0.047 C 
ATOM      4  C   UNL     1      15.596 -34.114  20.075  1.00  0.00     0.159 C 
ATOM      5  O   UNL     1      14.425 -33.653  20.067  1.00  0.00    -0.295 OA
ATOM      6  C   UNL     1      16.821 -33.235  20.323  1.00  0.00     0.067 C 
ATOM      7  C   UNL     1      17.827 -33.673  19.236  1.00  0.00     0.021 C 
ATOM      8  C   UNL     1      18.222 -34.823  20.188  1.00  0.00     0.022 C 
ATOM      9  C   UNL     1      17.731 -33.937  21.370  1.00  0.00    -0.019 C 
ATOM     10  C   UNL     1      17.056 -34.638  22.583  1.00  0.00     0.012 C 
ATOM     11  C   UNL     1      18.844 -33.002  21.907  1.00  0.00     0.012 C 
ENDROOT
TORSDOF 0
ENDMDL
MODEL 9
REMARK VINA RESULT:    -4.711      8.674     10.224
REMARK INTER + INTRA:          -4.711
REMARK INTER:                  -4.711
REMARK INTRA:                   0.000
REMARK UNBOUND:                 0.000
REMARK SMILES CC1=CC(=O)[C@@H]2C[C@H]1C2(C)C
REMARK SMILES IDX 1 1 2 2 3 3 4 4 5 5 6 6 7 7 8 8 9 9 10 10 11 11
REMARK H PARENT
REMARK Flexibility Score: inf
ROOT
ATOM      1  C   UNL     1      23.510 -25.041  18.593  1.00  0.00     0.040 C 
ATOM      2  C   UNL     1      22.873 -25.614  19.819  1.00  0.00    -0.066 C 
ATOM      3  C   UNL     1      23.535 -26.468  20.651  1.00  0.00     0.047 C 
ATOM      4  C   UNL     1      22.769 -26.958  21.842  1.00  0.00     0.159 C 
ATOM      5  O   UNL     1      23.282 -27.716  22.706  1.00  0.00    -0.295 OA
ATOM      6  C   UNL     1      21.321 -26.475  21.934  1.00  0.00     0.067 C 
ATOM      7  C   UNL     1      20.767 -26.669  20.505  1.00  0.00     0.021 C 
ATOM      8  C   UNL     1      21.403 -25.302  20.166  1.00  0.00     0.022 C 
ATOM      9  C   UNL     1      21.294 -24.942  21.676  1.00  0.00    -0.019 C 
ATOM     10  C   UNL     1      22.416 -24.067  22.307  1.00  0.00     0.012 C 
ATOM     11  C   UNL     1      19.926 -24.307  22.034  1.00  0.00     0.012 C 
ENDROOT
TORSDOF 0
ENDMDL
