MODEL 1
REMARK VINA RESULT:    -4.034      0.000      0.000
REMARK INTER + INTRA:          -5.923
REMARK INTER:                  -5.684
REMARK INTRA:                  -0.239
REMARK UNBOUND:                -0.239
REMARK SMILES CCCCCCCCC(=O)[O-]
REMARK SMILES IDX 6 1 7 2 8 3 9 4 10 5 11 6 5 7 4 8 3 9 2 10 1 11
REMARK H PARENT
REMARK Flexibility Score: inf
ROOT
ATOM      1  C   UNL     1      -7.633  -8.020  -0.220  1.00  0.00     0.000 C 
ENDROOT
BRANCH   1   2
ATOM      2  C   UNL     1      -9.058  -8.531   0.063  1.00  0.00     0.006 C 
BRANCH   2   3
ATOM      3  C   UNL     1      -9.729  -7.763   1.208  1.00  0.00     0.053 C 
BRANCH   3   4
ATOM      4  C   UNL     1     -10.526  -6.599   0.703  1.00  0.00     0.041 C 
ATOM      5  O   UNL     1     -11.373  -6.762  -0.214  1.00  0.00    -0.550 OA
ATOM      6  O   UNL     1     -10.355  -5.343   1.268  1.00  0.00    -0.550 OA
ENDBRANCH   3   4
ENDBRANCH   2   3
ENDBRANCH   1   2
BRANCH   1   7
ATOM      7  C   UNL     1      -6.549  -9.036   0.176  1.00  0.00     0.000 C 
BRANCH   7   8
ATOM      8  C   UNL     1      -6.732 -10.395  -0.522  1.00  0.00    -0.000 C 
BRANCH   8   9
ATOM      9  C   UNL     1      -5.714 -11.451  -0.051  1.00  0.00    -0.000 C 
BRANCH   9  10
ATOM     10  C   UNL     1      -6.267 -12.494   0.935  1.00  0.00    -0.003 C 
ATOM     11  C   UNL     1      -6.149 -13.927   0.419  1.00  0.00     0.004 C 
ENDBRANCH   9  10
ENDBRANCH   8   9
ENDBRANCH   7   8
ENDBRANCH   1   7
TORSDOF 7
ENDMDL
MODEL 2
REMARK VINA RESULT:    -4.000      0.803      1.771
REMARK INTER + INTRA:          -5.875
REMARK INTER:                  -5.697
REMARK INTRA:                  -0.178
REMARK UNBOUND:                -0.239
REMARK SMILES CCCCCCCCC(=O)[O-]
REMARK SMILES IDX 6 1 7 2 8 3 9 4 10 5 11 6 5 7 4 8 3 9 2 10 1 11
REMARK H PARENT
REMARK Flexibility Score: inf
ROOT
ATOM      1  C   UNL     1      -6.992  -9.413   0.506  1.00  0.00     0.000 C 
ENDROOT
BRANCH   1   2
ATOM      2  C   UNL     1      -7.861  -8.416  -0.283  1.00  0.00     0.006 C 
BRANCH   2   3
ATOM      3  C   UNL     1      -9.356  -8.596   0.012  1.00  0.00     0.053 C 
BRANCH   3   4
ATOM      4  C   UNL     1     -10.017  -7.292   0.340  1.00  0.00     0.041 C 
ATOM      5  O   UNL     1      -9.406  -6.425   1.019  1.00  0.00    -0.550 OA
ATOM      6  O   UNL     1     -11.295  -7.022  -0.132  1.00  0.00    -0.550 OA
ENDBRANCH   3   4
ENDBRANCH   2   3
ENDBRANCH   1   2
BRANCH   1   7
ATOM      7  C   UNL     1      -6.724 -10.711  -0.273  1.00  0.00     0.000 C 
BRANCH   7   8
ATOM      8  C   UNL     1      -5.650 -11.588   0.394  1.00  0.00    -0.000 C 
BRANCH   8   9
ATOM      9  C   UNL     1      -6.241 -12.816   1.111  1.00  0.00    -0.000 C 
BRANCH   9  10
ATOM     10  C   UNL     1      -6.015 -14.159   0.394  1.00  0.00    -0.003 C 
ATOM     11  C   UNL     1      -6.924 -15.274   0.910  1.00  0.00     0.004 C 
ENDBRANCH   9  10
ENDBRANCH   8   9
ENDBRANCH   7   8
ENDBRANCH   1   7
TORSDOF 7
ENDMDL
MODEL 3
REMARK VINA RESULT:    -3.954      3.447      6.082
REMARK INTER + INTRA:          -5.811
REMARK INTER:                  -5.488
REMARK INTRA:                  -0.323
REMARK UNBOUND:                -0.239
REMARK SMILES CCCCCCCCC(=O)[O-]
REMARK SMILES IDX 6 1 7 2 8 3 9 4 10 5 11 6 5 7 4 8 3 9 2 10 1 11
REMARK H PARENT
REMARK Flexibility Score: inf
ROOT
ATOM      1  C   UNL     1      -6.784  -8.557   0.013  1.00  0.00     0.000 C 
ENDROOT
BRANCH   1   2
ATOM      2  C   UNL     1      -7.252  -9.995  -0.278  1.00  0.00     0.006 C 
BRANCH   2   3
ATOM      3  C   UNL     1      -6.082 -10.985  -0.324  1.00  0.00     0.053 C 
BRANCH   3   4
ATOM      4  C   UNL     1      -6.292 -12.135   0.613  1.00  0.00     0.041 C 
ATOM      5  O   UNL     1      -6.056 -13.313   0.234  1.00  0.00    -0.550 OA
ATOM      6  O   UNL     1      -6.716 -11.903   1.915  1.00  0.00    -0.550 OA
ENDBRANCH   3   4
ENDBRANCH   2   3
ENDBRANCH   1   2
BRANCH   1   7
ATOM      7  C   UNL     1      -7.955  -7.575   0.183  1.00  0.00     0.000 C 
BRANCH   7   8
ATOM      8  C   UNL     1      -9.325  -8.272   0.105  1.00  0.00    -0.000 C 
BRANCH   8   9
ATOM      9  C   UNL     1     -10.502  -7.280   0.114  1.00  0.00    -0.000 C 
BRANCH   9  10
ATOM     10  C   UNL     1     -10.344  -6.091   1.079  1.00  0.00    -0.003 C 
ATOM     11  C   UNL     1     -10.902  -6.374   2.473  1.00  0.00     0.004 C 
ENDBRANCH   9  10
ENDBRANCH   8   9
ENDBRANCH   7   8
ENDBRANCH   1   7
TORSDOF 7
ENDMDL
MODEL 4
REMARK VINA RESULT:    -3.815     18.884     19.615
REMARK INTER + INTRA:          -5.616
REMARK INTER:                  -5.049
REMARK INTRA:                  -0.567
REMARK UNBOUND:                -0.239
REMARK SMILES CCCCCCCCC(=O)[O-]
REMARK SMILES IDX 6 1 7 2 8 3 9 4 10 5 11 6 5 7 4 8 3 9 2 10 1 11
REMARK H PARENT
REMARK Flexibility Score: inf
ROOT
ATOM      1  C   UNL     1     -19.906  -4.650 -13.008  1.00  0.00     0.000 C 
ENDROOT
BRANCH   1   2
ATOM      2  C   UNL     1     -21.043  -3.665 -12.679  1.00  0.00     0.006 C 
BRANCH   2   3
ATOM      3  C   UNL     1     -22.403  -4.367 -12.572  1.00  0.00     0.053 C 
BRANCH   3   4
ATOM      4  C   UNL     1     -23.203  -4.221 -13.831  1.00  0.00     0.041 C 
ATOM      5  O   UNL     1     -23.238  -5.157 -14.672  1.00  0.00    -0.550 OA
ATOM      6  O   UNL     1     -23.935  -3.063 -14.058  1.00  0.00    -0.550 OA
ENDBRANCH   3   4
ENDBRANCH   2   3
ENDBRANCH   1   2
BRANCH   1   7
ATOM      7  C   UNL     1     -19.534  -4.648 -14.500  1.00  0.00     0.000 C 
BRANCH   7   8
ATOM      8  C   UNL     1     -19.563  -6.057 -15.116  1.00  0.00    -0.000 C 
BRANCH   8   9
ATOM      9  C   UNL     1     -20.324  -7.075 -14.247  1.00  0.00    -0.000 C 
BRANCH   9  10
ATOM     10  C   UNL     1     -19.517  -8.322 -13.848  1.00  0.00    -0.003 C 
ATOM     11  C   UNL     1     -20.399  -9.509 -13.464  1.00  0.00     0.004 C 
ENDBRANCH   9  10
ENDBRANCH   8   9
ENDBRANCH   7   8
ENDBRANCH   1   7
TORSDOF 7
ENDMDL
MODEL 5
REMARK VINA RESULT:    -3.796     18.142     19.178
REMARK INTER + INTRA:          -5.589
REMARK INTER:                  -5.053
REMARK INTRA:                  -0.535
REMARK UNBOUND:                -0.239
REMARK SMILES CCCCCCCCC(=O)[O-]
REMARK SMILES IDX 6 1 7 2 8 3 9 4 10 5 11 6 5 7 4 8 3 9 2 10 1 11
REMARK H PARENT
REMARK Flexibility Score: inf
ROOT
ATOM      1  C   UNL     1     -19.586  -4.454 -14.481  1.00  0.00     0.000 C 
ENDROOT
BRANCH   1   2
ATOM      2  C   UNL     1     -19.874  -4.628 -12.978  1.00  0.00     0.006 C 
BRANCH   2   3
ATOM      3  C   UNL     1     -21.340  -4.337 -12.633  1.00  0.00     0.053 C 
BRANCH   3   4
ATOM      4  C   UNL     1     -21.582  -2.872 -12.433  1.00  0.00     0.041 C 
ATOM      5  O   UNL     1     -22.373  -2.251 -13.191  1.00  0.00    -0.550 OA
ATOM      6  O   UNL     1     -20.959  -2.201 -11.390  1.00  0.00    -0.550 OA
ENDBRANCH   3   4
ENDBRANCH   2   3
ENDBRANCH   1   2
BRANCH   1   7
ATOM      7  C   UNL     1     -19.466  -5.796 -15.221  1.00  0.00     0.000 C 
BRANCH   7   8
ATOM      8  C   UNL     1     -20.837  -6.420 -15.535  1.00  0.00    -0.000 C 
BRANCH   8   9
ATOM      9  C   UNL     1     -21.108  -7.705 -14.731  1.00  0.00    -0.000 C 
BRANCH   9  10
ATOM     10  C   UNL     1     -19.944  -8.171 -13.838  1.00  0.00    -0.003 C 
ATOM     11  C   UNL     1     -20.299  -9.383 -12.977  1.00  0.00     0.004 C 
ENDBRANCH   9  10
ENDBRANCH   8   9
ENDBRANCH   7   8
ENDBRANCH   1   7
TORSDOF 7
ENDMDL
MODEL 6
REMARK VINA RESULT:    -3.786      3.200      5.989
REMARK INTER + INTRA:          -5.574
REMARK INTER:                  -5.124
REMARK INTRA:                  -0.450
REMARK UNBOUND:                -0.239
REMARK SMILES CCCCCCCCC(=O)[O-]
REMARK SMILES IDX 6 1 7 2 8 3 9 4 10 5 11 6 5 7 4 8 3 9 2 10 1 11
REMARK H PARENT
REMARK Flexibility Score: inf
ROOT
ATOM      1  C   UNL     1      -7.851  -7.590   0.022  1.00  0.00     0.000 C 
ENDROOT
BRANCH   1   2
ATOM      2  C   UNL     1      -6.671  -8.544   0.287  1.00  0.00     0.006 C 
BRANCH   2   3
ATOM      3  C   UNL     1      -6.845  -9.889  -0.429  1.00  0.00     0.053 C 
BRANCH   3   4
ATOM      4  C   UNL     1      -6.647 -11.044   0.505  1.00  0.00     0.041 C 
ATOM      5  O   UNL     1      -6.193 -12.137   0.074  1.00  0.00    -0.550 OA
ATOM      6  O   UNL     1      -6.933 -10.902   1.856  1.00  0.00    -0.550 OA
ENDBRANCH   3   4
ENDBRANCH   2   3
ENDBRANCH   1   2
BRANCH   1   7
ATOM      7  C   UNL     1      -9.217  -8.271   0.204  1.00  0.00     0.000 C 
BRANCH   7   8
ATOM      8  C   UNL     1     -10.384  -7.269   0.175  1.00  0.00    -0.000 C 
BRANCH   8   9
ATOM      9  C   UNL     1     -10.644  -6.614   1.544  1.00  0.00    -0.000 C 
BRANCH   9  10
ATOM     10  C   UNL     1     -10.062  -5.200   1.710  1.00  0.00    -0.003 C 
ATOM     11  C   UNL     1      -8.880  -5.149   2.677  1.00  0.00     0.004 C 
ENDBRANCH   9  10
ENDBRANCH   8   9
ENDBRANCH   7   8
ENDBRANCH   1   7
TORSDOF 7
ENDMDL
MODEL 7
REMARK VINA RESULT:    -3.755     18.961     20.257
REMARK INTER + INTRA:          -5.530
REMARK INTER:                  -4.838
REMARK INTRA:                  -0.692
REMARK UNBOUND:                -0.239
REMARK SMILES CCCCCCCCC(=O)[O-]
REMARK SMILES IDX 6 1 7 2 8 3 9 4 10 5 11 6 5 7 4 8 3 9 2 10 1 11
REMARK H PARENT
REMARK Flexibility Score: inf
ROOT
ATOM      1  C   UNL     1     -22.627  -4.904 -12.994  1.00  0.00     0.000 C 
ENDROOT
BRANCH   1   2
ATOM      2  C   UNL     1     -23.207  -4.153 -14.207  1.00  0.00     0.006 C 
BRANCH   2   3
ATOM      3  C   UNL     1     -23.676  -5.111 -15.309  1.00  0.00     0.053 C 
BRANCH   3   4
ATOM      4  C   UNL     1     -22.554  -5.967 -15.814  1.00  0.00     0.041 C 
ATOM      5  O   UNL     1     -22.663  -7.221 -15.809  1.00  0.00    -0.550 OA
ATOM      6  O   UNL     1     -21.403  -5.377 -16.319  1.00  0.00    -0.550 OA
ENDBRANCH   3   4
ENDBRANCH   2   3
ENDBRANCH   1   2
BRANCH   1   7
ATOM      7  C   UNL     1     -21.212  -4.432 -12.625  1.00  0.00     0.000 C 
BRANCH   7   8
ATOM      8  C   UNL     1     -20.132  -5.464 -12.992  1.00  0.00    -0.000 C 
BRANCH   8   9
ATOM      9  C   UNL     1     -20.601  -6.917 -12.792  1.00  0.00    -0.000 C 
BRANCH   9  10
ATOM     10  C   UNL     1     -19.956  -7.945 -13.738  1.00  0.00    -0.003 C 
ATOM     11  C   UNL     1     -20.306  -9.389 -13.381  1.00  0.00     0.004 C 
ENDBRANCH   9  10
ENDBRANCH   8   9
ENDBRANCH   7   8
ENDBRANCH   1   7
TORSDOF 7
ENDMDL
MODEL 8
REMARK VINA RESULT:    -3.678      2.626      3.796
REMARK INTER + INTRA:          -5.422
REMARK INTER:                  -4.814
REMARK INTRA:                  -0.607
REMARK UNBOUND:                -0.239
REMARK SMILES CCCCCCCCC(=O)[O-]
REMARK SMILES IDX 6 1 7 2 8 3 9 4 10 5 11 6 5 7 4 8 3 9 2 10 1 11
REMARK H PARENT
REMARK Flexibility Score: inf
ROOT
ATOM      1  C   UNL     1      -9.368  -8.140   0.786  1.00  0.00     0.000 C 
ENDROOT
BRANCH   1   2
ATOM      2  C   UNL     1     -10.474  -7.245   0.195  1.00  0.00     0.006 C 
BRANCH   2   3
ATOM      3  C   UNL     1     -10.485  -5.847   0.828  1.00  0.00     0.053 C 
BRANCH   3   4
ATOM      4  C   UNL     1     -10.610  -5.916   2.319  1.00  0.00     0.041 C 
ATOM      5  O   UNL     1     -11.592  -6.501   2.847  1.00  0.00    -0.550 OA
ATOM      6  O   UNL     1      -9.624  -5.361   3.125  1.00  0.00    -0.550 OA
ENDBRANCH   3   4
ENDBRANCH   2   3
ENDBRANCH   1   2
BRANCH   1   7
ATOM      7  C   UNL     1      -8.771  -9.106  -0.250  1.00  0.00     0.000 C 
BRANCH   7   8
ATOM      8  C   UNL     1      -7.304  -8.782  -0.581  1.00  0.00    -0.000 C 
BRANCH   8   9
ATOM      9  C   UNL     1      -6.612  -7.952   0.516  1.00  0.00    -0.000 C 
BRANCH   9  10
ATOM     10  C   UNL     1      -6.327  -6.487   0.142  1.00  0.00    -0.003 C 
ATOM     11  C   UNL     1      -6.582  -5.515   1.293  1.00  0.00     0.004 C 
ENDBRANCH   9  10
ENDBRANCH   8   9
ENDBRANCH   7   8
ENDBRANCH   1   7
TORSDOF 7
ENDMDL
MODEL 9
REMARK VINA RESULT:    -3.673      1.661      2.717
REMARK INTER + INTRA:          -5.415
REMARK INTER:                  -4.997
REMARK INTRA:                  -0.418
REMARK UNBOUND:                -0.239
REMARK SMILES CCCCCCCCC(=O)[O-]
REMARK SMILES IDX 6 1 7 2 8 3 9 4 10 5 11 6 5 7 4 8 3 9 2 10 1 11
REMARK H PARENT
REMARK Flexibility Score: inf
ROOT
ATOM      1  C   UNL     1     -10.230  -7.098   0.134  1.00  0.00     0.000 C 
ENDROOT
BRANCH   1   2
ATOM      2  C   UNL     1     -10.871  -6.765   1.494  1.00  0.00     0.006 C 
BRANCH   2   3
ATOM      3  C   UNL     1      -9.823  -6.398   2.553  1.00  0.00     0.053 C 
BRANCH   3   4
ATOM      4  C   UNL     1      -9.104  -5.131   2.204  1.00  0.00     0.041 C 
ATOM      5  O   UNL     1      -9.712  -4.029   2.231  1.00  0.00    -0.550 OA
ATOM      6  O   UNL     1      -7.754  -5.164   1.881  1.00  0.00    -0.550 OA
ENDBRANCH   3   4
ENDBRANCH   2   3
ENDBRANCH   1   2
BRANCH   1   7
ATOM      7  C   UNL     1      -9.380  -8.378   0.177  1.00  0.00     0.000 C 
BRANCH   7   8
ATOM      8  C   UNL     1      -7.908  -8.121  -0.188  1.00  0.00    -0.000 C 
BRANCH   8   9
ATOM      9  C   UNL     1      -7.108  -9.420  -0.397  1.00  0.00    -0.000 C 
BRANCH   9  10
ATOM     10  C   UNL     1      -7.016 -10.333   0.839  1.00  0.00    -0.003 C 
ATOM     11  C   UNL     1      -6.433 -11.710   0.524  1.00  0.00     0.004 C 
ENDBRANCH   9  10
ENDBRANCH   8   9
ENDBRANCH   7   8
ENDBRANCH   1   7
TORSDOF 7
ENDMDL
