MODEL 1
REMARK VINA RESULT:    -3.542      0.000      0.000
REMARK INTER + INTRA:          -8.916
REMARK INTER:                  -6.649
REMARK INTRA:                  -2.267
REMARK UNBOUND:                -2.267
REMARK SMILES O=C([O-])CCCCCCCCCCCCCCC(=O)[O-]
REMARK SMILES IDX 10 1 9 2 8 3 7 4 6 5 5 6 4 7 2 8 1 9 3 10 11 11 12 12 13 13
REMARK SMILES IDX 14 14 15 15 16 16 17 17 18 18 19 19 20 20
REMARK H PARENT
REMARK Flexibility Score: inf
ROOT
ATOM      1  C   UNL     1      -1.075  -4.032 -27.586  1.00  0.00     0.000 C 
ENDROOT
BRANCH   1   2
ATOM      2  C   UNL     1      -1.741  -4.601 -26.320  1.00  0.00     0.000 C 
BRANCH   2   3
ATOM      3  C   UNL     1      -3.098  -5.290 -26.557  1.00  0.00     0.000 C 
BRANCH   3   4
ATOM      4  C   UNL     1      -4.307  -4.475 -26.045  1.00  0.00     0.000 C 
BRANCH   4   5
ATOM      5  C   UNL     1      -4.950  -3.621 -27.147  1.00  0.00     0.000 C 
BRANCH   5   6
ATOM      6  C   UNL     1      -4.993  -2.140 -26.739  1.00  0.00     0.006 C 
BRANCH   6   7
ATOM      7  C   UNL     1      -4.676  -1.938 -25.251  1.00  0.00     0.053 C 
BRANCH   7   8
ATOM      8  C   UNL     1      -4.663  -0.487 -24.878  1.00  0.00     0.041 C 
ATOM      9  O   UNL     1      -5.293   0.352 -25.573  1.00  0.00    -0.550 OA
ATOM     10  O   UNL     1      -3.928  -0.058 -23.779  1.00  0.00    -0.550 OA
ENDBRANCH   7   8
ENDBRANCH   6   7
ENDBRANCH   5   6
ENDBRANCH   4   5
ENDBRANCH   3   4
ENDBRANCH   2   3
ENDBRANCH   1   2
BRANCH   1  11
ATOM     11  C   UNL     1      -1.519  -2.607 -27.978  1.00  0.00     0.000 C 
BRANCH  11  12
ATOM     12  C   UNL     1      -1.290  -1.527 -26.905  1.00  0.00     0.000 C 
BRANCH  12  13
ATOM     13  C   UNL     1      -1.695  -0.120 -27.375  1.00  0.00     0.000 C 
BRANCH  13  14
ATOM     14  C   UNL     1      -1.935  -0.042 -28.894  1.00  0.00     0.000 C 
BRANCH  14  15
ATOM     15  C   UNL     1      -0.819   0.648 -29.704  1.00  0.00     0.000 C 
BRANCH  15  16
ATOM     16  C   UNL     1      -0.189  -0.212 -30.818  1.00  0.00     0.006 C 
BRANCH  16  17
ATOM     17  C   UNL     1       0.893  -1.188 -30.330  1.00  0.00     0.053 C 
BRANCH  17  18
ATOM     18  C   UNL     1       1.897  -0.514 -29.447  1.00  0.00     0.041 C 
ATOM     19  O   UNL     1       2.681   0.350 -29.923  1.00  0.00    -0.550 OA
ATOM     20  O   UNL     1       1.943  -0.813 -28.092  1.00  0.00    -0.550 OA
ENDBRANCH  17  18
ENDBRANCH  16  17
ENDBRANCH  15  16
ENDBRANCH  14  15
ENDBRANCH  13  14
ENDBRANCH  12  13
ENDBRANCH  11  12
ENDBRANCH   1  11
TORSDOF 15
ENDMDL
MODEL 2
REMARK VINA RESULT:    -3.501     15.771     17.849
REMARK INTER + INTRA:          -8.838
REMARK INTER:                  -7.898
REMARK INTRA:                  -0.940
REMARK UNBOUND:                -2.267
REMARK SMILES O=C([O-])CCCCCCCCCCCCCCC(=O)[O-]
REMARK SMILES IDX 10 1 9 2 8 3 7 4 6 5 5 6 4 7 2 8 1 9 3 10 11 11 12 12 13 13
REMARK SMILES IDX 14 14 15 15 16 16 17 17 18 18 19 19 20 20
REMARK H PARENT
REMARK Flexibility Score: inf
ROOT
ATOM      1  C   UNL     1      12.245 -11.377 -24.395  1.00  0.00     0.000 C 
ENDROOT
BRANCH   1   2
ATOM      2  C   UNL     1      13.431 -11.600 -23.439  1.00  0.00     0.000 C 
BRANCH   2   3
ATOM      3  C   UNL     1      13.053 -12.189 -22.066  1.00  0.00     0.000 C 
BRANCH   3   4
ATOM      4  C   UNL     1      11.800 -11.543 -21.436  1.00  0.00     0.000 C 
BRANCH   4   5
ATOM      5  C   UNL     1      11.355 -12.254 -20.150  1.00  0.00     0.000 C 
BRANCH   5   6
ATOM      6  C   UNL     1      12.252 -13.464 -19.852  1.00  0.00     0.006 C 
BRANCH   6   7
ATOM      7  C   UNL     1      12.641 -13.549 -18.369  1.00  0.00     0.053 C 
BRANCH   7   8
ATOM      8  C   UNL     1      11.520 -14.081 -17.530  1.00  0.00     0.041 C 
ATOM      9  O   UNL     1      11.168 -13.475 -16.485  1.00  0.00    -0.550 OA
ATOM     10  O   UNL     1      10.886 -15.265 -17.886  1.00  0.00    -0.550 OA
ENDBRANCH   7   8
ENDBRANCH   6   7
ENDBRANCH   5   6
ENDBRANCH   4   5
ENDBRANCH   3   4
ENDBRANCH   2   3
ENDBRANCH   1   2
BRANCH   1  11
ATOM     11  C   UNL     1      12.267 -10.041 -25.168  1.00  0.00     0.000 C 
BRANCH  11  12
ATOM     12  C   UNL     1      13.559  -9.217 -25.023  1.00  0.00     0.000 C 
BRANCH  12  13
ATOM     13  C   UNL     1      13.425  -8.068 -24.009  1.00  0.00     0.000 C 
BRANCH  13  14
ATOM     14  C   UNL     1      12.163  -7.215 -24.235  1.00  0.00     0.000 C 
BRANCH  14  15
ATOM     15  C   UNL     1      11.529  -6.626 -22.958  1.00  0.00     0.000 C 
BRANCH  15  16
ATOM     16  C   UNL     1      11.571  -5.088 -22.854  1.00  0.00     0.006 C 
BRANCH  16  17
ATOM     17  C   UNL     1      12.987  -4.491 -22.848  1.00  0.00     0.053 C 
BRANCH  17  18
ATOM     18  C   UNL     1      12.968  -3.012 -22.615  1.00  0.00     0.041 C 
ATOM     19  O   UNL     1      12.147  -2.507 -21.804  1.00  0.00    -0.550 OA
ATOM     20  O   UNL     1      13.880  -2.194 -23.269  1.00  0.00    -0.550 OA
ENDBRANCH  17  18
ENDBRANCH  16  17
ENDBRANCH  15  16
ENDBRANCH  14  15
ENDBRANCH  13  14
ENDBRANCH  12  13
ENDBRANCH  11  12
ENDBRANCH   1  11
TORSDOF 15
ENDMDL
MODEL 3
REMARK VINA RESULT:    -3.496     12.491     15.688
REMARK INTER + INTRA:          -8.828
REMARK INTER:                  -6.686
REMARK INTRA:                  -2.143
REMARK UNBOUND:                -2.267
REMARK SMILES O=C([O-])CCCCCCCCCCCCCCC(=O)[O-]
REMARK SMILES IDX 10 1 9 2 8 3 7 4 6 5 5 6 4 7 2 8 1 9 3 10 11 11 12 12 13 13
REMARK SMILES IDX 14 14 15 15 16 16 17 17 18 18 19 19 20 20
REMARK H PARENT
REMARK Flexibility Score: inf
ROOT
ATOM      1  C   UNL     1      -3.482 -13.988 -19.601  1.00  0.00     0.000 C 
ENDROOT
BRANCH   1   2
ATOM      2  C   UNL     1      -2.063 -14.471 -19.250  1.00  0.00     0.000 C 
BRANCH   2   3
ATOM      3  C   UNL     1      -1.123 -13.377 -18.706  1.00  0.00     0.000 C 
BRANCH   3   4
ATOM      4  C   UNL     1      -1.825 -12.359 -17.781  1.00  0.00     0.000 C 
BRANCH   4   5
ATOM      5  C   UNL     1      -1.067 -12.139 -16.464  1.00  0.00     0.000 C 
BRANCH   5   6
ATOM      6  C   UNL     1      -2.007 -12.283 -15.258  1.00  0.00     0.006 C 
BRANCH   6   7
ATOM      7  C   UNL     1      -2.712 -13.646 -15.231  1.00  0.00     0.053 C 
BRANCH   7   8
ATOM      8  C   UNL     1      -2.133 -14.551 -14.187  1.00  0.00     0.041 C 
ATOM      9  O   UNL     1      -1.112 -15.241 -14.441  1.00  0.00    -0.550 OA
ATOM     10  O   UNL     1      -2.743 -14.656 -12.942  1.00  0.00    -0.550 OA
ENDBRANCH   7   8
ENDBRANCH   6   7
ENDBRANCH   5   6
ENDBRANCH   4   5
ENDBRANCH   3   4
ENDBRANCH   2   3
ENDBRANCH   1   2
BRANCH   1  11
ATOM     11  C   UNL     1      -4.628 -14.829 -19.001  1.00  0.00     0.000 C 
BRANCH  11  12
ATOM     12  C   UNL     1      -5.517 -14.099 -17.979  1.00  0.00     0.000 C 
BRANCH  12  13
ATOM     13  C   UNL     1      -5.308 -12.575 -17.983  1.00  0.00     0.000 C 
BRANCH  13  14
ATOM     14  C   UNL     1      -5.776 -11.904 -16.679  1.00  0.00     0.000 C 
BRANCH  14  15
ATOM     15  C   UNL     1      -5.077 -10.573 -16.335  1.00  0.00     0.000 C 
BRANCH  15  16
ATOM     16  C   UNL     1      -4.397  -9.863 -17.523  1.00  0.00     0.006 C 
BRANCH  16  17
ATOM     17  C   UNL     1      -3.773  -8.503 -17.176  1.00  0.00     0.053 C 
BRANCH  17  18
ATOM     18  C   UNL     1      -4.717  -7.371 -17.441  1.00  0.00     0.041 C 
ATOM     19  O   UNL     1      -5.543  -7.442 -18.389  1.00  0.00    -0.550 OA
ATOM     20  O   UNL     1      -4.708  -6.252 -16.618  1.00  0.00    -0.550 OA
ENDBRANCH  17  18
ENDBRANCH  16  17
ENDBRANCH  15  16
ENDBRANCH  14  15
ENDBRANCH  13  14
ENDBRANCH  12  13
ENDBRANCH  11  12
ENDBRANCH   1  11
TORSDOF 15
ENDMDL
MODEL 4
REMARK VINA RESULT:    -3.453      1.770      5.960
REMARK INTER + INTRA:          -8.749
REMARK INTER:                  -6.860
REMARK INTRA:                  -1.889
REMARK UNBOUND:                -2.267
REMARK SMILES O=C([O-])CCCCCCCCCCCCCCC(=O)[O-]
REMARK SMILES IDX 10 1 9 2 8 3 7 4 6 5 5 6 4 7 2 8 1 9 3 10 11 11 12 12 13 13
REMARK SMILES IDX 14 14 15 15 16 16 17 17 18 18 19 19 20 20
REMARK H PARENT
REMARK Flexibility Score: inf
ROOT
ATOM      1  C   UNL     1      -1.235  -4.348 -26.335  1.00  0.00     0.000 C 
ENDROOT
BRANCH   1   2
ATOM      2  C   UNL     1      -1.120  -4.276 -27.869  1.00  0.00     0.000 C 
BRANCH   2   3
ATOM      3  C   UNL     1      -0.121  -3.228 -28.395  1.00  0.00     0.000 C 
BRANCH   3   4
ATOM      4  C   UNL     1      -0.407  -1.794 -27.899  1.00  0.00     0.000 C 
BRANCH   4   5
ATOM      5  C   UNL     1      -1.742  -1.244 -28.422  1.00  0.00     0.000 C 
BRANCH   5   6
ATOM      6  C   UNL     1      -1.576   0.184 -28.961  1.00  0.00     0.006 C 
BRANCH   6   7
ATOM      7  C   UNL     1      -2.075   0.322 -30.406  1.00  0.00     0.053 C 
BRANCH   7   8
ATOM      8  C   UNL     1      -0.965   0.685 -31.345  1.00  0.00     0.041 C 
ATOM      9  O   UNL     1       0.068  -0.029 -31.411  1.00  0.00    -0.550 OA
ATOM     10  O   UNL     1      -1.060   1.833 -32.123  1.00  0.00    -0.550 OA
ENDBRANCH   7   8
ENDBRANCH   6   7
ENDBRANCH   5   6
ENDBRANCH   4   5
ENDBRANCH   3   4
ENDBRANCH   2   3
ENDBRANCH   1   2
BRANCH   1  11
ATOM     11  C   UNL     1      -2.483  -5.084 -25.804  1.00  0.00     0.000 C 
BRANCH  11  12
ATOM     12  C   UNL     1      -3.720  -5.028 -26.718  1.00  0.00     0.000 C 
BRANCH  12  13
ATOM     13  C   UNL     1      -4.796  -4.052 -26.214  1.00  0.00     0.000 C 
BRANCH  13  14
ATOM     14  C   UNL     1      -4.856  -2.751 -27.036  1.00  0.00     0.000 C 
BRANCH  14  15
ATOM     15  C   UNL     1      -4.855  -1.449 -26.210  1.00  0.00     0.000 C 
BRANCH  15  16
ATOM     16  C   UNL     1      -3.854  -1.417 -25.038  1.00  0.00     0.006 C 
BRANCH  16  17
ATOM     17  C   UNL     1      -2.844  -0.261 -25.097  1.00  0.00     0.053 C 
BRANCH  17  18
ATOM     18  C   UNL     1      -3.151   0.802 -24.088  1.00  0.00     0.041 C 
ATOM     19  O   UNL     1      -4.273   1.373 -24.089  1.00  0.00    -0.550 OA
ATOM     20  O   UNL     1      -2.209   1.137 -23.123  1.00  0.00    -0.550 OA
ENDBRANCH  17  18
ENDBRANCH  16  17
ENDBRANCH  15  16
ENDBRANCH  14  15
ENDBRANCH  13  14
ENDBRANCH  12  13
ENDBRANCH  11  12
ENDBRANCH   1  11
TORSDOF 15
ENDMDL
MODEL 5
REMARK VINA RESULT:    -3.435      1.655      6.717
REMARK INTER + INTRA:          -8.714
REMARK INTER:                  -7.147
REMARK INTRA:                  -1.566
REMARK UNBOUND:                -2.267
REMARK SMILES O=C([O-])CCCCCCCCCCCCCCC(=O)[O-]
REMARK SMILES IDX 10 1 9 2 8 3 7 4 6 5 5 6 4 7 2 8 1 9 3 10 11 11 12 12 13 13
REMARK SMILES IDX 14 14 15 15 16 16 17 17 18 18 19 19 20 20
REMARK H PARENT
REMARK Flexibility Score: inf
ROOT
ATOM      1  C   UNL     1      -0.981  -2.522 -26.559  1.00  0.00     0.000 C 
ENDROOT
BRANCH   1   2
ATOM      2  C   UNL     1      -1.299  -1.037 -26.809  1.00  0.00     0.000 C 
BRANCH   2   3
ATOM      3  C   UNL     1      -2.164  -0.760 -28.053  1.00  0.00     0.000 C 
BRANCH   3   4
ATOM      4  C   UNL     1      -1.344  -0.488 -29.332  1.00  0.00     0.000 C 
BRANCH   4   5
ATOM      5  C   UNL     1      -1.676   0.870 -29.968  1.00  0.00     0.000 C 
BRANCH   5   6
ATOM      6  C   UNL     1      -1.641   0.783 -31.500  1.00  0.00     0.006 C 
BRANCH   6   7
ATOM      7  C   UNL     1      -0.620   1.751 -32.115  1.00  0.00     0.053 C 
BRANCH   7   8
ATOM      8  C   UNL     1       0.753   1.540 -31.555  1.00  0.00     0.041 C 
ATOM      9  O   UNL     1       1.390   0.487 -31.817  1.00  0.00    -0.550 OA
ATOM     10  O   UNL     1       1.316   2.495 -30.715  1.00  0.00    -0.550 OA
ENDBRANCH   7   8
ENDBRANCH   6   7
ENDBRANCH   5   6
ENDBRANCH   4   5
ENDBRANCH   3   4
ENDBRANCH   2   3
ENDBRANCH   1   2
BRANCH   1  11
ATOM     11  C   UNL     1      -1.618  -3.507 -27.563  1.00  0.00     0.000 C 
BRANCH  11  12
ATOM     12  C   UNL     1      -2.320  -4.725 -26.937  1.00  0.00     0.000 C 
BRANCH  12  13
ATOM     13  C   UNL     1      -3.548  -4.341 -26.095  1.00  0.00     0.000 C 
BRANCH  13  14
ATOM     14  C   UNL     1      -4.740  -3.878 -26.953  1.00  0.00     0.000 C 
BRANCH  14  15
ATOM     15  C   UNL     1      -5.172  -2.412 -26.744  1.00  0.00     0.000 C 
BRANCH  15  16
ATOM     16  C   UNL     1      -4.834  -1.819 -25.362  1.00  0.00     0.006 C 
BRANCH  16  17
ATOM     17  C   UNL     1      -4.984  -0.293 -25.273  1.00  0.00     0.053 C 
BRANCH  17  18
ATOM     18  C   UNL     1      -4.226   0.276 -24.113  1.00  0.00     0.041 C 
ATOM     19  O   UNL     1      -3.528  -0.475 -23.381  1.00  0.00    -0.550 OA
ATOM     20  O   UNL     1      -4.263   1.641 -23.861  1.00  0.00    -0.550 OA
ENDBRANCH  17  18
ENDBRANCH  16  17
ENDBRANCH  15  16
ENDBRANCH  14  15
ENDBRANCH  13  14
ENDBRANCH  12  13
ENDBRANCH  11  12
ENDBRANCH   1  11
TORSDOF 15
ENDMDL
MODEL 6
REMARK VINA RESULT:    -3.416     14.219     16.682
REMARK INTER + INTRA:          -8.678
REMARK INTER:                  -6.784
REMARK INTRA:                  -1.894
REMARK UNBOUND:                -2.267
REMARK SMILES O=C([O-])CCCCCCCCCCCCCCC(=O)[O-]
REMARK SMILES IDX 10 1 9 2 8 3 7 4 6 5 5 6 4 7 2 8 1 9 3 10 11 11 12 12 13 13
REMARK SMILES IDX 14 14 15 15 16 16 17 17 18 18 19 19 20 20
REMARK H PARENT
REMARK Flexibility Score: inf
ROOT
ATOM      1  C   UNL     1      10.698  -6.827 -23.774  1.00  0.00     0.000 C 
ENDROOT
BRANCH   1   2
ATOM      2  C   UNL     1      11.927  -7.182 -24.631  1.00  0.00     0.000 C 
BRANCH   2   3
ATOM      3  C   UNL     1      13.103  -7.800 -23.851  1.00  0.00     0.000 C 
BRANCH   3   4
ATOM      4  C   UNL     1      13.667  -9.086 -24.495  1.00  0.00     0.000 C 
BRANCH   4   5
ATOM      5  C   UNL     1      12.617  -9.840 -25.323  1.00  0.00     0.000 C 
BRANCH   5   6
ATOM      6  C   UNL     1      12.137 -11.099 -24.587  1.00  0.00     0.006 C 
BRANCH   6   7
ATOM      7  C   UNL     1      13.070 -11.488 -23.431  1.00  0.00     0.053 C 
BRANCH   7   8
ATOM      8  C   UNL     1      12.357 -11.478 -22.114  1.00  0.00     0.041 C 
ATOM      9  O   UNL     1      11.548 -10.555 -21.838  1.00  0.00    -0.550 OA
ATOM     10  O   UNL     1      12.614 -12.471 -21.176  1.00  0.00    -0.550 OA
ENDBRANCH   7   8
ENDBRANCH   6   7
ENDBRANCH   5   6
ENDBRANCH   4   5
ENDBRANCH   3   4
ENDBRANCH   2   3
ENDBRANCH   1   2
BRANCH   1  11
ATOM     11  C   UNL     1      10.129  -5.410 -23.996  1.00  0.00     0.000 C 
BRANCH  11  12
ATOM     12  C   UNL     1      10.809  -4.594 -25.110  1.00  0.00     0.000 C 
BRANCH  12  13
ATOM     13  C   UNL     1      11.488  -3.317 -24.589  1.00  0.00     0.000 C 
BRANCH  13  14
ATOM     14  C   UNL     1      11.353  -3.146 -23.065  1.00  0.00     0.000 C 
BRANCH  14  15
ATOM     15  C   UNL     1      12.672  -3.235 -22.272  1.00  0.00     0.000 C 
BRANCH  15  16
ATOM     16  C   UNL     1      13.461  -4.547 -22.455  1.00  0.00     0.006 C 
BRANCH  16  17
ATOM     17  C   UNL     1      13.869  -5.231 -21.140  1.00  0.00     0.053 C 
BRANCH  17  18
ATOM     18  C   UNL     1      12.678  -5.677 -20.350  1.00  0.00     0.041 C 
ATOM     19  O   UNL     1      12.100  -6.761 -20.630  1.00  0.00    -0.550 OA
ATOM     20  O   UNL     1      12.227  -4.913 -19.281  1.00  0.00    -0.550 OA
ENDBRANCH  17  18
ENDBRANCH  16  17
ENDBRANCH  15  16
ENDBRANCH  14  15
ENDBRANCH  13  14
ENDBRANCH  12  13
ENDBRANCH  11  12
ENDBRANCH   1  11
TORSDOF 15
ENDMDL
MODEL 7
REMARK VINA RESULT:    -3.404     13.651     16.471
REMARK INTER + INTRA:          -8.656
REMARK INTER:                  -6.548
REMARK INTRA:                  -2.109
REMARK UNBOUND:                -2.267
REMARK SMILES O=C([O-])CCCCCCCCCCCCCCC(=O)[O-]
REMARK SMILES IDX 10 1 9 2 8 3 7 4 6 5 5 6 4 7 2 8 1 9 3 10 11 11 12 12 13 13
REMARK SMILES IDX 14 14 15 15 16 16 17 17 18 18 19 19 20 20
REMARK H PARENT
REMARK Flexibility Score: inf
ROOT
ATOM      1  C   UNL     1      10.001  -4.118 -24.356  1.00  0.00     0.000 C 
ENDROOT
BRANCH   1   2
ATOM      2  C   UNL     1       9.826  -5.304 -23.390  1.00  0.00     0.000 C 
BRANCH   2   3
ATOM      3  C   UNL     1      10.802  -6.474 -23.617  1.00  0.00     0.000 C 
BRANCH   3   4
ATOM      4  C   UNL     1      11.592  -6.376 -24.941  1.00  0.00     0.000 C 
BRANCH   4   5
ATOM      5  C   UNL     1      12.137  -7.735 -25.404  1.00  0.00     0.000 C 
BRANCH   5   6
ATOM      6  C   UNL     1      12.117  -8.754 -24.256  1.00  0.00     0.006 C 
BRANCH   6   7
ATOM      7  C   UNL     1      13.402  -9.592 -24.199  1.00  0.00     0.053 C 
BRANCH   7   8
ATOM      8  C   UNL     1      13.114 -11.032 -23.903  1.00  0.00     0.041 C 
ATOM      9  O   UNL     1      12.195 -11.634 -24.517  1.00  0.00    -0.550 OA
ATOM     10  O   UNL     1      13.841 -11.700 -22.924  1.00  0.00    -0.550 OA
ENDBRANCH   7   8
ENDBRANCH   6   7
ENDBRANCH   5   6
ENDBRANCH   4   5
ENDBRANCH   3   4
ENDBRANCH   2   3
ENDBRANCH   1   2
BRANCH   1  11
ATOM     11  C   UNL     1      10.793  -2.921 -23.789  1.00  0.00     0.000 C 
BRANCH  11  12
ATOM     12  C   UNL     1      12.034  -2.508 -24.600  1.00  0.00     0.000 C 
BRANCH  12  13
ATOM     13  C   UNL     1      13.346  -2.679 -23.816  1.00  0.00     0.000 C 
BRANCH  13  14
ATOM     14  C   UNL     1      13.140  -3.335 -22.439  1.00  0.00     0.000 C 
BRANCH  14  15
ATOM     15  C   UNL     1      13.742  -4.746 -22.283  1.00  0.00     0.000 C 
BRANCH  15  16
ATOM     16  C   UNL     1      13.375  -5.476 -20.976  1.00  0.00     0.006 C 
BRANCH  16  17
ATOM     17  C   UNL     1      12.094  -4.962 -20.301  1.00  0.00     0.053 C 
BRANCH  17  18
ATOM     18  C   UNL     1      11.108  -6.063 -20.063  1.00  0.00     0.041 C 
ATOM     19  O   UNL     1       9.902  -5.794 -19.820  1.00  0.00    -0.550 OA
ATOM     20  O   UNL     1      11.513  -7.389 -20.145  1.00  0.00    -0.550 OA
ENDBRANCH  17  18
ENDBRANCH  16  17
ENDBRANCH  15  16
ENDBRANCH  14  15
ENDBRANCH  13  14
ENDBRANCH  12  13
ENDBRANCH  11  12
ENDBRANCH   1  11
TORSDOF 15
ENDMDL
MODEL 8
REMARK VINA RESULT:    -3.389     13.627     16.099
REMARK INTER + INTRA:          -8.629
REMARK INTER:                  -6.269
REMARK INTRA:                  -2.360
REMARK UNBOUND:                -2.267
REMARK SMILES O=C([O-])CCCCCCCCCCCCCCC(=O)[O-]
REMARK SMILES IDX 10 1 9 2 8 3 7 4 6 5 5 6 4 7 2 8 1 9 3 10 11 11 12 12 13 13
REMARK SMILES IDX 14 14 15 15 16 16 17 17 18 18 19 19 20 20
REMARK H PARENT
REMARK Flexibility Score: inf
ROOT
ATOM      1  C   UNL     1       9.536  -5.300 -21.881  1.00  0.00     0.000 C 
ENDROOT
BRANCH   1   2
ATOM      2  C   UNL     1       9.737  -6.579 -22.714  1.00  0.00     0.000 C 
BRANCH   2   3
ATOM      3  C   UNL     1      10.119  -6.339 -24.187  1.00  0.00     0.000 C 
BRANCH   3   4
ATOM      4  C   UNL     1      11.494  -6.923 -24.576  1.00  0.00     0.000 C 
BRANCH   4   5
ATOM      5  C   UNL     1      12.082  -7.826 -23.482  1.00  0.00     0.000 C 
BRANCH   5   6
ATOM      6  C   UNL     1      13.327  -8.566 -23.990  1.00  0.00     0.006 C 
BRANCH   6   7
ATOM      7  C   UNL     1      12.969  -9.773 -24.869  1.00  0.00     0.053 C 
BRANCH   7   8
ATOM      8  C   UNL     1      12.701 -10.997 -24.048  1.00  0.00     0.041 C 
ATOM      9  O   UNL     1      13.657 -11.678 -23.595  1.00  0.00    -0.550 OA
ATOM     10  O   UNL     1      11.393 -11.404 -23.813  1.00  0.00    -0.550 OA
ENDBRANCH   7   8
ENDBRANCH   6   7
ENDBRANCH   5   6
ENDBRANCH   4   5
ENDBRANCH   3   4
ENDBRANCH   2   3
ENDBRANCH   1   2
BRANCH   1  11
ATOM     11  C   UNL     1      10.122  -5.347 -20.454  1.00  0.00     0.000 C 
BRANCH  11  12
ATOM     12  C   UNL     1      11.470  -6.076 -20.319  1.00  0.00     0.000 C 
BRANCH  12  13
ATOM     13  C   UNL     1      12.658  -5.114 -20.144  1.00  0.00     0.000 C 
BRANCH  13  14
ATOM     14  C   UNL     1      13.702  -5.241 -21.268  1.00  0.00     0.000 C 
BRANCH  14  15
ATOM     15  C   UNL     1      13.356  -4.500 -22.575  1.00  0.00     0.000 C 
BRANCH  15  16
ATOM     16  C   UNL     1      12.713  -3.111 -22.391  1.00  0.00     0.006 C 
BRANCH  16  17
ATOM     17  C   UNL     1      11.468  -2.869 -23.259  1.00  0.00     0.053 C 
BRANCH  17  18
ATOM     18  C   UNL     1      11.825  -2.640 -24.696  1.00  0.00     0.041 C 
ATOM     19  O   UNL     1      11.140  -3.167 -25.612  1.00  0.00    -0.550 OA
ATOM     20  O   UNL     1      12.894  -1.816 -25.024  1.00  0.00    -0.550 OA
ENDBRANCH  17  18
ENDBRANCH  16  17
ENDBRANCH  15  16
ENDBRANCH  14  15
ENDBRANCH  13  14
ENDBRANCH  12  13
ENDBRANCH  11  12
ENDBRANCH   1  11
TORSDOF 15
ENDMDL
MODEL 9
REMARK VINA RESULT:    -3.381      2.730      4.545
REMARK INTER + INTRA:          -8.614
REMARK INTER:                  -6.437
REMARK INTRA:                  -2.177
REMARK UNBOUND:                -2.267
REMARK SMILES O=C([O-])CCCCCCCCCCCCCCC(=O)[O-]
REMARK SMILES IDX 10 1 9 2 8 3 7 4 6 5 5 6 4 7 2 8 1 9 3 10 11 11 12 12 13 13
REMARK SMILES IDX 14 14 15 15 16 16 17 17 18 18 19 19 20 20
REMARK H PARENT
REMARK Flexibility Score: inf
ROOT
ATOM      1  C   UNL     1      -4.336  -1.144 -24.902  1.00  0.00     0.000 C 
ENDROOT
BRANCH   1   2
ATOM      2  C   UNL     1      -5.028  -1.326 -26.266  1.00  0.00     0.000 C 
BRANCH   2   3
ATOM      3  C   UNL     1      -4.488  -2.493 -27.114  1.00  0.00     0.000 C 
BRANCH   3   4
ATOM      4  C   UNL     1      -4.778  -3.886 -26.512  1.00  0.00     0.000 C 
BRANCH   4   5
ATOM      5  C   UNL     1      -3.608  -4.863 -26.697  1.00  0.00     0.000 C 
BRANCH   5   6
ATOM      6  C   UNL     1      -2.265  -4.168 -26.431  1.00  0.00     0.006 C 
BRANCH   6   7
ATOM      7  C   UNL     1      -1.280  -4.342 -27.595  1.00  0.00     0.053 C 
BRANCH   7   8
ATOM      8  C   UNL     1      -0.475  -5.598 -27.460  1.00  0.00     0.041 C 
ATOM      9  O   UNL     1      -0.347  -6.151 -26.337  1.00  0.00    -0.550 OA
ATOM     10  O   UNL     1       0.161  -6.139 -28.572  1.00  0.00    -0.550 OA
ENDBRANCH   7   8
ENDBRANCH   6   7
ENDBRANCH   5   6
ENDBRANCH   4   5
ENDBRANCH   3   4
ENDBRANCH   2   3
ENDBRANCH   1   2
BRANCH   1  11
ATOM     11  C   UNL     1      -3.890   0.298 -24.581  1.00  0.00     0.000 C 
BRANCH  11  12
ATOM     12  C   UNL     1      -2.398   0.594 -24.816  1.00  0.00     0.000 C 
BRANCH  12  13
ATOM     13  C   UNL     1      -1.547  -0.680 -24.945  1.00  0.00     0.000 C 
BRANCH  13  14
ATOM     14  C   UNL     1      -0.838  -0.792 -26.307  1.00  0.00     0.000 C 
BRANCH  14  15
ATOM     15  C   UNL     1      -1.509  -0.022 -27.464  1.00  0.00     0.000 C 
BRANCH  15  16
ATOM     16  C   UNL     1      -1.648  -0.810 -28.782  1.00  0.00     0.006 C 
BRANCH  16  17
ATOM     17  C   UNL     1      -0.578  -0.479 -29.834  1.00  0.00     0.053 C 
BRANCH  17  18
ATOM     18  C   UNL     1      -1.142   0.316 -30.972  1.00  0.00     0.041 C 
ATOM     19  O   UNL     1      -0.520   0.389 -32.065  1.00  0.00    -0.550 OA
ATOM     20  O   UNL     1      -2.371   0.948 -30.837  1.00  0.00    -0.550 OA
ENDBRANCH  17  18
ENDBRANCH  16  17
ENDBRANCH  15  16
ENDBRANCH  14  15
ENDBRANCH  13  14
ENDBRANCH  12  13
ENDBRANCH  11  12
ENDBRANCH   1  11
TORSDOF 15
ENDMDL
