MODEL 1
REMARK VINA RESULT:    -2.368      0.000      0.000
REMARK INTER + INTRA:          -2.368
REMARK INTER:                  -2.368
REMARK INTRA:                   0.000
REMARK UNBOUND:                 0.000
REMARK SMILES CC(=O)[O-]
REMARK SMILES IDX 1 1 2 2 3 3 4 4
REMARK H PARENT
REMARK Flexibility Score: inf
ROOT
ATOM      1  C   UNL     1      20.976  10.089  28.008  1.00  0.00     0.063 C 
ATOM      2  C   UNL     1      22.094  11.000  27.624  1.00  0.00     0.038 C 
ATOM      3  O   UNL     1      23.282  10.693  27.901  1.00  0.00    -0.550 OA
ATOM      4  O   UNL     1      21.831  12.163  26.911  1.00  0.00    -0.550 OA
ENDROOT
TORSDOF 0
ENDMDL
MODEL 2
REMARK VINA RESULT:    -2.298     16.798     17.040
REMARK INTER + INTRA:          -2.298
REMARK INTER:                  -2.298
REMARK INTRA:                   0.000
REMARK UNBOUND:                 0.000
REMARK SMILES CC(=O)[O-]
REMARK SMILES IDX 1 1 2 2 3 3 4 4
REMARK H PARENT
REMARK Flexibility Score: inf
ROOT
ATOM      1  C   UNL     1      33.628   9.596  39.695  1.00  0.00     0.063 C 
ATOM      2  C   UNL     1      33.293  10.913  40.310  1.00  0.00     0.038 C 
ATOM      3  O   UNL     1      33.609  11.982  39.725  1.00  0.00    -0.550 OA
ATOM      4  O   UNL     1      32.584  10.964  41.503  1.00  0.00    -0.550 OA
ENDROOT
TORSDOF 0
ENDMDL
MODEL 3
REMARK VINA RESULT:    -2.234     21.542     21.609
REMARK INTER + INTRA:          -2.234
REMARK INTER:                  -2.234
REMARK INTRA:                   0.000
REMARK UNBOUND:                 0.000
REMARK SMILES CC(=O)[O-]
REMARK SMILES IDX 1 1 2 2 3 3 4 4
REMARK H PARENT
REMARK Flexibility Score: inf
ROOT
ATOM      1  C   UNL     1      20.581  21.622  47.033  1.00  0.00     0.063 C 
ATOM      2  C   UNL     1      21.040  22.380  45.833  1.00  0.00     0.038 C 
ATOM      3  O   UNL     1      20.198  22.858  45.029  1.00  0.00    -0.550 OA
ATOM      4  O   UNL     1      22.395  22.605  45.628  1.00  0.00    -0.550 OA
ENDROOT
TORSDOF 0
ENDMDL
MODEL 4
REMARK VINA RESULT:    -2.154      1.426      2.085
REMARK INTER + INTRA:          -2.154
REMARK INTER:                  -2.154
REMARK INTRA:                   0.000
REMARK UNBOUND:                 0.000
REMARK SMILES CC(=O)[O-]
REMARK SMILES IDX 1 1 2 2 3 3 4 4
REMARK H PARENT
REMARK Flexibility Score: inf
ROOT
ATOM      1  C   UNL     1      21.551  11.939  26.876  1.00  0.00     0.063 C 
ATOM      2  C   UNL     1      21.851  10.724  27.689  1.00  0.00     0.038 C 
ATOM      3  O   UNL     1      20.916   9.971  28.066  1.00  0.00    -0.550 OA
ATOM      4  O   UNL     1      23.166  10.392  27.985  1.00  0.00    -0.550 OA
ENDROOT
TORSDOF 0
ENDMDL
MODEL 5
REMARK VINA RESULT:    -1.883     21.869     21.964
REMARK INTER + INTRA:          -1.883
REMARK INTER:                  -1.883
REMARK INTRA:                   0.000
REMARK UNBOUND:                 0.000
REMARK SMILES CC(=O)[O-]
REMARK SMILES IDX 1 1 2 2 3 3 4 4
REMARK H PARENT
REMARK Flexibility Score: inf
ROOT
ATOM      1  C   UNL     1      21.547  22.307  45.744  1.00  0.00     0.063 C 
ATOM      2  C   UNL     1      20.145  22.783  45.925  1.00  0.00     0.038 C 
ATOM      3  O   UNL     1      19.542  23.348  44.976  1.00  0.00    -0.550 OA
ATOM      4  O   UNL     1      19.482  22.557  47.125  1.00  0.00    -0.550 OA
ENDROOT
TORSDOF 0
ENDMDL
MODEL 6
REMARK VINA RESULT:    -1.880     16.910     17.161
REMARK INTER + INTRA:          -1.880
REMARK INTER:                  -1.880
REMARK INTRA:                   0.000
REMARK UNBOUND:                 0.000
REMARK SMILES CC(=O)[O-]
REMARK SMILES IDX 1 1 2 2 3 3 4 4
REMARK H PARENT
REMARK Flexibility Score: inf
ROOT
ATOM      1  C   UNL     1      34.028  12.074  39.983  1.00  0.00     0.063 C 
ATOM      2  C   UNL     1      33.282  10.857  40.418  1.00  0.00     0.038 C 
ATOM      3  O   UNL     1      32.479  10.921  41.384  1.00  0.00    -0.550 OA
ATOM      4  O   UNL     1      33.432   9.663  39.724  1.00  0.00    -0.550 OA
ENDROOT
TORSDOF 0
ENDMDL
MODEL 7
REMARK VINA RESULT:    -1.835     16.806     17.002
REMARK INTER + INTRA:          -1.835
REMARK INTER:                  -1.835
REMARK INTRA:                   0.000
REMARK UNBOUND:                 0.000
REMARK SMILES CC(=O)[O-]
REMARK SMILES IDX 1 1 2 2 3 3 4 4
REMARK H PARENT
REMARK Flexibility Score: inf
ROOT
ATOM      1  C   UNL     1      32.615  10.984  41.475  1.00  0.00     0.063 C 
ATOM      2  C   UNL     1      33.334  10.874  40.172  1.00  0.00     0.038 C 
ATOM      3  O   UNL     1      33.666  11.913  39.544  1.00  0.00    -0.550 OA
ATOM      4  O   UNL     1      33.688   9.626  39.676  1.00  0.00    -0.550 OA
ENDROOT
TORSDOF 0
ENDMDL
MODEL 8
REMARK VINA RESULT:    -1.817     22.096     22.157
REMARK INTER + INTRA:          -1.817
REMARK INTER:                  -1.817
REMARK INTRA:                   0.000
REMARK UNBOUND:                 0.000
REMARK SMILES CC(=O)[O-]
REMARK SMILES IDX 1 1 2 2 3 3 4 4
REMARK H PARENT
REMARK Flexibility Score: inf
ROOT
ATOM      1  C   UNL     1      20.626  21.688  46.819  1.00  0.00     0.063 C 
ATOM      2  C   UNL     1      19.842  22.787  46.183  1.00  0.00     0.038 C 
ATOM      3  O   UNL     1      18.840  23.270  46.771  1.00  0.00    -0.550 OA
ATOM      4  O   UNL     1      20.249  23.317  44.965  1.00  0.00    -0.550 OA
ENDROOT
TORSDOF 0
ENDMDL
MODEL 9
REMARK VINA RESULT:    -1.589     16.301     16.694
REMARK INTER + INTRA:          -1.589
REMARK INTER:                  -1.589
REMARK INTRA:                   0.000
REMARK UNBOUND:                 0.000
REMARK SMILES CC(=O)[O-]
REMARK SMILES IDX 1 1 2 2 3 3 4 4
REMARK H PARENT
REMARK Flexibility Score: inf
ROOT
ATOM      1  C   UNL     1      31.385  25.125  32.803  1.00  0.00     0.063 C 
ATOM      2  C   UNL     1      30.214  24.724  31.972  1.00  0.00     0.038 C 
ATOM      3  O   UNL     1      30.375  23.981  30.969  1.00  0.00    -0.550 OA
ATOM      4  O   UNL     1      28.933  25.124  32.333  1.00  0.00    -0.550 OA
ENDROOT
TORSDOF 0
ENDMDL
