MODEL 1
REMARK VINA RESULT:    -4.479      0.000      0.000
REMARK INTER + INTRA:          -4.610
REMARK INTER:                  -4.610
REMARK INTRA:                   0.000
REMARK UNBOUND:                 0.000
REMARK SMILES O=c1ccc2cc(O)ccc2o1
REMARK SMILES IDX 9 1 10 2 11 3 5 4 4 5 3 6 2 7 1 8 12 9 6 10 7 11 8 12
REMARK H PARENT 8 13
REMARK Flexibility Score: inf
ROOT
ATOM      1  C   UNL     1      16.823  17.653  31.115  1.00  0.00     0.050 A 
ATOM      2  C   UNL     1      16.073  17.544  32.290  1.00  0.00     0.052 A 
ATOM      3  C   UNL     1      14.703  17.269  32.224  1.00  0.00     0.138 A 
ATOM      4  C   UNL     1      14.081  17.102  30.966  1.00  0.00     0.021 A 
ATOM      5  C   UNL     1      12.710  16.828  30.932  1.00  0.00     0.019 A 
ATOM      6  C   UNL     1      12.002  16.729  32.129  1.00  0.00     0.094 A 
ATOM      7  C   UNL     1      12.684  16.907  33.338  1.00  0.00     0.336 A 
ATOM      8  O   UNL     1      12.063  16.821  34.429  1.00  0.00    -0.246 OA
ATOM      9  O   UNL     1      13.990  17.166  33.343  1.00  0.00    -0.423 OA
ATOM     10  C   UNL     1      14.838  17.212  29.791  1.00  0.00     0.058 A 
ATOM     11  C   UNL     1      16.211  17.488  29.866  1.00  0.00     0.116 A 
ENDROOT
BRANCH  11  12
ATOM     12  O   UNL     1      16.977  17.600  28.707  1.00  0.00    -0.508 OA
ATOM     13  H   UNL     1      16.598  18.009  27.861  1.00  0.00     0.293 HD
ENDBRANCH  11  12
TORSDOF 1
ENDMDL
MODEL 2
REMARK VINA RESULT:    -4.356      2.550      3.072
REMARK INTER + INTRA:          -4.484
REMARK INTER:                  -4.484
REMARK INTRA:                   0.000
REMARK UNBOUND:                 0.000
REMARK SMILES O=c1ccc2cc(O)ccc2o1
REMARK SMILES IDX 9 1 10 2 11 3 5 4 4 5 3 6 2 7 1 8 12 9 6 10 7 11 8 12
REMARK H PARENT 8 13
REMARK Flexibility Score: inf
ROOT
ATOM      1  C   UNL     1      14.689  17.236  30.755  1.00  0.00     0.050 A 
ATOM      2  C   UNL     1      13.374  17.067  31.201  1.00  0.00     0.052 A 
ATOM      3  C   UNL     1      12.576  16.053  30.662  1.00  0.00     0.138 A 
ATOM      4  C   UNL     1      13.103  15.200  29.666  1.00  0.00     0.021 A 
ATOM      5  C   UNL     1      12.280  14.195  29.147  1.00  0.00     0.019 A 
ATOM      6  C   UNL     1      10.976  14.064  29.622  1.00  0.00     0.094 A 
ATOM      7  C   UNL     1      10.521  14.946  30.609  1.00  0.00     0.336 A 
ATOM      8  O   UNL     1       9.347  14.844  31.051  1.00  0.00    -0.246 OA
ATOM      9  O   UNL     1      11.325  15.894  31.087  1.00  0.00    -0.423 OA
ATOM     10  C   UNL     1      14.421  15.373  29.223  1.00  0.00     0.058 A 
ATOM     11  C   UNL     1      15.215  16.392  29.768  1.00  0.00     0.116 A 
ENDROOT
BRANCH  11  12
ATOM     12  O   UNL     1      16.528  16.577  29.338  1.00  0.00    -0.508 OA
ATOM     13  H   UNL     1      16.787  16.458  28.365  1.00  0.00     0.293 HD
ENDBRANCH  11  12
TORSDOF 1
ENDMDL
MODEL 3
REMARK VINA RESULT:    -4.254      1.378      2.569
REMARK INTER + INTRA:          -4.378
REMARK INTER:                  -4.378
REMARK INTRA:                   0.000
REMARK UNBOUND:                 0.000
REMARK SMILES O=c1ccc2cc(O)ccc2o1
REMARK SMILES IDX 9 1 10 2 11 3 5 4 4 5 3 6 2 7 1 8 12 9 6 10 7 11 8 12
REMARK H PARENT 8 13
REMARK Flexibility Score: inf
ROOT
ATOM      1  C   UNL     1      14.374  16.526  29.964  1.00  0.00     0.050 A 
ATOM      2  C   UNL     1      13.853  16.484  31.261  1.00  0.00     0.052 A 
ATOM      3  C   UNL     1      14.482  17.190  32.292  1.00  0.00     0.138 A 
ATOM      4  C   UNL     1      15.645  17.945  32.017  1.00  0.00     0.021 A 
ATOM      5  C   UNL     1      16.250  18.640  33.068  1.00  0.00     0.019 A 
ATOM      6  C   UNL     1      15.696  18.570  34.346  1.00  0.00     0.094 A 
ATOM      7  C   UNL     1      14.543  17.802  34.544  1.00  0.00     0.336 A 
ATOM      8  O   UNL     1      14.028  17.726  35.689  1.00  0.00    -0.246 OA
ATOM      9  O   UNL     1      13.985  17.150  33.526  1.00  0.00    -0.423 OA
ATOM     10  C   UNL     1      16.162  17.984  30.715  1.00  0.00     0.058 A 
ATOM     11  C   UNL     1      15.526  17.273  29.687  1.00  0.00     0.116 A 
ENDROOT
BRANCH  11  12
ATOM     12  O   UNL     1      16.029  17.301  28.388  1.00  0.00    -0.508 OA
ATOM     13  H   UNL     1      17.024  17.373  28.208  1.00  0.00     0.293 HD
ENDBRANCH  11  12
TORSDOF 1
ENDMDL
MODEL 4
REMARK VINA RESULT:    -4.242      2.201      2.831
REMARK INTER + INTRA:          -4.366
REMARK INTER:                  -4.366
REMARK INTRA:                   0.000
REMARK UNBOUND:                 0.000
REMARK SMILES O=c1ccc2cc(O)ccc2o1
REMARK SMILES IDX 9 1 10 2 11 3 5 4 4 5 3 6 2 7 1 8 12 9 6 10 7 11 8 12
REMARK H PARENT 8 13
REMARK Flexibility Score: inf
ROOT
ATOM      1  C   UNL     1      16.264  18.571  32.583  1.00  0.00     0.050 A 
ATOM      2  C   UNL     1      15.341  17.523  32.649  1.00  0.00     0.052 A 
ATOM      3  C   UNL     1      15.029  16.790  31.499  1.00  0.00     0.138 A 
ATOM      4  C   UNL     1      15.650  17.113  30.272  1.00  0.00     0.021 A 
ATOM      5  C   UNL     1      15.318  16.362  29.140  1.00  0.00     0.019 A 
ATOM      6  C   UNL     1      14.392  15.326  29.253  1.00  0.00     0.094 A 
ATOM      7  C   UNL     1      13.816  15.063  30.501  1.00  0.00     0.336 A 
ATOM      8  O   UNL     1      12.979  14.132  30.623  1.00  0.00    -0.246 OA
ATOM      9  O   UNL     1      14.150  15.793  31.564  1.00  0.00    -0.423 OA
ATOM     10  C   UNL     1      16.576  18.164  30.211  1.00  0.00     0.058 A 
ATOM     11  C   UNL     1      16.883  18.894  31.369  1.00  0.00     0.116 A 
ENDROOT
BRANCH  11  12
ATOM     12  O   UNL     1      17.800  19.943  31.325  1.00  0.00    -0.508 OA
ATOM     13  H   UNL     1      17.811  20.603  30.556  1.00  0.00     0.293 HD
ENDBRANCH  11  12
TORSDOF 1
ENDMDL
MODEL 5
REMARK VINA RESULT:    -4.165      1.875      2.181
REMARK INTER + INTRA:          -4.287
REMARK INTER:                  -4.287
REMARK INTRA:                   0.000
REMARK UNBOUND:                 0.000
REMARK SMILES O=c1ccc2cc(O)ccc2o1
REMARK SMILES IDX 9 1 10 2 11 3 5 4 4 5 3 6 2 7 1 8 12 9 6 10 7 11 8 12
REMARK H PARENT 8 13
REMARK Flexibility Score: inf
ROOT
ATOM      1  C   UNL     1      16.010  15.340  29.705  1.00  0.00     0.050 A 
ATOM      2  C   UNL     1      15.043  14.599  30.393  1.00  0.00     0.052 A 
ATOM      3  C   UNL     1      13.899  15.232  30.890  1.00  0.00     0.138 A 
ATOM      4  C   UNL     1      13.724  16.621  30.695  1.00  0.00     0.021 A 
ATOM      5  C   UNL     1      12.570  17.224  31.203  1.00  0.00     0.019 A 
ATOM      6  C   UNL     1      11.633  16.447  31.882  1.00  0.00     0.094 A 
ATOM      7  C   UNL     1      11.873  15.077  32.039  1.00  0.00     0.336 A 
ATOM      8  O   UNL     1      11.039  14.359  32.649  1.00  0.00    -0.246 OA
ATOM      9  O   UNL     1      12.980  14.526  31.544  1.00  0.00    -0.423 OA
ATOM     10  C   UNL     1      14.696  17.358  30.004  1.00  0.00     0.058 A 
ATOM     11  C   UNL     1      15.841  16.716  29.509  1.00  0.00     0.116 A 
ENDROOT
BRANCH  11  12
ATOM     12  O   UNL     1      16.816  17.435  28.821  1.00  0.00    -0.508 OA
ATOM     13  H   UNL     1      17.725  17.619  29.230  1.00  0.00     0.293 HD
ENDBRANCH  11  12
TORSDOF 1
ENDMDL
MODEL 6
REMARK VINA RESULT:    -4.144      2.535      2.994
REMARK INTER + INTRA:          -4.266
REMARK INTER:                  -4.266
REMARK INTRA:                   0.000
REMARK UNBOUND:                 0.000
REMARK SMILES O=c1ccc2cc(O)ccc2o1
REMARK SMILES IDX 9 1 10 2 11 3 5 4 4 5 3 6 2 7 1 8 12 9 6 10 7 11 8 12
REMARK H PARENT 8 13
REMARK Flexibility Score: inf
ROOT
ATOM      1  C   UNL     1      16.210  16.424  29.731  1.00  0.00     0.050 A 
ATOM      2  C   UNL     1      15.209  15.519  29.364  1.00  0.00     0.052 A 
ATOM      3  C   UNL     1      13.913  15.665  29.870  1.00  0.00     0.138 A 
ATOM      4  C   UNL     1      13.620  16.729  30.753  1.00  0.00     0.021 A 
ATOM      5  C   UNL     1      12.315  16.848  31.242  1.00  0.00     0.019 A 
ATOM      6  C   UNL     1      11.349  15.923  30.849  1.00  0.00     0.094 A 
ATOM      7  C   UNL     1      11.712  14.894  29.972  1.00  0.00     0.336 A 
ATOM      8  O   UNL     1      10.854  14.049  29.606  1.00  0.00    -0.246 OA
ATOM      9  O   UNL     1      12.961  14.803  29.520  1.00  0.00    -0.423 OA
ATOM     10  C   UNL     1      14.627  17.633  31.117  1.00  0.00     0.058 A 
ATOM     11  C   UNL     1      15.924  17.480  30.605  1.00  0.00     0.116 A 
ENDROOT
BRANCH  11  12
ATOM     12  O   UNL     1      16.936  18.371  30.958  1.00  0.00    -0.508 OA
ATOM     13  H   UNL     1      16.926  18.857  31.847  1.00  0.00     0.293 HD
ENDBRANCH  11  12
TORSDOF 1
ENDMDL
MODEL 7
REMARK VINA RESULT:    -3.965      1.979      4.644
REMARK INTER + INTRA:          -4.081
REMARK INTER:                  -4.081
REMARK INTRA:                   0.000
REMARK UNBOUND:                 0.000
REMARK SMILES O=c1ccc2cc(O)ccc2o1
REMARK SMILES IDX 9 1 10 2 11 3 5 4 4 5 3 6 2 7 1 8 12 9 6 10 7 11 8 12
REMARK H PARENT 8 13
REMARK Flexibility Score: inf
ROOT
ATOM      1  C   UNL     1      13.002  15.015  29.613  1.00  0.00     0.050 A 
ATOM      2  C   UNL     1      14.353  15.177  29.288  1.00  0.00     0.052 A 
ATOM      3  C   UNL     1      15.118  16.153  29.935  1.00  0.00     0.138 A 
ATOM      4  C   UNL     1      14.520  16.974  30.918  1.00  0.00     0.021 A 
ATOM      5  C   UNL     1      15.311  17.940  31.548  1.00  0.00     0.019 A 
ATOM      6  C   UNL     1      16.653  18.066  31.192  1.00  0.00     0.094 A 
ATOM      7  C   UNL     1      17.176  17.218  30.209  1.00  0.00     0.336 A 
ATOM      8  O   UNL     1      18.385  17.316  29.874  1.00  0.00    -0.246 OA
ATOM      9  O   UNL     1      16.402  16.305  29.625  1.00  0.00    -0.423 OA
ATOM     10  C   UNL     1      13.166  16.808  31.241  1.00  0.00     0.058 A 
ATOM     11  C   UNL     1      12.406  15.827  30.587  1.00  0.00     0.116 A 
ENDROOT
BRANCH  11  12
ATOM     12  O   UNL     1      11.059  15.650  30.896  1.00  0.00    -0.508 OA
ATOM     13  H   UNL     1      10.344  16.258  30.514  1.00  0.00     0.293 HD
ENDBRANCH  11  12
TORSDOF 1
ENDMDL
MODEL 8
REMARK VINA RESULT:    -3.960      2.472      3.113
REMARK INTER + INTRA:          -4.076
REMARK INTER:                  -4.076
REMARK INTRA:                   0.000
REMARK UNBOUND:                 0.000
REMARK SMILES O=c1ccc2cc(O)ccc2o1
REMARK SMILES IDX 9 1 10 2 11 3 5 4 4 5 3 6 2 7 1 8 12 9 6 10 7 11 8 12
REMARK H PARENT 8 13
REMARK Flexibility Score: inf
ROOT
ATOM      1  C   UNL     1      17.036  18.175  30.126  1.00  0.00     0.050 A 
ATOM      2  C   UNL     1      16.299  17.233  29.401  1.00  0.00     0.052 A 
ATOM      3  C   UNL     1      15.142  16.673  29.953  1.00  0.00     0.138 A 
ATOM      4  C   UNL     1      14.723  17.061  31.245  1.00  0.00     0.021 A 
ATOM      5  C   UNL     1      13.563  16.483  31.770  1.00  0.00     0.019 A 
ATOM      6  C   UNL     1      12.859  15.549  31.011  1.00  0.00     0.094 A 
ATOM      7  C   UNL     1      13.335  15.211  29.738  1.00  0.00     0.336 A 
ATOM      8  O   UNL     1      12.714  14.370  29.038  1.00  0.00    -0.246 OA
ATOM      9  O   UNL     1      14.442  15.777  29.261  1.00  0.00    -0.423 OA
ATOM     10  C   UNL     1      15.465  18.006  31.967  1.00  0.00     0.058 A 
ATOM     11  C   UNL     1      16.624  18.563  31.407  1.00  0.00     0.116 A 
ENDROOT
BRANCH  11  12
ATOM     12  O   UNL     1      17.372  19.503  32.113  1.00  0.00    -0.508 OA
ATOM     13  H   UNL     1      18.037  19.222  32.825  1.00  0.00     0.293 HD
ENDBRANCH  11  12
TORSDOF 1
ENDMDL
MODEL 9
REMARK VINA RESULT:    -1.963      2.367      4.466
REMARK INTER + INTRA:          -2.021
REMARK INTER:                  -2.021
REMARK INTRA:                   0.000
REMARK UNBOUND:                 0.000
REMARK SMILES O=c1ccc2cc(O)ccc2o1
REMARK SMILES IDX 9 1 10 2 11 3 5 4 4 5 3 6 2 7 1 8 12 9 6 10 7 11 8 12
REMARK H PARENT 8 13
REMARK Flexibility Score: inf
ROOT
ATOM      1  C   UNL     1      11.372  15.886  30.897  1.00  0.00     0.050 A 
ATOM      2  C   UNL     1      12.324  16.854  31.234  1.00  0.00     0.052 A 
ATOM      3  C   UNL     1      13.621  16.772  30.716  1.00  0.00     0.138 A 
ATOM      4  C   UNL     1      13.964  15.708  29.852  1.00  0.00     0.021 A 
ATOM      5  C   UNL     1      15.268  15.653  29.350  1.00  0.00     0.019 A 
ATOM      6  C   UNL     1      16.184  16.640  29.712  1.00  0.00     0.094 A 
ATOM      7  C   UNL     1      15.773  17.664  30.573  1.00  0.00     0.336 A 
ATOM      8  O   UNL     1      16.584  18.564  30.912  1.00  0.00    -0.246 OA
ATOM      9  O   UNL     1      14.525  17.694  31.036  1.00  0.00    -0.423 OA
ATOM     10  C   UNL     1      13.007  14.740  29.518  1.00  0.00     0.058 A 
ATOM     11  C   UNL     1      11.709  14.830  30.042  1.00  0.00     0.116 A 
ENDROOT
BRANCH  11  12
ATOM     12  O   UNL     1      10.746  13.875  29.719  1.00  0.00    -0.508 OA
ATOM     13  H   UNL     1       9.930  14.112  29.168  1.00  0.00     0.293 HD
ENDBRANCH  11  12
TORSDOF 1
ENDMDL
