MODEL 1
REMARK VINA RESULT:    -3.718      0.000      0.000
REMARK INTER + INTRA:          -4.843
REMARK INTER:                  -4.588
REMARK INTRA:                  -0.255
REMARK UNBOUND:                -0.255
REMARK SMILES CCCCC=CC(C)=O
REMARK SMILES IDX 4 1 3 2 2 3 1 4 5 5 6 6 7 7 9 8 8 9
REMARK H PARENT
REMARK Flexibility Score: inf
ROOT
ATOM      1  C   UNL     1       8.115  -9.180  41.710  1.00  0.00     0.027 C 
ENDROOT
BRANCH   1   2
ATOM      2  C   UNL     1       6.855 -10.056  41.771  1.00  0.00     0.004 C 
BRANCH   2   3
ATOM      3  C   UNL     1       6.803 -10.927  43.035  1.00  0.00    -0.003 C 
ATOM      4  C   UNL     1       7.267 -10.181  44.286  1.00  0.00     0.004 C 
ENDBRANCH   2   3
ENDBRANCH   1   2
BRANCH   1   5
ATOM      5  C   UNL     1       7.760  -7.732  41.533  1.00  0.00    -0.023 C 
ATOM      6  C   UNL     1       7.887  -6.855  42.536  1.00  0.00     0.042 C 
BRANCH   6   7
ATOM      7  C   UNL     1       7.562  -5.420  42.406  1.00  0.00     0.152 C 
ATOM      8  O   UNL     1       7.013  -4.835  43.379  1.00  0.00    -0.295 OA
ATOM      9  C   UNL     1       7.860  -4.637  41.164  1.00  0.00     0.093 C 
ENDBRANCH   6   7
ENDBRANCH   1   5
TORSDOF 4
ENDMDL
MODEL 2
REMARK VINA RESULT:    -3.643      1.371      1.699
REMARK INTER + INTRA:          -4.750
REMARK INTER:                  -4.542
REMARK INTRA:                  -0.207
REMARK UNBOUND:                -0.255
REMARK SMILES CCCCC=CC(C)=O
REMARK SMILES IDX 4 1 3 2 2 3 1 4 5 5 6 6 7 7 9 8 8 9
REMARK H PARENT
REMARK Flexibility Score: inf
ROOT
ATOM      1  C   UNL     1       8.126  -8.784  42.200  1.00  0.00     0.027 C 
ENDROOT
BRANCH   1   2
ATOM      2  C   UNL     1       8.117  -8.806  43.736  1.00  0.00     0.004 C 
BRANCH   2   3
ATOM      3  C   UNL     1       7.337 -10.001  44.304  1.00  0.00    -0.003 C 
ATOM      4  C   UNL     1       6.555 -10.759  43.232  1.00  0.00     0.004 C 
ENDBRANCH   2   3
ENDBRANCH   1   2
BRANCH   1   5
ATOM      5  C   UNL     1       8.345  -7.393  41.680  1.00  0.00    -0.023 C 
ATOM      6  C   UNL     1       7.667  -6.349  42.174  1.00  0.00     0.042 C 
BRANCH   6   7
ATOM      7  C   UNL     1       7.855  -4.962  41.702  1.00  0.00     0.152 C 
ATOM      8  O   UNL     1       7.868  -4.743  40.461  1.00  0.00    -0.295 OA
ATOM      9  C   UNL     1       8.031  -3.809  42.645  1.00  0.00     0.093 C 
ENDBRANCH   6   7
ENDBRANCH   1   5
TORSDOF 4
ENDMDL
MODEL 3
REMARK VINA RESULT:    -3.541      2.438      4.991
REMARK INTER + INTRA:          -4.624
REMARK INTER:                  -4.471
REMARK INTRA:                  -0.153
REMARK UNBOUND:                -0.255
REMARK SMILES CCCCC=CC(C)=O
REMARK SMILES IDX 4 1 3 2 2 3 1 4 5 5 6 6 7 7 9 8 8 9
REMARK H PARENT
REMARK Flexibility Score: inf
ROOT
ATOM      1  C   UNL     1       8.472  -7.259  41.611  1.00  0.00     0.027 C 
ENDROOT
BRANCH   1   2
ATOM      2  C   UNL     1       7.550  -6.030  41.593  1.00  0.00     0.004 C 
BRANCH   2   3
ATOM      3  C   UNL     1       7.572  -5.257  42.919  1.00  0.00    -0.003 C 
ATOM      4  C   UNL     1       7.986  -3.796  42.744  1.00  0.00     0.004 C 
ENDBRANCH   2   3
ENDBRANCH   1   2
BRANCH   1   5
ATOM      5  C   UNL     1       7.840  -8.400  42.355  1.00  0.00    -0.023 C 
ATOM      6  C   UNL     1       7.144  -9.348  41.716  1.00  0.00     0.042 C 
BRANCH   6   7
ATOM      7  C   UNL     1       6.514 -10.494  42.402  1.00  0.00     0.152 C 
ATOM      8  O   UNL     1       5.758 -11.254  41.738  1.00  0.00    -0.295 OA
ATOM      9  C   UNL     1       6.741 -10.786  43.855  1.00  0.00     0.093 C 
ENDBRANCH   6   7
ENDBRANCH   1   5
TORSDOF 4
ENDMDL
MODEL 4
REMARK VINA RESULT:    -3.540      2.834      4.979
REMARK INTER + INTRA:          -4.622
REMARK INTER:                  -4.391
REMARK INTRA:                  -0.232
REMARK UNBOUND:                -0.255
REMARK SMILES CCCCC=CC(C)=O
REMARK SMILES IDX 4 1 3 2 2 3 1 4 5 5 6 6 7 7 9 8 8 9
REMARK H PARENT
REMARK Flexibility Score: inf
ROOT
ATOM      1  C   UNL     1       8.085  -8.303  42.728  1.00  0.00     0.027 C 
ENDROOT
BRANCH   1   2
ATOM      2  C   UNL     1       8.402  -7.347  41.568  1.00  0.00     0.004 C 
BRANCH   2   3
ATOM      3  C   UNL     1       7.573  -6.056  41.624  1.00  0.00    -0.003 C 
ATOM      4  C   UNL     1       7.512  -5.455  43.028  1.00  0.00     0.004 C 
ENDBRANCH   2   3
ENDBRANCH   1   2
BRANCH   1   5
ATOM      5  C   UNL     1       7.254  -9.463  42.262  1.00  0.00    -0.023 C 
ATOM      6  C   UNL     1       7.004  -9.665  40.962  1.00  0.00     0.042 C 
BRANCH   6   7
ATOM      7  C   UNL     1       6.203 -10.797  40.456  1.00  0.00     0.152 C 
ATOM      8  O   UNL     1       6.473 -11.267  39.318  1.00  0.00    -0.295 OA
ATOM      9  C   UNL     1       5.083 -11.408  41.245  1.00  0.00     0.093 C 
ENDBRANCH   6   7
ENDBRANCH   1   5
TORSDOF 4
ENDMDL
MODEL 5
REMARK VINA RESULT:    -3.478      1.819      2.633
REMARK INTER + INTRA:          -4.547
REMARK INTER:                  -4.272
REMARK INTRA:                  -0.274
REMARK UNBOUND:                -0.255
REMARK SMILES CCCCC=CC(C)=O
REMARK SMILES IDX 4 1 3 2 2 3 1 4 5 5 6 6 7 7 9 8 8 9
REMARK H PARENT
REMARK Flexibility Score: inf
ROOT
ATOM      1  C   UNL     1       7.400 -10.101  44.400  1.00  0.00     0.027 C 
ENDROOT
BRANCH   1   2
ATOM      2  C   UNL     1       6.364 -10.808  43.513  1.00  0.00     0.004 C 
BRANCH   2   3
ATOM      3  C   UNL     1       6.771 -12.247  43.165  1.00  0.00    -0.003 C 
ATOM      4  C   UNL     1       7.160 -12.412  41.696  1.00  0.00     0.004 C 
ENDBRANCH   2   3
ENDBRANCH   1   2
BRANCH   1   5
ATOM      5  C   UNL     1       7.910  -8.849  43.745  1.00  0.00    -0.023 C 
ATOM      6  C   UNL     1       7.918  -8.713  42.413  1.00  0.00     0.042 C 
BRANCH   6   7
ATOM      7  C   UNL     1       8.399  -7.498  41.724  1.00  0.00     0.152 C 
ATOM      8  O   UNL     1       9.524  -7.531  41.158  1.00  0.00    -0.295 OA
ATOM      9  C   UNL     1       7.598  -6.232  41.674  1.00  0.00     0.093 C 
ENDBRANCH   6   7
ENDBRANCH   1   5
TORSDOF 4
ENDMDL
MODEL 6
REMARK VINA RESULT:    -3.425      2.130      5.371
REMARK INTER + INTRA:          -4.480
REMARK INTER:                  -4.263
REMARK INTRA:                  -0.217
REMARK UNBOUND:                -0.255
REMARK SMILES CCCCC=CC(C)=O
REMARK SMILES IDX 4 1 3 2 2 3 1 4 5 5 6 6 7 7 9 8 8 9
REMARK H PARENT
REMARK Flexibility Score: inf
ROOT
ATOM      1  C   UNL     1       7.755  -4.062  42.745  1.00  0.00     0.027 C 
ENDROOT
BRANCH   1   2
ATOM      2  C   UNL     1       8.526  -3.375  41.608  1.00  0.00     0.004 C 
BRANCH   2   3
ATOM      3  C   UNL     1       8.070  -3.845  40.219  1.00  0.00    -0.003 C 
ATOM      4  C   UNL     1       7.512  -2.708  39.364  1.00  0.00     0.004 C 
ENDBRANCH   2   3
ENDBRANCH   1   2
BRANCH   1   5
ATOM      5  C   UNL     1       7.559  -5.523  42.462  1.00  0.00    -0.023 C 
ATOM      6  C   UNL     1       8.287  -6.458  43.085  1.00  0.00     0.042 C 
BRANCH   6   7
ATOM      7  C   UNL     1       8.123  -7.907  42.848  1.00  0.00     0.152 C 
ATOM      8  O   UNL     1       8.384  -8.705  43.788  1.00  0.00    -0.295 OA
ATOM      9  C   UNL     1       7.657  -8.459  41.535  1.00  0.00     0.093 C 
ENDBRANCH   6   7
ENDBRANCH   1   5
TORSDOF 4
ENDMDL
MODEL 7
REMARK VINA RESULT:    -3.424      4.173      5.893
REMARK INTER + INTRA:          -4.480
REMARK INTER:                  -4.240
REMARK INTRA:                  -0.240
REMARK UNBOUND:                -0.255
REMARK SMILES CCCCC=CC(C)=O
REMARK SMILES IDX 4 1 3 2 2 3 1 4 5 5 6 6 7 7 9 8 8 9
REMARK H PARENT
REMARK Flexibility Score: inf
ROOT
ATOM      1  C   UNL     1       8.070  -3.252  40.647  1.00  0.00     0.027 C 
ENDROOT
BRANCH   1   2
ATOM      2  C   UNL     1       8.488  -4.712  40.415  1.00  0.00     0.004 C 
BRANCH   2   3
ATOM      3  C   UNL     1       7.755  -5.690  41.345  1.00  0.00    -0.003 C 
ATOM      4  C   UNL     1       7.394  -5.065  42.692  1.00  0.00     0.004 C 
ENDBRANCH   2   3
ENDBRANCH   1   2
BRANCH   1   5
ATOM      5  C   UNL     1       7.531  -2.637  39.388  1.00  0.00    -0.023 C 
ATOM      6  C   UNL     1       7.184  -3.390  38.337  1.00  0.00     0.042 C 
BRANCH   6   7
ATOM      7  C   UNL     1       6.640  -2.832  37.082  1.00  0.00     0.152 C 
ATOM      8  O   UNL     1       6.794  -3.484  36.015  1.00  0.00    -0.295 OA
ATOM      9  C   UNL     1       5.912  -1.522  37.034  1.00  0.00     0.093 C 
ENDBRANCH   6   7
ENDBRANCH   1   5
TORSDOF 4
ENDMDL
MODEL 8
REMARK VINA RESULT:    -3.417      1.982      3.204
REMARK INTER + INTRA:          -4.470
REMARK INTER:                  -4.275
REMARK INTRA:                  -0.195
REMARK UNBOUND:                -0.255
REMARK SMILES CCCCC=CC(C)=O
REMARK SMILES IDX 4 1 3 2 2 3 1 4 5 5 6 6 7 7 9 8 8 9
REMARK H PARENT
REMARK Flexibility Score: inf
ROOT
ATOM      1  C   UNL     1       7.502  -6.096  41.733  1.00  0.00     0.027 C 
ENDROOT
BRANCH   1   2
ATOM      2  C   UNL     1       8.266  -6.741  42.900  1.00  0.00     0.004 C 
BRANCH   2   3
ATOM      3  C   UNL     1       8.290  -8.274  42.813  1.00  0.00    -0.003 C 
ATOM      4  C   UNL     1       7.565  -8.806  41.578  1.00  0.00     0.004 C 
ENDBRANCH   2   3
ENDBRANCH   1   2
BRANCH   1   5
ATOM      5  C   UNL     1       7.853  -4.642  41.593  1.00  0.00    -0.023 C 
ATOM      6  C   UNL     1       8.199  -3.904  42.655  1.00  0.00     0.042 C 
BRANCH   6   7
ATOM      7  C   UNL     1       8.564  -2.475  42.566  1.00  0.00     0.152 C 
ATOM      8  O   UNL     1       8.962  -1.888  43.607  1.00  0.00    -0.295 OA
ATOM      9  C   UNL     1       8.477  -1.701  41.285  1.00  0.00     0.093 C 
ENDBRANCH   6   7
ENDBRANCH   1   5
TORSDOF 4
ENDMDL
MODEL 9
REMARK VINA RESULT:    -3.406      3.336      6.615
REMARK INTER + INTRA:          -4.458
REMARK INTER:                  -4.301
REMARK INTRA:                  -0.157
REMARK UNBOUND:                -0.255
REMARK SMILES CCCCC=CC(C)=O
REMARK SMILES IDX 4 1 3 2 2 3 1 4 5 5 6 6 7 7 9 8 8 9
REMARK H PARENT
REMARK Flexibility Score: inf
ROOT
ATOM      1  C   UNL     1       8.477  -2.901  39.340  1.00  0.00     0.027 C 
ENDROOT
BRANCH   1   2
ATOM      2  C   UNL     1       7.522  -1.782  38.899  1.00  0.00     0.004 C 
BRANCH   2   3
ATOM      3  C   UNL     1       6.368  -2.301  38.029  1.00  0.00    -0.003 C 
ATOM      4  C   UNL     1       5.839  -1.246  37.058  1.00  0.00     0.004 C 
ENDBRANCH   2   3
ENDBRANCH   1   2
BRANCH   1   5
ATOM      5  C   UNL     1       7.910  -3.671  40.498  1.00  0.00    -0.023 C 
ATOM      6  C   UNL     1       8.140  -4.982  40.643  1.00  0.00     0.042 C 
BRANCH   6   7
ATOM      7  C   UNL     1       7.614  -5.778  41.771  1.00  0.00     0.152 C 
ATOM      8  O   UNL     1       7.560  -7.032  41.650  1.00  0.00    -0.295 OA
ATOM      9  C   UNL     1       7.145  -5.151  43.049  1.00  0.00     0.093 C 
ENDBRANCH   6   7
ENDBRANCH   1   5
TORSDOF 4
ENDMDL
