MODEL 1
REMARK VINA RESULT:    -4.944      0.000      0.000
REMARK INTER + INTRA:         -10.167
REMARK INTER:                  -7.835
REMARK INTRA:                  -2.332
REMARK UNBOUND:                -2.332
REMARK SMILES C[C@H]1O[C@@H](O[C@H]2[C@H](Oc3cc(O)c4c(c3)O[C@H](c3ccc(O)cc3)CC4=O)O[C@H](CO)[C@@H](O)[C@@H]2O)[C@H](O)[C@H](O)[C@@H]1O
REMARK SMILES IDX 6 1 34 2 32 3 29 4 28 5 7 6 5 7 4 8 1 9 2 10 40 11 3 12
REMARK SMILES IDX 38 13 36 14 41 15 39 17 37 19 35 21 8 23 9 24 10 25 15 26
REMARK SMILES IDX 11 27 14 28 13 29 16 30 26 31 17 32 27 33 25 34 12 35 18 37
REMARK SMILES IDX 19 38 24 39 20 40 23 41 21 42 22 43 33 45 30 47 31 48
REMARK H PARENT 41 16 39 18 37 20 35 22 12 36 22 44 33 46 31 49
REMARK Flexibility Score: inf
ROOT
ATOM      1  C   UNL     1     -27.994  45.790  34.822  1.00  0.00     0.221 C 
ATOM      2  C   UNL     1     -27.212  45.515  33.521  1.00  0.00     0.181 C 
ATOM      3  C   UNL     1     -26.079  44.488  33.777  1.00  0.00     0.177 C 
ATOM      4  C   UNL     1     -25.597  44.534  35.254  1.00  0.00     0.179 C 
ATOM      5  O   UNL     1     -25.671  45.857  35.748  1.00  0.00    -0.332 OA
ATOM      6  C   UNL     1     -27.017  46.287  35.927  1.00  0.00     0.339 C 
ENDROOT
BRANCH   1   7
ATOM      7  O   UNL     1     -28.607  44.581  35.255  1.00  0.00    -0.337 OA
BRANCH   7   8
ATOM      8  C   UNL     1     -29.388  44.721  36.435  1.00  0.00     0.282 C 
ATOM      9  C   UNL     1     -29.546  41.899  35.180  1.00  0.00     0.041 C 
ATOM     10  C   UNL     1     -30.305  42.508  36.366  1.00  0.00     0.150 C 
ATOM     11  C   UNL     1     -31.716  43.012  35.987  1.00  0.00     0.174 C 
ATOM     12  O   UNL     1     -29.534  43.465  37.089  1.00  0.00    -0.344 OA
ATOM     13  C   UNL     1     -31.658  44.395  35.315  1.00  0.00     0.179 C 
ATOM     14  C   UNL     1     -30.740  45.370  36.081  1.00  0.00     0.202 C 
BRANCH  11  15
ATOM     15  O   UNL     1     -32.514  43.059  37.141  1.00  0.00    -0.388 OA
ATOM     16  H   UNL     1     -33.080  43.876  37.079  1.00  0.00     0.211 HD
ENDBRANCH  11  15
BRANCH  13  17
ATOM     17  O   UNL     1     -32.958  44.913  35.204  1.00  0.00    -0.387 OA
ATOM     18  H   UNL     1     -33.178  44.931  34.238  1.00  0.00     0.211 HD
ENDBRANCH  13  17
BRANCH  14  19
ATOM     19  O   UNL     1     -31.363  45.900  37.225  1.00  0.00    -0.385 OA
ATOM     20  H   UNL     1     -32.085  46.509  36.925  1.00  0.00     0.211 HD
ENDBRANCH  14  19
ENDBRANCH   7   8
ENDBRANCH   1   7
BRANCH   2  21
ATOM     21  O   UNL     1     -26.647  46.710  33.036  1.00  0.00    -0.387 OA
ATOM     22  H   UNL     1     -26.240  47.172  33.813  1.00  0.00     0.211 HD
ENDBRANCH   2  21
BRANCH   6  23
ATOM     23  O   UNL     1     -27.027  47.717  35.916  1.00  0.00    -0.462 OA
BRANCH  23  24
ATOM     24  C   UNL     1     -28.147  48.531  36.149  1.00  0.00     0.130 A 
ATOM     25  C   UNL     1     -29.006  48.353  37.246  1.00  0.00     0.093 A 
ATOM     26  C   UNL     1     -28.420  49.540  35.228  1.00  0.00     0.094 A 
ATOM     27  C   UNL     1     -30.153  49.145  37.400  1.00  0.00     0.133 A 
ATOM     28  C   UNL     1     -29.548  50.348  35.364  1.00  0.00     0.138 A 
ATOM     29  C   UNL     1     -30.442  50.160  36.440  1.00  0.00     0.102 A 
ATOM     30  O   UNL     1     -29.773  51.347  34.410  1.00  0.00    -0.484 OA
ATOM     31  C   UNL     1     -31.617  51.077  36.499  1.00  0.00     0.174 C 
ATOM     32  C   UNL     1     -31.037  51.998  34.274  1.00  0.00     0.211 C 
ATOM     33  O   UNL     1     -32.616  50.837  37.226  1.00  0.00    -0.294 OA
ATOM     34  C   UNL     1     -31.623  52.321  35.656  1.00  0.00     0.131 C 
BRANCH  27  35
ATOM     35  O   UNL     1     -30.951  48.879  38.521  1.00  0.00    -0.507 OA
ATOM     36  H   UNL     1     -31.499  49.562  39.026  1.00  0.00     0.293 HD
ENDBRANCH  27  35
BRANCH  32  37
ATOM     37  C   UNL     1     -30.886  53.250  33.441  1.00  0.00    -0.007 A 
ATOM     38  C   UNL     1     -31.979  54.108  33.235  1.00  0.00     0.011 A 
ATOM     39  C   UNL     1     -29.655  53.547  32.829  1.00  0.00     0.011 A 
ATOM     40  C   UNL     1     -31.844  55.245  32.431  1.00  0.00     0.046 A 
ATOM     41  C   UNL     1     -29.523  54.689  32.033  1.00  0.00     0.046 A 
ATOM     42  C   UNL     1     -30.613  55.540  31.829  1.00  0.00     0.115 A 
BRANCH  42  43
ATOM     43  O   UNL     1     -30.460  56.672  31.033  1.00  0.00    -0.508 OA
ATOM     44  H   UNL     1     -31.088  57.464  31.116  1.00  0.00     0.293 HD
ENDBRANCH  42  43
ENDBRANCH  32  37
ENDBRANCH  23  24
ENDBRANCH   6  23
BRANCH   3  45
ATOM     45  O   UNL     1     -26.529  43.188  33.487  1.00  0.00    -0.387 OA
ATOM     46  H   UNL     1     -25.994  42.562  34.039  1.00  0.00     0.211 HD
ENDBRANCH   3  45
BRANCH   4  47
ATOM     47  C   UNL     1     -24.147  44.041  35.366  1.00  0.00     0.191 C 
BRANCH  47  48
ATOM     48  O   UNL     1     -23.664  43.648  34.108  1.00  0.00    -0.394 OA
ATOM     49  H   UNL     1     -24.367  43.881  33.449  1.00  0.00     0.210 HD
ENDBRANCH  47  48
ENDBRANCH   4  47
TORSDOF 14
ENDMDL
MODEL 2
REMARK VINA RESULT:    -4.767      7.476     10.597
REMARK INTER + INTRA:          -9.886
REMARK INTER:                  -7.940
REMARK INTRA:                  -1.946
REMARK UNBOUND:                -2.332
REMARK SMILES C[C@H]1O[C@@H](O[C@H]2[C@H](Oc3cc(O)c4c(c3)O[C@H](c3ccc(O)cc3)CC4=O)O[C@H](CO)[C@@H](O)[C@@H]2O)[C@H](O)[C@H](O)[C@@H]1O
REMARK SMILES IDX 6 1 34 2 32 3 29 4 28 5 7 6 5 7 4 8 1 9 2 10 40 11 3 12
REMARK SMILES IDX 38 13 36 14 41 15 39 17 37 19 35 21 8 23 9 24 10 25 15 26
REMARK SMILES IDX 11 27 14 28 13 29 16 30 26 31 17 32 27 33 25 34 12 35 18 37
REMARK SMILES IDX 19 38 24 39 20 40 23 41 21 42 22 43 33 45 30 47 31 48
REMARK H PARENT 41 16 39 18 37 20 35 22 12 36 22 44 33 46 31 49
REMARK Flexibility Score: inf
ROOT
ATOM      1  C   UNL     1     -23.191  50.404  30.884  1.00  0.00     0.221 C 
ATOM      2  C   UNL     1     -23.633  50.882  29.485  1.00  0.00     0.181 C 
ATOM      3  C   UNL     1     -24.770  49.981  28.938  1.00  0.00     0.177 C 
ATOM      4  C   UNL     1     -24.696  48.549  29.539  1.00  0.00     0.179 C 
ATOM      5  O   UNL     1     -23.347  48.181  29.748  1.00  0.00    -0.332 OA
ATOM      6  C   UNL     1     -22.750  48.913  30.814  1.00  0.00     0.339 C 
ENDROOT
BRANCH   1   7
ATOM      7  O   UNL     1     -24.292  50.520  31.779  1.00  0.00    -0.337 OA
BRANCH   7   8
ATOM      8  C   UNL     1     -24.480  51.832  32.294  1.00  0.00     0.282 C 
ATOM      9  C   UNL     1     -23.562  49.789  34.426  1.00  0.00     0.041 C 
ATOM     10  C   UNL     1     -23.986  51.257  34.567  1.00  0.00     0.150 C 
ATOM     11  C   UNL     1     -25.455  51.422  35.018  1.00  0.00     0.174 C 
ATOM     12  O   UNL     1     -23.648  52.046  33.428  1.00  0.00    -0.344 OA
ATOM     13  C   UNL     1     -26.428  51.255  33.838  1.00  0.00     0.179 C 
ATOM     14  C   UNL     1     -25.974  52.053  32.599  1.00  0.00     0.202 C 
BRANCH  11  15
ATOM     15  O   UNL     1     -25.615  52.683  35.614  1.00  0.00    -0.388 OA
ATOM     16  H   UNL     1     -26.593  52.863  35.669  1.00  0.00     0.211 HD
ENDBRANCH  11  15
BRANCH  13  17
ATOM     17  O   UNL     1     -27.716  51.641  34.240  1.00  0.00    -0.387 OA
ATOM     18  H   UNL     1     -27.696  52.626  34.360  1.00  0.00     0.211 HD
ENDBRANCH  13  17
BRANCH  14  19
ATOM     19  O   UNL     1     -26.271  53.424  32.710  1.00  0.00    -0.385 OA
ATOM     20  H   UNL     1     -26.183  53.679  33.664  1.00  0.00     0.211 HD
ENDBRANCH  14  19
ENDBRANCH   7   8
ENDBRANCH   1   7
BRANCH   2  21
ATOM     21  O   UNL     1     -22.544  50.837  28.593  1.00  0.00    -0.387 OA
ATOM     22  H   UNL     1     -21.811  50.357  29.058  1.00  0.00     0.211 HD
ENDBRANCH   2  21
BRANCH   6  23
ATOM     23  O   UNL     1     -21.332  48.880  30.631  1.00  0.00    -0.462 OA
BRANCH  23  24
ATOM     24  C   UNL     1     -20.371  49.020  31.645  1.00  0.00     0.130 A 
ATOM     25  C   UNL     1     -19.392  48.049  31.910  1.00  0.00     0.093 A 
ATOM     26  C   UNL     1     -20.419  50.170  32.431  1.00  0.00     0.094 A 
ATOM     27  C   UNL     1     -18.498  48.199  32.979  1.00  0.00     0.133 A 
ATOM     28  C   UNL     1     -19.534  50.349  33.493  1.00  0.00     0.138 A 
ATOM     29  C   UNL     1     -18.567  49.366  33.797  1.00  0.00     0.102 A 
ATOM     30  O   UNL     1     -19.626  51.523  34.249  1.00  0.00    -0.484 OA
ATOM     31  C   UNL     1     -17.665  49.652  34.949  1.00  0.00     0.174 C 
ATOM     32  C   UNL     1     -19.003  51.656  35.527  1.00  0.00     0.211 C 
ATOM     33  O   UNL     1     -16.967  48.755  35.490  1.00  0.00    -0.294 OA
ATOM     34  C   UNL     1     -17.592  51.049  35.498  1.00  0.00     0.131 C 
BRANCH  27  35
ATOM     35  O   UNL     1     -17.568  47.167  33.168  1.00  0.00    -0.507 OA
ATOM     36  H   UNL     1     -17.246  46.824  34.062  1.00  0.00     0.293 HD
ENDBRANCH  27  35
BRANCH  32  37
ATOM     37  C   UNL     1     -18.961  53.111  35.933  1.00  0.00    -0.007 A 
ATOM     38  C   UNL     1     -20.071  53.946  35.717  1.00  0.00     0.011 A 
ATOM     39  C   UNL     1     -17.793  53.654  36.497  1.00  0.00     0.011 A 
ATOM     40  C   UNL     1     -20.013  55.301  36.058  1.00  0.00     0.046 A 
ATOM     41  C   UNL     1     -17.743  55.007  36.844  1.00  0.00     0.046 A 
ATOM     42  C   UNL     1     -18.849  55.835  36.627  1.00  0.00     0.115 A 
BRANCH  42  43
ATOM     43  O   UNL     1     -18.778  57.180  36.981  1.00  0.00    -0.508 OA
ATOM     44  H   UNL     1     -18.764  57.910  36.277  1.00  0.00     0.293 HD
ENDBRANCH  42  43
ENDBRANCH  32  37
ENDBRANCH  23  24
ENDBRANCH   6  23
BRANCH   3  45
ATOM     45  O   UNL     1     -26.023  50.539  29.251  1.00  0.00    -0.387 OA
ATOM     46  H   UNL     1     -26.558  49.831  29.691  1.00  0.00     0.211 HD
ENDBRANCH   3  45
BRANCH   4  47
ATOM     47  C   UNL     1     -25.349  47.531  28.594  1.00  0.00     0.191 C 
BRANCH  47  48
ATOM     48  O   UNL     1     -26.680  47.892  28.328  1.00  0.00    -0.394 OA
ATOM     49  H   UNL     1     -26.978  48.454  29.089  1.00  0.00     0.210 HD
ENDBRANCH  47  48
ENDBRANCH   4  47
TORSDOF 14
ENDMDL
MODEL 3
REMARK VINA RESULT:    -4.741      3.625      8.037
REMARK INTER + INTRA:          -9.845
REMARK INTER:                  -8.277
REMARK INTRA:                  -1.568
REMARK UNBOUND:                -2.332
REMARK SMILES C[C@H]1O[C@@H](O[C@H]2[C@H](Oc3cc(O)c4c(c3)O[C@H](c3ccc(O)cc3)CC4=O)O[C@H](CO)[C@@H](O)[C@@H]2O)[C@H](O)[C@H](O)[C@@H]1O
REMARK SMILES IDX 6 1 34 2 32 3 29 4 28 5 7 6 5 7 4 8 1 9 2 10 40 11 3 12
REMARK SMILES IDX 38 13 36 14 41 15 39 17 37 19 35 21 8 23 9 24 10 25 15 26
REMARK SMILES IDX 11 27 14 28 13 29 16 30 26 31 17 32 27 33 25 34 12 35 18 37
REMARK SMILES IDX 19 38 24 39 20 40 23 41 21 42 22 43 33 45 30 47 31 48
REMARK H PARENT 41 16 39 18 37 20 35 22 12 36 22 44 33 46 31 49
REMARK Flexibility Score: inf
ROOT
ATOM      1  C   UNL     1     -34.138  45.564  39.118  1.00  0.00     0.221 C 
ATOM      2  C   UNL     1     -35.603  45.210  39.448  1.00  0.00     0.181 C 
ATOM      3  C   UNL     1     -35.694  44.509  40.828  1.00  0.00     0.177 C 
ATOM      4  C   UNL     1     -34.373  43.765  41.173  1.00  0.00     0.179 C 
ATOM      5  O   UNL     1     -33.787  43.247  39.995  1.00  0.00    -0.332 OA
ATOM      6  C   UNL     1     -33.265  44.276  39.160  1.00  0.00     0.339 C 
ENDROOT
BRANCH   1   7
ATOM      7  O   UNL     1     -33.655  46.482  40.093  1.00  0.00    -0.337 OA
BRANCH   7   8
ATOM      8  C   UNL     1     -33.017  47.626  39.541  1.00  0.00     0.282 C 
ATOM      9  C   UNL     1     -34.852  48.277  41.943  1.00  0.00     0.041 C 
ATOM     10  C   UNL     1     -34.080  49.206  40.996  1.00  0.00     0.150 C 
ATOM     11  C   UNL     1     -34.960  49.784  39.866  1.00  0.00     0.174 C 
ATOM     12  O   UNL     1     -32.858  48.636  40.531  1.00  0.00    -0.344 OA
ATOM     13  C   UNL     1     -35.145  48.772  38.721  1.00  0.00     0.179 C 
ATOM     14  C   UNL     1     -33.810  48.114  38.313  1.00  0.00     0.202 C 
BRANCH  11  15
ATOM     15  O   UNL     1     -34.375  50.968  39.386  1.00  0.00    -0.388 OA
ATOM     16  H   UNL     1     -34.684  51.711  39.974  1.00  0.00     0.211 HD
ENDBRANCH  11  15
BRANCH  13  17
ATOM     17  O   UNL     1     -35.743  49.414  37.626  1.00  0.00    -0.387 OA
ATOM     18  H   UNL     1     -35.474  48.908  36.816  1.00  0.00     0.211 HD
ENDBRANCH  13  17
BRANCH  14  19
ATOM     19  O   UNL     1     -33.026  48.956  37.505  1.00  0.00    -0.385 OA
ATOM     20  H   UNL     1     -32.746  49.732  38.054  1.00  0.00     0.211 HD
ENDBRANCH  14  19
ENDBRANCH   7   8
ENDBRANCH   1   7
BRANCH   2  21
ATOM     21  O   UNL     1     -36.125  44.350  38.462  1.00  0.00    -0.387 OA
ATOM     22  H   UNL     1     -36.254  44.896  37.644  1.00  0.00     0.211 HD
ENDBRANCH   2  21
BRANCH   6  23
ATOM     23  O   UNL     1     -33.175  43.760  37.830  1.00  0.00    -0.462 OA
BRANCH  23  24
ATOM     24  C   UNL     1     -32.074  43.897  36.969  1.00  0.00     0.130 A 
ATOM     25  C   UNL     1     -31.567  42.835  36.202  1.00  0.00     0.093 A 
ATOM     26  C   UNL     1     -31.451  45.141  36.904  1.00  0.00     0.094 A 
ATOM     27  C   UNL     1     -30.421  42.999  35.411  1.00  0.00     0.133 A 
ATOM     28  C   UNL     1     -30.317  45.334  36.116  1.00  0.00     0.138 A 
ATOM     29  C   UNL     1     -29.772  44.269  35.367  1.00  0.00     0.102 A 
ATOM     30  O   UNL     1     -29.732  46.605  36.086  1.00  0.00    -0.484 OA
ATOM     31  C   UNL     1     -28.560  44.577  34.553  1.00  0.00     0.174 C 
ATOM     32  C   UNL     1     -28.413  46.825  35.585  1.00  0.00     0.211 C 
ATOM     33  O   UNL     1     -27.827  43.671  34.078  1.00  0.00    -0.294 OA
ATOM     34  C   UNL     1     -28.187  46.011  34.302  1.00  0.00     0.131 C 
BRANCH  27  35
ATOM     35  O   UNL     1     -29.989  41.875  34.694  1.00  0.00    -0.507 OA
ATOM     36  H   UNL     1     -29.291  41.214  35.006  1.00  0.00     0.293 HD
ENDBRANCH  27  35
BRANCH  32  37
ATOM     37  C   UNL     1     -28.192  48.299  35.341  1.00  0.00    -0.007 A 
ATOM     38  C   UNL     1     -29.245  49.216  35.496  1.00  0.00     0.011 A 
ATOM     39  C   UNL     1     -26.934  48.764  34.917  1.00  0.00     0.011 A 
ATOM     40  C   UNL     1     -29.045  50.575  35.231  1.00  0.00     0.046 A 
ATOM     41  C   UNL     1     -26.737  50.124  34.660  1.00  0.00     0.046 A 
ATOM     42  C   UNL     1     -27.787  51.033  34.814  1.00  0.00     0.115 A 
BRANCH  42  43
ATOM     43  O   UNL     1     -27.569  52.384  34.555  1.00  0.00    -0.508 OA
ATOM     44  H   UNL     1     -27.524  53.064  35.306  1.00  0.00     0.293 HD
ENDBRANCH  42  43
ENDBRANCH  32  37
ENDBRANCH  23  24
ENDBRANCH   6  23
BRANCH   3  45
ATOM     45  O   UNL     1     -35.957  45.455  41.835  1.00  0.00    -0.387 OA
ATOM     46  H   UNL     1     -35.862  44.991  42.705  1.00  0.00     0.211 HD
ENDBRANCH   3  45
BRANCH   4  47
ATOM     47  C   UNL     1     -34.642  42.608  42.146  1.00  0.00     0.191 C 
BRANCH  47  48
ATOM     48  O   UNL     1     -35.031  43.102  43.401  1.00  0.00    -0.394 OA
ATOM     49  H   UNL     1     -34.636  44.008  43.483  1.00  0.00     0.210 HD
ENDBRANCH  47  48
ENDBRANCH   4  47
TORSDOF 14
ENDMDL
MODEL 4
REMARK VINA RESULT:    -4.736     10.588     15.132
REMARK INTER + INTRA:          -9.837
REMARK INTER:                  -7.670
REMARK INTRA:                  -2.166
REMARK UNBOUND:                -2.332
REMARK SMILES C[C@H]1O[C@@H](O[C@H]2[C@H](Oc3cc(O)c4c(c3)O[C@H](c3ccc(O)cc3)CC4=O)O[C@H](CO)[C@@H](O)[C@@H]2O)[C@H](O)[C@H](O)[C@@H]1O
REMARK SMILES IDX 6 1 34 2 32 3 29 4 28 5 7 6 5 7 4 8 1 9 2 10 40 11 3 12
REMARK SMILES IDX 38 13 36 14 41 15 39 17 37 19 35 21 8 23 9 24 10 25 15 26
REMARK SMILES IDX 11 27 14 28 13 29 16 30 26 31 17 32 27 33 25 34 12 35 18 37
REMARK SMILES IDX 19 38 24 39 20 40 23 41 21 42 22 43 33 45 30 47 31 48
REMARK H PARENT 41 16 39 18 37 20 35 22 12 36 22 44 33 46 31 49
REMARK Flexibility Score: inf
ROOT
ATOM      1  C   UNL     1     -20.476  58.373  35.098  1.00  0.00     0.221 C 
ATOM      2  C   UNL     1     -20.891  59.750  35.658  1.00  0.00     0.181 C 
ATOM      3  C   UNL     1     -21.439  60.654  34.524  1.00  0.00     0.177 C 
ATOM      4  C   UNL     1     -20.830  60.265  33.147  1.00  0.00     0.179 C 
ATOM      5  O   UNL     1     -19.496  59.827  33.314  1.00  0.00    -0.332 OA
ATOM      6  C   UNL     1     -19.426  58.562  33.966  1.00  0.00     0.339 C 
ENDROOT
BRANCH   1   7
ATOM      7  O   UNL     1     -21.627  57.730  34.560  1.00  0.00    -0.337 OA
BRANCH   7   8
ATOM      8  C   UNL     1     -21.331  56.574  33.788  1.00  0.00     0.282 C 
ATOM      9  C   UNL     1     -24.356  57.188  33.981  1.00  0.00     0.041 C 
ATOM     10  C   UNL     1     -23.617  55.997  33.357  1.00  0.00     0.150 C 
ATOM     11  C   UNL     1     -23.569  54.762  34.286  1.00  0.00     0.174 C 
ATOM     12  O   UNL     1     -22.346  56.350  32.816  1.00  0.00    -0.344 OA
ATOM     13  C   UNL     1     -22.460  54.895  35.344  1.00  0.00     0.179 C 
ATOM     14  C   UNL     1     -21.128  55.368  34.726  1.00  0.00     0.202 C 
BRANCH  11  15
ATOM     15  O   UNL     1     -23.372  53.609  33.509  1.00  0.00    -0.388 OA
ATOM     16  H   UNL     1     -24.178  53.497  32.934  1.00  0.00     0.211 HD
ENDBRANCH  11  15
BRANCH  13  17
ATOM     17  O   UNL     1     -22.298  53.667  36.004  1.00  0.00    -0.387 OA
ATOM     18  H   UNL     1     -21.677  53.828  36.760  1.00  0.00     0.211 HD
ENDBRANCH  13  17
BRANCH  14  19
ATOM     19  O   UNL     1     -20.444  54.327  34.072  1.00  0.00    -0.385 OA
ATOM     20  H   UNL     1     -20.626  53.486  34.565  1.00  0.00     0.211 HD
ENDBRANCH  14  19
ENDBRANCH   7   8
ENDBRANCH   1   7
BRANCH   2  21
ATOM     21  O   UNL     1     -19.782  60.383  36.253  1.00  0.00    -0.387 OA
ATOM     22  H   UNL     1     -19.735  60.059  37.189  1.00  0.00     0.211 HD
ENDBRANCH   2  21
BRANCH   6  23
ATOM     23  O   UNL     1     -18.124  58.438  34.545  1.00  0.00    -0.462 OA
BRANCH  23  24
ATOM     24  C   UNL     1     -17.755  57.521  35.542  1.00  0.00     0.130 A 
ATOM     25  C   UNL     1     -17.445  57.906  36.857  1.00  0.00     0.093 A 
ATOM     26  C   UNL     1     -17.673  56.175  35.189  1.00  0.00     0.094 A 
ATOM     27  C   UNL     1     -17.011  56.963  37.801  1.00  0.00     0.133 A 
ATOM     28  C   UNL     1     -17.255  55.217  36.112  1.00  0.00     0.138 A 
ATOM     29  C   UNL     1     -16.904  55.591  37.428  1.00  0.00     0.102 A 
ATOM     30  O   UNL     1     -17.191  53.880  35.705  1.00  0.00    -0.484 OA
ATOM     31  C   UNL     1     -16.473  54.492  38.340  1.00  0.00     0.174 C 
ATOM     32  C   UNL     1     -16.483  52.890  36.451  1.00  0.00     0.211 C 
ATOM     33  O   UNL     1     -15.875  54.720  39.424  1.00  0.00    -0.294 OA
ATOM     34  C   UNL     1     -16.744  53.066  37.954  1.00  0.00     0.131 C 
BRANCH  27  35
ATOM     35  O   UNL     1     -16.713  57.451  39.080  1.00  0.00    -0.507 OA
ATOM     36  H   UNL     1     -16.184  56.960  39.787  1.00  0.00     0.293 HD
ENDBRANCH  27  35
BRANCH  32  37
ATOM     37  C   UNL     1     -16.882  51.508  35.986  1.00  0.00    -0.007 A 
ATOM     38  C   UNL     1     -17.907  51.341  35.039  1.00  0.00     0.011 A 
ATOM     39  C   UNL     1     -16.256  50.372  36.529  1.00  0.00     0.011 A 
ATOM     40  C   UNL     1     -18.300  50.058  34.642  1.00  0.00     0.046 A 
ATOM     41  C   UNL     1     -16.647  49.093  36.123  1.00  0.00     0.046 A 
ATOM     42  C   UNL     1     -17.667  48.929  35.182  1.00  0.00     0.115 A 
BRANCH  42  43
ATOM     43  O   UNL     1     -18.040  47.646  34.790  1.00  0.00    -0.508 OA
ATOM     44  H   UNL     1     -17.850  46.840  35.377  1.00  0.00     0.293 HD
ENDBRANCH  42  43
ENDBRANCH  32  37
ENDBRANCH  23  24
ENDBRANCH   6  23
BRANCH   3  45
ATOM     45  O   UNL     1     -22.839  60.541  34.448  1.00  0.00    -0.387 OA
ATOM     46  H   UNL     1     -23.040  59.825  33.793  1.00  0.00     0.211 HD
ENDBRANCH   3  45
BRANCH   4  47
ATOM     47  C   UNL     1     -20.843  61.467  32.191  1.00  0.00     0.191 C 
BRANCH  47  48
ATOM     48  O   UNL     1     -20.469  61.069  30.897  1.00  0.00    -0.394 OA
ATOM     49  H   UNL     1     -21.143  61.451  30.278  1.00  0.00     0.210 HD
ENDBRANCH  47  48
ENDBRANCH   4  47
TORSDOF 14
ENDMDL
MODEL 5
REMARK VINA RESULT:    -4.708      5.593      8.942
REMARK INTER + INTRA:          -9.792
REMARK INTER:                  -7.651
REMARK INTRA:                  -2.140
REMARK UNBOUND:                -2.332
REMARK SMILES C[C@H]1O[C@@H](O[C@H]2[C@H](Oc3cc(O)c4c(c3)O[C@H](c3ccc(O)cc3)CC4=O)O[C@H](CO)[C@@H](O)[C@@H]2O)[C@H](O)[C@H](O)[C@@H]1O
REMARK SMILES IDX 6 1 34 2 32 3 29 4 28 5 7 6 5 7 4 8 1 9 2 10 40 11 3 12
REMARK SMILES IDX 38 13 36 14 41 15 39 17 37 19 35 21 8 23 9 24 10 25 15 26
REMARK SMILES IDX 11 27 14 28 13 29 16 30 26 31 17 32 27 33 25 34 12 35 18 37
REMARK SMILES IDX 19 38 24 39 20 40 23 41 21 42 22 43 33 45 30 47 31 48
REMARK H PARENT 41 16 39 18 37 20 35 22 12 36 22 44 33 46 31 49
REMARK Flexibility Score: inf
ROOT
ATOM      1  C   UNL     1     -21.243  49.379  32.058  1.00  0.00     0.221 C 
ATOM      2  C   UNL     1     -20.039  50.163  31.496  1.00  0.00     0.181 C 
ATOM      3  C   UNL     1     -19.157  49.242  30.614  1.00  0.00     0.177 C 
ATOM      4  C   UNL     1     -19.279  47.755  31.049  1.00  0.00     0.179 C 
ATOM      5  O   UNL     1     -19.456  47.673  32.450  1.00  0.00    -0.332 OA
ATOM      6  C   UNL     1     -20.738  48.142  32.856  1.00  0.00     0.339 C 
ENDROOT
BRANCH   1   7
ATOM      7  O   UNL     1     -22.049  48.932  30.973  1.00  0.00    -0.337 OA
BRANCH   7   8
ATOM      8  C   UNL     1     -23.443  48.931  31.253  1.00  0.00     0.282 C 
ATOM      9  C   UNL     1     -22.785  48.518  28.259  1.00  0.00     0.041 C 
ATOM     10  C   UNL     1     -24.133  48.697  28.970  1.00  0.00     0.150 C 
ATOM     11  C   UNL     1     -24.669  50.145  28.894  1.00  0.00     0.174 C 
ATOM     12  O   UNL     1     -24.144  48.155  30.288  1.00  0.00    -0.344 OA
ATOM     13  C   UNL     1     -23.997  51.049  29.942  1.00  0.00     0.179 C 
ATOM     14  C   UNL     1     -23.950  50.384  31.333  1.00  0.00     0.202 C 
BRANCH  11  15
ATOM     15  O   UNL     1     -26.061  50.131  29.075  1.00  0.00    -0.388 OA
ATOM     16  H   UNL     1     -26.242  50.424  30.010  1.00  0.00     0.211 HD
ENDBRANCH  11  15
BRANCH  13  17
ATOM     17  O   UNL     1     -24.673  52.278  29.996  1.00  0.00    -0.387 OA
ATOM     18  H   UNL     1     -25.513  52.121  30.500  1.00  0.00     0.211 HD
ENDBRANCH  13  17
BRANCH  14  19
ATOM     19  O   UNL     1     -25.188  50.453  31.998  1.00  0.00    -0.385 OA
ATOM     20  H   UNL     1     -25.583  49.544  32.001  1.00  0.00     0.211 HD
ENDBRANCH  14  19
ENDBRANCH   7   8
ENDBRANCH   1   7
BRANCH   2  21
ATOM     21  O   UNL     1     -19.258  50.670  32.553  1.00  0.00    -0.387 OA
ATOM     22  H   UNL     1     -19.722  51.478  32.891  1.00  0.00     0.211 HD
ENDBRANCH   2  21
BRANCH   6  23
ATOM     23  O   UNL     1     -20.654  48.509  34.236  1.00  0.00    -0.462 OA
BRANCH  23  24
ATOM     24  C   UNL     1     -21.731  48.908  35.044  1.00  0.00     0.130 A 
ATOM     25  C   UNL     1     -21.671  50.020  35.900  1.00  0.00     0.093 A 
ATOM     26  C   UNL     1     -22.894  48.143  35.002  1.00  0.00     0.094 A 
ATOM     27  C   UNL     1     -22.746  50.340  36.743  1.00  0.00     0.133 A 
ATOM     28  C   UNL     1     -23.981  48.446  35.821  1.00  0.00     0.138 A 
ATOM     29  C   UNL     1     -23.925  49.538  36.715  1.00  0.00     0.102 A 
ATOM     30  O   UNL     1     -25.125  47.644  35.738  1.00  0.00    -0.484 OA
ATOM     31  C   UNL     1     -25.140  49.782  37.546  1.00  0.00     0.174 C 
ATOM     32  C   UNL     1     -26.143  47.665  36.739  1.00  0.00     0.211 C 
ATOM     33  O   UNL     1     -25.116  50.526  38.560  1.00  0.00    -0.294 OA
ATOM     34  C   UNL     1     -26.431  49.109  37.177  1.00  0.00     0.131 C 
BRANCH  27  35
ATOM     35  O   UNL     1     -22.582  51.460  37.569  1.00  0.00    -0.507 OA
ATOM     36  H   UNL     1     -22.967  52.378  37.396  1.00  0.00     0.293 HD
ENDBRANCH  27  35
BRANCH  32  37
ATOM     37  C   UNL     1     -27.393  46.994  36.218  1.00  0.00    -0.007 A 
ATOM     38  C   UNL     1     -27.469  46.560  34.883  1.00  0.00     0.011 A 
ATOM     39  C   UNL     1     -28.510  46.832  37.057  1.00  0.00     0.011 A 
ATOM     40  C   UNL     1     -28.643  45.975  34.396  1.00  0.00     0.046 A 
ATOM     41  C   UNL     1     -29.678  46.240  36.567  1.00  0.00     0.046 A 
ATOM     42  C   UNL     1     -29.750  45.811  35.239  1.00  0.00     0.115 A 
BRANCH  42  43
ATOM     43  O   UNL     1     -30.923  45.222  34.772  1.00  0.00    -0.508 OA
ATOM     44  H   UNL     1     -31.422  45.603  33.975  1.00  0.00     0.293 HD
ENDBRANCH  42  43
ENDBRANCH  32  37
ENDBRANCH  23  24
ENDBRANCH   6  23
BRANCH   3  45
ATOM     45  O   UNL     1     -19.540  49.352  29.265  1.00  0.00    -0.387 OA
ATOM     46  H   UNL     1     -19.235  50.239  28.945  1.00  0.00     0.211 HD
ENDBRANCH   3  45
BRANCH   4  47
ATOM     47  C   UNL     1     -18.017  46.971  30.660  1.00  0.00     0.191 C 
BRANCH  47  48
ATOM     48  O   UNL     1     -17.081  47.821  30.048  1.00  0.00    -0.394 OA
ATOM     49  H   UNL     1     -16.491  47.243  29.499  1.00  0.00     0.210 HD
ENDBRANCH  47  48
ENDBRANCH   4  47
TORSDOF 14
ENDMDL
MODEL 6
REMARK VINA RESULT:    -4.695      8.393     11.136
REMARK INTER + INTRA:          -9.772
REMARK INTER:                  -7.760
REMARK INTRA:                  -2.012
REMARK UNBOUND:                -2.332
REMARK SMILES C[C@H]1O[C@@H](O[C@H]2[C@H](Oc3cc(O)c4c(c3)O[C@H](c3ccc(O)cc3)CC4=O)O[C@H](CO)[C@@H](O)[C@@H]2O)[C@H](O)[C@H](O)[C@@H]1O
REMARK SMILES IDX 6 1 34 2 32 3 29 4 28 5 7 6 5 7 4 8 1 9 2 10 40 11 3 12
REMARK SMILES IDX 38 13 36 14 41 15 39 17 37 19 35 21 8 23 9 24 10 25 15 26
REMARK SMILES IDX 11 27 14 28 13 29 16 30 26 31 17 32 27 33 25 34 12 35 18 37
REMARK SMILES IDX 19 38 24 39 20 40 23 41 21 42 22 43 33 45 30 47 31 48
REMARK H PARENT 41 16 39 18 37 20 35 22 12 36 22 44 33 46 31 49
REMARK Flexibility Score: inf
ROOT
ATOM      1  C   UNL     1     -22.115  48.545  33.689  1.00  0.00     0.221 C 
ATOM      2  C   UNL     1     -22.904  47.250  33.974  1.00  0.00     0.181 C 
ATOM      3  C   UNL     1     -24.429  47.511  33.870  1.00  0.00     0.177 C 
ATOM      4  C   UNL     1     -24.772  48.994  34.188  1.00  0.00     0.179 C 
ATOM      5  O   UNL     1     -23.890  49.495  35.173  1.00  0.00    -0.332 OA
ATOM      6  C   UNL     1     -22.567  49.663  34.673  1.00  0.00     0.339 C 
ENDROOT
BRANCH   1   7
ATOM      7  O   UNL     1     -22.384  48.964  32.355  1.00  0.00    -0.337 OA
BRANCH   7   8
ATOM      8  C   UNL     1     -21.486  49.954  31.871  1.00  0.00     0.282 C 
ATOM      9  C   UNL     1     -22.333  47.898  29.722  1.00  0.00     0.041 C 
ATOM     10  C   UNL     1     -21.310  49.040  29.662  1.00  0.00     0.150 C 
ATOM     11  C   UNL     1     -19.857  48.562  29.883  1.00  0.00     0.174 C 
ATOM     12  O   UNL     1     -21.672  50.155  30.474  1.00  0.00    -0.344 OA
ATOM     13  C   UNL     1     -19.550  48.366  31.378  1.00  0.00     0.179 C 
ATOM     14  C   UNL     1     -20.041  49.555  32.229  1.00  0.00     0.202 C 
BRANCH  11  15
ATOM     15  O   UNL     1     -18.974  49.496  29.318  1.00  0.00    -0.388 OA
ATOM     16  H   UNL     1     -19.182  49.551  28.346  1.00  0.00     0.211 HD
ENDBRANCH  11  15
BRANCH  13  17
ATOM     17  O   UNL     1     -18.171  48.164  31.547  1.00  0.00    -0.387 OA
ATOM     18  H   UNL     1     -18.060  47.615  32.365  1.00  0.00     0.211 HD
ENDBRANCH  13  17
BRANCH  14  19
ATOM     19  O   UNL     1     -19.175  50.661  32.149  1.00  0.00    -0.385 OA
ATOM     20  H   UNL     1     -19.428  51.298  32.864  1.00  0.00     0.211 HD
ENDBRANCH  14  19
ENDBRANCH   7   8
ENDBRANCH   1   7
BRANCH   2  21
ATOM     21  O   UNL     1     -22.607  46.779  35.268  1.00  0.00    -0.387 OA
ATOM     22  H   UNL     1     -22.242  47.547  35.777  1.00  0.00     0.211 HD
ENDBRANCH   2  21
BRANCH   6  23
ATOM     23  O   UNL     1     -21.672  49.661  35.787  1.00  0.00    -0.462 OA
BRANCH  23  24
ATOM     24  C   UNL     1     -20.473  50.386  35.877  1.00  0.00     0.130 A 
ATOM     25  C   UNL     1     -19.242  49.790  36.198  1.00  0.00     0.093 A 
ATOM     26  C   UNL     1     -20.527  51.761  35.658  1.00  0.00     0.094 A 
ATOM     27  C   UNL     1     -18.083  50.565  36.347  1.00  0.00     0.133 A 
ATOM     28  C   UNL     1     -19.386  52.552  35.788  1.00  0.00     0.138 A 
ATOM     29  C   UNL     1     -18.148  51.976  36.147  1.00  0.00     0.102 A 
ATOM     30  O   UNL     1     -19.497  53.928  35.556  1.00  0.00    -0.484 OA
ATOM     31  C   UNL     1     -16.987  52.906  36.257  1.00  0.00     0.174 C 
ATOM     32  C   UNL     1     -18.492  54.853  35.971  1.00  0.00     0.211 C 
ATOM     33  O   UNL     1     -15.918  52.574  36.834  1.00  0.00    -0.294 OA
ATOM     34  C   UNL     1     -17.093  54.288  35.679  1.00  0.00     0.131 C 
BRANCH  27  35
ATOM     35  O   UNL     1     -16.909  49.877  36.683  1.00  0.00    -0.507 OA
ATOM     36  H   UNL     1     -16.718  49.443  37.576  1.00  0.00     0.293 HD
ENDBRANCH  27  35
BRANCH  32  37
ATOM     37  C   UNL     1     -18.697  56.182  35.282  1.00  0.00    -0.007 A 
ATOM     38  C   UNL     1     -17.713  56.703  34.425  1.00  0.00     0.011 A 
ATOM     39  C   UNL     1     -19.862  56.931  35.525  1.00  0.00     0.011 A 
ATOM     40  C   UNL     1     -17.891  57.952  33.820  1.00  0.00     0.046 A 
ATOM     41  C   UNL     1     -20.039  58.175  34.912  1.00  0.00     0.046 A 
ATOM     42  C   UNL     1     -19.058  58.691  34.061  1.00  0.00     0.115 A 
BRANCH  42  43
ATOM     43  O   UNL     1     -19.254  59.932  33.460  1.00  0.00    -0.508 OA
ATOM     44  H   UNL     1     -18.922  60.786  33.894  1.00  0.00     0.293 HD
ENDBRANCH  42  43
ENDBRANCH  32  37
ENDBRANCH  23  24
ENDBRANCH   6  23
BRANCH   3  45
ATOM     45  O   UNL     1     -24.885  47.208  32.575  1.00  0.00    -0.387 OA
ATOM     46  H   UNL     1     -24.362  47.764  31.942  1.00  0.00     0.211 HD
ENDBRANCH   3  45
BRANCH   4  47
ATOM     47  C   UNL     1     -26.214  49.118  34.701  1.00  0.00     0.191 C 
BRANCH  47  48
ATOM     48  O   UNL     1     -26.964  47.988  34.335  1.00  0.00    -0.394 OA
ATOM     49  H   UNL     1     -26.751  47.281  34.997  1.00  0.00     0.210 HD
ENDBRANCH  47  48
ENDBRANCH   4  47
TORSDOF 14
ENDMDL
MODEL 7
REMARK VINA RESULT:    -4.675      6.035      8.192
REMARK INTER + INTRA:          -9.740
REMARK INTER:                  -7.305
REMARK INTRA:                  -2.435
REMARK UNBOUND:                -2.332
REMARK SMILES C[C@H]1O[C@@H](O[C@H]2[C@H](Oc3cc(O)c4c(c3)O[C@H](c3ccc(O)cc3)CC4=O)O[C@H](CO)[C@@H](O)[C@@H]2O)[C@H](O)[C@H](O)[C@@H]1O
REMARK SMILES IDX 6 1 34 2 32 3 29 4 28 5 7 6 5 7 4 8 1 9 2 10 40 11 3 12
REMARK SMILES IDX 38 13 36 14 41 15 39 17 37 19 35 21 8 23 9 24 10 25 15 26
REMARK SMILES IDX 11 27 14 28 13 29 16 30 26 31 17 32 27 33 25 34 12 35 18 37
REMARK SMILES IDX 19 38 24 39 20 40 23 41 21 42 22 43 33 45 30 47 31 48
REMARK H PARENT 41 16 39 18 37 20 35 22 12 36 22 44 33 46 31 49
REMARK Flexibility Score: inf
ROOT
ATOM      1  C   UNL     1     -21.418  50.011  32.228  1.00  0.00     0.221 C 
ATOM      2  C   UNL     1     -19.949  50.203  31.796  1.00  0.00     0.181 C 
ATOM      3  C   UNL     1     -19.259  48.830  31.592  1.00  0.00     0.177 C 
ATOM      4  C   UNL     1     -19.917  47.730  32.473  1.00  0.00     0.179 C 
ATOM      5  O   UNL     1     -20.354  48.287  33.696  1.00  0.00    -0.332 OA
ATOM      6  C   UNL     1     -21.475  49.149  33.522  1.00  0.00     0.339 C 
ENDROOT
BRANCH   1   7
ATOM      7  O   UNL     1     -22.118  49.334  31.189  1.00  0.00    -0.337 OA
BRANCH   7   8
ATOM      8  C   UNL     1     -23.530  49.340  31.348  1.00  0.00     0.282 C 
ATOM      9  C   UNL     1     -22.605  48.326  28.577  1.00  0.00     0.041 C 
ATOM     10  C   UNL     1     -24.013  48.601  29.120  1.00  0.00     0.150 C 
ATOM     11  C   UNL     1     -24.568  49.979  28.692  1.00  0.00     0.174 C 
ATOM     12  O   UNL     1     -24.130  48.351  30.519  1.00  0.00    -0.344 OA
ATOM     13  C   UNL     1     -24.008  51.110  29.572  1.00  0.00     0.179 C 
ATOM     14  C   UNL     1     -24.071  50.757  31.073  1.00  0.00     0.202 C 
BRANCH  11  15
ATOM     15  O   UNL     1     -25.970  49.951  28.758  1.00  0.00    -0.388 OA
ATOM     16  H   UNL     1     -26.302  50.814  28.387  1.00  0.00     0.211 HD
ENDBRANCH  11  15
BRANCH  13  17
ATOM     17  O   UNL     1     -24.710  52.296  29.306  1.00  0.00    -0.387 OA
ATOM     18  H   UNL     1     -24.049  52.947  28.956  1.00  0.00     0.211 HD
ENDBRANCH  13  17
BRANCH  14  19
ATOM     19  O   UNL     1     -25.363  50.919  31.605  1.00  0.00    -0.385 OA
ATOM     20  H   UNL     1     -25.283  51.431  32.449  1.00  0.00     0.211 HD
ENDBRANCH  14  19
ENDBRANCH   7   8
ENDBRANCH   1   7
BRANCH   2  21
ATOM     21  O   UNL     1     -19.248  50.927  32.780  1.00  0.00    -0.387 OA
ATOM     22  H   UNL     1     -19.639  51.837  32.801  1.00  0.00     0.211 HD
ENDBRANCH   2  21
BRANCH   6  23
ATOM     23  O   UNL     1     -21.526  50.036  34.642  1.00  0.00    -0.462 OA
BRANCH  23  24
ATOM     24  C   UNL     1     -22.191  51.272  34.680  1.00  0.00     0.130 A 
ATOM     25  C   UNL     1     -21.528  52.490  34.903  1.00  0.00     0.093 A 
ATOM     26  C   UNL     1     -23.574  51.271  34.511  1.00  0.00     0.094 A 
ATOM     27  C   UNL     1     -22.242  53.692  35.004  1.00  0.00     0.133 A 
ATOM     28  C   UNL     1     -24.306  52.454  34.595  1.00  0.00     0.138 A 
ATOM     29  C   UNL     1     -23.661  53.683  34.855  1.00  0.00     0.102 A 
ATOM     30  O   UNL     1     -25.693  52.396  34.417  1.00  0.00    -0.484 OA
ATOM     31  C   UNL     1     -24.532  54.892  34.923  1.00  0.00     0.174 C 
ATOM     32  C   UNL     1     -26.556  53.468  34.798  1.00  0.00     0.211 C 
ATOM     33  O   UNL     1     -24.130  55.977  35.419  1.00  0.00    -0.294 OA
ATOM     34  C   UNL     1     -25.938  54.817  34.399  1.00  0.00     0.131 C 
BRANCH  27  35
ATOM     35  O   UNL     1     -21.489  54.850  35.241  1.00  0.00    -0.507 OA
ATOM     36  H   UNL     1     -20.659  54.902  35.815  1.00  0.00     0.293 HD
ENDBRANCH  27  35
BRANCH  32  37
ATOM     37  C   UNL     1     -27.917  53.285  34.169  1.00  0.00    -0.007 A 
ATOM     38  C   UNL     1     -28.273  54.002  33.013  1.00  0.00     0.011 A 
ATOM     39  C   UNL     1     -28.857  52.422  34.758  1.00  0.00     0.011 A 
ATOM     40  C   UNL     1     -29.549  53.858  32.458  1.00  0.00     0.046 A 
ATOM     41  C   UNL     1     -30.128  52.276  34.194  1.00  0.00     0.046 A 
ATOM     42  C   UNL     1     -30.480  52.991  33.046  1.00  0.00     0.115 A 
BRANCH  42  43
ATOM     43  O   UNL     1     -31.751  52.829  32.500  1.00  0.00    -0.508 OA
ATOM     44  H   UNL     1     -31.885  52.731  31.499  1.00  0.00     0.293 HD
ENDBRANCH  42  43
ENDBRANCH  32  37
ENDBRANCH  23  24
ENDBRANCH   6  23
BRANCH   3  45
ATOM     45  O   UNL     1     -19.344  48.441  30.243  1.00  0.00    -0.387 OA
ATOM     46  H   UNL     1     -19.833  49.156  29.762  1.00  0.00     0.211 HD
ENDBRANCH   3  45
BRANCH   4  47
ATOM     47  C   UNL     1     -18.916  46.603  32.768  1.00  0.00     0.191 C 
BRANCH  47  48
ATOM     48  O   UNL     1     -17.640  46.943  32.291  1.00  0.00    -0.394 OA
ATOM     49  H   UNL     1     -17.334  47.717  32.828  1.00  0.00     0.210 HD
ENDBRANCH  47  48
ENDBRANCH   4  47
TORSDOF 14
ENDMDL
MODEL 8
REMARK VINA RESULT:    -4.581      9.104     11.668
REMARK INTER + INTRA:          -9.591
REMARK INTER:                  -7.913
REMARK INTRA:                  -1.678
REMARK UNBOUND:                -2.332
REMARK SMILES C[C@H]1O[C@@H](O[C@H]2[C@H](Oc3cc(O)c4c(c3)O[C@H](c3ccc(O)cc3)CC4=O)O[C@H](CO)[C@@H](O)[C@@H]2O)[C@H](O)[C@H](O)[C@@H]1O
REMARK SMILES IDX 6 1 34 2 32 3 29 4 28 5 7 6 5 7 4 8 1 9 2 10 40 11 3 12
REMARK SMILES IDX 38 13 36 14 41 15 39 17 37 19 35 21 8 23 9 24 10 25 15 26
REMARK SMILES IDX 11 27 14 28 13 29 16 30 26 31 17 32 27 33 25 34 12 35 18 37
REMARK SMILES IDX 19 38 24 39 20 40 23 41 21 42 22 43 33 45 30 47 31 48
REMARK H PARENT 41 16 39 18 37 20 35 22 12 36 22 44 33 46 31 49
REMARK Flexibility Score: inf
ROOT
ATOM      1  C   UNL     1     -21.687  49.513  34.165  1.00  0.00     0.221 C 
ATOM      2  C   UNL     1     -23.091  49.053  34.611  1.00  0.00     0.181 C 
ATOM      3  C   UNL     1     -24.182  49.704  33.721  1.00  0.00     0.177 C 
ATOM      4  C   UNL     1     -23.701  51.063  33.140  1.00  0.00     0.179 C 
ATOM      5  O   UNL     1     -22.863  51.719  34.071  1.00  0.00    -0.332 OA
ATOM      6  C   UNL     1     -21.604  51.066  34.211  1.00  0.00     0.339 C 
ENDROOT
BRANCH   1   7
ATOM      7  O   UNL     1     -21.461  49.076  32.829  1.00  0.00    -0.337 OA
BRANCH   7   8
ATOM      8  C   UNL     1     -20.122  49.247  32.386  1.00  0.00     0.282 C 
ATOM      9  C   UNL     1     -22.229  49.838  30.201  1.00  0.00     0.041 C 
ATOM     10  C   UNL     1     -20.697  49.785  30.123  1.00  0.00     0.150 C 
ATOM     11  C   UNL     1     -20.166  48.440  29.577  1.00  0.00     0.174 C 
ATOM     12  O   UNL     1     -20.063  50.200  31.331  1.00  0.00    -0.344 OA
ATOM     13  C   UNL     1     -20.146  47.357  30.670  1.00  0.00     0.179 C 
ATOM     14  C   UNL     1     -19.535  47.879  31.987  1.00  0.00     0.202 C 
BRANCH  11  15
ATOM     15  O   UNL     1     -18.878  48.633  29.053  1.00  0.00    -0.388 OA
ATOM     16  H   UNL     1     -18.765  47.992  28.298  1.00  0.00     0.211 HD
ENDBRANCH  11  15
BRANCH  13  17
ATOM     17  O   UNL     1     -19.445  46.236  30.201  1.00  0.00    -0.387 OA
ATOM     18  H   UNL     1     -18.494  46.507  30.117  1.00  0.00     0.211 HD
ENDBRANCH  13  17
BRANCH  14  19
ATOM     19  O   UNL     1     -18.130  47.923  31.942  1.00  0.00    -0.385 OA
ATOM     20  H   UNL     1     -17.787  47.653  32.831  1.00  0.00     0.211 HD
ENDBRANCH  14  19
ENDBRANCH   7   8
ENDBRANCH   1   7
BRANCH   2  21
ATOM     21  O   UNL     1     -23.315  49.419  35.952  1.00  0.00    -0.387 OA
ATOM     22  H   UNL     1     -24.209  49.846  35.988  1.00  0.00     0.211 HD
ENDBRANCH   2  21
BRANCH   6  23
ATOM     23  O   UNL     1     -21.051  51.443  35.475  1.00  0.00    -0.462 OA
BRANCH  23  24
ATOM     24  C   UNL     1     -19.988  52.339  35.670  1.00  0.00     0.130 A 
ATOM     25  C   UNL     1     -18.701  51.926  36.052  1.00  0.00     0.093 A 
ATOM     26  C   UNL     1     -20.244  53.698  35.497  1.00  0.00     0.094 A 
ATOM     27  C   UNL     1     -17.689  52.862  36.305  1.00  0.00     0.133 A 
ATOM     28  C   UNL     1     -19.251  54.649  35.731  1.00  0.00     0.138 A 
ATOM     29  C   UNL     1     -17.962  54.254  36.151  1.00  0.00     0.102 A 
ATOM     30  O   UNL     1     -19.562  56.000  35.542  1.00  0.00    -0.484 OA
ATOM     31  C   UNL     1     -16.970  55.345  36.373  1.00  0.00     0.174 C 
ATOM     32  C   UNL     1     -18.740  57.049  36.055  1.00  0.00     0.211 C 
ATOM     33  O   UNL     1     -15.899  55.156  37.007  1.00  0.00    -0.294 OA
ATOM     34  C   UNL     1     -17.256  56.720  35.838  1.00  0.00     0.131 C 
BRANCH  27  35
ATOM     35  O   UNL     1     -16.444  52.348  36.694  1.00  0.00    -0.507 OA
ATOM     36  H   UNL     1     -15.545  52.729  36.433  1.00  0.00     0.293 HD
ENDBRANCH  27  35
BRANCH  32  37
ATOM     37  C   UNL     1     -19.109  58.361  35.402  1.00  0.00    -0.007 A 
ATOM     38  C   UNL     1     -19.660  58.387  34.110  1.00  0.00     0.011 A 
ATOM     39  C   UNL     1     -18.868  59.574  36.070  1.00  0.00     0.011 A 
ATOM     40  C   UNL     1     -19.963  59.606  33.495  1.00  0.00     0.046 A 
ATOM     41  C   UNL     1     -19.179  60.790  35.454  1.00  0.00     0.046 A 
ATOM     42  C   UNL     1     -19.726  60.813  34.167  1.00  0.00     0.115 A 
BRANCH  42  43
ATOM     43  O   UNL     1     -20.030  62.034  33.573  1.00  0.00    -0.508 OA
ATOM     44  H   UNL     1     -20.928  62.195  33.129  1.00  0.00     0.293 HD
ENDBRANCH  42  43
ENDBRANCH  32  37
ENDBRANCH  23  24
ENDBRANCH   6  23
BRANCH   3  45
ATOM     45  O   UNL     1     -24.512  48.847  32.655  1.00  0.00    -0.387 OA
ATOM     46  H   UNL     1     -24.046  47.987  32.815  1.00  0.00     0.211 HD
ENDBRANCH   3  45
BRANCH   4  47
ATOM     47  C   UNL     1     -24.899  51.971  32.824  1.00  0.00     0.191 C 
BRANCH  47  48
ATOM     48  O   UNL     1     -26.029  51.199  32.509  1.00  0.00    -0.394 OA
ATOM     49  H   UNL     1     -26.409  51.581  31.677  1.00  0.00     0.210 HD
ENDBRANCH  47  48
ENDBRANCH   4  47
TORSDOF 14
ENDMDL
