MODEL 1
REMARK VINA RESULT:    -3.519      0.000      0.000
REMARK INTER + INTRA:          -3.745
REMARK INTER:                  -3.725
REMARK INTRA:                  -0.020
REMARK UNBOUND:                -0.020
REMARK SMILES O=C([O-])c1cccnc1
REMARK SMILES IDX 4 1 5 2 9 3 6 4 8 5 7 6 2 7 1 8 3 9
REMARK H PARENT
REMARK Flexibility Score: inf
ROOT
ATOM      1  C   UNL     1     -10.879 -42.005  13.045  1.00  0.00     0.016 A 
ATOM      2  C   UNL     1     -10.557 -43.124  12.260  1.00  0.00     0.013 A 
ATOM      3  C   UNL     1     -10.990 -40.755  12.412  1.00  0.00     0.120 A 
ATOM      4  C   UNL     1     -10.354 -42.983  10.886  1.00  0.00     0.021 A 
ATOM      5  N   UNL     1     -10.788 -40.644  11.072  1.00  0.00    -0.264 NA
ATOM      6  C   UNL     1     -10.476 -41.721  10.303  1.00  0.00     0.111 A 
ENDROOT
BRANCH   1   7
ATOM      7  C   UNL     1     -11.095 -42.143  14.501  1.00  0.00     0.073 C 
ATOM      8  O   UNL     1     -11.774 -43.100  14.959  1.00  0.00    -0.545 OA
ATOM      9  O   UNL     1     -10.552 -41.217  15.385  1.00  0.00    -0.545 OA
ENDBRANCH   1   7
TORSDOF 1
ENDMDL
MODEL 2
REMARK VINA RESULT:    -3.483      1.074      1.160
REMARK INTER + INTRA:          -3.707
REMARK INTER:                  -3.691
REMARK INTRA:                  -0.016
REMARK UNBOUND:                -0.020
REMARK SMILES O=C([O-])c1cccnc1
REMARK SMILES IDX 4 1 5 2 9 3 6 4 8 5 7 6 2 7 1 8 3 9
REMARK H PARENT
REMARK Flexibility Score: inf
ROOT
ATOM      1  C   UNL     1     -10.897 -41.842  13.522  1.00  0.00     0.016 A 
ATOM      2  C   UNL     1     -10.628 -42.497  12.308  1.00  0.00     0.013 A 
ATOM      3  C   UNL     1     -11.243 -40.481  13.484  1.00  0.00     0.120 A 
ATOM      4  C   UNL     1     -10.707 -41.798  11.102  1.00  0.00     0.021 A 
ATOM      5  N   UNL     1     -11.313 -39.823  12.295  1.00  0.00    -0.264 NA
ATOM      6  C   UNL     1     -11.055 -40.447  11.116  1.00  0.00     0.111 A 
ENDROOT
BRANCH   1   7
ATOM      7  C   UNL     1     -10.817 -42.572  14.805  1.00  0.00     0.073 C 
ATOM      8  O   UNL     1     -11.843 -43.106  15.303  1.00  0.00    -0.545 OA
ATOM      9  O   UNL     1      -9.605 -42.679  15.480  1.00  0.00    -0.545 OA
ENDBRANCH   1   7
TORSDOF 1
ENDMDL
MODEL 3
REMARK VINA RESULT:    -3.439      1.315      1.555
REMARK INTER + INTRA:          -3.660
REMARK INTER:                  -3.641
REMARK INTRA:                  -0.019
REMARK UNBOUND:                -0.020
REMARK SMILES O=C([O-])c1cccnc1
REMARK SMILES IDX 4 1 5 2 9 3 6 4 8 5 7 6 2 7 1 8 3 9
REMARK H PARENT
REMARK Flexibility Score: inf
ROOT
ATOM      1  C   UNL     1     -11.052 -41.001  12.852  1.00  0.00     0.016 A 
ATOM      2  C   UNL     1     -10.816 -42.382  12.955  1.00  0.00     0.013 A 
ATOM      3  C   UNL     1     -10.958 -40.399  11.586  1.00  0.00     0.120 A 
ATOM      4  C   UNL     1     -10.495 -43.124  11.817  1.00  0.00     0.021 A 
ATOM      5  N   UNL     1     -10.645 -41.145  10.493  1.00  0.00    -0.264 NA
ATOM      6  C   UNL     1     -10.414 -42.482  10.581  1.00  0.00     0.111 A 
ENDROOT
BRANCH   1   7
ATOM      7  C   UNL     1     -11.392 -40.204  14.051  1.00  0.00     0.073 C 
ATOM      8  O   UNL     1     -12.340 -40.552  14.803  1.00  0.00    -0.545 OA
ATOM      9  O   UNL     1     -10.667 -39.059  14.364  1.00  0.00    -0.545 OA
ENDBRANCH   1   7
TORSDOF 1
ENDMDL
MODEL 4
REMARK VINA RESULT:    -3.364      0.934      1.751
REMARK INTER + INTRA:          -3.580
REMARK INTER:                  -3.564
REMARK INTRA:                  -0.016
REMARK UNBOUND:                -0.020
REMARK SMILES O=C([O-])c1cccnc1
REMARK SMILES IDX 4 1 5 2 9 3 6 4 8 5 7 6 2 7 1 8 3 9
REMARK H PARENT
REMARK Flexibility Score: inf
ROOT
ATOM      1  C   UNL     1     -10.882 -41.877  13.279  1.00  0.00     0.016 A 
ATOM      2  C   UNL     1     -11.156 -40.513  13.085  1.00  0.00     0.013 A 
ATOM      3  C   UNL     1     -10.584 -42.665  12.155  1.00  0.00     0.120 A 
ATOM      4  C   UNL     1     -11.130 -39.969  11.799  1.00  0.00     0.021 A 
ATOM      5  N   UNL     1     -10.564 -42.111  10.913  1.00  0.00    -0.264 NA
ATOM      6  C   UNL     1     -10.828 -40.792  10.714  1.00  0.00     0.111 A 
ENDROOT
BRANCH   1   7
ATOM      7  C   UNL     1     -10.907 -42.465  14.636  1.00  0.00     0.073 C 
ATOM      8  O   UNL     1     -11.906 -43.124  15.029  1.00  0.00    -0.545 OA
ATOM      9  O   UNL     1      -9.828 -42.296  15.496  1.00  0.00    -0.545 OA
ENDBRANCH   1   7
TORSDOF 1
ENDMDL
MODEL 5
REMARK VINA RESULT:    -3.273      3.592      4.695
REMARK INTER + INTRA:          -3.484
REMARK INTER:                  -3.461
REMARK INTRA:                  -0.024
REMARK UNBOUND:                -0.020
REMARK SMILES O=C([O-])c1cccnc1
REMARK SMILES IDX 4 1 5 2 9 3 6 4 8 5 7 6 2 7 1 8 3 9
REMARK H PARENT
REMARK Flexibility Score: inf
ROOT
ATOM      1  C   UNL     1     -10.294 -41.318  15.973  1.00  0.00     0.016 A 
ATOM      2  C   UNL     1      -9.315 -42.287  16.243  1.00  0.00     0.013 A 
ATOM      3  C   UNL     1     -10.164 -40.052  16.570  1.00  0.00     0.120 A 
ATOM      4  C   UNL     1      -8.243 -41.987  17.086  1.00  0.00     0.021 A 
ATOM      5  N   UNL     1      -9.110 -39.784  17.388  1.00  0.00    -0.264 NA
ATOM      6  C   UNL     1      -8.157 -40.716  17.655  1.00  0.00     0.111 A 
ENDROOT
BRANCH   1   7
ATOM      7  C   UNL     1     -11.433 -41.625  15.081  1.00  0.00     0.073 C 
ATOM      8  O   UNL     1     -11.708 -42.817  14.782  1.00  0.00    -0.545 OA
ATOM      9  O   UNL     1     -12.217 -40.601  14.562  1.00  0.00    -0.545 OA
ENDBRANCH   1   7
TORSDOF 1
ENDMDL
MODEL 6
REMARK VINA RESULT:    -3.135      3.023      3.686
REMARK INTER + INTRA:          -3.338
REMARK INTER:                  -3.321
REMARK INTRA:                  -0.017
REMARK UNBOUND:                -0.020
REMARK SMILES O=C([O-])c1cccnc1
REMARK SMILES IDX 4 1 5 2 9 3 6 4 8 5 7 6 2 7 1 8 3 9
REMARK H PARENT
REMARK Flexibility Score: inf
ROOT
ATOM      1  C   UNL     1     -10.878 -40.836  11.825  1.00  0.00     0.016 A 
ATOM      2  C   UNL     1     -10.503 -42.158  11.534  1.00  0.00     0.013 A 
ATOM      3  C   UNL     1     -11.250 -40.521  13.142  1.00  0.00     0.120 A 
ATOM      4  C   UNL     1     -10.506 -43.125  12.541  1.00  0.00     0.021 A 
ATOM      5  N   UNL     1     -11.245 -41.482  14.105  1.00  0.00    -0.264 NA
ATOM      6  C   UNL     1     -10.883 -42.764  13.835  1.00  0.00     0.111 A 
ENDROOT
BRANCH   1   7
ATOM      7  C   UNL     1     -10.879 -39.803  10.766  1.00  0.00     0.073 C 
ATOM      8  O   UNL     1      -9.805 -39.460  10.206  1.00  0.00    -0.545 OA
ATOM      9  O   UNL     1     -12.068 -39.197  10.374  1.00  0.00    -0.545 OA
ENDBRANCH   1   7
TORSDOF 1
ENDMDL
MODEL 7
REMARK VINA RESULT:    -3.116      2.551      3.115
REMARK INTER + INTRA:          -3.319
REMARK INTER:                  -3.295
REMARK INTRA:                  -0.024
REMARK UNBOUND:                -0.020
REMARK SMILES O=C([O-])c1cccnc1
REMARK SMILES IDX 4 1 5 2 9 3 6 4 8 5 7 6 2 7 1 8 3 9
REMARK H PARENT
REMARK Flexibility Score: inf
ROOT
ATOM      1  C   UNL     1     -11.138 -40.762  14.745  1.00  0.00     0.016 A 
ATOM      2  C   UNL     1     -11.277 -40.615  13.355  1.00  0.00     0.013 A 
ATOM      3  C   UNL     1     -10.869 -39.619  15.515  1.00  0.00     0.120 A 
ATOM      4  C   UNL     1     -11.148 -39.355  12.768  1.00  0.00     0.021 A 
ATOM      5  N   UNL     1     -10.747 -38.402  14.918  1.00  0.00    -0.264 NA
ATOM      6  C   UNL     1     -10.880 -38.248  13.574  1.00  0.00     0.111 A 
ENDROOT
BRANCH   1   7
ATOM      7  C   UNL     1     -11.273 -42.092  15.378  1.00  0.00     0.073 C 
ATOM      8  O   UNL     1     -11.764 -43.059  14.738  1.00  0.00    -0.545 OA
ATOM      9  O   UNL     1     -10.860 -42.292  16.691  1.00  0.00    -0.545 OA
ENDBRANCH   1   7
TORSDOF 1
ENDMDL
MODEL 8
REMARK VINA RESULT:    -3.074      2.131      2.968
REMARK INTER + INTRA:          -3.274
REMARK INTER:                  -3.251
REMARK INTRA:                  -0.023
REMARK UNBOUND:                -0.020
REMARK SMILES O=C([O-])c1cccnc1
REMARK SMILES IDX 4 1 5 2 9 3 6 4 8 5 7 6 2 7 1 8 3 9
REMARK H PARENT
REMARK Flexibility Score: inf
ROOT
ATOM      1  C   UNL     1     -10.924 -40.728  11.639  1.00  0.00     0.016 A 
ATOM      2  C   UNL     1     -10.581 -40.725  10.277  1.00  0.00     0.013 A 
ATOM      3  C   UNL     1     -10.871 -41.945  12.339  1.00  0.00     0.120 A 
ATOM      4  C   UNL     1     -10.198 -41.911   9.648  1.00  0.00     0.021 A 
ATOM      5  N   UNL     1     -10.494 -43.087  11.702  1.00  0.00    -0.264 NA
ATOM      6  C   UNL     1     -10.160 -43.095  10.385  1.00  0.00     0.111 A 
ENDROOT
BRANCH   1   7
ATOM      7  C   UNL     1     -11.332 -39.478  12.316  1.00  0.00     0.073 C 
ATOM      8  O   UNL     1     -11.056 -38.358  11.811  1.00  0.00    -0.545 OA
ATOM      9  O   UNL     1     -12.025 -39.523  13.520  1.00  0.00    -0.545 OA
ENDBRANCH   1   7
TORSDOF 1
ENDMDL
