MODEL 1
REMARK VINA RESULT:    -4.915      0.000      0.000
REMARK INTER + INTRA:          -5.663
REMARK INTER:                  -5.634
REMARK INTRA:                  -0.030
REMARK UNBOUND:                -0.030
REMARK SMILES COc1cc(C=O)ccc1O
REMARK SMILES IDX 3 1 10 2 9 3 8 4 5 5 4 6 2 7 1 8 11 9 6 11 7 12
REMARK H PARENT 11 10
REMARK Flexibility Score: inf
ROOT
ATOM      1  C   UNL     1      17.995  -5.211 -12.248  1.00  0.00     0.161 A 
ATOM      2  C   UNL     1      17.028  -5.905 -12.999  1.00  0.00     0.157 A 
ATOM      3  C   UNL     1      16.776  -5.538 -14.324  1.00  0.00     0.051 A 
ATOM      4  C   UNL     1      17.478  -4.485 -14.914  1.00  0.00     0.015 A 
ATOM      5  C   UNL     1      18.445  -3.782 -14.181  1.00  0.00     0.018 A 
ATOM      6  C   UNL     1      18.701  -4.147 -12.848  1.00  0.00     0.062 A 
ENDROOT
BRANCH   1   7
ATOM      7  O   UNL     1      18.226  -5.601 -10.919  1.00  0.00    -0.493 OA
ATOM      8  C   UNL     1      17.446  -5.180  -9.804  1.00  0.00     0.278 C 
ENDBRANCH   1   7
BRANCH   2   9
ATOM      9  O   UNL     1      16.308  -6.962 -12.445  1.00  0.00    -0.504 OA
ATOM     10  H   UNL     1      15.575  -6.816 -11.761  1.00  0.00     0.293 HD
ENDBRANCH   2   9
BRANCH   5  11
ATOM     11  C   UNL     1      19.175  -2.672 -14.822  1.00  0.00     0.260 C 
ATOM     12  O   UNL     1      19.973  -2.881 -15.774  1.00  0.00    -0.298 OA
ENDBRANCH   5  11
TORSDOF 3
ENDMDL
MODEL 2
REMARK VINA RESULT:    -4.867      1.435      4.096
REMARK INTER + INTRA:          -5.608
REMARK INTER:                  -5.545
REMARK INTRA:                  -0.063
REMARK UNBOUND:                -0.030
REMARK SMILES COc1cc(C=O)ccc1O
REMARK SMILES IDX 3 1 10 2 9 3 8 4 5 5 4 6 2 7 1 8 11 9 6 11 7 12
REMARK H PARENT 11 10
REMARK Flexibility Score: inf
ROOT
ATOM      1  C   UNL     1      18.013  -3.970 -13.979  1.00  0.00     0.161 A 
ATOM      2  C   UNL     1      17.064  -4.753 -14.660  1.00  0.00     0.157 A 
ATOM      3  C   UNL     1      16.520  -5.885 -14.046  1.00  0.00     0.051 A 
ATOM      4  C   UNL     1      16.911  -6.248 -12.756  1.00  0.00     0.015 A 
ATOM      5  C   UNL     1      17.856  -5.481 -12.061  1.00  0.00     0.018 A 
ATOM      6  C   UNL     1      18.406  -4.342 -12.676  1.00  0.00     0.062 A 
ENDROOT
BRANCH   1   7
ATOM      7  O   UNL     1      18.543  -2.839 -14.620  1.00  0.00    -0.493 OA
ATOM      8  C   UNL     1      19.722  -2.840 -15.419  1.00  0.00     0.278 C 
ENDBRANCH   1   7
BRANCH   2   9
ATOM      9  O   UNL     1      16.647  -4.422 -15.949  1.00  0.00    -0.504 OA
ATOM     10  H   UNL     1      17.280  -4.032 -16.637  1.00  0.00     0.293 HD
ENDBRANCH   2   9
BRANCH   5  11
ATOM     11  C   UNL     1      18.257  -5.881 -10.700  1.00  0.00     0.260 C 
ATOM     12  O   UNL     1      17.641  -5.454  -9.687  1.00  0.00    -0.298 OA
ENDBRANCH   5  11
TORSDOF 3
ENDMDL
MODEL 3
REMARK VINA RESULT:    -4.713      1.746      2.924
REMARK INTER + INTRA:          -5.431
REMARK INTER:                  -5.360
REMARK INTRA:                  -0.071
REMARK UNBOUND:                -0.030
REMARK SMILES COc1cc(C=O)ccc1O
REMARK SMILES IDX 3 1 10 2 9 3 8 4 5 5 4 6 2 7 1 8 11 9 6 11 7 12
REMARK H PARENT 11 10
REMARK Flexibility Score: inf
ROOT
ATOM      1  C   UNL     1      18.052  -4.998 -11.934  1.00  0.00     0.161 A 
ATOM      2  C   UNL     1      18.759  -3.828 -12.264  1.00  0.00     0.157 A 
ATOM      3  C   UNL     1      18.650  -3.281 -13.546  1.00  0.00     0.051 A 
ATOM      4  C   UNL     1      17.841  -3.888 -14.508  1.00  0.00     0.015 A 
ATOM      5  C   UNL     1      17.129  -5.055 -14.199  1.00  0.00     0.018 A 
ATOM      6  C   UNL     1      17.236  -5.608 -12.911  1.00  0.00     0.062 A 
ENDROOT
BRANCH   1   7
ATOM      7  O   UNL     1      18.180  -5.524 -10.639  1.00  0.00    -0.493 OA
ATOM      8  C   UNL     1      17.286  -5.253  -9.564  1.00  0.00     0.278 C 
ENDBRANCH   1   7
BRANCH   2   9
ATOM      9  O   UNL     1      19.576  -3.192 -11.329  1.00  0.00    -0.504 OA
ATOM     10  H   UNL     1      20.360  -3.660 -10.891  1.00  0.00     0.293 HD
ENDBRANCH   2   9
BRANCH   5  11
ATOM     11  C   UNL     1      16.280  -5.682 -15.230  1.00  0.00     0.260 C 
ATOM     12  O   UNL     1      16.717  -6.618 -15.952  1.00  0.00    -0.298 OA
ENDBRANCH   5  11
TORSDOF 3
ENDMDL
MODEL 4
REMARK VINA RESULT:    -4.621      2.026      2.986
REMARK INTER + INTRA:          -5.327
REMARK INTER:                  -5.268
REMARK INTRA:                  -0.058
REMARK UNBOUND:                -0.030
REMARK SMILES COc1cc(C=O)ccc1O
REMARK SMILES IDX 3 1 10 2 9 3 8 4 5 5 4 6 2 7 1 8 11 9 6 11 7 12
REMARK H PARENT 11 10
REMARK Flexibility Score: inf
ROOT
ATOM      1  C   UNL     1      18.495  -4.295 -12.129  1.00  0.00     0.161 A 
ATOM      2  C   UNL     1      18.140  -5.403 -11.339  1.00  0.00     0.157 A 
ATOM      3  C   UNL     1      17.377  -6.439 -11.887  1.00  0.00     0.051 A 
ATOM      4  C   UNL     1      16.961  -6.383 -13.219  1.00  0.00     0.015 A 
ATOM      5  C   UNL     1      17.305  -5.287 -14.022  1.00  0.00     0.018 A 
ATOM      6  C   UNL     1      18.071  -4.244 -13.474  1.00  0.00     0.062 A 
ENDROOT
BRANCH   1   7
ATOM      7  O   UNL     1      19.262  -3.270 -11.552  1.00  0.00    -0.493 OA
ATOM      8  C   UNL     1      19.258  -1.914 -11.986  1.00  0.00     0.278 C 
ENDBRANCH   1   7
BRANCH   2   9
ATOM      9  O   UNL     1      18.537  -5.495 -10.006  1.00  0.00    -0.504 OA
ATOM     10  H   UNL     1      19.511  -5.580  -9.737  1.00  0.00     0.293 HD
ENDBRANCH   2   9
BRANCH   5  11
ATOM     11  C   UNL     1      16.855  -5.247 -15.426  1.00  0.00     0.260 C 
ATOM     12  O   UNL     1      16.558  -6.302 -16.046  1.00  0.00    -0.298 OA
ENDBRANCH   5  11
TORSDOF 3
ENDMDL
MODEL 5
REMARK VINA RESULT:    -4.525      1.397      2.916
REMARK INTER + INTRA:          -5.216
REMARK INTER:                  -5.141
REMARK INTRA:                  -0.075
REMARK UNBOUND:                -0.030
REMARK SMILES COc1cc(C=O)ccc1O
REMARK SMILES IDX 3 1 10 2 9 3 8 4 5 5 4 6 2 7 1 8 11 9 6 11 7 12
REMARK H PARENT 11 10
REMARK Flexibility Score: inf
ROOT
ATOM      1  C   UNL     1      17.074  -5.205 -13.880  1.00  0.00     0.161 A 
ATOM      2  C   UNL     1      17.383  -5.939 -12.720  1.00  0.00     0.157 A 
ATOM      3  C   UNL     1      18.293  -5.428 -11.790  1.00  0.00     0.051 A 
ATOM      4  C   UNL     1      18.902  -4.189 -12.001  1.00  0.00     0.015 A 
ATOM      5  C   UNL     1      18.607  -3.443 -13.151  1.00  0.00     0.018 A 
ATOM      6  C   UNL     1      17.693  -3.954 -14.089  1.00  0.00     0.062 A 
ENDROOT
BRANCH   1   7
ATOM      7  O   UNL     1      16.157  -5.743 -14.796  1.00  0.00    -0.493 OA
ATOM      8  C   UNL     1      16.515  -6.425 -15.994  1.00  0.00     0.278 C 
ENDBRANCH   1   7
BRANCH   2   9
ATOM      9  O   UNL     1      16.795  -7.179 -12.474  1.00  0.00    -0.504 OA
ATOM     10  H   UNL     1      16.090  -7.573 -13.085  1.00  0.00     0.293 HD
ENDBRANCH   2   9
BRANCH   5  11
ATOM     11  C   UNL     1      19.261  -2.137 -13.357  1.00  0.00     0.260 C 
ATOM     12  O   UNL     1      19.249  -1.574 -14.483  1.00  0.00    -0.298 OA
ENDBRANCH   5  11
TORSDOF 3
ENDMDL
MODEL 6
REMARK VINA RESULT:    -4.407      1.469      4.421
REMARK INTER + INTRA:          -5.081
REMARK INTER:                  -5.006
REMARK INTRA:                  -0.074
REMARK UNBOUND:                -0.030
REMARK SMILES COc1cc(C=O)ccc1O
REMARK SMILES IDX 3 1 10 2 9 3 8 4 5 5 4 6 2 7 1 8 11 9 6 11 7 12
REMARK H PARENT 11 10
REMARK Flexibility Score: inf
ROOT
ATOM      1  C   UNL     1      17.154  -4.998 -13.998  1.00  0.00     0.161 A 
ATOM      2  C   UNL     1      18.020  -3.905 -14.185  1.00  0.00     0.157 A 
ATOM      3  C   UNL     1      18.913  -3.539 -13.174  1.00  0.00     0.051 A 
ATOM      4  C   UNL     1      18.957  -4.251 -11.974  1.00  0.00     0.015 A 
ATOM      5  C   UNL     1      18.102  -5.343 -11.770  1.00  0.00     0.018 A 
ATOM      6  C   UNL     1      17.202  -5.714 -12.783  1.00  0.00     0.062 A 
ENDROOT
BRANCH   1   7
ATOM      7  O   UNL     1      16.268  -5.343 -15.031  1.00  0.00    -0.493 OA
ATOM      8  C   UNL     1      16.487  -6.392 -15.969  1.00  0.00     0.278 C 
ENDBRANCH   1   7
BRANCH   2   9
ATOM      9  O   UNL     1      18.007  -3.170 -15.370  1.00  0.00    -0.504 OA
ATOM     10  H   UNL     1      17.530  -2.279 -15.447  1.00  0.00     0.293 HD
ENDBRANCH   2   9
BRANCH   5  11
ATOM     11  C   UNL     1      18.162  -6.083 -10.495  1.00  0.00     0.260 C 
ATOM     12  O   UNL     1      17.748  -5.568  -9.423  1.00  0.00    -0.298 OA
ENDBRANCH   5  11
TORSDOF 3
ENDMDL
MODEL 7
REMARK VINA RESULT:    -4.121      2.162      3.948
REMARK INTER + INTRA:          -4.753
REMARK INTER:                  -4.677
REMARK INTRA:                  -0.075
REMARK UNBOUND:                -0.030
REMARK SMILES COc1cc(C=O)ccc1O
REMARK SMILES IDX 3 1 10 2 9 3 8 4 5 5 4 6 2 7 1 8 11 9 6 11 7 12
REMARK H PARENT 11 10
REMARK Flexibility Score: inf
ROOT
ATOM      1  C   UNL     1      18.587  -2.369 -13.231  1.00  0.00     0.161 A 
ATOM      2  C   UNL     1      18.906  -3.135 -12.095  1.00  0.00     0.157 A 
ATOM      3  C   UNL     1      18.577  -4.494 -12.052  1.00  0.00     0.051 A 
ATOM      4  C   UNL     1      17.933  -5.101 -13.131  1.00  0.00     0.015 A 
ATOM      5  C   UNL     1      17.607  -4.354 -14.271  1.00  0.00     0.018 A 
ATOM      6  C   UNL     1      17.935  -2.988 -14.319  1.00  0.00     0.062 A 
ENDROOT
BRANCH   1   7
ATOM      7  O   UNL     1      18.929  -1.008 -13.247  1.00  0.00    -0.493 OA
ATOM      8  C   UNL     1      18.052   0.051 -12.874  1.00  0.00     0.278 C 
ENDBRANCH   1   7
BRANCH   2   9
ATOM      9  O   UNL     1      19.550  -2.565 -10.999  1.00  0.00    -0.504 OA
ATOM     10  H   UNL     1      20.049  -3.122 -10.315  1.00  0.00     0.293 HD
ENDBRANCH   2   9
BRANCH   5  11
ATOM     11  C   UNL     1      16.925  -5.014 -15.401  1.00  0.00     0.260 C 
ATOM     12  O   UNL     1      16.113  -5.958 -15.210  1.00  0.00    -0.298 OA
ENDBRANCH   5  11
TORSDOF 3
ENDMDL
MODEL 8
REMARK VINA RESULT:    -4.119      1.418      2.638
REMARK INTER + INTRA:          -4.751
REMARK INTER:                  -4.682
REMARK INTRA:                  -0.068
REMARK UNBOUND:                -0.030
REMARK SMILES COc1cc(C=O)ccc1O
REMARK SMILES IDX 3 1 10 2 9 3 8 4 5 5 4 6 2 7 1 8 11 9 6 11 7 12
REMARK H PARENT 11 10
REMARK Flexibility Score: inf
ROOT
ATOM      1  C   UNL     1      18.517  -4.723 -12.416  1.00  0.00     0.161 A 
ATOM      2  C   UNL     1      18.418  -3.838 -11.327  1.00  0.00     0.157 A 
ATOM      3  C   UNL     1      18.704  -2.480 -11.500  1.00  0.00     0.051 A 
ATOM      4  C   UNL     1      19.090  -1.991 -12.749  1.00  0.00     0.015 A 
ATOM      5  C   UNL     1      19.196  -2.858 -13.846  1.00  0.00     0.018 A 
ATOM      6  C   UNL     1      18.909  -4.223 -13.676  1.00  0.00     0.062 A 
ENDROOT
BRANCH   1   7
ATOM      7  O   UNL     1      18.223  -6.081 -12.213  1.00  0.00    -0.493 OA
ATOM      8  C   UNL     1      17.160  -6.782 -12.850  1.00  0.00     0.278 C 
ENDBRANCH   1   7
BRANCH   2   9
ATOM      9  O   UNL     1      18.034  -4.289 -10.065  1.00  0.00    -0.504 OA
ATOM     10  H   UNL     1      17.233  -4.894  -9.928  1.00  0.00     0.293 HD
ENDBRANCH   2   9
BRANCH   5  11
ATOM     11  C   UNL     1      19.606  -2.322 -15.158  1.00  0.00     0.260 C 
ATOM     12  O   UNL     1      20.266  -3.023 -15.970  1.00  0.00    -0.298 OA
ENDBRANCH   5  11
TORSDOF 3
ENDMDL
MODEL 9
REMARK VINA RESULT:    -4.041      1.740      2.140
REMARK INTER + INTRA:          -4.661
REMARK INTER:                  -4.604
REMARK INTRA:                  -0.057
REMARK UNBOUND:                -0.030
REMARK SMILES COc1cc(C=O)ccc1O
REMARK SMILES IDX 3 1 10 2 9 3 8 4 5 5 4 6 2 7 1 8 11 9 6 11 7 12
REMARK H PARENT 11 10
REMARK Flexibility Score: inf
ROOT
ATOM      1  C   UNL     1      17.424  -5.241 -13.683  1.00  0.00     0.161 A 
ATOM      2  C   UNL     1      16.666  -5.020 -14.848  1.00  0.00     0.157 A 
ATOM      3  C   UNL     1      16.676  -3.764 -15.462  1.00  0.00     0.051 A 
ATOM      4  C   UNL     1      17.434  -2.720 -14.928  1.00  0.00     0.015 A 
ATOM      5  C   UNL     1      18.195  -2.921 -13.768  1.00  0.00     0.018 A 
ATOM      6  C   UNL     1      18.188  -4.182 -13.148  1.00  0.00     0.062 A 
ENDROOT
BRANCH   1   7
ATOM      7  O   UNL     1      17.396  -6.512 -13.089  1.00  0.00    -0.493 OA
ATOM      8  C   UNL     1      17.887  -6.806 -11.784  1.00  0.00     0.278 C 
ENDBRANCH   1   7
BRANCH   2   9
ATOM      9  O   UNL     1      15.898  -6.038 -15.411  1.00  0.00    -0.504 OA
ATOM     10  H   UNL     1      14.893  -6.087 -15.290  1.00  0.00     0.293 HD
ENDBRANCH   2   9
BRANCH   5  11
ATOM     11  C   UNL     1      18.988  -1.805 -13.219  1.00  0.00     0.260 C 
ATOM     12  O   UNL     1      19.206  -0.765 -13.895  1.00  0.00    -0.298 OA
ENDBRANCH   5  11
TORSDOF 3
ENDMDL
