MODEL 1
REMARK VINA RESULT:    -3.794      0.000      0.000
REMARK INTER + INTRA:          -4.830
REMARK INTER:                  -4.681
REMARK INTRA:                  -0.149
REMARK UNBOUND:                -0.149
REMARK SMILES CCCCC=CC(C)=O
REMARK SMILES IDX 4 1 3 2 2 3 1 4 5 5 6 6 7 7 9 8 8 9
REMARK H PARENT
REMARK Flexibility Score: inf
ROOT
ATOM      1  C   UNL     1      19.942  24.273  27.426  1.00  0.00     0.027 C 
ENDROOT
BRANCH   1   2
ATOM      2  C   UNL     1      18.583  24.985  27.516  1.00  0.00     0.004 C 
BRANCH   2   3
ATOM      3  C   UNL     1      18.704  26.384  28.136  1.00  0.00    -0.003 C 
ATOM      4  C   UNL     1      17.946  27.418  27.309  1.00  0.00     0.004 C 
ENDBRANCH   2   3
ENDBRANCH   1   2
BRANCH   1   5
ATOM      5  C   UNL     1      20.675  24.601  26.154  1.00  0.00    -0.023 C 
ATOM      6  C   UNL     1      20.957  23.660  25.246  1.00  0.00     0.042 C 
BRANCH   6   7
ATOM      7  C   UNL     1      21.671  23.938  23.985  1.00  0.00     0.152 C 
ATOM      8  O   UNL     1      22.023  25.122  23.739  1.00  0.00    -0.295 OA
ATOM      9  C   UNL     1      21.992  22.865  22.987  1.00  0.00     0.093 C 
ENDBRANCH   6   7
ENDBRANCH   1   5
TORSDOF 4
ENDMDL
MODEL 2
REMARK VINA RESULT:    -3.760      1.621      1.971
REMARK INTER + INTRA:          -4.788
REMARK INTER:                  -4.691
REMARK INTRA:                  -0.097
REMARK UNBOUND:                -0.149
REMARK SMILES CCCCC=CC(C)=O
REMARK SMILES IDX 4 1 3 2 2 3 1 4 5 5 6 6 7 7 9 8 8 9
REMARK H PARENT
REMARK Flexibility Score: inf
ROOT
ATOM      1  C   UNL     1      20.390  24.732  26.378  1.00  0.00     0.027 C 
ENDROOT
BRANCH   1   2
ATOM      2  C   UNL     1      20.527  24.258  27.833  1.00  0.00     0.004 C 
BRANCH   2   3
ATOM      3  C   UNL     1      19.736  25.143  28.806  1.00  0.00    -0.003 C 
ATOM      4  C   UNL     1      20.670  26.017  29.637  1.00  0.00     0.004 C 
ENDBRANCH   2   3
ENDBRANCH   1   2
BRANCH   1   5
ATOM      5  C   UNL     1      20.969  23.748  25.399  1.00  0.00    -0.023 C 
ATOM      6  C   UNL     1      21.552  24.150  24.264  1.00  0.00     0.042 C 
BRANCH   6   7
ATOM      7  C   UNL     1      22.134  23.220  23.278  1.00  0.00     0.152 C 
ATOM      8  O   UNL     1      23.385  23.203  23.129  1.00  0.00    -0.295 OA
ATOM      9  C   UNL     1      21.294  22.296  22.448  1.00  0.00     0.093 C 
ENDBRANCH   6   7
ENDBRANCH   1   5
TORSDOF 4
ENDMDL
MODEL 3
REMARK VINA RESULT:    -3.630      1.877      5.450
REMARK INTER + INTRA:          -4.629
REMARK INTER:                  -4.499
REMARK INTRA:                  -0.130
REMARK UNBOUND:                -0.149
REMARK SMILES CCCCC=CC(C)=O
REMARK SMILES IDX 4 1 3 2 2 3 1 4 5 5 6 6 7 7 9 8 8 9
REMARK H PARENT
REMARK Flexibility Score: inf
ROOT
ATOM      1  C   UNL     1      21.651  23.664  23.421  1.00  0.00     0.027 C 
ENDROOT
BRANCH   1   2
ATOM      2  C   UNL     1      22.596  22.571  22.899  1.00  0.00     0.004 C 
BRANCH   2   3
ATOM      3  C   UNL     1      21.911  21.657  21.872  1.00  0.00    -0.003 C 
ATOM      4  C   UNL     1      20.394  21.698  22.025  1.00  0.00     0.004 C 
ENDBRANCH   2   3
ENDBRANCH   1   2
BRANCH   1   5
ATOM      5  C   UNL     1      21.415  23.555  24.902  1.00  0.00    -0.023 C 
ATOM      6  C   UNL     1      20.726  24.487  25.571  1.00  0.00     0.042 C 
BRANCH   6   7
ATOM      7  C   UNL     1      20.469  24.419  27.023  1.00  0.00     0.152 C 
ATOM      8  O   UNL     1      21.394  24.026  27.782  1.00  0.00    -0.295 OA
ATOM      9  C   UNL     1      19.149  24.798  27.625  1.00  0.00     0.093 C 
ENDBRANCH   6   7
ENDBRANCH   1   5
TORSDOF 4
ENDMDL
MODEL 4
REMARK VINA RESULT:    -3.612      3.380      4.563
REMARK INTER + INTRA:          -4.606
REMARK INTER:                  -4.387
REMARK INTRA:                  -0.219
REMARK UNBOUND:                -0.149
REMARK SMILES CCCCC=CC(C)=O
REMARK SMILES IDX 4 1 3 2 2 3 1 4 5 5 6 6 7 7 9 8 8 9
REMARK H PARENT
REMARK Flexibility Score: inf
ROOT
ATOM      1  C   UNL     1      20.679  25.142  28.820  1.00  0.00     0.027 C 
ENDROOT
BRANCH   1   2
ATOM      2  C   UNL     1      19.757  25.369  27.611  1.00  0.00     0.004 C 
BRANCH   2   3
ATOM      3  C   UNL     1      19.493  24.072  26.834  1.00  0.00    -0.003 C 
ATOM      4  C   UNL     1      20.662  23.736  25.912  1.00  0.00     0.004 C 
ENDBRANCH   2   3
ENDBRANCH   1   2
BRANCH   1   5
ATOM      5  C   UNL     1      22.045  25.737  28.617  1.00  0.00    -0.023 C 
ATOM      6  C   UNL     1      22.203  27.009  28.233  1.00  0.00     0.042 C 
BRANCH   6   7
ATOM      7  C   UNL     1      23.524  27.635  28.024  1.00  0.00     0.152 C 
ATOM      8  O   UNL     1      23.687  28.380  27.021  1.00  0.00    -0.295 OA
ATOM      9  C   UNL     1      24.675  27.415  28.959  1.00  0.00     0.093 C 
ENDBRANCH   6   7
ENDBRANCH   1   5
TORSDOF 4
ENDMDL
MODEL 5
REMARK VINA RESULT:    -3.562      2.100      5.347
REMARK INTER + INTRA:          -4.544
REMARK INTER:                  -4.438
REMARK INTRA:                  -0.107
REMARK UNBOUND:                -0.149
REMARK SMILES CCCCC=CC(C)=O
REMARK SMILES IDX 4 1 3 2 2 3 1 4 5 5 6 6 7 7 9 8 8 9
REMARK H PARENT
REMARK Flexibility Score: inf
ROOT
ATOM      1  C   UNL     1      20.756  23.631  25.302  1.00  0.00     0.027 C 
ENDROOT
BRANCH   1   2
ATOM      2  C   UNL     1      21.624  24.281  24.213  1.00  0.00     0.004 C 
BRANCH   2   3
ATOM      3  C   UNL     1      22.264  23.239  23.285  1.00  0.00    -0.003 C 
ATOM      4  C   UNL     1      21.201  22.406  22.577  1.00  0.00     0.004 C 
ENDBRANCH   2   3
ENDBRANCH   1   2
BRANCH   1   5
ATOM      5  C   UNL     1      20.673  24.473  26.545  1.00  0.00    -0.023 C 
ATOM      6  C   UNL     1      19.507  24.691  27.164  1.00  0.00     0.042 C 
BRANCH   6   7
ATOM      7  C   UNL     1      19.379  25.508  28.387  1.00  0.00     0.152 C 
ATOM      8  O   UNL     1      20.175  25.296  29.340  1.00  0.00    -0.295 OA
ATOM      9  C   UNL     1      18.338  26.578  28.535  1.00  0.00     0.093 C 
ENDBRANCH   6   7
ENDBRANCH   1   5
TORSDOF 4
ENDMDL
MODEL 6
REMARK VINA RESULT:    -3.557      2.804      4.262
REMARK INTER + INTRA:          -4.538
REMARK INTER:                  -4.342
REMARK INTRA:                  -0.197
REMARK UNBOUND:                -0.149
REMARK SMILES CCCCC=CC(C)=O
REMARK SMILES IDX 4 1 3 2 2 3 1 4 5 5 6 6 7 7 9 8 8 9
REMARK H PARENT
REMARK Flexibility Score: inf
ROOT
ATOM      1  C   UNL     1      19.134  22.798  25.943  1.00  0.00     0.027 C 
ENDROOT
BRANCH   1   2
ATOM      2  C   UNL     1      17.719  22.204  26.031  1.00  0.00     0.004 C 
BRANCH   2   3
ATOM      3  C   UNL     1      16.682  23.244  26.476  1.00  0.00    -0.003 C 
ATOM      4  C   UNL     1      15.414  23.152  25.633  1.00  0.00     0.004 C 
ENDBRANCH   2   3
ENDBRANCH   1   2
BRANCH   1   5
ATOM      5  C   UNL     1      19.364  23.877  26.965  1.00  0.00    -0.023 C 
ATOM      6  C   UNL     1      20.598  24.283  27.287  1.00  0.00     0.042 C 
BRANCH   6   7
ATOM      7  C   UNL     1      20.870  25.339  28.281  1.00  0.00     0.152 C 
ATOM      8  O   UNL     1      22.031  25.430  28.763  1.00  0.00    -0.295 OA
ATOM      9  C   UNL     1      19.818  26.306  28.738  1.00  0.00     0.093 C 
ENDBRANCH   6   7
ENDBRANCH   1   5
TORSDOF 4
ENDMDL
MODEL 7
REMARK VINA RESULT:    -3.478      2.365      3.402
REMARK INTER + INTRA:          -4.440
REMARK INTER:                  -4.181
REMARK INTRA:                  -0.259
REMARK UNBOUND:                -0.149
REMARK SMILES CCCCC=CC(C)=O
REMARK SMILES IDX 4 1 3 2 2 3 1 4 5 5 6 6 7 7 9 8 8 9
REMARK H PARENT
REMARK Flexibility Score: inf
ROOT
ATOM      1  C   UNL     1      17.355  26.283  27.823  1.00  0.00     0.027 C 
ENDROOT
BRANCH   1   2
ATOM      2  C   UNL     1      16.469  25.071  28.149  1.00  0.00     0.004 C 
BRANCH   2   3
ATOM      3  C   UNL     1      15.338  24.891  27.127  1.00  0.00    -0.003 C 
ATOM      4  C   UNL     1      15.483  23.572  26.374  1.00  0.00     0.004 C 
ENDBRANCH   2   3
ENDBRANCH   1   2
BRANCH   1   5
ATOM      5  C   UNL     1      18.774  25.888  27.519  1.00  0.00    -0.023 C 
ATOM      6  C   UNL     1      19.098  24.626  27.211  1.00  0.00     0.042 C 
BRANCH   6   7
ATOM      7  C   UNL     1      20.475  24.195  26.903  1.00  0.00     0.152 C 
ATOM      8  O   UNL     1      21.322  24.169  27.836  1.00  0.00    -0.295 OA
ATOM      9  C   UNL     1      20.903  23.789  25.524  1.00  0.00     0.093 C 
ENDBRANCH   6   7
ENDBRANCH   1   5
TORSDOF 4
ENDMDL
MODEL 8
REMARK VINA RESULT:    -3.375      3.767      5.300
REMARK INTER + INTRA:          -4.314
REMARK INTER:                  -4.176
REMARK INTRA:                  -0.138
REMARK UNBOUND:                -0.149
REMARK SMILES CCCCC=CC(C)=O
REMARK SMILES IDX 4 1 3 2 2 3 1 4 5 5 6 6 7 7 9 8 8 9
REMARK H PARENT
REMARK Flexibility Score: inf
ROOT
ATOM      1  C   UNL     1      19.150  22.876  26.036  1.00  0.00     0.027 C 
ENDROOT
BRANCH   1   2
ATOM      2  C   UNL     1      19.365  24.036  27.020  1.00  0.00     0.004 C 
BRANCH   2   3
ATOM      3  C   UNL     1      20.827  24.142  27.479  1.00  0.00    -0.003 C 
ATOM      4  C   UNL     1      21.025  25.330  28.415  1.00  0.00     0.004 C 
ENDBRANCH   2   3
ENDBRANCH   1   2
BRANCH   1   5
ATOM      5  C   UNL     1      17.720  22.411  26.005  1.00  0.00    -0.023 C 
ATOM      6  C   UNL     1      16.724  23.183  26.455  1.00  0.00     0.042 C 
BRANCH   6   7
ATOM      7  C   UNL     1      15.307  22.769  26.441  1.00  0.00     0.152 C 
ATOM      8  O   UNL     1      14.761  22.522  25.333  1.00  0.00    -0.295 OA
ATOM      9  C   UNL     1      14.496  22.632  27.695  1.00  0.00     0.093 C 
ENDBRANCH   6   7
ENDBRANCH   1   5
TORSDOF 4
ENDMDL
MODEL 9
REMARK VINA RESULT:    -3.331      4.720      7.185
REMARK INTER + INTRA:          -4.259
REMARK INTER:                  -4.009
REMARK INTRA:                  -0.250
REMARK UNBOUND:                -0.149
REMARK SMILES CCCCC=CC(C)=O
REMARK SMILES IDX 4 1 3 2 2 3 1 4 5 5 6 6 7 7 9 8 8 9
REMARK H PARENT
REMARK Flexibility Score: inf
ROOT
ATOM      1  C   UNL     1      18.391  32.017  29.711  1.00  0.00     0.027 C 
ENDROOT
BRANCH   1   2
ATOM      2  C   UNL     1      17.501  32.861  28.785  1.00  0.00     0.004 C 
BRANCH   2   3
ATOM      3  C   UNL     1      16.139  33.173  29.420  1.00  0.00    -0.003 C 
ATOM      4  C   UNL     1      15.409  31.893  29.814  1.00  0.00     0.004 C 
ENDBRANCH   2   3
ENDBRANCH   1   2
BRANCH   1   5
ATOM      5  C   UNL     1      18.981  30.826  29.007  1.00  0.00    -0.023 C 
ATOM      6  C   UNL     1      18.324  29.662  28.933  1.00  0.00     0.042 C 
BRANCH   6   7
ATOM      7  C   UNL     1      18.863  28.470  28.251  1.00  0.00     0.152 C 
ATOM      8  O   UNL     1      20.097  28.229  28.341  1.00  0.00    -0.295 OA
ATOM      9  C   UNL     1      17.999  27.537  27.456  1.00  0.00     0.093 C 
ENDBRANCH   6   7
ENDBRANCH   1   5
TORSDOF 4
ENDMDL
