MODEL 1
REMARK VINA RESULT:    -3.723      0.000      0.000
REMARK INTER + INTRA:         -11.760
REMARK INTER:                  -8.512
REMARK INTRA:                  -3.248
REMARK UNBOUND:                -3.248
REMARK SMILES CCCCCCCCCCCCCCCCCCCCCCCC(=O)[O-]
REMARK SMILES IDX 13 1 14 2 15 3 16 4 17 5 18 6 19 7 20 8 21 9 22 10 23 11
REMARK SMILES IDX 24 12 25 13 26 14 12 15 11 16 10 17 9 18 8 19 7 20 6 21 5 22
REMARK SMILES IDX 4 23 3 24 2 25 1 26
REMARK H PARENT
REMARK Flexibility Score: inf
ROOT
ATOM      1  C   UNL     1      -2.491  -3.459   6.463  1.00  0.00     0.000 C 
ENDROOT
BRANCH   1   2
ATOM      2  C   UNL     1      -3.137  -4.778   6.926  1.00  0.00     0.000 C 
BRANCH   2   3
ATOM      3  C   UNL     1      -4.096  -4.659   8.125  1.00  0.00     0.000 C 
BRANCH   3   4
ATOM      4  C   UNL     1      -5.400  -5.451   7.932  1.00  0.00     0.000 C 
BRANCH   4   5
ATOM      5  C   UNL     1      -5.229  -6.683   7.024  1.00  0.00     0.000 C 
BRANCH   5   6
ATOM      6  C   UNL     1      -5.938  -7.959   7.511  1.00  0.00     0.000 C 
BRANCH   6   7
ATOM      7  C   UNL     1      -5.383  -9.239   6.861  1.00  0.00     0.000 C 
BRANCH   7   8
ATOM      8  C   UNL     1      -5.676  -9.306   5.355  1.00  0.00     0.000 C 
BRANCH   8   9
ATOM      9  C   UNL     1      -5.297 -10.668   4.746  1.00  0.00     0.000 C 
BRANCH   9  10
ATOM     10  C   UNL     1      -3.778 -10.916   4.742  1.00  0.00     0.006 C 
BRANCH  10  11
ATOM     11  C   UNL     1      -3.124 -10.796   3.355  1.00  0.00     0.053 C 
BRANCH  11  12
ATOM     12  C   UNL     1      -2.328  -9.536   3.218  1.00  0.00     0.041 C 
ATOM     13  O   UNL     1      -1.941  -9.151   2.082  1.00  0.00    -0.550 OA
ATOM     14  O   UNL     1      -1.983  -8.801   4.347  1.00  0.00    -0.550 OA
ENDBRANCH  11  12
ENDBRANCH  10  11
ENDBRANCH   9  10
ENDBRANCH   8   9
ENDBRANCH   7   8
ENDBRANCH   6   7
ENDBRANCH   5   6
ENDBRANCH   4   5
ENDBRANCH   3   4
ENDBRANCH   2   3
ENDBRANCH   1   2
BRANCH   1  15
ATOM     15  C   UNL     1      -3.232  -2.810   5.283  1.00  0.00     0.000 C 
BRANCH  15  16
ATOM     16  C   UNL     1      -4.385  -3.678   4.746  1.00  0.00     0.000 C 
BRANCH  16  17
ATOM     17  C   UNL     1      -5.802  -3.221   5.156  1.00  0.00     0.000 C 
BRANCH  17  18
ATOM     18  C   UNL     1      -5.901  -1.774   5.672  1.00  0.00    -0.000 C 
BRANCH  18  19
ATOM     19  C   UNL     1      -6.014  -1.636   7.202  1.00  0.00    -0.000 C 
BRANCH  19  20
ATOM     20  C   UNL     1      -7.383  -2.070   7.768  1.00  0.00    -0.000 C 
BRANCH  20  21
ATOM     21  C   UNL     1      -8.522  -1.909   6.750  1.00  0.00    -0.000 C 
BRANCH  21  22
ATOM     22  C   UNL     1      -9.683  -2.859   7.068  1.00  0.00    -0.000 C 
BRANCH  22  23
ATOM     23  C   UNL     1      -9.820  -3.940   5.987  1.00  0.00    -0.000 C 
BRANCH  23  24
ATOM     24  C   UNL     1      -8.733  -5.021   6.092  1.00  0.00    -0.000 C 
BRANCH  24  25
ATOM     25  C   UNL     1      -8.578  -5.832   4.797  1.00  0.00    -0.003 C 
ATOM     26  C   UNL     1      -8.744  -7.326   5.061  1.00  0.00     0.004 C 
ENDBRANCH  24  25
ENDBRANCH  23  24
ENDBRANCH  22  23
ENDBRANCH  21  22
ENDBRANCH  20  21
ENDBRANCH  19  20
ENDBRANCH  18  19
ENDBRANCH  17  18
ENDBRANCH  16  17
ENDBRANCH  15  16
ENDBRANCH   1  15
TORSDOF 22
ENDMDL
MODEL 2
REMARK VINA RESULT:    -3.525      1.883      7.612
REMARK INTER + INTRA:         -11.306
REMARK INTER:                  -8.985
REMARK INTRA:                  -2.320
REMARK UNBOUND:                -3.248
REMARK SMILES CCCCCCCCCCCCCCCCCCCCCCCC(=O)[O-]
REMARK SMILES IDX 13 1 14 2 15 3 16 4 17 5 18 6 19 7 20 8 21 9 22 10 23 11
REMARK SMILES IDX 24 12 25 13 26 14 12 15 11 16 10 17 9 18 8 19 7 20 6 21 5 22
REMARK SMILES IDX 4 23 3 24 2 25 1 26
REMARK H PARENT
REMARK Flexibility Score: inf
ROOT
ATOM      1  C   UNL     1      -8.934  -6.911   3.629  1.00  0.00     0.000 C 
ENDROOT
BRANCH   1   2
ATOM      2  C   UNL     1      -9.817  -6.444   4.802  1.00  0.00     0.000 C 
BRANCH   2   3
ATOM      3  C   UNL     1      -9.210  -5.339   5.687  1.00  0.00     0.000 C 
BRANCH   3   4
ATOM      4  C   UNL     1      -7.804  -5.687   6.202  1.00  0.00     0.000 C 
BRANCH   4   5
ATOM      5  C   UNL     1      -7.235  -4.627   7.164  1.00  0.00     0.000 C 
BRANCH   5   6
ATOM      6  C   UNL     1      -7.059  -3.222   6.561  1.00  0.00     0.000 C 
BRANCH   6   7
ATOM      7  C   UNL     1      -6.119  -3.206   5.343  1.00  0.00     0.000 C 
BRANCH   7   8
ATOM      8  C   UNL     1      -5.035  -2.123   5.453  1.00  0.00     0.000 C 
BRANCH   8   9
ATOM      9  C   UNL     1      -4.567  -1.909   6.904  1.00  0.00     0.000 C 
BRANCH   9  10
ATOM     10  C   UNL     1      -3.424  -2.858   7.306  1.00  0.00     0.006 C 
BRANCH  10  11
ATOM     11  C   UNL     1      -2.714  -3.528   6.117  1.00  0.00     0.053 C 
BRANCH  11  12
ATOM     12  C   UNL     1      -2.929  -5.010   6.098  1.00  0.00     0.041 C 
ATOM     13  O   UNL     1      -2.265  -5.736   5.311  1.00  0.00    -0.550 OA
ATOM     14  O   UNL     1      -3.884  -5.587   6.927  1.00  0.00    -0.550 OA
ENDBRANCH  11  12
ENDBRANCH  10  11
ENDBRANCH   9  10
ENDBRANCH   8   9
ENDBRANCH   7   8
ENDBRANCH   6   7
ENDBRANCH   5   6
ENDBRANCH   4   5
ENDBRANCH   3   4
ENDBRANCH   2   3
ENDBRANCH   1   2
BRANCH   1  15
ATOM     15  C   UNL     1      -8.678  -8.427   3.638  1.00  0.00     0.000 C 
BRANCH  15  16
ATOM     16  C   UNL     1      -8.814  -9.052   5.038  1.00  0.00     0.000 C 
BRANCH  16  17
ATOM     17  C   UNL     1      -7.484  -9.429   5.725  1.00  0.00     0.000 C 
BRANCH  17  18
ATOM     18  C   UNL     1      -6.222  -8.807   5.100  1.00  0.00    -0.000 C 
BRANCH  18  19
ATOM     19  C   UNL     1      -4.902  -9.172   5.803  1.00  0.00    -0.000 C 
BRANCH  19  20
ATOM     20  C   UNL     1      -4.342 -10.553   5.401  1.00  0.00    -0.000 C 
BRANCH  20  21
ATOM     21  C   UNL     1      -3.729 -10.556   3.992  1.00  0.00    -0.000 C 
BRANCH  21  22
ATOM     22  C   UNL     1      -2.607  -9.517   3.877  1.00  0.00    -0.000 C 
BRANCH  22  23
ATOM     23  C   UNL     1      -2.193  -9.317   2.411  1.00  0.00    -0.000 C 
BRANCH  23  24
ATOM     24  C   UNL     1      -1.496 -10.553   1.822  1.00  0.00    -0.000 C 
BRANCH  24  25
ATOM     25  C   UNL     1      -1.899 -10.820   0.364  1.00  0.00    -0.003 C 
ATOM     26  C   UNL     1      -1.428  -9.694  -0.553  1.00  0.00     0.004 C 
ENDBRANCH  24  25
ENDBRANCH  23  24
ENDBRANCH  22  23
ENDBRANCH  21  22
ENDBRANCH  20  21
ENDBRANCH  19  20
ENDBRANCH  18  19
ENDBRANCH  17  18
ENDBRANCH  16  17
ENDBRANCH  15  16
ENDBRANCH   1  15
TORSDOF 22
ENDMDL
MODEL 3
REMARK VINA RESULT:    -3.470      1.372      2.581
REMARK INTER + INTRA:         -11.181
REMARK INTER:                  -7.653
REMARK INTRA:                  -3.528
REMARK UNBOUND:                -3.248
REMARK SMILES CCCCCCCCCCCCCCCCCCCCCCCC(=O)[O-]
REMARK SMILES IDX 13 1 14 2 15 3 16 4 17 5 18 6 19 7 20 8 21 9 22 10 23 11
REMARK SMILES IDX 24 12 25 13 26 14 12 15 11 16 10 17 9 18 8 19 7 20 6 21 5 22
REMARK SMILES IDX 4 23 3 24 2 25 1 26
REMARK H PARENT
REMARK Flexibility Score: inf
ROOT
ATOM      1  C   UNL     1      -4.187  -3.535   4.971  1.00  0.00     0.000 C 
ENDROOT
BRANCH   1   2
ATOM      2  C   UNL     1      -3.885  -4.783   5.822  1.00  0.00     0.000 C 
BRANCH   2   3
ATOM      3  C   UNL     1      -4.373  -4.722   7.281  1.00  0.00     0.000 C 
BRANCH   3   4
ATOM      4  C   UNL     1      -5.647  -5.550   7.523  1.00  0.00     0.000 C 
BRANCH   4   5
ATOM      5  C   UNL     1      -5.740  -6.793   6.619  1.00  0.00     0.000 C 
BRANCH   5   6
ATOM      6  C   UNL     1      -6.821  -7.813   7.015  1.00  0.00     0.000 C 
BRANCH   6   7
ATOM      7  C   UNL     1      -6.302  -8.895   7.977  1.00  0.00     0.000 C 
BRANCH   7   8
ATOM      8  C   UNL     1      -5.144  -9.707   7.375  1.00  0.00     0.000 C 
BRANCH   8   9
ATOM      9  C   UNL     1      -5.640 -10.855   6.478  1.00  0.00     0.000 C 
BRANCH   9  10
ATOM     10  C   UNL     1      -4.910 -10.909   5.124  1.00  0.00     0.006 C 
BRANCH  10  11
ATOM     11  C   UNL     1      -4.346  -9.557   4.658  1.00  0.00     0.053 C 
BRANCH  11  12
ATOM     12  C   UNL     1      -2.963  -9.688   4.100  1.00  0.00     0.041 C 
ATOM     13  O   UNL     1      -2.673 -10.656   3.346  1.00  0.00    -0.550 OA
ATOM     14  O   UNL     1      -1.984  -8.760   4.435  1.00  0.00    -0.550 OA
ENDBRANCH  11  12
ENDBRANCH  10  11
ENDBRANCH   9  10
ENDBRANCH   8   9
ENDBRANCH   7   8
ENDBRANCH   6   7
ENDBRANCH   5   6
ENDBRANCH   4   5
ENDBRANCH   3   4
ENDBRANCH   2   3
ENDBRANCH   1   2
BRANCH   1  15
ATOM     15  C   UNL     1      -4.470  -2.285   5.821  1.00  0.00     0.000 C 
BRANCH  15  16
ATOM     16  C   UNL     1      -5.868  -1.691   5.571  1.00  0.00     0.000 C 
BRANCH  16  17
ATOM     17  C   UNL     1      -6.897  -1.927   6.697  1.00  0.00     0.000 C 
BRANCH  17  18
ATOM     18  C   UNL     1      -8.259  -2.480   6.237  1.00  0.00    -0.000 C 
BRANCH  18  19
ATOM     19  C   UNL     1      -8.270  -3.983   5.903  1.00  0.00    -0.000 C 
BRANCH  19  20
ATOM     20  C   UNL     1      -9.561  -4.709   6.337  1.00  0.00    -0.000 C 
BRANCH  20  21
ATOM     21  C   UNL     1      -9.765  -6.043   5.602  1.00  0.00    -0.000 C 
BRANCH  21  22
ATOM     22  C   UNL     1      -8.822  -6.160   4.399  1.00  0.00    -0.000 C 
BRANCH  22  23
ATOM     23  C   UNL     1      -9.554  -6.748   3.184  1.00  0.00    -0.000 C 
BRANCH  23  24
ATOM     24  C   UNL     1      -9.500  -8.283   3.149  1.00  0.00    -0.000 C 
BRANCH  24  25
ATOM     25  C   UNL     1      -8.223  -8.845   3.794  1.00  0.00    -0.003 C 
ATOM     26  C   UNL     1      -8.260 -10.369   3.850  1.00  0.00     0.004 C 
ENDBRANCH  24  25
ENDBRANCH  23  24
ENDBRANCH  22  23
ENDBRANCH  21  22
ENDBRANCH  20  21
ENDBRANCH  19  20
ENDBRANCH  18  19
ENDBRANCH  17  18
ENDBRANCH  16  17
ENDBRANCH  15  16
ENDBRANCH   1  15
TORSDOF 22
ENDMDL
MODEL 4
REMARK VINA RESULT:    -3.432      5.648      9.678
REMARK INTER + INTRA:         -11.094
REMARK INTER:                 -10.348
REMARK INTRA:                  -0.746
REMARK UNBOUND:                -3.248
REMARK SMILES CCCCCCCCCCCCCCCCCCCCCCCC(=O)[O-]
REMARK SMILES IDX 13 1 14 2 15 3 16 4 17 5 18 6 19 7 20 8 21 9 22 10 23 11
REMARK SMILES IDX 24 12 25 13 26 14 12 15 11 16 10 17 9 18 8 19 7 20 6 21 5 22
REMARK SMILES IDX 4 23 3 24 2 25 1 26
REMARK H PARENT
REMARK Flexibility Score: inf
ROOT
ATOM      1  C   UNL     1      -1.939  -9.303   1.253  1.00  0.00     0.000 C 
ENDROOT
BRANCH   1   2
ATOM      2  C   UNL     1      -2.065 -10.412   2.315  1.00  0.00     0.000 C 
BRANCH   2   3
ATOM      3  C   UNL     1      -2.600  -9.955   3.685  1.00  0.00     0.000 C 
BRANCH   3   4
ATOM      4  C   UNL     1      -3.463 -11.022   4.380  1.00  0.00     0.000 C 
BRANCH   4   5
ATOM      5  C   UNL     1      -4.483 -10.424   5.366  1.00  0.00     0.000 C 
BRANCH   5   6
ATOM      6  C   UNL     1      -4.625  -8.893   5.313  1.00  0.00     0.000 C 
BRANCH   6   7
ATOM      7  C   UNL     1      -5.850  -8.377   6.089  1.00  0.00     0.000 C 
BRANCH   7   8
ATOM      8  C   UNL     1      -5.487  -7.262   7.082  1.00  0.00     0.000 C 
BRANCH   8   9
ATOM      9  C   UNL     1      -4.861  -6.040   6.386  1.00  0.00     0.000 C 
BRANCH   9  10
ATOM     10  C   UNL     1      -5.910  -5.006   5.942  1.00  0.00     0.006 C 
BRANCH  10  11
ATOM     11  C   UNL     1      -5.461  -3.544   6.104  1.00  0.00     0.053 C 
BRANCH  11  12
ATOM     12  C   UNL     1      -4.239  -3.239   5.293  1.00  0.00     0.041 C 
ATOM     13  O   UNL     1      -3.986  -3.907   4.254  1.00  0.00    -0.550 OA
ATOM     14  O   UNL     1      -3.363  -2.241   5.700  1.00  0.00    -0.550 OA
ENDBRANCH  11  12
ENDBRANCH  10  11
ENDBRANCH   9  10
ENDBRANCH   8   9
ENDBRANCH   7   8
ENDBRANCH   6   7
ENDBRANCH   5   6
ENDBRANCH   4   5
ENDBRANCH   3   4
ENDBRANCH   2   3
ENDBRANCH   1   2
BRANCH   1  15
ATOM     15  C   UNL     1      -1.532  -9.842  -0.129  1.00  0.00     0.000 C 
BRANCH  15  16
ATOM     16  C   UNL     1      -0.621  -8.875  -0.908  1.00  0.00     0.000 C 
BRANCH  16  17
ATOM     17  C   UNL     1      -1.328  -8.023  -1.984  1.00  0.00     0.000 C 
BRANCH  17  18
ATOM     18  C   UNL     1      -0.495  -6.859  -2.552  1.00  0.00    -0.000 C 
BRANCH  18  19
ATOM     19  C   UNL     1       0.241  -6.012  -1.497  1.00  0.00    -0.000 C 
BRANCH  19  20
ATOM     20  C   UNL     1       0.719  -4.642  -2.021  1.00  0.00    -0.000 C 
BRANCH  20  21
ATOM     21  C   UNL     1       0.543  -3.519  -0.987  1.00  0.00    -0.000 C 
BRANCH  21  22
ATOM     22  C   UNL     1       0.374  -2.159  -1.675  1.00  0.00    -0.000 C 
BRANCH  22  23
ATOM     23  C   UNL     1       1.583  -1.841  -2.567  1.00  0.00    -0.000 C 
BRANCH  23  24
ATOM     24  C   UNL     1       2.461  -0.718  -1.992  1.00  0.00    -0.000 C 
BRANCH  24  25
ATOM     25  C   UNL     1       3.831  -0.628  -2.681  1.00  0.00    -0.003 C 
ATOM     26  C   UNL     1       4.966  -0.730  -1.665  1.00  0.00     0.004 C 
ENDBRANCH  24  25
ENDBRANCH  23  24
ENDBRANCH  22  23
ENDBRANCH  21  22
ENDBRANCH  20  21
ENDBRANCH  19  20
ENDBRANCH  18  19
ENDBRANCH  17  18
ENDBRANCH  16  17
ENDBRANCH  15  16
ENDBRANCH   1  15
TORSDOF 22
ENDMDL
MODEL 5
REMARK VINA RESULT:    -3.360      2.189      6.265
REMARK INTER + INTRA:         -10.928
REMARK INTER:                  -8.462
REMARK INTRA:                  -2.466
REMARK UNBOUND:                -3.248
REMARK SMILES CCCCCCCCCCCCCCCCCCCCCCCC(=O)[O-]
REMARK SMILES IDX 13 1 14 2 15 3 16 4 17 5 18 6 19 7 20 8 21 9 22 10 23 11
REMARK SMILES IDX 24 12 25 13 26 14 12 15 11 16 10 17 9 18 8 19 7 20 6 21 5 22
REMARK SMILES IDX 4 23 3 24 2 25 1 26
REMARK H PARENT
REMARK Flexibility Score: inf
ROOT
ATOM      1  C   UNL     1      -3.742  -2.534   5.540  1.00  0.00     0.000 C 
ENDROOT
BRANCH   1   2
ATOM      2  C   UNL     1      -4.624  -1.717   6.503  1.00  0.00     0.000 C 
BRANCH   2   3
ATOM      3  C   UNL     1      -5.637  -0.773   5.831  1.00  0.00     0.000 C 
BRANCH   3   4
ATOM      4  C   UNL     1      -6.971  -0.683   6.592  1.00  0.00     0.000 C 
BRANCH   4   5
ATOM      5  C   UNL     1      -7.871  -1.915   6.380  1.00  0.00     0.000 C 
BRANCH   5   6
ATOM      6  C   UNL     1      -7.653  -3.065   7.379  1.00  0.00     0.000 C 
BRANCH   6   7
ATOM      7  C   UNL     1      -8.688  -4.193   7.231  1.00  0.00     0.000 C 
BRANCH   7   8
ATOM      8  C   UNL     1      -9.599  -3.996   6.010  1.00  0.00     0.000 C 
BRANCH   8   9
ATOM      9  C   UNL     1      -9.877  -5.316   5.268  1.00  0.00     0.000 C 
BRANCH   9  10
ATOM     10  C   UNL     1      -8.590  -6.015   4.796  1.00  0.00     0.006 C 
BRANCH  10  11
ATOM     11  C   UNL     1      -8.648  -7.550   4.860  1.00  0.00     0.053 C 
BRANCH  11  12
ATOM     12  C   UNL     1      -8.813  -8.163   3.504  1.00  0.00     0.041 C 
ATOM     13  O   UNL     1      -9.254  -7.472   2.546  1.00  0.00    -0.550 OA
ATOM     14  O   UNL     1      -8.511  -9.504   3.302  1.00  0.00    -0.550 OA
ENDBRANCH  11  12
ENDBRANCH  10  11
ENDBRANCH   9  10
ENDBRANCH   8   9
ENDBRANCH   7   8
ENDBRANCH   6   7
ENDBRANCH   5   6
ENDBRANCH   4   5
ENDBRANCH   3   4
ENDBRANCH   2   3
ENDBRANCH   1   2
BRANCH   1  15
ATOM     15  C   UNL     1      -2.966  -3.658   6.245  1.00  0.00     0.000 C 
BRANCH  15  16
ATOM     16  C   UNL     1      -3.517  -5.060   5.930  1.00  0.00     0.000 C 
BRANCH  16  17
ATOM     17  C   UNL     1      -4.807  -5.448   6.684  1.00  0.00     0.000 C 
BRANCH  17  18
ATOM     18  C   UNL     1      -5.392  -6.825   6.320  1.00  0.00    -0.000 C 
BRANCH  18  19
ATOM     19  C   UNL     1      -5.655  -7.756   7.518  1.00  0.00    -0.000 C 
BRANCH  19  20
ATOM     20  C   UNL     1      -5.283  -9.231   7.256  1.00  0.00    -0.000 C 
BRANCH  20  21
ATOM     21  C   UNL     1      -6.226  -9.909   6.251  1.00  0.00    -0.000 C 
BRANCH  21  22
ATOM     22  C   UNL     1      -5.506 -10.200   4.929  1.00  0.00    -0.000 C 
BRANCH  22  23
ATOM     23  C   UNL     1      -3.986 -10.275   5.137  1.00  0.00    -0.000 C 
BRANCH  23  24
ATOM     24  C   UNL     1      -3.226 -10.563   3.833  1.00  0.00    -0.000 C 
BRANCH  24  25
ATOM     25  C   UNL     1      -2.330  -9.393   3.400  1.00  0.00    -0.003 C 
ATOM     26  C   UNL     1      -2.072  -9.424   1.896  1.00  0.00     0.004 C 
ENDBRANCH  24  25
ENDBRANCH  23  24
ENDBRANCH  22  23
ENDBRANCH  21  22
ENDBRANCH  20  21
ENDBRANCH  19  20
ENDBRANCH  18  19
ENDBRANCH  17  18
ENDBRANCH  16  17
ENDBRANCH  15  16
ENDBRANCH   1  15
TORSDOF 22
ENDMDL
MODEL 6
REMARK VINA RESULT:    -3.348      2.425      7.255
REMARK INTER + INTRA:         -10.901
REMARK INTER:                  -8.490
REMARK INTRA:                  -2.411
REMARK UNBOUND:                -3.248
REMARK SMILES CCCCCCCCCCCCCCCCCCCCCCCC(=O)[O-]
REMARK SMILES IDX 13 1 14 2 15 3 16 4 17 5 18 6 19 7 20 8 21 9 22 10 23 11
REMARK SMILES IDX 24 12 25 13 26 14 12 15 11 16 10 17 9 18 8 19 7 20 6 21 5 22
REMARK SMILES IDX 4 23 3 24 2 25 1 26
REMARK H PARENT
REMARK Flexibility Score: inf
ROOT
ATOM      1  C   UNL     1      -4.543  -3.943   5.134  1.00  0.00     0.000 C 
ENDROOT
BRANCH   1   2
ATOM      2  C   UNL     1      -3.526  -2.847   5.501  1.00  0.00     0.000 C 
BRANCH   2   3
ATOM      3  C   UNL     1      -3.497  -2.442   6.986  1.00  0.00     0.000 C 
BRANCH   3   4
ATOM      4  C   UNL     1      -4.800  -1.769   7.451  1.00  0.00     0.000 C 
BRANCH   4   5
ATOM      5  C   UNL     1      -5.281  -0.662   6.494  1.00  0.00     0.000 C 
BRANCH   5   6
ATOM      6  C   UNL     1      -6.796  -0.643   6.224  1.00  0.00     0.000 C 
BRANCH   6   7
ATOM      7  C   UNL     1      -7.574  -1.645   7.095  1.00  0.00     0.000 C 
BRANCH   7   8
ATOM      8  C   UNL     1      -8.650  -2.400   6.301  1.00  0.00     0.000 C 
BRANCH   8   9
ATOM      9  C   UNL     1      -9.492  -3.329   7.194  1.00  0.00     0.000 C 
BRANCH   9  10
ATOM     10  C   UNL     1      -9.776  -4.690   6.536  1.00  0.00     0.006 C 
BRANCH  10  11
ATOM     11  C   UNL     1      -8.760  -5.091   5.454  1.00  0.00     0.053 C 
BRANCH  11  12
ATOM     12  C   UNL     1      -9.184  -6.322   4.714  1.00  0.00     0.041 C 
ATOM     13  O   UNL     1      -9.345  -6.286   3.464  1.00  0.00    -0.550 OA
ATOM     14  O   UNL     1      -9.433  -7.501   5.406  1.00  0.00    -0.550 OA
ENDBRANCH  11  12
ENDBRANCH  10  11
ENDBRANCH   9  10
ENDBRANCH   8   9
ENDBRANCH   7   8
ENDBRANCH   6   7
ENDBRANCH   5   6
ENDBRANCH   4   5
ENDBRANCH   3   4
ENDBRANCH   2   3
ENDBRANCH   1   2
BRANCH   1  15
ATOM     15  C   UNL     1      -4.316  -5.254   5.906  1.00  0.00     0.000 C 
BRANCH  15  16
ATOM     16  C   UNL     1      -5.549  -5.700   6.711  1.00  0.00     0.000 C 
BRANCH  16  17
ATOM     17  C   UNL     1      -5.380  -7.013   7.506  1.00  0.00     0.000 C 
BRANCH  17  18
ATOM     18  C   UNL     1      -6.398  -8.119   7.171  1.00  0.00    -0.000 C 
BRANCH  18  19
ATOM     19  C   UNL     1      -6.170  -8.823   5.820  1.00  0.00    -0.000 C 
BRANCH  19  20
ATOM     20  C   UNL     1      -4.700  -9.221   5.564  1.00  0.00    -0.000 C 
BRANCH  20  21
ATOM     21  C   UNL     1      -4.554 -10.674   5.088  1.00  0.00    -0.000 C 
BRANCH  21  22
ATOM     22  C   UNL     1      -3.401 -10.813   4.088  1.00  0.00    -0.000 C 
BRANCH  22  23
ATOM     23  C   UNL     1      -2.829  -9.437   3.715  1.00  0.00    -0.000 C 
BRANCH  23  24
ATOM     24  C   UNL     1      -1.837  -9.509   2.544  1.00  0.00    -0.000 C 
BRANCH  24  25
ATOM     25  C   UNL     1      -1.924 -10.835   1.775  1.00  0.00    -0.003 C 
ATOM     26  C   UNL     1      -2.636 -10.650   0.438  1.00  0.00     0.004 C 
ENDBRANCH  24  25
ENDBRANCH  23  24
ENDBRANCH  22  23
ENDBRANCH  21  22
ENDBRANCH  20  21
ENDBRANCH  19  20
ENDBRANCH  18  19
ENDBRANCH  17  18
ENDBRANCH  16  17
ENDBRANCH  15  16
ENDBRANCH   1  15
TORSDOF 22
ENDMDL
MODEL 7
REMARK VINA RESULT:    -3.341      6.322      9.872
REMARK INTER + INTRA:         -10.886
REMARK INTER:                 -10.045
REMARK INTRA:                  -0.842
REMARK UNBOUND:                -3.248
REMARK SMILES CCCCCCCCCCCCCCCCCCCCCCCC(=O)[O-]
REMARK SMILES IDX 13 1 14 2 15 3 16 4 17 5 18 6 19 7 20 8 21 9 22 10 23 11
REMARK SMILES IDX 24 12 25 13 26 14 12 15 11 16 10 17 9 18 8 19 7 20 6 21 5 22
REMARK SMILES IDX 4 23 3 24 2 25 1 26
REMARK H PARENT
REMARK Flexibility Score: inf
ROOT
ATOM      1  C   UNL     1      -1.479  -9.818  -0.279  1.00  0.00     0.000 C 
ENDROOT
BRANCH   1   2
ATOM      2  C   UNL     1      -0.763  -8.551  -0.785  1.00  0.00     0.000 C 
BRANCH   2   3
ATOM      3  C   UNL     1      -1.008  -8.201  -2.264  1.00  0.00     0.000 C 
BRANCH   3   4
ATOM      4  C   UNL     1      -0.739  -6.720  -2.584  1.00  0.00     0.000 C 
BRANCH   4   5
ATOM      5  C   UNL     1       0.235  -6.057  -1.593  1.00  0.00     0.000 C 
BRANCH   5   6
ATOM      6  C   UNL     1       0.760  -4.673  -2.016  1.00  0.00     0.000 C 
BRANCH   6   7
ATOM      7  C   UNL     1       0.425  -3.568  -1.001  1.00  0.00     0.000 C 
BRANCH   7   8
ATOM      8  C   UNL     1       0.247  -2.194  -1.666  1.00  0.00     0.000 C 
BRANCH   8   9
ATOM      9  C   UNL     1       1.478  -1.783  -2.494  1.00  0.00     0.000 C 
BRANCH   9  10
ATOM     10  C   UNL     1       2.587  -1.148  -1.636  1.00  0.00     0.006 C 
BRANCH  10  11
ATOM     11  C   UNL     1       3.805  -0.664  -2.440  1.00  0.00     0.053 C 
BRANCH  11  12
ATOM     12  C   UNL     1       5.002  -0.445  -1.567  1.00  0.00     0.041 C 
ATOM     13  O   UNL     1       4.858  -0.018  -0.389  1.00  0.00    -0.550 OA
ATOM     14  O   UNL     1       6.279  -0.681  -2.062  1.00  0.00    -0.550 OA
ENDBRANCH  11  12
ENDBRANCH  10  11
ENDBRANCH   9  10
ENDBRANCH   8   9
ENDBRANCH   7   8
ENDBRANCH   6   7
ENDBRANCH   5   6
ENDBRANCH   4   5
ENDBRANCH   3   4
ENDBRANCH   2   3
ENDBRANCH   1   2
BRANCH   1  15
ATOM     15  C   UNL     1      -2.087  -9.643   1.123  1.00  0.00     0.000 C 
BRANCH  15  16
ATOM     16  C   UNL     1      -2.013 -10.923   1.975  1.00  0.00     0.000 C 
BRANCH  16  17
ATOM     17  C   UNL     1      -3.074 -11.037   3.090  1.00  0.00     0.000 C 
BRANCH  17  18
ATOM     18  C   UNL     1      -3.247  -9.780   3.963  1.00  0.00    -0.000 C 
BRANCH  18  19
ATOM     19  C   UNL     1      -4.075  -9.989   5.244  1.00  0.00    -0.000 C 
BRANCH  19  20
ATOM     20  C   UNL     1      -5.328  -9.091   5.330  1.00  0.00    -0.000 C 
BRANCH  20  21
ATOM     21  C   UNL     1      -5.311  -8.167   6.558  1.00  0.00    -0.000 C 
BRANCH  21  22
ATOM     22  C   UNL     1      -6.172  -6.921   6.322  1.00  0.00    -0.000 C 
BRANCH  22  23
ATOM     23  C   UNL     1      -5.313  -5.648   6.349  1.00  0.00    -0.000 C 
BRANCH  23  24
ATOM     24  C   UNL     1      -6.050  -4.426   5.778  1.00  0.00    -0.000 C 
BRANCH  24  25
ATOM     25  C   UNL     1      -5.141  -3.538   4.915  1.00  0.00    -0.003 C 
ATOM     26  C   UNL     1      -3.706  -3.549   5.434  1.00  0.00     0.004 C 
ENDBRANCH  24  25
ENDBRANCH  23  24
ENDBRANCH  22  23
ENDBRANCH  21  22
ENDBRANCH  20  21
ENDBRANCH  19  20
ENDBRANCH  18  19
ENDBRANCH  17  18
ENDBRANCH  16  17
ENDBRANCH  15  16
ENDBRANCH   1  15
TORSDOF 22
ENDMDL
MODEL 8
REMARK VINA RESULT:    -3.264      6.551     10.279
REMARK INTER + INTRA:         -10.710
REMARK INTER:                  -9.520
REMARK INTRA:                  -1.190
REMARK UNBOUND:                -3.248
REMARK SMILES CCCCCCCCCCCCCCCCCCCCCCCC(=O)[O-]
REMARK SMILES IDX 13 1 14 2 15 3 16 4 17 5 18 6 19 7 20 8 21 9 22 10 23 11
REMARK SMILES IDX 24 12 25 13 26 14 12 15 11 16 10 17 9 18 8 19 7 20 6 21 5 22
REMARK SMILES IDX 4 23 3 24 2 25 1 26
REMARK H PARENT
REMARK Flexibility Score: inf
ROOT
ATOM      1  C   UNL     1      -0.711  -8.461  -0.847  1.00  0.00     0.000 C 
ENDROOT
BRANCH   1   2
ATOM      2  C   UNL     1      -1.155  -9.892  -0.491  1.00  0.00     0.000 C 
BRANCH   2   3
ATOM      3  C   UNL     1      -2.263  -9.994   0.573  1.00  0.00     0.000 C 
BRANCH   3   4
ATOM      4  C   UNL     1      -1.766 -10.583   1.904  1.00  0.00     0.000 C 
BRANCH   4   5
ATOM      5  C   UNL     1      -2.815 -10.501   3.029  1.00  0.00     0.000 C 
BRANCH   5   6
ATOM      6  C   UNL     1      -2.679  -9.286   3.964  1.00  0.00     0.000 C 
BRANCH   6   7
ATOM      7  C   UNL     1      -3.870  -9.134   4.926  1.00  0.00     0.000 C 
BRANCH   7   8
ATOM      8  C   UNL     1      -4.939 -10.217   4.712  1.00  0.00     0.000 C 
BRANCH   8   9
ATOM      9  C   UNL     1      -6.178  -9.998   5.599  1.00  0.00     0.000 C 
BRANCH   9  10
ATOM     10  C   UNL     1      -6.189  -8.616   6.275  1.00  0.00     0.006 C 
BRANCH  10  11
ATOM     11  C   UNL     1      -7.181  -7.619   5.652  1.00  0.00     0.053 C 
BRANCH  11  12
ATOM     12  C   UNL     1      -6.923  -6.214   6.103  1.00  0.00     0.041 C 
ATOM     13  O   UNL     1      -6.348  -5.998   7.204  1.00  0.00    -0.550 OA
ATOM     14  O   UNL     1      -7.344  -5.143   5.325  1.00  0.00    -0.550 OA
ENDBRANCH  11  12
ENDBRANCH  10  11
ENDBRANCH   9  10
ENDBRANCH   8   9
ENDBRANCH   7   8
ENDBRANCH   6   7
ENDBRANCH   5   6
ENDBRANCH   4   5
ENDBRANCH   3   4
ENDBRANCH   2   3
ENDBRANCH   1   2
BRANCH   1  15
ATOM     15  C   UNL     1      -1.124  -8.041  -2.267  1.00  0.00     0.000 C 
BRANCH  15  16
ATOM     16  C   UNL     1      -0.570  -6.663  -2.674  1.00  0.00     0.000 C 
BRANCH  16  17
ATOM     17  C   UNL     1       0.285  -5.953  -1.603  1.00  0.00     0.000 C 
BRANCH  17  18
ATOM     18  C   UNL     1       0.826  -4.569  -2.006  1.00  0.00    -0.000 C 
BRANCH  18  19
ATOM     19  C   UNL     1       0.330  -3.400  -1.135  1.00  0.00    -0.000 C 
BRANCH  19  20
ATOM     20  C   UNL     1       0.567  -2.010  -1.763  1.00  0.00    -0.000 C 
BRANCH  20  21
ATOM     21  C   UNL     1       1.402  -2.077  -3.051  1.00  0.00    -0.000 C 
BRANCH  21  22
ATOM     22  C   UNL     1       2.791  -1.461  -2.840  1.00  0.00    -0.000 C 
BRANCH  22  23
ATOM     23  C   UNL     1       2.805  -0.550  -1.603  1.00  0.00    -0.000 C 
BRANCH  23  24
ATOM     24  C   UNL     1       4.229  -0.178  -1.162  1.00  0.00    -0.000 C 
BRANCH  24  25
ATOM     25  C   UNL     1       5.310  -0.834  -2.035  1.00  0.00    -0.003 C 
ATOM     26  C   UNL     1       6.666  -0.167  -1.826  1.00  0.00     0.004 C 
ENDBRANCH  24  25
ENDBRANCH  23  24
ENDBRANCH  22  23
ENDBRANCH  21  22
ENDBRANCH  20  21
ENDBRANCH  19  20
ENDBRANCH  18  19
ENDBRANCH  17  18
ENDBRANCH  16  17
ENDBRANCH  15  16
ENDBRANCH   1  15
TORSDOF 22
ENDMDL
MODEL 9
REMARK VINA RESULT:    -2.976      2.247      5.663
REMARK INTER + INTRA:         -10.050
REMARK INTER:                  -6.891
REMARK INTRA:                  -3.159
REMARK UNBOUND:                -3.248
REMARK SMILES CCCCCCCCCCCCCCCCCCCCCCCC(=O)[O-]
REMARK SMILES IDX 13 1 14 2 15 3 16 4 17 5 18 6 19 7 20 8 21 9 22 10 23 11
REMARK SMILES IDX 24 12 25 13 26 14 12 15 11 16 10 17 9 18 8 19 7 20 6 21 5 22
REMARK SMILES IDX 4 23 3 24 2 25 1 26
REMARK H PARENT
REMARK Flexibility Score: inf
ROOT
ATOM      1  C   UNL     1      -6.101  -2.249   5.581  1.00  0.00     0.000 C 
ENDROOT
BRANCH   1   2
ATOM      2  C   UNL     1      -6.559  -1.400   6.782  1.00  0.00     0.000 C 
BRANCH   2   3
ATOM      3  C   UNL     1      -8.079  -1.354   7.017  1.00  0.00     0.000 C 
BRANCH   3   4
ATOM      4  C   UNL     1      -8.879  -2.079   5.922  1.00  0.00     0.000 C 
BRANCH   4   5
ATOM      5  C   UNL     1     -10.008  -2.963   6.485  1.00  0.00     0.000 C 
BRANCH   5   6
ATOM      6  C   UNL     1     -10.073  -4.389   5.910  1.00  0.00     0.000 C 
BRANCH   6   7
ATOM      7  C   UNL     1      -8.758  -5.168   6.088  1.00  0.00     0.000 C 
BRANCH   7   8
ATOM      8  C   UNL     1      -8.263  -5.791   4.774  1.00  0.00     0.000 C 
BRANCH   8   9
ATOM      9  C   UNL     1      -9.405  -6.427   3.962  1.00  0.00     0.000 C 
BRANCH   9  10
ATOM     10  C   UNL     1      -9.532  -7.942   4.202  1.00  0.00     0.006 C 
BRANCH  10  11
ATOM     11  C   UNL     1      -8.265  -8.743   3.858  1.00  0.00     0.053 C 
BRANCH  11  12
ATOM     12  C   UNL     1      -8.528 -10.217   3.813  1.00  0.00     0.041 C 
ATOM     13  O   UNL     1      -8.503 -10.897   4.874  1.00  0.00    -0.550 OA
ATOM     14  O   UNL     1      -8.767 -10.846   2.598  1.00  0.00    -0.550 OA
ENDBRANCH  11  12
ENDBRANCH  10  11
ENDBRANCH   9  10
ENDBRANCH   8   9
ENDBRANCH   7   8
ENDBRANCH   6   7
ENDBRANCH   5   6
ENDBRANCH   4   5
ENDBRANCH   3   4
ENDBRANCH   2   3
ENDBRANCH   1   2
BRANCH   1  15
ATOM     15  C   UNL     1      -4.573  -2.393   5.496  1.00  0.00     0.000 C 
BRANCH  15  16
ATOM     16  C   UNL     1      -4.128  -3.690   4.796  1.00  0.00     0.000 C 
BRANCH  16  17
ATOM     17  C   UNL     1      -3.386  -4.704   5.693  1.00  0.00     0.000 C 
BRANCH  17  18
ATOM     18  C   UNL     1      -4.127  -6.031   5.938  1.00  0.00    -0.000 C 
BRANCH  18  19
ATOM     19  C   UNL     1      -5.260  -5.959   6.978  1.00  0.00    -0.000 C 
BRANCH  19  20
ATOM     20  C   UNL     1      -5.505  -7.287   7.727  1.00  0.00    -0.000 C 
BRANCH  20  21
ATOM     21  C   UNL     1      -6.519  -8.192   7.011  1.00  0.00    -0.000 C 
BRANCH  21  22
ATOM     22  C   UNL     1      -6.286  -9.666   7.362  1.00  0.00    -0.000 C 
BRANCH  22  23
ATOM     23  C   UNL     1      -4.979 -10.179   6.739  1.00  0.00    -0.000 C 
BRANCH  23  24
ATOM     24  C   UNL     1      -4.976 -10.075   5.206  1.00  0.00    -0.000 C 
BRANCH  24  25
ATOM     25  C   UNL     1      -3.719  -9.379   4.663  1.00  0.00    -0.003 C 
ATOM     26  C   UNL     1      -2.925 -10.309   3.751  1.00  0.00     0.004 C 
ENDBRANCH  24  25
ENDBRANCH  23  24
ENDBRANCH  22  23
ENDBRANCH  21  22
ENDBRANCH  20  21
ENDBRANCH  19  20
ENDBRANCH  18  19
ENDBRANCH  17  18
ENDBRANCH  16  17
ENDBRANCH  15  16
ENDBRANCH   1  15
TORSDOF 22
ENDMDL
