MODEL 1
REMARK VINA RESULT:    -5.180      0.000      0.000
REMARK INTER + INTRA:          -5.483
REMARK INTER:                  -5.483
REMARK INTRA:                   0.000
REMARK UNBOUND:                 0.000
REMARK SMILES Cc1cc(O)c(C)c(C)c1O
REMARK SMILES IDX 1 1 2 2 3 3 4 4 6 5 8 6 10 7 9 8 7 9 11 10 5 12
REMARK H PARENT 11 11 5 13
REMARK Flexibility Score: inf
ROOT
ATOM      1  C   UNL     1     -16.992 -26.593 -32.123  1.00  0.00     0.048 C 
ATOM      2  C   UNL     1     -16.258 -26.987 -33.376  1.00  0.00    -0.005 A 
ATOM      3  C   UNL     1     -16.919 -26.914 -34.607  1.00  0.00     0.053 A 
ATOM      4  C   UNL     1     -16.265 -27.256 -35.795  1.00  0.00     0.119 A 
ATOM      5  C   UNL     1     -14.922 -27.678 -35.768  1.00  0.00    -0.003 A 
ATOM      6  C   UNL     1     -14.256 -27.805 -34.522  1.00  0.00    -0.002 A 
ATOM      7  C   UNL     1     -14.918 -27.430 -33.331  1.00  0.00     0.121 A 
ATOM      8  C   UNL     1     -12.824 -28.286 -34.462  1.00  0.00     0.049 C 
ATOM      9  C   UNL     1     -14.226 -28.037 -37.060  1.00  0.00     0.049 C 
ENDROOT
BRANCH   7  10
ATOM     10  O   UNL     1     -14.227 -27.505 -32.115  1.00  0.00    -0.507 OA
ATOM     11  H   UNL     1     -13.569 -28.239 -31.893  1.00  0.00     0.293 HD
ENDBRANCH   7  10
BRANCH   4  12
ATOM     12  O   UNL     1     -16.955 -27.175 -37.005  1.00  0.00    -0.508 OA
ATOM     13  H   UNL     1     -17.836 -26.680 -37.086  1.00  0.00     0.293 HD
ENDBRANCH   4  12
TORSDOF 2
ENDMDL
MODEL 2
REMARK VINA RESULT:    -4.851      1.500      2.110
REMARK INTER + INTRA:          -5.134
REMARK INTER:                  -5.134
REMARK INTRA:                   0.000
REMARK UNBOUND:                 0.000
REMARK SMILES Cc1cc(O)c(C)c(C)c1O
REMARK SMILES IDX 1 1 2 2 3 3 4 4 6 5 8 6 10 7 9 8 7 9 11 10 5 12
REMARK H PARENT 11 11 5 13
REMARK Flexibility Score: inf
ROOT
ATOM      1  C   UNL     1     -14.378 -28.108 -32.478  1.00  0.00     0.048 C 
ATOM      2  C   UNL     1     -14.775 -27.892 -33.914  1.00  0.00    -0.005 A 
ATOM      3  C   UNL     1     -16.089 -27.513 -34.211  1.00  0.00     0.053 A 
ATOM      4  C   UNL     1     -16.491 -27.288 -35.531  1.00  0.00     0.119 A 
ATOM      5  C   UNL     1     -15.570 -27.436 -36.587  1.00  0.00    -0.003 A 
ATOM      6  C   UNL     1     -14.249 -27.869 -36.304  1.00  0.00    -0.002 A 
ATOM      7  C   UNL     1     -13.847 -28.067 -34.964  1.00  0.00     0.121 A 
ATOM      8  C   UNL     1     -13.250 -28.067 -37.422  1.00  0.00     0.049 C 
ATOM      9  C   UNL     1     -16.016 -27.182 -38.008  1.00  0.00     0.049 C 
ENDROOT
BRANCH   7  10
ATOM     10  O   UNL     1     -12.523 -28.437 -34.698  1.00  0.00    -0.507 OA
ATOM     11  H   UNL     1     -12.125 -28.452 -33.769  1.00  0.00     0.293 HD
ENDBRANCH   7  10
BRANCH   4  12
ATOM     12  O   UNL     1     -17.809 -26.915 -35.792  1.00  0.00    -0.508 OA
ATOM     13  H   UNL     1     -18.570 -27.171 -35.173  1.00  0.00     0.293 HD
ENDBRANCH   4  12
TORSDOF 2
ENDMDL
MODEL 3
REMARK VINA RESULT:    -4.800      1.217      2.999
REMARK INTER + INTRA:          -5.080
REMARK INTER:                  -5.080
REMARK INTRA:                   0.000
REMARK UNBOUND:                 0.000
REMARK SMILES Cc1cc(O)c(C)c(C)c1O
REMARK SMILES IDX 1 1 2 2 3 3 4 4 6 5 8 6 10 7 9 8 7 9 11 10 5 12
REMARK H PARENT 11 11 5 13
REMARK Flexibility Score: inf
ROOT
ATOM      1  C   UNL     1     -16.984 -26.734 -32.119  1.00  0.00     0.048 C 
ATOM      2  C   UNL     1     -16.009 -27.121 -33.198  1.00  0.00    -0.005 A 
ATOM      3  C   UNL     1     -14.729 -27.557 -32.839  1.00  0.00     0.053 A 
ATOM      4  C   UNL     1     -13.801 -27.941 -33.812  1.00  0.00     0.119 A 
ATOM      5  C   UNL     1     -14.147 -27.895 -35.177  1.00  0.00    -0.003 A 
ATOM      6  C   UNL     1     -15.423 -27.406 -35.557  1.00  0.00    -0.002 A 
ATOM      7  C   UNL     1     -16.362 -27.048 -34.563  1.00  0.00     0.121 A 
ATOM      8  C   UNL     1     -15.808 -27.317 -37.017  1.00  0.00     0.049 C 
ATOM      9  C   UNL     1     -13.137 -28.319 -36.218  1.00  0.00     0.049 C 
ENDROOT
BRANCH   7  10
ATOM     10  O   UNL     1     -17.638 -26.624 -34.953  1.00  0.00    -0.507 OA
ATOM     11  H   UNL     1     -17.840 -25.686 -35.274  1.00  0.00     0.293 HD
ENDBRANCH   7  10
BRANCH   4  12
ATOM     12  O   UNL     1     -12.532 -28.367 -33.420  1.00  0.00    -0.508 OA
ATOM     13  H   UNL     1     -11.957 -28.952 -34.015  1.00  0.00     0.293 HD
ENDBRANCH   4  12
TORSDOF 2
ENDMDL
MODEL 4
REMARK VINA RESULT:    -4.762      1.653      3.382
REMARK INTER + INTRA:          -5.041
REMARK INTER:                  -5.041
REMARK INTRA:                   0.000
REMARK UNBOUND:                 0.000
REMARK SMILES Cc1cc(O)c(C)c(C)c1O
REMARK SMILES IDX 1 1 2 2 3 3 4 4 6 5 8 6 10 7 9 8 7 9 11 10 5 12
REMARK H PARENT 11 11 5 13
REMARK Flexibility Score: inf
ROOT
ATOM      1  C   UNL     1     -16.169 -27.199 -37.555  1.00  0.00     0.048 C 
ATOM      2  C   UNL     1     -15.610 -27.486 -36.188  1.00  0.00    -0.005 A 
ATOM      3  C   UNL     1     -16.443 -27.364 -35.069  1.00  0.00     0.053 A 
ATOM      4  C   UNL     1     -15.964 -27.638 -33.784  1.00  0.00     0.119 A 
ATOM      5  C   UNL     1     -14.628 -28.046 -33.598  1.00  0.00    -0.003 A 
ATOM      6  C   UNL     1     -13.761 -28.123 -34.717  1.00  0.00    -0.002 A 
ATOM      7  C   UNL     1     -14.263 -27.872 -36.014  1.00  0.00     0.121 A 
ATOM      8  C   UNL     1     -12.314 -28.528 -34.541  1.00  0.00     0.049 C 
ATOM      9  C   UNL     1     -14.127 -28.345 -32.204  1.00  0.00     0.049 C 
ENDROOT
BRANCH   7  10
ATOM     10  O   UNL     1     -13.408 -28.010 -37.114  1.00  0.00    -0.507 OA
ATOM     11  H   UNL     1     -12.453 -28.333 -37.040  1.00  0.00     0.293 HD
ENDBRANCH   7  10
BRANCH   4  12
ATOM     12  O   UNL     1     -16.820 -27.503 -32.691  1.00  0.00    -0.508 OA
ATOM     13  H   UNL     1     -16.908 -28.228 -31.988  1.00  0.00     0.293 HD
ENDBRANCH   4  12
TORSDOF 2
ENDMDL
MODEL 5
REMARK VINA RESULT:    -4.681      1.167      4.391
REMARK INTER + INTRA:          -4.955
REMARK INTER:                  -4.955
REMARK INTRA:                   0.000
REMARK UNBOUND:                 0.000
REMARK SMILES Cc1cc(O)c(C)c(C)c1O
REMARK SMILES IDX 1 1 2 2 3 3 4 4 6 5 8 6 10 7 9 8 7 9 11 10 5 12
REMARK H PARENT 11 11 5 13
REMARK Flexibility Score: inf
ROOT
ATOM      1  C   UNL     1     -11.973 -28.438 -36.230  1.00  0.00     0.048 C 
ATOM      2  C   UNL     1     -13.159 -28.152 -35.349  1.00  0.00    -0.005 A 
ATOM      3  C   UNL     1     -13.003 -28.189 -33.958  1.00  0.00     0.053 A 
ATOM      4  C   UNL     1     -14.078 -27.913 -33.107  1.00  0.00     0.119 A 
ATOM      5  C   UNL     1     -15.340 -27.588 -33.642  1.00  0.00    -0.003 A 
ATOM      6  C   UNL     1     -15.524 -27.597 -35.049  1.00  0.00    -0.002 A 
ATOM      7  C   UNL     1     -14.424 -27.850 -35.899  1.00  0.00     0.121 A 
ATOM      8  C   UNL     1     -16.876 -27.283 -35.648  1.00  0.00     0.049 C 
ATOM      9  C   UNL     1     -16.490 -27.284 -32.711  1.00  0.00     0.049 C 
ENDROOT
BRANCH   7  10
ATOM     10  O   UNL     1     -14.609 -27.797 -37.286  1.00  0.00    -0.507 OA
ATOM     11  H   UNL     1     -15.273 -28.377 -37.782  1.00  0.00     0.293 HD
ENDBRANCH   7  10
BRANCH   4  12
ATOM     12  O   UNL     1     -13.888 -27.962 -31.726  1.00  0.00    -0.508 OA
ATOM     13  H   UNL     1     -14.648 -28.173 -31.089  1.00  0.00     0.293 HD
ENDBRANCH   4  12
TORSDOF 2
ENDMDL
MODEL 6
REMARK VINA RESULT:    -4.625     15.315     16.220
REMARK INTER + INTRA:          -4.895
REMARK INTER:                  -4.895
REMARK INTRA:                   0.000
REMARK UNBOUND:                 0.000
REMARK SMILES Cc1cc(O)c(C)c(C)c1O
REMARK SMILES IDX 1 1 2 2 3 3 4 4 6 5 8 6 10 7 9 8 7 9 11 10 5 12
REMARK H PARENT 11 11 5 13
REMARK Flexibility Score: inf
ROOT
ATOM      1  C   UNL     1      -3.159 -22.432 -24.685  1.00  0.00     0.048 C 
ATOM      2  C   UNL     1      -4.433 -22.378 -23.887  1.00  0.00    -0.005 A 
ATOM      3  C   UNL     1      -5.445 -21.492 -24.273  1.00  0.00     0.053 A 
ATOM      4  C   UNL     1      -6.650 -21.426 -23.566  1.00  0.00     0.119 A 
ATOM      5  C   UNL     1      -6.863 -22.258 -22.449  1.00  0.00    -0.003 A 
ATOM      6  C   UNL     1      -5.826 -23.123 -22.017  1.00  0.00    -0.002 A 
ATOM      7  C   UNL     1      -4.624 -23.202 -22.755  1.00  0.00     0.121 A 
ATOM      8  C   UNL     1      -6.016 -24.004 -20.802  1.00  0.00     0.049 C 
ATOM      9  C   UNL     1      -8.172 -22.180 -21.699  1.00  0.00     0.049 C 
ENDROOT
BRANCH   7  10
ATOM     10  O   UNL     1      -3.633 -24.105 -22.350  1.00  0.00    -0.507 OA
ATOM     11  H   UNL     1      -2.824 -23.837 -21.805  1.00  0.00     0.293 HD
ENDBRANCH   7  10
BRANCH   4  12
ATOM     12  O   UNL     1      -7.636 -20.528 -23.976  1.00  0.00    -0.508 OA
ATOM     13  H   UNL     1      -8.591 -20.592 -23.640  1.00  0.00     0.293 HD
ENDBRANCH   4  12
TORSDOF 2
ENDMDL
MODEL 7
REMARK VINA RESULT:    -4.603     14.632     15.744
REMARK INTER + INTRA:          -4.872
REMARK INTER:                  -4.872
REMARK INTRA:                   0.000
REMARK UNBOUND:                 0.000
REMARK SMILES Cc1cc(O)c(C)c(C)c1O
REMARK SMILES IDX 1 1 2 2 3 3 4 4 6 5 8 6 10 7 9 8 7 9 11 10 5 12
REMARK H PARENT 11 11 5 13
REMARK Flexibility Score: inf
ROOT
ATOM      1  C   UNL     1      -5.354 -26.667 -20.966  1.00  0.00     0.048 C 
ATOM      2  C   UNL     1      -5.134 -27.722 -22.017  1.00  0.00    -0.005 A 
ATOM      3  C   UNL     1      -6.192 -28.567 -22.370  1.00  0.00     0.053 A 
ATOM      4  C   UNL     1      -6.029 -29.548 -23.353  1.00  0.00     0.119 A 
ATOM      5  C   UNL     1      -4.791 -29.697 -24.008  1.00  0.00    -0.003 A 
ATOM      6  C   UNL     1      -3.697 -28.881 -23.623  1.00  0.00    -0.002 A 
ATOM      7  C   UNL     1      -3.880 -27.875 -22.648  1.00  0.00     0.121 A 
ATOM      8  C   UNL     1      -2.348 -29.042 -24.288  1.00  0.00     0.049 C 
ATOM      9  C   UNL     1      -4.633 -30.756 -25.074  1.00  0.00     0.049 C 
ENDROOT
BRANCH   7  10
ATOM     10  O   UNL     1      -2.805 -27.039 -22.323  1.00  0.00    -0.507 OA
ATOM     11  H   UNL     1      -2.774 -26.471 -21.486  1.00  0.00     0.293 HD
ENDBRANCH   7  10
BRANCH   4  12
ATOM     12  O   UNL     1      -7.104 -30.376 -23.679  1.00  0.00    -0.508 OA
ATOM     13  H   UNL     1      -8.048 -30.174 -23.369  1.00  0.00     0.293 HD
ENDBRANCH   4  12
TORSDOF 2
ENDMDL
MODEL 8
REMARK VINA RESULT:    -4.559     15.216     16.140
REMARK INTER + INTRA:          -4.826
REMARK INTER:                  -4.826
REMARK INTRA:                   0.000
REMARK UNBOUND:                 0.000
REMARK SMILES Cc1cc(O)c(C)c(C)c1O
REMARK SMILES IDX 1 1 2 2 3 3 4 4 6 5 8 6 10 7 9 8 7 9 11 10 5 12
REMARK H PARENT 11 11 5 13
REMARK Flexibility Score: inf
ROOT
ATOM      1  C   UNL     1      -8.183 -21.869 -22.335  1.00  0.00     0.048 C 
ATOM      2  C   UNL     1      -6.773 -22.202 -22.743  1.00  0.00    -0.005 A 
ATOM      3  C   UNL     1      -6.053 -23.147 -22.004  1.00  0.00     0.053 A 
ATOM      4  C   UNL     1      -4.746 -23.495 -22.361  1.00  0.00     0.119 A 
ATOM      5  C   UNL     1      -4.135 -22.896 -23.480  1.00  0.00    -0.003 A 
ATOM      6  C   UNL     1      -4.835 -21.900 -24.207  1.00  0.00    -0.002 A 
ATOM      7  C   UNL     1      -6.165 -21.577 -23.854  1.00  0.00     0.121 A 
ATOM      8  C   UNL     1      -4.191 -21.219 -25.394  1.00  0.00     0.049 C 
ATOM      9  C   UNL     1      -2.726 -23.287 -23.859  1.00  0.00     0.049 C 
ENDROOT
BRANCH   7  10
ATOM     10  O   UNL     1      -6.863 -20.634 -24.618  1.00  0.00    -0.507 OA
ATOM     11  H   UNL     1      -6.570 -19.671 -24.718  1.00  0.00     0.293 HD
ENDBRANCH   7  10
BRANCH   4  12
ATOM     12  O   UNL     1      -4.056 -24.438 -21.600  1.00  0.00    -0.508 OA
ATOM     13  H   UNL     1      -3.101 -24.704 -21.815  1.00  0.00     0.293 HD
ENDBRANCH   4  12
TORSDOF 2
ENDMDL
MODEL 9
REMARK VINA RESULT:    -4.493     13.574     15.144
REMARK INTER + INTRA:          -4.756
REMARK INTER:                  -4.756
REMARK INTRA:                   0.000
REMARK UNBOUND:                 0.000
REMARK SMILES Cc1cc(O)c(C)c(C)c1O
REMARK SMILES IDX 1 1 2 2 3 3 4 4 6 5 8 6 10 7 9 8 7 9 11 10 5 12
REMARK H PARENT 11 11 5 13
REMARK Flexibility Score: inf
ROOT
ATOM      1  C   UNL     1      -4.039 -21.405 -25.152  1.00  0.00     0.048 C 
ATOM      2  C   UNL     1      -3.628 -22.683 -25.831  1.00  0.00    -0.005 A 
ATOM      3  C   UNL     1      -3.070 -23.715 -25.068  1.00  0.00     0.053 A 
ATOM      4  C   UNL     1      -2.691 -24.923 -25.661  1.00  0.00     0.119 A 
ATOM      5  C   UNL     1      -2.871 -25.121 -27.044  1.00  0.00    -0.003 A 
ATOM      6  C   UNL     1      -3.388 -24.065 -27.837  1.00  0.00    -0.002 A 
ATOM      7  C   UNL     1      -3.793 -22.858 -27.223  1.00  0.00     0.121 A 
ATOM      8  C   UNL     1      -3.561 -24.239 -29.329  1.00  0.00     0.049 C 
ATOM      9  C   UNL     1      -2.464 -26.435 -27.669  1.00  0.00     0.049 C 
ENDROOT
BRANCH   7  10
ATOM     10  O   UNL     1      -4.356 -21.848 -28.012  1.00  0.00    -0.507 OA
ATOM     11  H   UNL     1      -5.180 -21.326 -27.744  1.00  0.00     0.293 HD
ENDBRANCH   7  10
BRANCH   4  12
ATOM     12  O   UNL     1      -2.135 -25.929 -24.870  1.00  0.00    -0.508 OA
ATOM     13  H   UNL     1      -2.537 -26.859 -24.827  1.00  0.00     0.293 HD
ENDBRANCH   4  12
TORSDOF 2
ENDMDL
