MODEL 1
REMARK VINA RESULT:    -4.227      0.000      0.000
REMARK INTER + INTRA:          -5.008
REMARK INTER:                  -4.969
REMARK INTRA:                  -0.040
REMARK UNBOUND:                -0.040
REMARK SMILES CCCCC(=O)[O-]
REMARK SMILES IDX 4 1 5 2 6 3 7 4 3 5 2 6 1 7
REMARK H PARENT
REMARK Flexibility Score: inf
ROOT
ATOM      1  C   UNL     1      17.514  -1.159  -4.400  1.00  0.00     0.053 C 
ENDROOT
BRANCH   1   2
ATOM      2  C   UNL     1      16.304  -0.911  -3.556  1.00  0.00     0.041 C 
ATOM      3  O   UNL     1      15.215  -0.575  -4.091  1.00  0.00    -0.550 OA
ATOM      4  O   UNL     1      16.391  -1.001  -2.172  1.00  0.00    -0.550 OA
ENDBRANCH   1   2
BRANCH   1   5
ATOM      5  C   UNL     1      18.516  -2.043  -3.653  1.00  0.00     0.006 C 
BRANCH   5   6
ATOM      6  C   UNL     1      19.577  -2.600  -4.610  1.00  0.00    -0.003 C 
ATOM      7  C   UNL     1      19.166  -2.398  -6.066  1.00  0.00     0.004 C 
ENDBRANCH   5   6
ENDBRANCH   1   5
TORSDOF 3
ENDMDL
MODEL 2
REMARK VINA RESULT:    -4.223      0.068      1.225
REMARK INTER + INTRA:          -5.003
REMARK INTER:                  -4.961
REMARK INTRA:                  -0.042
REMARK UNBOUND:                -0.040
REMARK SMILES CCCCC(=O)[O-]
REMARK SMILES IDX 4 1 5 2 6 3 7 4 3 5 2 6 1 7
REMARK H PARENT
REMARK Flexibility Score: inf
ROOT
ATOM      1  C   UNL     1      17.550  -1.144  -4.391  1.00  0.00     0.053 C 
ENDROOT
BRANCH   1   2
ATOM      2  C   UNL     1      16.350  -0.898  -3.531  1.00  0.00     0.041 C 
ATOM      3  O   UNL     1      16.431  -1.016  -2.281  1.00  0.00    -0.550 OA
ATOM      4  O   UNL     1      15.129  -0.589  -4.116  1.00  0.00    -0.550 OA
ENDBRANCH   1   2
BRANCH   1   5
ATOM      5  C   UNL     1      18.552  -2.047  -3.667  1.00  0.00     0.006 C 
BRANCH   5   6
ATOM      6  C   UNL     1      19.588  -2.614  -4.646  1.00  0.00    -0.003 C 
ATOM      7  C   UNL     1      19.138  -2.428  -6.092  1.00  0.00     0.004 C 
ENDBRANCH   5   6
ENDBRANCH   1   5
TORSDOF 3
ENDMDL
MODEL 3
REMARK VINA RESULT:    -4.137     11.192     12.046
REMARK INTER + INTRA:          -4.903
REMARK INTER:                  -4.840
REMARK INTRA:                  -0.063
REMARK UNBOUND:                -0.040
REMARK SMILES CCCCC(=O)[O-]
REMARK SMILES IDX 4 1 5 2 6 3 7 4 3 5 2 6 1 7
REMARK H PARENT
REMARK Flexibility Score: inf
ROOT
ATOM      1  C   UNL     1      26.820  -7.382  -6.269  1.00  0.00     0.053 C 
ENDROOT
BRANCH   1   2
ATOM      2  C   UNL     1      28.091  -7.940  -6.825  1.00  0.00     0.041 C 
ATOM      3  O   UNL     1      28.317  -7.893  -8.062  1.00  0.00    -0.550 OA
ATOM      4  O   UNL     1      29.006  -8.560  -5.982  1.00  0.00    -0.550 OA
ENDBRANCH   1   2
BRANCH   1   5
ATOM      5  C   UNL     1      26.794  -5.859  -6.414  1.00  0.00     0.006 C 
BRANCH   5   6
ATOM      6  C   UNL     1      26.458  -5.185  -5.078  1.00  0.00    -0.003 C 
ATOM      7  C   UNL     1      26.384  -6.208  -3.948  1.00  0.00     0.004 C 
ENDBRANCH   5   6
ENDBRANCH   1   5
TORSDOF 3
ENDMDL
MODEL 4
REMARK VINA RESULT:    -4.045      1.118      1.375
REMARK INTER + INTRA:          -4.794
REMARK INTER:                  -4.690
REMARK INTRA:                  -0.104
REMARK UNBOUND:                -0.040
REMARK SMILES CCCCC(=O)[O-]
REMARK SMILES IDX 4 1 5 2 6 3 7 4 3 5 2 6 1 7
REMARK H PARENT
REMARK Flexibility Score: inf
ROOT
ATOM      1  C   UNL     1      17.057  -1.515  -2.855  1.00  0.00     0.053 C 
ENDROOT
BRANCH   1   2
ATOM      2  C   UNL     1      16.371  -0.667  -3.879  1.00  0.00     0.041 C 
ATOM      3  O   UNL     1      15.120  -0.717  -4.010  1.00  0.00    -0.550 OA
ATOM      4  O   UNL     1      17.120   0.142  -4.726  1.00  0.00    -0.550 OA
ENDBRANCH   1   2
BRANCH   1   5
ATOM      5  C   UNL     1      18.554  -1.615  -3.156  1.00  0.00     0.006 C 
BRANCH   5   6
ATOM      6  C   UNL     1      18.872  -2.892  -3.943  1.00  0.00    -0.003 C 
ATOM      7  C   UNL     1      19.229  -2.571  -5.392  1.00  0.00     0.004 C 
ENDBRANCH   5   6
ENDBRANCH   1   5
TORSDOF 3
ENDMDL
MODEL 5
REMARK VINA RESULT:    -3.971     11.006     12.088
REMARK INTER + INTRA:          -4.708
REMARK INTER:                  -4.683
REMARK INTRA:                  -0.025
REMARK UNBOUND:                -0.040
REMARK SMILES CCCCC(=O)[O-]
REMARK SMILES IDX 4 1 5 2 6 3 7 4 3 5 2 6 1 7
REMARK H PARENT
REMARK Flexibility Score: inf
ROOT
ATOM      1  C   UNL     1      27.072  -7.163  -6.063  1.00  0.00     0.053 C 
ENDROOT
BRANCH   1   2
ATOM      2  C   UNL     1      28.191  -7.928  -6.696  1.00  0.00     0.041 C 
ATOM      3  O   UNL     1      28.321  -7.943  -7.948  1.00  0.00    -0.550 OA
ATOM      4  O   UNL     1      29.062  -8.668  -5.905  1.00  0.00    -0.550 OA
ENDBRANCH   1   2
BRANCH   1   5
ATOM      5  C   UNL     1      27.442  -6.755  -4.635  1.00  0.00     0.006 C 
BRANCH   5   6
ATOM      6  C   UNL     1      26.384  -5.817  -4.040  1.00  0.00    -0.003 C 
ATOM      7  C   UNL     1      26.396  -4.461  -4.740  1.00  0.00     0.004 C 
ENDBRANCH   5   6
ENDBRANCH   1   5
TORSDOF 3
ENDMDL
MODEL 6
REMARK VINA RESULT:    -3.851      1.780      2.351
REMARK INTER + INTRA:          -4.567
REMARK INTER:                  -4.493
REMARK INTRA:                  -0.073
REMARK UNBOUND:                -0.040
REMARK SMILES CCCCC(=O)[O-]
REMARK SMILES IDX 4 1 5 2 6 3 7 4 3 5 2 6 1 7
REMARK H PARENT
REMARK Flexibility Score: inf
ROOT
ATOM      1  C   UNL     1      15.854  -0.724  -4.227  1.00  0.00     0.053 C 
ENDROOT
BRANCH   1   2
ATOM      2  C   UNL     1      16.595  -1.253  -3.040  1.00  0.00     0.041 C 
ATOM      3  O   UNL     1      16.256  -0.912  -1.877  1.00  0.00    -0.550 OA
ATOM      4  O   UNL     1      17.694  -2.085  -3.220  1.00  0.00    -0.550 OA
ENDBRANCH   1   2
BRANCH   1   5
ATOM      5  C   UNL     1      16.803   0.037  -5.156  1.00  0.00     0.006 C 
BRANCH   5   6
ATOM      6  C   UNL     1      16.980  -0.703  -6.488  1.00  0.00    -0.003 C 
ATOM      7  C   UNL     1      18.286  -1.491  -6.511  1.00  0.00     0.004 C 
ENDBRANCH   5   6
ENDBRANCH   1   5
TORSDOF 3
ENDMDL
MODEL 7
REMARK VINA RESULT:    -3.667     11.985     12.834
REMARK INTER + INTRA:          -4.350
REMARK INTER:                  -4.236
REMARK INTRA:                  -0.114
REMARK UNBOUND:                -0.040
REMARK SMILES CCCCC(=O)[O-]
REMARK SMILES IDX 4 1 5 2 6 3 7 4 3 5 2 6 1 7
REMARK H PARENT
REMARK Flexibility Score: inf
ROOT
ATOM      1  C   UNL     1      29.098  -8.246  -5.418  1.00  0.00     0.053 C 
ENDROOT
BRANCH   1   2
ATOM      2  C   UNL     1      28.126  -7.858  -6.487  1.00  0.00     0.041 C 
ATOM      3  O   UNL     1      28.392  -8.080  -7.697  1.00  0.00    -0.550 OA
ATOM      4  O   UNL     1      26.947  -7.204  -6.150  1.00  0.00    -0.550 OA
ENDBRANCH   1   2
BRANCH   1   5
ATOM      5  C   UNL     1      28.794  -7.496  -4.119  1.00  0.00     0.006 C 
BRANCH   5   6
ATOM      6  C   UNL     1      29.765  -6.326  -3.920  1.00  0.00    -0.003 C 
ATOM      7  C   UNL     1      29.079  -4.989  -4.187  1.00  0.00     0.004 C 
ENDBRANCH   5   6
ENDBRANCH   1   5
TORSDOF 3
ENDMDL
MODEL 8
REMARK VINA RESULT:    -3.503      2.693      3.323
REMARK INTER + INTRA:          -4.157
REMARK INTER:                  -4.063
REMARK INTRA:                  -0.094
REMARK UNBOUND:                -0.040
REMARK SMILES CCCCC(=O)[O-]
REMARK SMILES IDX 4 1 5 2 6 3 7 4 3 5 2 6 1 7
REMARK H PARENT
REMARK Flexibility Score: inf
ROOT
ATOM      1  C   UNL     1      17.132   0.113  -4.918  1.00  0.00     0.053 C 
ENDROOT
BRANCH   1   2
ATOM      2  C   UNL     1      17.259  -0.421  -6.310  1.00  0.00     0.041 C 
ATOM      3  O   UNL     1      16.664   0.146  -7.264  1.00  0.00    -0.550 OA
ATOM      4  O   UNL     1      17.993  -1.576  -6.547  1.00  0.00    -0.550 OA
ENDBRANCH   1   2
BRANCH   1   5
ATOM      5  C   UNL     1      16.150  -0.735  -4.106  1.00  0.00     0.006 C 
BRANCH   5   6
ATOM      6  C   UNL     1      16.768  -1.161  -2.769  1.00  0.00    -0.003 C 
ATOM      7  C   UNL     1      18.069  -1.929  -2.983  1.00  0.00     0.004 C 
ENDBRANCH   5   6
ENDBRANCH   1   5
TORSDOF 3
ENDMDL
MODEL 9
REMARK VINA RESULT:    -3.455      2.827      3.717
REMARK INTER + INTRA:          -4.101
REMARK INTER:                  -4.027
REMARK INTRA:                  -0.074
REMARK UNBOUND:                -0.040
REMARK SMILES CCCCC(=O)[O-]
REMARK SMILES IDX 4 1 5 2 6 3 7 4 3 5 2 6 1 7
REMARK H PARENT
REMARK Flexibility Score: inf
ROOT
ATOM      1  C   UNL     1      19.720  -2.048  -4.573  1.00  0.00     0.053 C 
ENDROOT
BRANCH   1   2
ATOM      2  C   UNL     1      19.329  -1.724  -5.981  1.00  0.00     0.041 C 
ATOM      3  O   UNL     1      18.876  -2.624  -6.735  1.00  0.00    -0.550 OA
ATOM      4  O   UNL     1      19.514  -0.439  -6.475  1.00  0.00    -0.550 OA
ENDBRANCH   1   2
BRANCH   1   5
ATOM      5  C   UNL     1      18.557  -2.710  -3.832  1.00  0.00     0.006 C 
BRANCH   5   6
ATOM      6  C   UNL     1      17.909  -1.734  -2.842  1.00  0.00    -0.003 C 
ATOM      7  C   UNL     1      16.636  -1.125  -3.422  1.00  0.00     0.004 C 
ENDBRANCH   5   6
ENDBRANCH   1   5
TORSDOF 3
ENDMDL
