MODEL 1
REMARK VINA RESULT:    11.874      0.000      0.000
REMARK INTER + INTRA:          21.063
REMARK INTER:                  16.387
REMARK INTRA:                   4.676
REMARK UNBOUND:                 4.676
REMARK SMILES O=C([O-])[C@@H]1O[C@H](Oc2cc3oc(-c4ccccc4)cc(=O)c3c(O)c2O)[C@@H](O)[C@@H](O)[C@H]1O
REMARK SMILES IDX 7 1 6 2 4 3 31 4 5 5 29 6 27 7 2 8 1 9 3 10 32 11 30 13
REMARK SMILES IDX 28 15 8 17 25 18 9 19 23 20 10 21 22 22 11 23 20 24 12 25
REMARK SMILES IDX 19 26 21 27 26 28 24 30 13 32 14 33 18 34 15 35 17 36 16 37
REMARK H PARENT 32 12 30 14 28 16 26 29 24 31
REMARK Flexibility Score: inf
ROOT
ATOM      1  O   UNL     1      52.442  -8.243  19.669  1.00  0.00    -0.458 OA
ENDROOT
BRANCH   1   2
ATOM      2  C   UNL     1      53.005  -7.005  20.125  1.00  0.00     0.339 C 
ATOM      3  C   UNL     1      54.776  -6.980  18.520  1.00  0.00     0.199 C 
ATOM      4  C   UNL     1      54.097  -5.863  17.694  1.00  0.00     0.180 C 
ATOM      5  O   UNL     1      54.411  -6.975  19.898  1.00  0.00    -0.328 OA
ATOM      6  C   UNL     1      52.581  -5.826  17.957  1.00  0.00     0.181 C 
ATOM      7  C   UNL     1      52.303  -5.805  19.468  1.00  0.00     0.214 C 
BRANCH   3   8
ATOM      8  C   UNL     1      54.585  -8.333  17.896  1.00  0.00     0.073 C 
ATOM      9  O   UNL     1      55.051  -8.558  16.750  1.00  0.00    -0.547 OA
ATOM     10  O   UNL     1      55.087  -8.627  16.632  1.00  0.00    -0.547 OA
ENDBRANCH   3   8
BRANCH   4  11
ATOM     11  O   UNL     1      54.687  -4.627  18.018  1.00  0.00    -0.387 OA
ATOM     12  H   UNL     1      55.666  -4.783  18.088  1.00  0.00     0.211 HD
ENDBRANCH   4  11
BRANCH   6  13
ATOM     13  O   UNL     1      52.010  -4.704  17.332  1.00  0.00    -0.387 OA
ATOM     14  H   UNL     1      51.413  -4.276  18.004  1.00  0.00     0.211 HD
ENDBRANCH   6  13
BRANCH   7  15
ATOM     15  O   UNL     1      52.776  -4.617  20.054  1.00  0.00    -0.384 OA
ATOM     16  H   UNL     1      52.795  -4.766  21.035  1.00  0.00     0.211 HD
ENDBRANCH   7  15
ENDBRANCH   1   2
BRANCH   1  17
ATOM     17  C   UNL     1      51.354  -8.374  18.789  1.00  0.00     0.172 A 
ATOM     18  C   UNL     1      51.611  -8.692  17.442  1.00  0.00     0.201 A 
ATOM     19  C   UNL     1      50.023  -8.213  19.218  1.00  0.00     0.098 A 
ATOM     20  C   UNL     1      50.550  -8.823  16.525  1.00  0.00     0.176 A 
ATOM     21  C   UNL     1      48.964  -8.367  18.322  1.00  0.00     0.146 A 
ATOM     22  C   UNL     1      49.216  -8.659  16.962  1.00  0.00     0.111 A 
ATOM     23  O   UNL     1      47.715  -8.245  18.768  1.00  0.00    -0.456 OA
ATOM     24  C   UNL     1      48.105  -8.771  16.102  1.00  0.00     0.197 A 
ATOM     25  C   UNL     1      46.642  -8.384  17.990  1.00  0.00     0.138 A 
ATOM     26  C   UNL     1      46.817  -8.635  16.618  1.00  0.00     0.100 A 
ATOM     27  O   UNL     1      48.248  -8.983  14.866  1.00  0.00    -0.289 OA
BRANCH  18  28
ATOM     28  O   UNL     1      52.922  -8.869  16.993  1.00  0.00    -0.502 OA
ATOM     29  H   UNL     1      53.135  -9.263  16.087  1.00  0.00     0.293 HD
ENDBRANCH  18  28
BRANCH  20  30
ATOM     30  O   UNL     1      50.823  -9.122  15.186  1.00  0.00    -0.504 OA
ATOM     31  H   UNL     1      50.371  -9.885  14.694  1.00  0.00     0.293 HD
ENDBRANCH  20  30
BRANCH  25  32
ATOM     32  C   UNL     1      45.293  -8.256  18.605  1.00  0.00     0.017 A 
ATOM     33  C   UNL     1      44.260  -9.125  18.201  1.00  0.00     0.012 A 
ATOM     34  C   UNL     1      45.006  -7.263  19.566  1.00  0.00     0.012 A 
ATOM     35  C   UNL     1      42.984  -9.019  18.760  1.00  0.00     0.001 A 
ATOM     36  C   UNL     1      43.729  -7.165  20.125  1.00  0.00     0.001 A 
ATOM     37  C   UNL     1      42.720  -8.043  19.722  1.00  0.00     0.000 A 
ENDBRANCH  25  32
ENDBRANCH   1  17
TORSDOF 9
ENDMDL
