MODEL 1
REMARK VINA RESULT:    -7.198      0.000      0.000
REMARK INTER + INTRA:         -12.001
REMARK INTER:                 -10.564
REMARK INTRA:                  -1.437
REMARK UNBOUND:                -1.437
REMARK SMILES O=c1c(O[C@@H]2O[C@H](CO)[C@H](O)[C@@H](O)[C@@H]2O)c(-c2ccc(O)c(O)c2)oc2cc(O)cc(O)c12
REMARK SMILES IDX 4 1 3 2 16 3 25 4 2 5 26 6 1 7 33 8 27 9 31 10 28 11 30 12
REMARK SMILES IDX 17 13 18 14 19 15 20 16 24 17 22 18 21 19 23 21 32 23 29 25
REMARK SMILES IDX 5 27 14 28 6 29 12 30 7 31 10 32 15 33 13 35 8 37 9 38 11 40
REMARK H PARENT 21 20 23 22 32 24 29 26 15 34 13 36 9 39 11 41
REMARK Flexibility Score: inf
ROOT
ATOM      1  O   UNL     1     -39.342   6.026  79.951  1.00  0.00    -0.454 OA
ENDROOT
BRANCH   1   2
ATOM      2  C   UNL     1     -39.055   4.693  80.563  1.00  0.00     0.214 A 
ATOM      3  C   UNL     1     -38.201   3.883  79.810  1.00  0.00     0.180 A 
ATOM      4  O   UNL     1     -38.824   3.108  78.948  1.00  0.00    -0.452 OA
ATOM      5  C   UNL     1     -40.253   4.047  81.086  1.00  0.00     0.239 A 
ATOM      6  C   UNL     1     -40.211   3.032  78.860  1.00  0.00     0.146 A 
ATOM      7  O   UNL     1     -40.344   2.978  81.762  1.00  0.00    -0.285 OA
ATOM      8  C   UNL     1     -40.983   3.626  79.960  1.00  0.00     0.111 A 
ATOM      9  C   UNL     1     -40.799   2.402  77.806  1.00  0.00     0.094 A 
ATOM     10  C   UNL     1     -42.339   3.398  79.960  1.00  0.00     0.134 A 
ATOM     11  C   UNL     1     -42.206   2.467  77.709  1.00  0.00     0.123 A 
ATOM     12  C   UNL     1     -42.980   2.951  78.797  1.00  0.00     0.093 A 
BRANCH   3  13
ATOM     13  C   UNL     1     -36.746   4.125  79.836  1.00  0.00     0.025 A 
ATOM     14  C   UNL     1     -35.980   4.303  78.681  1.00  0.00     0.016 A 
ATOM     15  C   UNL     1     -34.834   5.109  78.730  1.00  0.00     0.051 A 
ATOM     16  C   UNL     1     -34.466   5.738  79.931  1.00  0.00     0.157 A 
ATOM     17  C   UNL     1     -36.207   4.536  81.081  1.00  0.00     0.062 A 
ATOM     18  C   UNL     1     -35.112   5.346  81.096  1.00  0.00     0.158 A 
BRANCH  16  19
ATOM     19  O   UNL     1     -33.371   6.512  80.022  1.00  0.00    -0.504 OA
ATOM     20  H   UNL     1     -33.487   7.510  79.899  1.00  0.00     0.293 HD
ENDBRANCH  16  19
BRANCH  18  21
ATOM     21  O   UNL     1     -34.674   5.902  82.336  1.00  0.00    -0.504 OA
ATOM     22  H   UNL     1     -34.069   5.368  82.981  1.00  0.00     0.293 HD
ENDBRANCH  18  21
ENDBRANCH   3  13
BRANCH  10  23
ATOM     23  O   UNL     1     -43.140   3.669  81.133  1.00  0.00    -0.507 OA
ATOM     24  H   UNL     1     -42.865   3.477  82.102  1.00  0.00     0.293 HD
ENDBRANCH  10  23
BRANCH  11  25
ATOM     25  O   UNL     1     -42.853   2.211  76.507  1.00  0.00    -0.508 OA
ATOM     26  H   UNL     1     -43.708   1.653  76.539  1.00  0.00     0.293 HD
ENDBRANCH  11  25
ENDBRANCH   1   2
BRANCH   1  27
ATOM     27  C   UNL     1     -38.447   6.842  79.155  1.00  0.00     0.339 C 
ATOM     28  C   UNL     1     -38.745   6.735  77.516  1.00  0.00     0.214 C 
ATOM     29  O   UNL     1     -38.560   8.107  79.791  1.00  0.00    -0.332 OA
ATOM     30  C   UNL     1     -39.511   7.982  77.124  1.00  0.00     0.180 C 
ATOM     31  C   UNL     1     -38.659   9.357  79.006  1.00  0.00     0.179 C 
ATOM     32  C   UNL     1     -38.500   9.089  77.558  1.00  0.00     0.177 C 
BRANCH  28  33
ATOM     33  O   UNL     1     -39.393   5.562  77.198  1.00  0.00    -0.384 OA
ATOM     34  H   UNL     1     -40.047   5.301  77.921  1.00  0.00     0.211 HD
ENDBRANCH  28  33
BRANCH  30  35
ATOM     35  O   UNL     1     -39.853   8.175  75.758  1.00  0.00    -0.387 OA
ATOM     36  H   UNL     1     -40.540   7.434  75.535  1.00  0.00     0.211 HD
ENDBRANCH  30  35
BRANCH  31  37
ATOM     37  C   UNL     1     -39.972  10.125  79.355  1.00  0.00     0.191 C 
BRANCH  37  38
ATOM     38  O   UNL     1     -40.239  10.111  80.750  1.00  0.00    -0.394 OA
ATOM     39  H   UNL     1     -40.831  10.880  81.004  1.00  0.00     0.210 HD
ENDBRANCH  37  38
ENDBRANCH  31  37
BRANCH  32  40
ATOM     40  O   UNL     1     -38.316  10.123  76.655  1.00  0.00    -0.387 OA
ATOM     41  H   UNL     1     -39.330  10.382  76.517  1.00  0.00     0.211 HD
ENDBRANCH  32  40
ENDBRANCH   1  27
TORSDOF 12
ENDMDL
MODEL 2
REMARK VINA RESULT:    -6.796      1.691      6.233
REMARK INTER + INTRA:         -11.411
REMARK INTER:                  -9.785
REMARK INTRA:                  -1.626
REMARK UNBOUND:                -1.437
REMARK SMILES O=c1c(O[C@@H]2O[C@H](CO)[C@H](O)[C@@H](O)[C@@H]2O)c(-c2ccc(O)c(O)c2)oc2cc(O)cc(O)c12
REMARK SMILES IDX 4 1 3 2 16 3 25 4 2 5 26 6 1 7 33 8 27 9 31 10 28 11 30 12
REMARK SMILES IDX 17 13 18 14 19 15 20 16 24 17 22 18 21 19 23 21 32 23 29 25
REMARK SMILES IDX 5 27 14 28 6 29 12 30 7 31 10 32 15 33 13 35 8 37 9 38 11 40
REMARK H PARENT 21 20 23 22 32 24 29 26 15 34 13 36 9 39 11 41
REMARK Flexibility Score: inf
ROOT
ATOM      1  O   UNL     1     -37.656   6.417  78.379  1.00  0.00    -0.454 OA
ENDROOT
BRANCH   1   2
ATOM      2  C   UNL     1     -37.002   5.144  78.811  1.00  0.00     0.214 A 
ATOM      3  C   UNL     1     -37.484   4.627  80.016  1.00  0.00     0.180 A 
ATOM      4  O   UNL     1     -36.840   5.062  81.080  1.00  0.00    -0.452 OA
ATOM      5  C   UNL     1     -35.551   5.183  78.667  1.00  0.00     0.239 A 
ATOM      6  C   UNL     1     -35.722   5.888  81.004  1.00  0.00     0.146 A 
ATOM      7  O   UNL     1     -34.714   4.244  78.830  1.00  0.00    -0.285 OA
ATOM      8  C   UNL     1     -35.088   6.034  79.687  1.00  0.00     0.111 A 
ATOM      9  C   UNL     1     -35.241   6.496  82.123  1.00  0.00     0.094 A 
ATOM     10  C   UNL     1     -33.888   6.704  79.647  1.00  0.00     0.134 A 
ATOM     11  C   UNL     1     -34.184   7.417  81.962  1.00  0.00     0.123 A 
ATOM     12  C   UNL     1     -33.493   7.510  80.724  1.00  0.00     0.093 A 
BRANCH   3  13
ATOM     13  C   UNL     1     -38.761   3.891  80.042  1.00  0.00     0.025 A 
ATOM     14  C   UNL     1     -39.689   4.003  81.081  1.00  0.00     0.016 A 
ATOM     15  C   UNL     1     -41.054   3.831  80.811  1.00  0.00     0.051 A 
ATOM     16  C   UNL     1     -41.484   3.558  79.503  1.00  0.00     0.157 A 
ATOM     17  C   UNL     1     -39.189   3.345  78.805  1.00  0.00     0.062 A 
ATOM     18  C   UNL     1     -40.523   3.222  78.558  1.00  0.00     0.158 A 
BRANCH  16  19
ATOM     19  O   UNL     1     -42.782   3.380  79.203  1.00  0.00    -0.504 OA
ATOM     20  H   UNL     1     -43.373   4.200  79.158  1.00  0.00     0.293 HD
ENDBRANCH  16  19
BRANCH  18  21
ATOM     21  O   UNL     1     -40.956   2.840  77.252  1.00  0.00    -0.504 OA
ATOM     22  H   UNL     1     -40.281   2.561  76.522  1.00  0.00     0.293 HD
ENDBRANCH  18  21
ENDBRANCH   3  13
BRANCH  10  23
ATOM     23  O   UNL     1     -33.040   6.644  78.478  1.00  0.00    -0.507 OA
ATOM     24  H   UNL     1     -32.518   7.432  78.078  1.00  0.00     0.293 HD
ENDBRANCH  10  23
BRANCH  11  25
ATOM     25  O   UNL     1     -33.896   8.355  82.944  1.00  0.00    -0.508 OA
ATOM     26  H   UNL     1     -34.565   9.114  83.085  1.00  0.00     0.293 HD
ENDBRANCH  11  25
ENDBRANCH   1   2
BRANCH   1  27
ATOM     27  C   UNL     1     -38.802   6.566  77.504  1.00  0.00     0.339 C 
ATOM     28  C   UNL     1     -40.122   7.252  78.263  1.00  0.00     0.214 C 
ATOM     29  O   UNL     1     -38.233   7.231  76.386  1.00  0.00    -0.332 OA
ATOM     30  C   UNL     1     -40.170   8.705  77.838  1.00  0.00     0.180 C 
ATOM     31  C   UNL     1     -38.934   8.348  75.716  1.00  0.00     0.179 C 
ATOM     32  C   UNL     1     -40.286   8.547  76.289  1.00  0.00     0.177 C 
BRANCH  28  33
ATOM     33  O   UNL     1     -40.066   7.073  79.628  1.00  0.00    -0.384 OA
ATOM     34  H   UNL     1     -40.196   6.103  79.873  1.00  0.00     0.211 HD
ENDBRANCH  28  33
BRANCH  30  35
ATOM     35  O   UNL     1     -41.238   9.519  78.302  1.00  0.00    -0.387 OA
ATOM     36  H   UNL     1     -40.964   9.822  79.254  1.00  0.00     0.211 HD
ENDBRANCH  30  35
BRANCH  31  37
ATOM     37  C   UNL     1     -38.057   9.638  75.730  1.00  0.00     0.191 C 
BRANCH  37  38
ATOM     38  O   UNL     1     -36.905   9.486  76.547  1.00  0.00    -0.394 OA
ATOM     39  H   UNL     1     -36.386  10.343  76.589  1.00  0.00     0.210 HD
ENDBRANCH  37  38
ENDBRANCH  31  37
BRANCH  32  40
ATOM     40  O   UNL     1     -41.212   9.368  75.669  1.00  0.00    -0.387 OA
ATOM     41  H   UNL     1     -42.070   8.775  75.832  1.00  0.00     0.211 HD
ENDBRANCH  32  40
ENDBRANCH   1  27
TORSDOF 12
ENDMDL
MODEL 3
REMARK VINA RESULT:    -6.714      2.414      7.091
REMARK INTER + INTRA:         -11.291
REMARK INTER:                  -9.571
REMARK INTRA:                  -1.721
REMARK UNBOUND:                -1.437
REMARK SMILES O=c1c(O[C@@H]2O[C@H](CO)[C@H](O)[C@@H](O)[C@@H]2O)c(-c2ccc(O)c(O)c2)oc2cc(O)cc(O)c12
REMARK SMILES IDX 4 1 3 2 16 3 25 4 2 5 26 6 1 7 33 8 27 9 31 10 28 11 30 12
REMARK SMILES IDX 17 13 18 14 19 15 20 16 24 17 22 18 21 19 23 21 32 23 29 25
REMARK SMILES IDX 5 27 14 28 6 29 12 30 7 31 10 32 15 33 13 35 8 37 9 38 11 40
REMARK H PARENT 21 20 23 22 32 24 29 26 15 34 13 36 9 39 11 41
REMARK Flexibility Score: inf
ROOT
ATOM      1  O   UNL     1     -36.996   6.159  80.873  1.00  0.00    -0.454 OA
ENDROOT
BRANCH   1   2
ATOM      2  C   UNL     1     -35.916   5.212  81.287  1.00  0.00     0.214 A 
ATOM      3  C   UNL     1     -35.619   5.235  82.652  1.00  0.00     0.180 A 
ATOM      4  O   UNL     1     -34.682   6.101  82.979  1.00  0.00    -0.452 OA
ATOM      5  C   UNL     1     -34.772   5.237  80.383  1.00  0.00     0.239 A 
ATOM      6  C   UNL     1     -33.986   6.856  82.039  1.00  0.00     0.146 A 
ATOM      7  O   UNL     1     -33.751   4.484  80.377  1.00  0.00    -0.285 OA
ATOM      8  C   UNL     1     -34.114   6.454  80.632  1.00  0.00     0.111 A 
ATOM      9  C   UNL     1     -33.203   7.896  82.439  1.00  0.00     0.094 A 
ATOM     10  C   UNL     1     -33.292   7.087  79.730  1.00  0.00     0.134 A 
ATOM     11  C   UNL     1     -32.623   8.700  81.434  1.00  0.00     0.123 A 
ATOM     12  C   UNL     1     -32.653   8.285  80.075  1.00  0.00     0.093 A 
BRANCH   3  13
ATOM     13  C   UNL     1     -36.495   4.534  83.608  1.00  0.00     0.025 A 
ATOM     14  C   UNL     1     -37.287   5.198  84.549  1.00  0.00     0.016 A 
ATOM     15  C   UNL     1     -38.494   4.621  84.967  1.00  0.00     0.051 A 
ATOM     16  C   UNL     1     -38.908   3.389  84.435  1.00  0.00     0.157 A 
ATOM     17  C   UNL     1     -36.793   3.182  83.302  1.00  0.00     0.062 A 
ATOM     18  C   UNL     1     -37.988   2.660  83.693  1.00  0.00     0.158 A 
BRANCH  16  19
ATOM     19  O   UNL     1     -40.054   2.799  84.814  1.00  0.00    -0.504 OA
ATOM     20  H   UNL     1     -40.772   2.668  84.112  1.00  0.00     0.293 HD
ENDBRANCH  16  19
BRANCH  18  21
ATOM     21  O   UNL     1     -38.362   1.359  83.235  1.00  0.00    -0.504 OA
ATOM     22  H   UNL     1     -38.106   0.509  83.764  1.00  0.00     0.293 HD
ENDBRANCH  18  21
ENDBRANCH   3  13
BRANCH  10  23
ATOM     23  O   UNL     1     -33.117   6.569  78.391  1.00  0.00    -0.507 OA
ATOM     24  H   UNL     1     -32.440   6.912  77.701  1.00  0.00     0.293 HD
ENDBRANCH  10  23
BRANCH  11  25
ATOM     25  O   UNL     1     -32.152   9.975  81.719  1.00  0.00    -0.508 OA
ATOM     26  H   UNL     1     -31.898  10.180  82.687  1.00  0.00     0.293 HD
ENDBRANCH  11  25
ENDBRANCH   1   2
BRANCH   1  27
ATOM     27  C   UNL     1     -38.357   5.833  80.496  1.00  0.00     0.339 C 
ATOM     28  C   UNL     1     -38.854   6.602  79.100  1.00  0.00     0.214 C 
ATOM     29  O   UNL     1     -38.338   4.413  80.527  1.00  0.00    -0.332 OA
ATOM     30  C   UNL     1     -38.773   5.584  77.982  1.00  0.00     0.180 C 
ATOM     31  C   UNL     1     -38.998   3.613  79.472  1.00  0.00     0.179 C 
ATOM     32  C   UNL     1     -39.736   4.483  78.527  1.00  0.00     0.177 C 
BRANCH  28  33
ATOM     33  O   UNL     1     -38.118   7.744  78.866  1.00  0.00    -0.384 OA
ATOM     34  H   UNL     1     -38.077   7.952  77.879  1.00  0.00     0.211 HD
ENDBRANCH  28  33
BRANCH  30  35
ATOM     35  O   UNL     1     -39.193   5.962  76.678  1.00  0.00    -0.387 OA
ATOM     36  H   UNL     1     -39.999   5.352  76.457  1.00  0.00     0.211 HD
ENDBRANCH  30  35
BRANCH  31  37
ATOM     37  C   UNL     1     -37.972   2.666  78.775  1.00  0.00     0.191 C 
BRANCH  37  38
ATOM     38  O   UNL     1     -38.617   1.644  78.028  1.00  0.00    -0.394 OA
ATOM     39  H   UNL     1     -39.497   1.968  77.673  1.00  0.00     0.210 HD
ENDBRANCH  37  38
ENDBRANCH  31  37
BRANCH  32  40
ATOM     40  O   UNL     1     -40.622   3.949  77.607  1.00  0.00    -0.387 OA
ATOM     41  H   UNL     1     -39.918   3.636  76.885  1.00  0.00     0.211 HD
ENDBRANCH  32  40
ENDBRANCH   1  27
TORSDOF 12
ENDMDL
MODEL 4
REMARK VINA RESULT:    -6.680      2.174      7.213
REMARK INTER + INTRA:         -11.242
REMARK INTER:                 -10.074
REMARK INTRA:                  -1.167
REMARK UNBOUND:                -1.437
REMARK SMILES O=c1c(O[C@@H]2O[C@H](CO)[C@H](O)[C@@H](O)[C@@H]2O)c(-c2ccc(O)c(O)c2)oc2cc(O)cc(O)c12
REMARK SMILES IDX 4 1 3 2 16 3 25 4 2 5 26 6 1 7 33 8 27 9 31 10 28 11 30 12
REMARK SMILES IDX 17 13 18 14 19 15 20 16 24 17 22 18 21 19 23 21 32 23 29 25
REMARK SMILES IDX 5 27 14 28 6 29 12 30 7 31 10 32 15 33 13 35 8 37 9 38 11 40
REMARK H PARENT 21 20 23 22 32 24 29 26 15 34 13 36 9 39 11 41
REMARK Flexibility Score: inf
ROOT
ATOM      1  O   UNL     1     -38.767   5.455  81.450  1.00  0.00    -0.454 OA
ENDROOT
BRANCH   1   2
ATOM      2  C   UNL     1     -38.973   6.234  80.191  1.00  0.00     0.214 A 
ATOM      3  C   UNL     1     -38.942   5.465  79.024  1.00  0.00     0.180 A 
ATOM      4  O   UNL     1     -37.742   5.347  78.495  1.00  0.00    -0.452 OA
ATOM      5  C   UNL     1     -38.199   7.469  80.163  1.00  0.00     0.239 A 
ATOM      6  C   UNL     1     -36.624   6.005  78.998  1.00  0.00     0.146 A 
ATOM      7  O   UNL     1     -38.232   8.405  79.307  1.00  0.00    -0.285 OA
ATOM      8  C   UNL     1     -36.862   7.079  79.971  1.00  0.00     0.111 A 
ATOM      9  C   UNL     1     -35.378   5.667  78.565  1.00  0.00     0.094 A 
ATOM     10  C   UNL     1     -35.776   7.840  80.332  1.00  0.00     0.134 A 
ATOM     11  C   UNL     1     -34.277   6.281  79.201  1.00  0.00     0.123 A 
ATOM     12  C   UNL     1     -34.476   7.383  80.076  1.00  0.00     0.093 A 
BRANCH   3  13
ATOM     13  C   UNL     1     -40.122   4.670  78.636  1.00  0.00     0.025 A 
ATOM     14  C   UNL     1     -40.084   3.673  77.658  1.00  0.00     0.016 A 
ATOM     15  C   UNL     1     -40.957   2.580  77.751  1.00  0.00     0.051 A 
ATOM     16  C   UNL     1     -41.856   2.486  78.825  1.00  0.00     0.157 A 
ATOM     17  C   UNL     1     -41.212   4.693  79.542  1.00  0.00     0.062 A 
ATOM     18  C   UNL     1     -42.024   3.603  79.634  1.00  0.00     0.158 A 
BRANCH  16  19
ATOM     19  O   UNL     1     -42.714   1.458  78.948  1.00  0.00    -0.504 OA
ATOM     20  H   UNL     1     -43.684   1.622  78.708  1.00  0.00     0.293 HD
ENDBRANCH  16  19
BRANCH  18  21
ATOM     21  O   UNL     1     -43.011   3.554  80.665  1.00  0.00    -0.504 OA
ATOM     22  H   UNL     1     -42.745   3.554  81.663  1.00  0.00     0.293 HD
ENDBRANCH  18  21
ENDBRANCH   3  13
BRANCH  10  23
ATOM     23  O   UNL     1     -35.944   9.092  81.035  1.00  0.00    -0.507 OA
ATOM     24  H   UNL     1     -36.465   9.222  81.910  1.00  0.00     0.293 HD
ENDBRANCH  10  23
BRANCH  11  25
ATOM     25  O   UNL     1     -33.004   5.734  79.116  1.00  0.00    -0.508 OA
ATOM     26  H   UNL     1     -32.929   4.743  78.880  1.00  0.00     0.293 HD
ENDBRANCH  11  25
ENDBRANCH   1   2
BRANCH   1  27
ATOM     27  C   UNL     1     -38.717   4.014  81.597  1.00  0.00     0.339 C 
ATOM     28  C   UNL     1     -37.232   3.459  82.121  1.00  0.00     0.214 C 
ATOM     29  O   UNL     1     -39.864   3.761  82.395  1.00  0.00    -0.332 OA
ATOM     30  C   UNL     1     -37.369   3.159  83.599  1.00  0.00     0.180 C 
ATOM     31  C   UNL     1     -39.822   2.797  83.516  1.00  0.00     0.179 C 
ATOM     32  C   UNL     1     -38.516   2.100  83.572  1.00  0.00     0.177 C 
BRANCH  28  33
ATOM     33  O   UNL     1     -36.228   4.356  81.827  1.00  0.00    -0.384 OA
ATOM     34  H   UNL     1     -36.165   5.074  82.533  1.00  0.00     0.211 HD
ENDBRANCH  28  33
BRANCH  30  35
ATOM     35  O   UNL     1     -36.255   2.617  84.295  1.00  0.00    -0.387 OA
ATOM     36  H   UNL     1     -36.130   3.216  85.130  1.00  0.00     0.211 HD
ENDBRANCH  30  35
BRANCH  31  37
ATOM     37  C   UNL     1     -40.213   3.493  84.858  1.00  0.00     0.191 C 
BRANCH  37  38
ATOM     38  O   UNL     1     -40.393   4.892  84.695  1.00  0.00    -0.394 OA
ATOM     39  H   UNL     1     -40.882   5.280  85.480  1.00  0.00     0.210 HD
ENDBRANCH  37  38
ENDBRANCH  31  37
BRANCH  32  40
ATOM     40  O   UNL     1     -38.330   0.991  84.379  1.00  0.00    -0.387 OA
ATOM     41  H   UNL     1     -39.265   0.528  84.214  1.00  0.00     0.211 HD
ENDBRANCH  32  40
ENDBRANCH   1  27
TORSDOF 12
ENDMDL
MODEL 5
REMARK VINA RESULT:    -6.627      1.616      2.759
REMARK INTER + INTRA:         -11.163
REMARK INTER:                  -9.503
REMARK INTRA:                  -1.660
REMARK UNBOUND:                -1.437
REMARK SMILES O=c1c(O[C@@H]2O[C@H](CO)[C@H](O)[C@@H](O)[C@@H]2O)c(-c2ccc(O)c(O)c2)oc2cc(O)cc(O)c12
REMARK SMILES IDX 4 1 3 2 16 3 25 4 2 5 26 6 1 7 33 8 27 9 31 10 28 11 30 12
REMARK SMILES IDX 17 13 18 14 19 15 20 16 24 17 22 18 21 19 23 21 32 23 29 25
REMARK SMILES IDX 5 27 14 28 6 29 12 30 7 31 10 32 15 33 13 35 8 37 9 38 11 40
REMARK H PARENT 21 20 23 22 32 24 29 26 15 34 13 36 9 39 11 41
REMARK Flexibility Score: inf
ROOT
ATOM      1  O   UNL     1     -39.168   6.057  79.718  1.00  0.00    -0.454 OA
ENDROOT
BRANCH   1   2
ATOM      2  C   UNL     1     -38.842   4.721  80.303  1.00  0.00     0.214 A 
ATOM      3  C   UNL     1     -38.049   3.910  79.487  1.00  0.00     0.180 A 
ATOM      4  O   UNL     1     -38.737   3.140  78.670  1.00  0.00    -0.452 OA
ATOM      5  C   UNL     1     -40.003   4.078  80.909  1.00  0.00     0.239 A 
ATOM      6  C   UNL     1     -40.127   3.071  78.683  1.00  0.00     0.146 A 
ATOM      7  O   UNL     1     -40.049   3.007  81.587  1.00  0.00    -0.285 OA
ATOM      8  C   UNL     1     -40.814   3.664  79.839  1.00  0.00     0.111 A 
ATOM      9  C   UNL     1     -40.793   2.447  77.673  1.00  0.00     0.094 A 
ATOM     10  C   UNL     1     -42.167   3.442  79.936  1.00  0.00     0.134 A 
ATOM     11  C   UNL     1     -42.202   2.518  77.678  1.00  0.00     0.123 A 
ATOM     12  C   UNL     1     -42.894   3.002  78.821  1.00  0.00     0.093 A 
BRANCH   3  13
ATOM     13  C   UNL     1     -36.596   4.145  79.408  1.00  0.00     0.025 A 
ATOM     14  C   UNL     1     -35.976   4.742  78.307  1.00  0.00     0.016 A 
ATOM     15  C   UNL     1     -34.805   5.489  78.493  1.00  0.00     0.051 A 
ATOM     16  C   UNL     1     -34.266   5.644  79.781  1.00  0.00     0.157 A 
ATOM     17  C   UNL     1     -35.889   4.083  80.636  1.00  0.00     0.062 A 
ATOM     18  C   UNL     1     -34.773   4.847  80.799  1.00  0.00     0.158 A 
BRANCH  16  19
ATOM     19  O   UNL     1     -33.142   6.347  80.002  1.00  0.00    -0.504 OA
ATOM     20  H   UNL     1     -32.431   6.340  79.281  1.00  0.00     0.293 HD
ENDBRANCH  16  19
BRANCH  18  21
ATOM     21  O   UNL     1     -34.162   4.920  82.088  1.00  0.00    -0.504 OA
ATOM     22  H   UNL     1     -33.456   4.228  82.389  1.00  0.00     0.293 HD
ENDBRANCH  18  21
ENDBRANCH   3  13
BRANCH  10  23
ATOM     23  O   UNL     1     -42.880   3.713  81.165  1.00  0.00    -0.507 OA
ATOM     24  H   UNL     1     -43.871   3.512  81.337  1.00  0.00     0.293 HD
ENDBRANCH  10  23
BRANCH  11  25
ATOM     25  O   UNL     1     -42.936   2.270  76.526  1.00  0.00    -0.508 OA
ATOM     26  H   UNL     1     -42.534   2.567  75.634  1.00  0.00     0.293 HD
ENDBRANCH  11  25
ENDBRANCH   1   2
BRANCH   1  27
ATOM     27  C   UNL     1     -38.472   7.310  79.939  1.00  0.00     0.339 C 
ATOM     28  C   UNL     1     -39.498   8.574  80.311  1.00  0.00     0.214 C 
ATOM     29  O   UNL     1     -37.480   6.931  80.883  1.00  0.00    -0.332 OA
ATOM     30  C   UNL     1     -39.420   8.779  81.809  1.00  0.00     0.180 C 
ATOM     31  C   UNL     1     -37.157   7.789  82.043  1.00  0.00     0.179 C 
ATOM     32  C   UNL     1     -37.896   9.072  81.980  1.00  0.00     0.177 C 
BRANCH  28  33
ATOM     33  O   UNL     1     -40.774   8.339  79.848  1.00  0.00    -0.384 OA
ATOM     34  H   UNL     1     -41.085   7.412  80.097  1.00  0.00     0.211 HD
ENDBRANCH  28  33
BRANCH  30  35
ATOM     35  O   UNL     1     -40.163   9.840  82.395  1.00  0.00    -0.387 OA
ATOM     36  H   UNL     1     -40.994   9.394  82.823  1.00  0.00     0.211 HD
ENDBRANCH  30  35
BRANCH  31  37
ATOM     37  C   UNL     1     -37.372   7.014  83.380  1.00  0.00     0.191 C 
BRANCH  37  38
ATOM     38  O   UNL     1     -36.354   6.048  83.602  1.00  0.00    -0.394 OA
ATOM     39  H   UNL     1     -36.385   5.334  82.899  1.00  0.00     0.210 HD
ENDBRANCH  37  38
ENDBRANCH  31  37
BRANCH  32  40
ATOM     40  O   UNL     1     -37.575  10.125  82.820  1.00  0.00    -0.387 OA
ATOM     41  H   UNL     1     -38.189  10.861  82.377  1.00  0.00     0.211 HD
ENDBRANCH  32  40
ENDBRANCH   1  27
TORSDOF 12
ENDMDL
MODEL 6
REMARK VINA RESULT:    -6.619      1.653      6.121
REMARK INTER + INTRA:         -11.151
REMARK INTER:                  -9.144
REMARK INTRA:                  -2.007
REMARK UNBOUND:                -1.437
REMARK SMILES O=c1c(O[C@@H]2O[C@H](CO)[C@H](O)[C@@H](O)[C@@H]2O)c(-c2ccc(O)c(O)c2)oc2cc(O)cc(O)c12
REMARK SMILES IDX 4 1 3 2 16 3 25 4 2 5 26 6 1 7 33 8 27 9 31 10 28 11 30 12
REMARK SMILES IDX 17 13 18 14 19 15 20 16 24 17 22 18 21 19 23 21 32 23 29 25
REMARK SMILES IDX 5 27 14 28 6 29 12 30 7 31 10 32 15 33 13 35 8 37 9 38 11 40
REMARK H PARENT 21 20 23 22 32 24 29 26 15 34 13 36 9 39 11 41
REMARK Flexibility Score: inf
ROOT
ATOM      1  O   UNL     1     -38.436   6.294  80.961  1.00  0.00    -0.454 OA
ENDROOT
BRANCH   1   2
ATOM      2  C   UNL     1     -37.813   5.133  80.255  1.00  0.00     0.214 A 
ATOM      3  C   UNL     1     -38.214   3.883  80.734  1.00  0.00     0.180 A 
ATOM      4  O   UNL     1     -37.458   3.416  81.706  1.00  0.00    -0.452 OA
ATOM      5  C   UNL     1     -36.380   5.308  80.047  1.00  0.00     0.239 A 
ATOM      6  C   UNL     1     -36.310   4.065  82.152  1.00  0.00     0.146 A 
ATOM      7  O   UNL     1     -35.582   4.576  79.386  1.00  0.00    -0.285 OA
ATOM      8  C   UNL     1     -35.787   5.149  81.311  1.00  0.00     0.111 A 
ATOM      9  C   UNL     1     -35.703   3.669  83.305  1.00  0.00     0.094 A 
ATOM     10  C   UNL     1     -34.562   5.668  81.660  1.00  0.00     0.134 A 
ATOM     11  C   UNL     1     -34.618   4.443  83.769  1.00  0.00     0.123 A 
ATOM     12  C   UNL     1     -34.034   5.436  82.937  1.00  0.00     0.093 A 
BRANCH   3  13
ATOM     13  C   UNL     1     -39.520   3.327  80.335  1.00  0.00     0.025 A 
ATOM     14  C   UNL     1     -40.669   3.431  81.124  1.00  0.00     0.016 A 
ATOM     15  C   UNL     1     -41.928   3.479  80.508  1.00  0.00     0.051 A 
ATOM     16  C   UNL     1     -42.030   3.433  79.108  1.00  0.00     0.157 A 
ATOM     17  C   UNL     1     -39.664   3.004  78.962  1.00  0.00     0.062 A 
ATOM     18  C   UNL     1     -40.895   3.093  78.384  1.00  0.00     0.158 A 
BRANCH  16  19
ATOM     19  O   UNL     1     -43.217   3.470  78.479  1.00  0.00    -0.504 OA
ATOM     20  H   UNL     1     -44.014   3.058  78.950  1.00  0.00     0.293 HD
ENDBRANCH  16  19
BRANCH  18  21
ATOM     21  O   UNL     1     -41.012   2.940  76.969  1.00  0.00    -0.504 OA
ATOM     22  H   UNL     1     -40.800   3.719  76.325  1.00  0.00     0.293 HD
ENDBRANCH  18  21
ENDBRANCH   3  13
BRANCH  10  23
ATOM     23  O   UNL     1     -33.824   6.511  80.747  1.00  0.00    -0.507 OA
ATOM     24  H   UNL     1     -34.140   7.416  80.380  1.00  0.00     0.293 HD
ENDBRANCH  10  23
BRANCH  11  25
ATOM     25  O   UNL     1     -34.197   4.366  85.090  1.00  0.00    -0.508 OA
ATOM     26  H   UNL     1     -33.920   5.236  85.551  1.00  0.00     0.293 HD
ENDBRANCH  11  25
ENDBRANCH   1   2
BRANCH   1  27
ATOM     27  C   UNL     1     -39.235   7.353  80.378  1.00  0.00     0.339 C 
ATOM     28  C   UNL     1     -38.355   8.734  80.051  1.00  0.00     0.214 C 
ATOM     29  O   UNL     1     -39.877   6.680  79.305  1.00  0.00    -0.332 OA
ATOM     30  C   UNL     1     -38.073   8.736  78.563  1.00  0.00     0.180 C 
ATOM     31  C   UNL     1     -40.018   7.312  77.975  1.00  0.00     0.179 C 
ATOM     32  C   UNL     1     -39.527   8.709  77.995  1.00  0.00     0.177 C 
BRANCH  28  33
ATOM     33  O   UNL     1     -37.222   8.806  80.831  1.00  0.00    -0.384 OA
ATOM     34  H   UNL     1     -36.566   9.476  80.459  1.00  0.00     0.211 HD
ENDBRANCH  28  33
BRANCH  30  35
ATOM     35  O   UNL     1     -37.375   9.838  77.999  1.00  0.00    -0.387 OA
ATOM     36  H   UNL     1     -37.244  10.511  78.774  1.00  0.00     0.211 HD
ENDBRANCH  30  35
BRANCH  31  37
ATOM     37  C   UNL     1     -39.347   6.433  76.873  1.00  0.00     0.191 C 
BRANCH  37  38
ATOM     38  O   UNL     1     -39.309   7.095  75.618  1.00  0.00    -0.394 OA
ATOM     39  H   UNL     1     -39.200   6.433  74.872  1.00  0.00     0.210 HD
ENDBRANCH  37  38
ENDBRANCH  31  37
BRANCH  32  40
ATOM     40  O   UNL     1     -39.776   9.570  76.939  1.00  0.00    -0.387 OA
ATOM     41  H   UNL     1     -39.104  10.338  77.211  1.00  0.00     0.211 HD
ENDBRANCH  32  40
ENDBRANCH   1  27
TORSDOF 12
ENDMDL
MODEL 7
REMARK VINA RESULT:    -6.610      2.498      3.727
REMARK INTER + INTRA:         -11.138
REMARK INTER:                  -9.425
REMARK INTRA:                  -1.714
REMARK UNBOUND:                -1.437
REMARK SMILES O=c1c(O[C@@H]2O[C@H](CO)[C@H](O)[C@@H](O)[C@@H]2O)c(-c2ccc(O)c(O)c2)oc2cc(O)cc(O)c12
REMARK SMILES IDX 4 1 3 2 16 3 25 4 2 5 26 6 1 7 33 8 27 9 31 10 28 11 30 12
REMARK SMILES IDX 17 13 18 14 19 15 20 16 24 17 22 18 21 19 23 21 32 23 29 25
REMARK SMILES IDX 5 27 14 28 6 29 12 30 7 31 10 32 15 33 13 35 8 37 9 38 11 40
REMARK H PARENT 21 20 23 22 32 24 29 26 15 34 13 36 9 39 11 41
REMARK Flexibility Score: inf
ROOT
ATOM      1  O   UNL     1     -38.031   6.259  81.305  1.00  0.00    -0.454 OA
ENDROOT
BRANCH   1   2
ATOM      2  C   UNL     1     -37.190   5.933  82.497  1.00  0.00     0.214 A 
ATOM      3  C   UNL     1     -36.254   4.918  82.284  1.00  0.00     0.180 A 
ATOM      4  O   UNL     1     -36.707   3.710  82.549  1.00  0.00    -0.452 OA
ATOM      5  C   UNL     1     -37.972   5.835  83.724  1.00  0.00     0.239 A 
ATOM      6  C   UNL     1     -37.971   3.475  83.081  1.00  0.00     0.146 A 
ATOM      7  O   UNL     1     -37.560   5.691  84.915  1.00  0.00    -0.285 OA
ATOM      8  C   UNL     1     -38.694   4.634  83.623  1.00  0.00     0.111 A 
ATOM      9  C   UNL     1     -38.477   2.211  83.115  1.00  0.00     0.094 A 
ATOM     10  C   UNL     1     -39.860   4.374  84.303  1.00  0.00     0.134 A 
ATOM     11  C   UNL     1     -39.810   2.053  83.551  1.00  0.00     0.123 A 
ATOM     12  C   UNL     1     -40.499   3.134  84.163  1.00  0.00     0.093 A 
BRANCH   3  13
ATOM     13  C   UNL     1     -34.997   5.214  81.572  1.00  0.00     0.025 A 
ATOM     14  C   UNL     1     -34.526   4.450  80.501  1.00  0.00     0.016 A 
ATOM     15  C   UNL     1     -33.753   5.060  79.503  1.00  0.00     0.051 A 
ATOM     16  C   UNL     1     -33.463   6.432  79.578  1.00  0.00     0.157 A 
ATOM     17  C   UNL     1     -34.464   6.514  81.767  1.00  0.00     0.062 A 
ATOM     18  C   UNL     1     -33.744   7.094  80.766  1.00  0.00     0.158 A 
BRANCH  16  19
ATOM     19  O   UNL     1     -32.719   7.055  78.647  1.00  0.00    -0.504 OA
ATOM     20  H   UNL     1     -32.817   6.753  77.685  1.00  0.00     0.293 HD
ENDBRANCH  16  19
BRANCH  18  21
ATOM     21  O   UNL     1     -33.358   8.463  80.891  1.00  0.00    -0.504 OA
ATOM     22  H   UNL     1     -32.838   8.945  80.140  1.00  0.00     0.293 HD
ENDBRANCH  18  21
ENDBRANCH   3  13
BRANCH  10  23
ATOM     23  O   UNL     1     -40.484   5.387  85.125  1.00  0.00    -0.507 OA
ATOM     24  H   UNL     1     -40.335   5.514  86.132  1.00  0.00     0.293 HD
ENDBRANCH  10  23
BRANCH  11  25
ATOM     25  O   UNL     1     -40.528   0.902  83.257  1.00  0.00    -0.508 OA
ATOM     26  H   UNL     1     -41.516   0.879  83.518  1.00  0.00     0.293 HD
ENDBRANCH  11  25
ENDBRANCH   1   2
BRANCH   1  27
ATOM     27  C   UNL     1     -37.609   6.329  79.920  1.00  0.00     0.339 C 
ATOM     28  C   UNL     1     -38.134   5.032  79.008  1.00  0.00     0.214 C 
ATOM     29  O   UNL     1     -38.022   7.637  79.553  1.00  0.00    -0.332 OA
ATOM     30  C   UNL     1     -39.325   5.512  78.205  1.00  0.00     0.180 C 
ATOM     31  C   UNL     1     -38.663   7.903  78.247  1.00  0.00     0.179 C 
ATOM     32  C   UNL     1     -38.677   6.685  77.404  1.00  0.00     0.177 C 
BRANCH  28  33
ATOM     33  O   UNL     1     -38.402   3.936  79.798  1.00  0.00    -0.384 OA
ATOM     34  H   UNL     1     -37.922   4.002  80.684  1.00  0.00     0.211 HD
ENDBRANCH  28  33
BRANCH  30  35
ATOM     35  O   UNL     1     -39.942   4.614  77.292  1.00  0.00    -0.387 OA
ATOM     36  H   UNL     1     -39.505   4.805  76.374  1.00  0.00     0.211 HD
ENDBRANCH  30  35
BRANCH  31  37
ATOM     37  C   UNL     1     -40.075   8.538  78.445  1.00  0.00     0.191 C 
BRANCH  37  38
ATOM     38  O   UNL     1     -40.788   8.635  77.220  1.00  0.00    -0.394 OA
ATOM     39  H   UNL     1     -41.757   8.834  77.390  1.00  0.00     0.210 HD
ENDBRANCH  37  38
ENDBRANCH  31  37
BRANCH  32  40
ATOM     40  O   UNL     1     -39.005   6.750  76.060  1.00  0.00    -0.387 OA
ATOM     41  H   UNL     1     -38.138   6.288  75.673  1.00  0.00     0.211 HD
ENDBRANCH  32  40
ENDBRANCH   1  27
TORSDOF 12
ENDMDL
MODEL 8
REMARK VINA RESULT:    -6.585      2.553      5.708
REMARK INTER + INTRA:         -11.102
REMARK INTER:                  -9.376
REMARK INTRA:                  -1.726
REMARK UNBOUND:                -1.437
REMARK SMILES O=c1c(O[C@@H]2O[C@H](CO)[C@H](O)[C@@H](O)[C@@H]2O)c(-c2ccc(O)c(O)c2)oc2cc(O)cc(O)c12
REMARK SMILES IDX 4 1 3 2 16 3 25 4 2 5 26 6 1 7 33 8 27 9 31 10 28 11 30 12
REMARK SMILES IDX 17 13 18 14 19 15 20 16 24 17 22 18 21 19 23 21 32 23 29 25
REMARK SMILES IDX 5 27 14 28 6 29 12 30 7 31 10 32 15 33 13 35 8 37 9 38 11 40
REMARK H PARENT 21 20 23 22 32 24 29 26 15 34 13 36 9 39 11 41
REMARK Flexibility Score: inf
ROOT
ATOM      1  O   UNL     1     -38.236   6.113  81.435  1.00  0.00    -0.454 OA
ENDROOT
BRANCH   1   2
ATOM      2  C   UNL     1     -37.340   5.216  80.644  1.00  0.00     0.214 A 
ATOM      3  C   UNL     1     -36.091   5.766  80.343  1.00  0.00     0.180 A 
ATOM      4  O   UNL     1     -36.061   6.433  79.208  1.00  0.00    -0.452 OA
ATOM      5  C   UNL     1     -38.035   4.565  79.539  1.00  0.00     0.239 A 
ATOM      6  C   UNL     1     -37.148   6.505  78.342  1.00  0.00     0.146 A 
ATOM      7  O   UNL     1     -37.605   3.665  78.754  1.00  0.00    -0.285 OA
ATOM      8  C   UNL     1     -38.255   5.569  78.579  1.00  0.00     0.111 A 
ATOM      9  C   UNL     1     -37.143   7.392  77.309  1.00  0.00     0.094 A 
ATOM     10  C   UNL     1     -39.242   5.521  77.624  1.00  0.00     0.134 A 
ATOM     11  C   UNL     1     -38.322   7.505  76.541  1.00  0.00     0.123 A 
ATOM     12  C   UNL     1     -39.370   6.556  76.687  1.00  0.00     0.093 A 
BRANCH   3  13
ATOM     13  C   UNL     1     -35.033   5.791  81.370  1.00  0.00     0.025 A 
ATOM     14  C   UNL     1     -34.862   6.849  82.267  1.00  0.00     0.016 A 
ATOM     15  C   UNL     1     -34.330   6.597  83.539  1.00  0.00     0.051 A 
ATOM     16  C   UNL     1     -33.981   5.288  83.911  1.00  0.00     0.157 A 
ATOM     17  C   UNL     1     -34.422   4.545  81.662  1.00  0.00     0.062 A 
ATOM     18  C   UNL     1     -33.944   4.318  82.917  1.00  0.00     0.158 A 
BRANCH  16  19
ATOM     19  O   UNL     1     -33.462   5.005  85.118  1.00  0.00    -0.504 OA
ATOM     20  H   UNL     1     -32.626   4.434  85.150  1.00  0.00     0.293 HD
ENDBRANCH  16  19
BRANCH  18  21
ATOM     21  O   UNL     1     -33.489   3.009  83.263  1.00  0.00    -0.504 OA
ATOM     22  H   UNL     1     -33.500   2.677  84.241  1.00  0.00     0.293 HD
ENDBRANCH  18  21
ENDBRANCH   3  13
BRANCH  10  23
ATOM     23  O   UNL     1     -40.204   4.442  77.600  1.00  0.00    -0.507 OA
ATOM     24  H   UNL     1     -40.468   3.895  76.774  1.00  0.00     0.293 HD
ENDBRANCH  10  23
BRANCH  11  25
ATOM     25  O   UNL     1     -38.556   8.620  75.747  1.00  0.00    -0.508 OA
ATOM     26  H   UNL     1     -39.290   8.553  75.040  1.00  0.00     0.293 HD
ENDBRANCH  11  25
ENDBRANCH   1   2
BRANCH   1  27
ATOM     27  C   UNL     1     -38.970   5.785  82.641  1.00  0.00     0.339 C 
ATOM     28  C   UNL     1     -40.301   4.817  82.356  1.00  0.00     0.214 C 
ATOM     29  O   UNL     1     -37.939   5.300  83.489  1.00  0.00    -0.332 OA
ATOM     30  C   UNL     1     -39.911   3.406  82.742  1.00  0.00     0.180 C 
ATOM     31  C   UNL     1     -38.138   4.101  84.332  1.00  0.00     0.179 C 
ATOM     32  C   UNL     1     -39.533   3.612  84.242  1.00  0.00     0.177 C 
BRANCH  28  33
ATOM     33  O   UNL     1     -40.740   4.936  81.055  1.00  0.00    -0.384 OA
ATOM     34  H   UNL     1     -41.748   4.975  81.015  1.00  0.00     0.211 HD
ENDBRANCH  28  33
BRANCH  30  35
ATOM     35  O   UNL     1     -40.885   2.375  82.647  1.00  0.00    -0.387 OA
ATOM     36  H   UNL     1     -40.489   1.676  81.995  1.00  0.00     0.211 HD
ENDBRANCH  30  35
BRANCH  31  37
ATOM     37  C   UNL     1     -37.074   3.009  83.997  1.00  0.00     0.191 C 
BRANCH  37  38
ATOM     38  O   UNL     1     -37.507   1.712  84.383  1.00  0.00    -0.394 OA
ATOM     39  H   UNL     1     -38.228   1.383  83.767  1.00  0.00     0.210 HD
ENDBRANCH  37  38
ENDBRANCH  31  37
BRANCH  32  40
ATOM     40  O   UNL     1     -40.015   2.656  85.122  1.00  0.00    -0.387 OA
ATOM     41  H   UNL     1     -41.037   2.720  84.866  1.00  0.00     0.211 HD
ENDBRANCH  32  40
ENDBRANCH   1  27
TORSDOF 12
ENDMDL
MODEL 9
REMARK VINA RESULT:    -6.567      1.989      6.256
REMARK INTER + INTRA:         -11.074
REMARK INTER:                  -9.345
REMARK INTRA:                  -1.729
REMARK UNBOUND:                -1.437
REMARK SMILES O=c1c(O[C@@H]2O[C@H](CO)[C@H](O)[C@@H](O)[C@@H]2O)c(-c2ccc(O)c(O)c2)oc2cc(O)cc(O)c12
REMARK SMILES IDX 4 1 3 2 16 3 25 4 2 5 26 6 1 7 33 8 27 9 31 10 28 11 30 12
REMARK SMILES IDX 17 13 18 14 19 15 20 16 24 17 22 18 21 19 23 21 32 23 29 25
REMARK SMILES IDX 5 27 14 28 6 29 12 30 7 31 10 32 15 33 13 35 8 37 9 38 11 40
REMARK H PARENT 21 20 23 22 32 24 29 26 15 34 13 36 9 39 11 41
REMARK Flexibility Score: inf
ROOT
ATOM      1  O   UNL     1     -38.918   5.572  80.740  1.00  0.00    -0.454 OA
ENDROOT
BRANCH   1   2
ATOM      2  C   UNL     1     -38.156   6.782  81.175  1.00  0.00     0.214 A 
ATOM      3  C   UNL     1     -37.106   7.141  80.326  1.00  0.00     0.180 A 
ATOM      4  O   UNL     1     -35.956   6.577  80.631  1.00  0.00    -0.452 OA
ATOM      5  C   UNL     1     -37.847   6.766  82.601  1.00  0.00     0.239 A 
ATOM      6  C   UNL     1     -35.780   5.771  81.752  1.00  0.00     0.146 A 
ATOM      7  O   UNL     1     -37.323   7.680  83.307  1.00  0.00    -0.285 OA
ATOM      8  C   UNL     1     -36.844   5.795  82.765  1.00  0.00     0.111 A 
ATOM      9  C   UNL     1     -34.648   5.029  81.892  1.00  0.00     0.094 A 
ATOM     10  C   UNL     1     -36.590   5.139  83.946  1.00  0.00     0.134 A 
ATOM     11  C   UNL     1     -34.582   4.139  82.986  1.00  0.00     0.123 A 
ATOM     12  C   UNL     1     -35.548   4.205  84.026  1.00  0.00     0.093 A 
BRANCH   3  13
ATOM     13  C   UNL     1     -37.390   7.864  79.072  1.00  0.00     0.025 A 
ATOM     14  C   UNL     1     -37.006   7.393  77.814  1.00  0.00     0.016 A 
ATOM     15  C   UNL     1     -37.778   7.718  76.689  1.00  0.00     0.051 A 
ATOM     16  C   UNL     1     -38.933   8.503  76.831  1.00  0.00     0.157 A 
ATOM     17  C   UNL     1     -38.385   8.871  79.148  1.00  0.00     0.062 A 
ATOM     18  C   UNL     1     -39.142   9.140  78.047  1.00  0.00     0.158 A 
BRANCH  16  19
ATOM     19  O   UNL     1     -39.697   8.842  75.778  1.00  0.00    -0.504 OA
ATOM     20  H   UNL     1     -40.539   8.305  75.613  1.00  0.00     0.293 HD
ENDBRANCH  16  19
BRANCH  18  21
ATOM     21  O   UNL     1     -40.257  10.025  78.169  1.00  0.00    -0.504 OA
ATOM     22  H   UNL     1     -40.650  10.270  79.092  1.00  0.00     0.293 HD
ENDBRANCH  18  21
ENDBRANCH   3  13
BRANCH  10  23
ATOM     23  O   UNL     1     -37.423   5.349  85.109  1.00  0.00    -0.507 OA
ATOM     24  H   UNL     1     -38.444   5.247  85.139  1.00  0.00     0.293 HD
ENDBRANCH  10  23
BRANCH  11  25
ATOM     25  O   UNL     1     -33.678   3.085  82.998  1.00  0.00    -0.508 OA
ATOM     26  H   UNL     1     -32.888   3.145  83.644  1.00  0.00     0.293 HD
ENDBRANCH  11  25
ENDBRANCH   1   2
BRANCH   1  27
ATOM     27  C   UNL     1     -39.443   5.289  79.419  1.00  0.00     0.339 C 
ATOM     28  C   UNL     1     -38.587   4.103  78.613  1.00  0.00     0.214 C 
ATOM     29  O   UNL     1     -40.820   5.076  79.690  1.00  0.00    -0.332 OA
ATOM     30  C   UNL     1     -39.394   2.826  78.720  1.00  0.00     0.180 C 
ATOM     31  C   UNL     1     -41.569   3.975  79.045  1.00  0.00     0.179 C 
ATOM     32  C   UNL     1     -40.730   3.274  78.047  1.00  0.00     0.177 C 
BRANCH  28  33
ATOM     33  O   UNL     1     -37.303   3.991  79.099  1.00  0.00    -0.384 OA
ATOM     34  H   UNL     1     -37.110   3.047  79.400  1.00  0.00     0.211 HD
ENDBRANCH  28  33
BRANCH  30  35
ATOM     35  O   UNL     1     -38.917   1.657  78.069  1.00  0.00    -0.387 OA
ATOM     36  H   UNL     1     -37.886   1.687  78.164  1.00  0.00     0.211 HD
ENDBRANCH  30  35
BRANCH  31  37
ATOM     37  C   UNL     1     -42.185   3.024  80.119  1.00  0.00     0.191 C 
BRANCH  37  38
ATOM     38  O   UNL     1     -42.744   1.857  79.533  1.00  0.00    -0.394 OA
ATOM     39  H   UNL     1     -43.746   1.886  79.574  1.00  0.00     0.210 HD
ENDBRANCH  37  38
ENDBRANCH  31  37
BRANCH  32  40
ATOM     40  O   UNL     1     -41.284   2.373  77.152  1.00  0.00    -0.387 OA
ATOM     41  H   UNL     1     -41.460   3.044  76.356  1.00  0.00     0.211 HD
ENDBRANCH  32  40
ENDBRANCH   1  27
TORSDOF 12
ENDMDL
