MODEL 1
REMARK VINA RESULT:    -0.851      0.000      0.000
REMARK INTER + INTRA:          -0.851
REMARK INTER:                  -0.851
REMARK INTRA:                   0.000
REMARK UNBOUND:                 0.000
REMARK SMILES CC(=O)[O-]
REMARK SMILES IDX 1 1 2 2 3 3 4 4
REMARK H PARENT
REMARK Flexibility Score: inf
ROOT
ATOM      1  C   UNL     1       9.359  46.597  25.105  1.00  0.00     0.063 C 
ATOM      2  C   UNL     1       8.372  45.488  24.958  1.00  0.00     0.038 C 
ATOM      3  O   UNL     1       8.013  45.108  23.814  1.00  0.00    -0.550 OA
ATOM      4  O   UNL     1       7.888  44.835  26.085  1.00  0.00    -0.550 OA
ENDROOT
TORSDOF 0
ENDMDL
MODEL 2
REMARK VINA RESULT:    -0.840      0.566      1.693
REMARK INTER + INTRA:          -0.840
REMARK INTER:                  -0.840
REMARK INTRA:                   0.000
REMARK UNBOUND:                 0.000
REMARK SMILES CC(=O)[O-]
REMARK SMILES IDX 1 1 2 2 3 3 4 4
REMARK H PARENT
REMARK Flexibility Score: inf
ROOT
ATOM      1  C   UNL     1       9.351  46.284  24.493  1.00  0.00     0.063 C 
ATOM      2  C   UNL     1       8.360  45.174  24.599  1.00  0.00     0.038 C 
ATOM      3  O   UNL     1       7.921  44.823  25.725  1.00  0.00    -0.550 OA
ATOM      4  O   UNL     1       7.876  44.562  23.449  1.00  0.00    -0.550 OA
ENDROOT
TORSDOF 0
ENDMDL
MODEL 3
REMARK VINA RESULT:    -0.812     10.328     10.901
REMARK INTER + INTRA:          -0.812
REMARK INTER:                  -0.812
REMARK INTRA:                   0.000
REMARK UNBOUND:                 0.000
REMARK SMILES CC(=O)[O-]
REMARK SMILES IDX 1 1 2 2 3 3 4 4
REMARK H PARENT
REMARK Flexibility Score: inf
ROOT
ATOM      1  C   UNL     1      11.531  45.720  36.708  1.00  0.00     0.063 C 
ATOM      2  C   UNL     1      11.659  45.661  35.223  1.00  0.00     0.038 C 
ATOM      3  O   UNL     1      12.532  44.926  34.693  1.00  0.00    -0.550 OA
ATOM      4  O   UNL     1      10.779  46.375  34.420  1.00  0.00    -0.550 OA
ENDROOT
TORSDOF 0
ENDMDL
MODEL 4
REMARK VINA RESULT:    -0.806     10.268     10.934
REMARK INTER + INTRA:          -0.806
REMARK INTER:                  -0.806
REMARK INTRA:                   0.000
REMARK UNBOUND:                 0.000
REMARK SMILES CC(=O)[O-]
REMARK SMILES IDX 1 1 2 2 3 3 4 4
REMARK H PARENT
REMARK Flexibility Score: inf
ROOT
ATOM      1  C   UNL     1      10.939  46.498  34.473  1.00  0.00     0.063 C 
ATOM      2  C   UNL     1      11.829  45.581  35.242  1.00  0.00     0.038 C 
ATOM      3  O   UNL     1      11.744  45.522  36.496  1.00  0.00    -0.550 OA
ATOM      4  O   UNL     1      12.717  44.749  34.571  1.00  0.00    -0.550 OA
ENDROOT
TORSDOF 0
ENDMDL
MODEL 5
REMARK VINA RESULT:    -0.802     10.440     11.013
REMARK INTER + INTRA:          -0.802
REMARK INTER:                  -0.802
REMARK INTRA:                   0.000
REMARK UNBOUND:                 0.000
REMARK SMILES CC(=O)[O-]
REMARK SMILES IDX 1 1 2 2 3 3 4 4
REMARK H PARENT
REMARK Flexibility Score: inf
ROOT
ATOM      1  C   UNL     1      12.005  45.438  34.973  1.00  0.00     0.063 C 
ATOM      2  C   UNL     1      13.335  44.853  34.637  1.00  0.00     0.038 C 
ATOM      3  O   UNL     1      14.360  45.206  35.276  1.00  0.00    -0.550 OA
ATOM      4  O   UNL     1      13.437  43.876  33.654  1.00  0.00    -0.550 OA
ENDROOT
TORSDOF 0
ENDMDL
MODEL 6
REMARK VINA RESULT:    -0.774     10.428     11.084
REMARK INTER + INTRA:          -0.774
REMARK INTER:                  -0.774
REMARK INTRA:                   0.000
REMARK UNBOUND:                 0.000
REMARK SMILES CC(=O)[O-]
REMARK SMILES IDX 1 1 2 2 3 3 4 4
REMARK H PARENT
REMARK Flexibility Score: inf
ROOT
ATOM      1  C   UNL     1      13.600  44.239  33.779  1.00  0.00     0.063 C 
ATOM      2  C   UNL     1      13.041  45.025  34.918  1.00  0.00     0.038 C 
ATOM      3  O   UNL     1      13.787  45.380  35.867  1.00  0.00    -0.550 OA
ATOM      4  O   UNL     1      11.708  45.414  34.906  1.00  0.00    -0.550 OA
ENDROOT
TORSDOF 0
ENDMDL
MODEL 7
REMARK VINA RESULT:    -0.754      2.216      2.365
REMARK INTER + INTRA:          -0.754
REMARK INTER:                  -0.754
REMARK INTRA:                   0.000
REMARK UNBOUND:                 0.000
REMARK SMILES CC(=O)[O-]
REMARK SMILES IDX 1 1 2 2 3 3 4 4
REMARK H PARENT
REMARK Flexibility Score: inf
ROOT
ATOM      1  C   UNL     1       8.095  45.275  25.319  1.00  0.00     0.063 C 
ATOM      2  C   UNL     1       8.350  45.959  26.620  1.00  0.00     0.038 C 
ATOM      3  O   UNL     1       8.952  47.063  26.646  1.00  0.00    -0.550 OA
ATOM      4  O   UNL     1       7.875  45.404  27.802  1.00  0.00    -0.550 OA
ENDROOT
TORSDOF 0
ENDMDL
MODEL 8
REMARK VINA RESULT:    -0.686      6.778      7.022
REMARK INTER + INTRA:          -0.686
REMARK INTER:                  -0.686
REMARK INTRA:                   0.000
REMARK UNBOUND:                 0.000
REMARK SMILES CC(=O)[O-]
REMARK SMILES IDX 1 1 2 2 3 3 4 4
REMARK H PARENT
REMARK Flexibility Score: inf
ROOT
ATOM      1  C   UNL     1      14.348  45.649  29.032  1.00  0.00     0.063 C 
ATOM      2  C   UNL     1      13.246  45.160  29.911  1.00  0.00     0.038 C 
ATOM      3  O   UNL     1      12.247  45.891  30.139  1.00  0.00    -0.550 OA
ATOM      4  O   UNL     1      13.295  43.875  30.437  1.00  0.00    -0.550 OA
ENDROOT
TORSDOF 0
ENDMDL
