MODEL 1
REMARK VINA RESULT:    -6.106      0.000      0.000
REMARK INTER + INTRA:          -8.574
REMARK INTER:                  -8.248
REMARK INTRA:                  -0.326
REMARK UNBOUND:                -0.326
REMARK SMILES CCCCCCC=CC(=O)[O-]
REMARK SMILES IDX 5 1 6 2 7 3 8 4 9 5 10 6 11 7 4 8 3 9 2 10 1 11
REMARK H PARENT
REMARK Flexibility Score: inf
ROOT
ATOM      1  C   UNL     1       5.467  -1.794  -2.981  1.00  0.00     0.004 C 
ENDROOT
BRANCH   1   2
ATOM      2  C   UNL     1       4.153  -1.086  -2.617  1.00  0.00     0.027 C 
BRANCH   2   3
ATOM      3  C   UNL     1       3.750  -0.110  -3.685  1.00  0.00    -0.025 C 
ATOM      4  C   UNL     1       4.581   0.216  -4.682  1.00  0.00     0.020 C 
BRANCH   4   5
ATOM      5  C   UNL     1       4.213   1.179  -5.732  1.00  0.00     0.064 C 
ATOM      6  O   UNL     1       3.041   1.637  -5.816  1.00  0.00    -0.545 OA
ATOM      7  O   UNL     1       5.173   1.592  -6.647  1.00  0.00    -0.545 OA
ENDBRANCH   4   5
ENDBRANCH   2   3
ENDBRANCH   1   2
BRANCH   1   8
ATOM      8  C   UNL     1       5.494  -3.263  -2.530  1.00  0.00     0.000 C 
BRANCH   8   9
ATOM      9  C   UNL     1       4.095  -3.903  -2.523  1.00  0.00    -0.000 C 
BRANCH   9  10
ATOM     10  C   UNL     1       4.090  -5.310  -3.140  1.00  0.00    -0.003 C 
ATOM     11  C   UNL     1       2.685  -5.800  -3.490  1.00  0.00     0.004 C 
ENDBRANCH   9  10
ENDBRANCH   8   9
ENDBRANCH   1   8
TORSDOF 6
ENDMDL
MODEL 2
REMARK VINA RESULT:    -6.036      3.622      5.697
REMARK INTER + INTRA:          -8.480
REMARK INTER:                  -8.109
REMARK INTRA:                  -0.371
REMARK UNBOUND:                -0.326
REMARK SMILES CCCCCCC=CC(=O)[O-]
REMARK SMILES IDX 5 1 6 2 7 3 8 4 9 5 10 6 11 7 4 8 3 9 2 10 1 11
REMARK H PARENT
REMARK Flexibility Score: inf
ROOT
ATOM      1  C   UNL     1       5.606  -1.628  -2.793  1.00  0.00     0.004 C 
ENDROOT
BRANCH   1   2
ATOM      2  C   UNL     1       5.810  -3.114  -2.460  1.00  0.00     0.027 C 
BRANCH   2   3
ATOM      3  C   UNL     1       4.524  -3.880  -2.593  1.00  0.00    -0.025 C 
ATOM      4  C   UNL     1       4.469  -5.042  -3.254  1.00  0.00     0.020 C 
BRANCH   4   5
ATOM      5  C   UNL     1       3.218  -5.802  -3.408  1.00  0.00     0.064 C 
ATOM      6  O   UNL     1       2.981  -6.461  -4.456  1.00  0.00    -0.545 OA
ATOM      7  O   UNL     1       2.283  -5.792  -2.382  1.00  0.00    -0.545 OA
ENDBRANCH   4   5
ENDBRANCH   2   3
ENDBRANCH   1   2
BRANCH   1   8
ATOM      8  C   UNL     1       4.305  -1.061  -2.202  1.00  0.00     0.000 C 
BRANCH   8   9
ATOM      9  C   UNL     1       3.440  -0.350  -3.256  1.00  0.00    -0.000 C 
BRANCH   9  10
ATOM     10  C   UNL     1       4.281   0.293  -4.370  1.00  0.00    -0.003 C 
ATOM     11  C   UNL     1       3.439   0.762  -5.556  1.00  0.00     0.004 C 
ENDBRANCH   9  10
ENDBRANCH   8   9
ENDBRANCH   1   8
TORSDOF 6
ENDMDL
MODEL 3
REMARK VINA RESULT:    -5.776      3.018      4.514
REMARK INTER + INTRA:          -8.128
REMARK INTER:                  -7.870
REMARK INTRA:                  -0.257
REMARK UNBOUND:                -0.326
REMARK SMILES CCCCCCC=CC(=O)[O-]
REMARK SMILES IDX 5 1 6 2 7 3 8 4 9 5 10 6 11 7 4 8 3 9 2 10 1 11
REMARK H PARENT
REMARK Flexibility Score: inf
ROOT
ATOM      1  C   UNL     1       4.017   1.125  -5.362  1.00  0.00     0.004 C 
ENDROOT
BRANCH   1   2
ATOM      2  C   UNL     1       2.791   1.484  -6.216  1.00  0.00     0.027 C 
BRANCH   2   3
ATOM      3  C   UNL     1       1.620   0.605  -5.879  1.00  0.00    -0.025 C 
ATOM      4  C   UNL     1       0.720   0.256  -6.805  1.00  0.00     0.020 C 
BRANCH   4   5
ATOM      5  C   UNL     1      -0.441  -0.592  -6.495  1.00  0.00     0.064 C 
ATOM      6  O   UNL     1      -1.083  -1.180  -7.407  1.00  0.00    -0.545 OA
ATOM      7  O   UNL     1      -0.840  -0.747  -5.173  1.00  0.00    -0.545 OA
ENDBRANCH   4   5
ENDBRANCH   2   3
ENDBRANCH   1   2
BRANCH   1   8
ATOM      8  C   UNL     1       3.662   0.233  -4.161  1.00  0.00     0.000 C 
BRANCH   8   9
ATOM      9  C   UNL     1       4.842  -0.643  -3.709  1.00  0.00    -0.000 C 
BRANCH   9  10
ATOM     10  C   UNL     1       4.464  -1.589  -2.558  1.00  0.00    -0.003 C 
ATOM     11  C   UNL     1       5.208  -2.923  -2.616  1.00  0.00     0.004 C 
ENDBRANCH   9  10
ENDBRANCH   8   9
ENDBRANCH   1   8
TORSDOF 6
ENDMDL
MODEL 4
REMARK VINA RESULT:    -5.770      3.606      5.306
REMARK INTER + INTRA:          -8.120
REMARK INTER:                  -7.717
REMARK INTRA:                  -0.403
REMARK UNBOUND:                -0.326
REMARK SMILES CCCCCCC=CC(=O)[O-]
REMARK SMILES IDX 5 1 6 2 7 3 8 4 9 5 10 6 11 7 4 8 3 9 2 10 1 11
REMARK H PARENT
REMARK Flexibility Score: inf
ROOT
ATOM      1  C   UNL     1       4.862   2.042  -6.569  1.00  0.00     0.004 C 
ENDROOT
BRANCH   1   2
ATOM      2  C   UNL     1       4.107   3.215  -5.924  1.00  0.00     0.027 C 
BRANCH   2   3
ATOM      3  C   UNL     1       5.062   4.210  -5.328  1.00  0.00    -0.025 C 
ATOM      4  C   UNL     1       5.050   4.491  -4.020  1.00  0.00     0.020 C 
BRANCH   4   5
ATOM      5  C   UNL     1       5.966   5.472  -3.416  1.00  0.00     0.064 C 
ATOM      6  O   UNL     1       6.076   5.578  -2.165  1.00  0.00    -0.545 OA
ATOM      7  O   UNL     1       6.721   6.297  -4.239  1.00  0.00    -0.545 OA
ENDBRANCH   4   5
ENDBRANCH   2   3
ENDBRANCH   1   2
BRANCH   1   8
ATOM      8  C   UNL     1       4.169   0.690  -6.334  1.00  0.00     0.000 C 
BRANCH   8   9
ATOM      9  C   UNL     1       3.519   0.594  -4.944  1.00  0.00    -0.000 C 
BRANCH   9  10
ATOM     10  C   UNL     1       4.479   0.029  -3.885  1.00  0.00    -0.003 C 
ATOM     11  C   UNL     1       3.756  -0.721  -2.767  1.00  0.00     0.004 C 
ENDBRANCH   9  10
ENDBRANCH   8   9
ENDBRANCH   1   8
TORSDOF 6
ENDMDL
MODEL 5
REMARK VINA RESULT:    -5.715      5.080      7.032
REMARK INTER + INTRA:          -8.045
REMARK INTER:                  -7.920
REMARK INTRA:                  -0.125
REMARK UNBOUND:                -0.326
REMARK SMILES CCCCCCC=CC(=O)[O-]
REMARK SMILES IDX 5 1 6 2 7 3 8 4 9 5 10 6 11 7 4 8 3 9 2 10 1 11
REMARK H PARENT
REMARK Flexibility Score: inf
ROOT
ATOM      1  C   UNL     1       3.941   1.881  -5.513  1.00  0.00     0.004 C 
ENDROOT
BRANCH   1   2
ATOM      2  C   UNL     1       2.899   1.635  -6.615  1.00  0.00     0.027 C 
BRANCH   2   3
ATOM      3  C   UNL     1       1.815   0.710  -6.138  1.00  0.00    -0.025 C 
ATOM      4  C   UNL     1       0.754   0.426  -6.902  1.00  0.00     0.020 C 
BRANCH   4   5
ATOM      5  C   UNL     1      -0.326  -0.466  -6.451  1.00  0.00     0.064 C 
ATOM      6  O   UNL     1      -0.591  -0.602  -5.226  1.00  0.00    -0.545 OA
ATOM      7  O   UNL     1      -1.065  -1.171  -7.391  1.00  0.00    -0.545 OA
ENDBRANCH   4   5
ENDBRANCH   2   3
ENDBRANCH   1   2
BRANCH   1   8
ATOM      8  C   UNL     1       4.747   3.170  -5.737  1.00  0.00     0.000 C 
BRANCH   8   9
ATOM      9  C   UNL     1       4.707   4.110  -4.520  1.00  0.00    -0.000 C 
BRANCH   9  10
ATOM     10  C   UNL     1       5.922   5.049  -4.462  1.00  0.00    -0.003 C 
ATOM     11  C   UNL     1       6.108   5.696  -3.091  1.00  0.00     0.004 C 
ENDBRANCH   9  10
ENDBRANCH   8   9
ENDBRANCH   1   8
TORSDOF 6
ENDMDL
MODEL 6
REMARK VINA RESULT:    -5.713      4.013      5.642
REMARK INTER + INTRA:          -8.042
REMARK INTER:                  -7.372
REMARK INTRA:                  -0.670
REMARK UNBOUND:                -0.326
REMARK SMILES CCCCCCC=CC(=O)[O-]
REMARK SMILES IDX 5 1 6 2 7 3 8 4 9 5 10 6 11 7 4 8 3 9 2 10 1 11
REMARK H PARENT
REMARK Flexibility Score: inf
ROOT
ATOM      1  C   UNL     1       3.023   0.773  -7.600  1.00  0.00     0.004 C 
ENDROOT
BRANCH   1   2
ATOM      2  C   UNL     1       1.989   1.767  -7.049  1.00  0.00     0.027 C 
BRANCH   2   3
ATOM      3  C   UNL     1       0.727   1.063  -6.639  1.00  0.00    -0.025 C 
ATOM      4  C   UNL     1       0.497  -0.211  -6.977  1.00  0.00     0.020 C 
BRANCH   4   5
ATOM      5  C   UNL     1      -0.737  -0.917  -6.598  1.00  0.00     0.064 C 
ATOM      6  O   UNL     1      -1.138  -0.934  -5.403  1.00  0.00    -0.545 OA
ATOM      7  O   UNL     1      -1.473  -1.576  -7.573  1.00  0.00    -0.545 OA
ENDBRANCH   4   5
ENDBRANCH   2   3
ENDBRANCH   1   2
BRANCH   1   8
ATOM      8  C   UNL     1       4.295   0.704  -6.740  1.00  0.00     0.000 C 
BRANCH   8   9
ATOM      9  C   UNL     1       4.102   1.329  -5.349  1.00  0.00    -0.000 C 
BRANCH   9  10
ATOM     10  C   UNL     1       4.162   0.286  -4.222  1.00  0.00    -0.003 C 
ATOM     11  C   UNL     1       2.786  -0.265  -3.848  1.00  0.00     0.004 C 
ENDBRANCH   9  10
ENDBRANCH   8   9
ENDBRANCH   1   8
TORSDOF 6
ENDMDL
MODEL 7
REMARK VINA RESULT:    -5.680      3.412      5.288
REMARK INTER + INTRA:          -7.998
REMARK INTER:                  -7.590
REMARK INTRA:                  -0.408
REMARK UNBOUND:                -0.326
REMARK SMILES CCCCCCC=CC(=O)[O-]
REMARK SMILES IDX 5 1 6 2 7 3 8 4 9 5 10 6 11 7 4 8 3 9 2 10 1 11
REMARK H PARENT
REMARK Flexibility Score: inf
ROOT
ATOM      1  C   UNL     1       3.338   0.591  -6.871  1.00  0.00     0.004 C 
ENDROOT
BRANCH   1   2
ATOM      2  C   UNL     1       3.227   1.076  -5.418  1.00  0.00     0.027 C 
BRANCH   2   3
ATOM      3  C   UNL     1       4.151   0.305  -4.518  1.00  0.00    -0.025 C 
ATOM      4  C   UNL     1       3.695  -0.345  -3.442  1.00  0.00     0.020 C 
BRANCH   4   5
ATOM      5  C   UNL     1       4.583  -1.095  -2.539  1.00  0.00     0.064 C 
ATOM      6  O   UNL     1       4.647  -0.821  -1.311  1.00  0.00    -0.545 OA
ATOM      7  O   UNL     1       5.365  -2.123  -3.050  1.00  0.00    -0.545 OA
ENDBRANCH   4   5
ENDBRANCH   2   3
ENDBRANCH   1   2
BRANCH   1   8
ATOM      8  C   UNL     1       1.972   0.246  -7.487  1.00  0.00     0.000 C 
BRANCH   8   9
ATOM      9  C   UNL     1       0.797   0.685  -6.597  1.00  0.00    -0.000 C 
BRANCH   9  10
ATOM     10  C   UNL     1      -0.349  -0.340  -6.589  1.00  0.00    -0.003 C 
ATOM     11  C   UNL     1      -0.745  -0.777  -5.179  1.00  0.00     0.004 C 
ENDBRANCH   9  10
ENDBRANCH   8   9
ENDBRANCH   1   8
TORSDOF 6
ENDMDL
MODEL 8
REMARK VINA RESULT:    -5.582      3.340      5.502
REMARK INTER + INTRA:          -7.865
REMARK INTER:                  -7.513
REMARK INTRA:                  -0.352
REMARK UNBOUND:                -0.326
REMARK SMILES CCCCCCC=CC(=O)[O-]
REMARK SMILES IDX 5 1 6 2 7 3 8 4 9 5 10 6 11 7 4 8 3 9 2 10 1 11
REMARK H PARENT
REMARK Flexibility Score: inf
ROOT
ATOM      1  C   UNL     1       3.899   1.404  -5.203  1.00  0.00     0.004 C 
ENDROOT
BRANCH   1   2
ATOM      2  C   UNL     1       3.570   0.223  -4.278  1.00  0.00     0.027 C 
BRANCH   2   3
ATOM      3  C   UNL     1       4.822  -0.453  -3.795  1.00  0.00    -0.025 C 
ATOM      4  C   UNL     1       4.773  -1.505  -2.971  1.00  0.00     0.020 C 
BRANCH   4   5
ATOM      5  C   UNL     1       5.986  -2.175  -2.475  1.00  0.00     0.064 C 
ATOM      6  O   UNL     1       6.932  -1.516  -1.964  1.00  0.00    -0.545 OA
ATOM      7  O   UNL     1       6.092  -3.556  -2.574  1.00  0.00    -0.545 OA
ENDBRANCH   4   5
ENDBRANCH   2   3
ENDBRANCH   1   2
BRANCH   1   8
ATOM      8  C   UNL     1       4.057   0.981  -6.672  1.00  0.00     0.000 C 
BRANCH   8   9
ATOM      9  C   UNL     1       2.801   0.283  -7.222  1.00  0.00    -0.000 C 
BRANCH   9  10
ATOM     10  C   UNL     1       1.535   1.137  -7.057  1.00  0.00    -0.003 C 
ATOM     11  C   UNL     1       0.336   0.332  -6.558  1.00  0.00     0.004 C 
ENDBRANCH   9  10
ENDBRANCH   8   9
ENDBRANCH   1   8
TORSDOF 6
ENDMDL
MODEL 9
REMARK VINA RESULT:    -5.480      1.506      2.505
REMARK INTER + INTRA:          -7.728
REMARK INTER:                  -7.466
REMARK INTRA:                  -0.262
REMARK UNBOUND:                -0.326
REMARK SMILES CCCCCCC=CC(=O)[O-]
REMARK SMILES IDX 5 1 6 2 7 3 8 4 9 5 10 6 11 7 4 8 3 9 2 10 1 11
REMARK H PARENT
REMARK Flexibility Score: inf
ROOT
ATOM      1  C   UNL     1       3.518  -0.563  -3.187  1.00  0.00     0.004 C 
ENDROOT
BRANCH   1   2
ATOM      2  C   UNL     1       4.150   0.579  -3.997  1.00  0.00     0.027 C 
BRANCH   2   3
ATOM      3  C   UNL     1       3.646   0.582  -5.412  1.00  0.00    -0.025 C 
ATOM      4  C   UNL     1       4.487   0.548  -6.453  1.00  0.00     0.020 C 
BRANCH   4   5
ATOM      5  C   UNL     1       4.017   0.563  -7.847  1.00  0.00     0.064 C 
ATOM      6  O   UNL     1       4.650   1.184  -8.742  1.00  0.00    -0.545 OA
ATOM      7  O   UNL     1       2.853  -0.117  -8.182  1.00  0.00    -0.545 OA
ENDBRANCH   4   5
ENDBRANCH   2   3
ENDBRANCH   1   2
BRANCH   1   8
ATOM      8  C   UNL     1       4.478  -1.149  -2.139  1.00  0.00     0.000 C 
BRANCH   8   9
ATOM      9  C   UNL     1       5.670  -1.882  -2.777  1.00  0.00    -0.000 C 
BRANCH   9  10
ATOM     10  C   UNL     1       5.636  -3.396  -2.516  1.00  0.00    -0.003 C 
ATOM     11  C   UNL     1       4.219  -3.968  -2.519  1.00  0.00     0.004 C 
ENDBRANCH   9  10
ENDBRANCH   8   9
ENDBRANCH   1   8
TORSDOF 6
ENDMDL
