MODEL 1
REMARK VINA RESULT:    -4.459      0.000      0.000
REMARK INTER + INTRA:         -14.698
REMARK INTER:                 -11.236
REMARK INTRA:                  -3.463
REMARK UNBOUND:                -3.463
REMARK SMILES CCCCCCCCCCCCCCCCCCCCCCCCCCCC(=O)[O-]
REMARK SMILES IDX 15 1 16 2 17 3 18 4 19 5 20 6 21 7 22 8 23 9 24 10 25 11
REMARK SMILES IDX 26 12 27 13 28 14 29 15 30 16 14 17 13 18 12 19 11 20 10 21
REMARK SMILES IDX 9 22 8 23 7 24 6 25 5 26 4 27 3 28 2 29 1 30
REMARK H PARENT
REMARK Flexibility Score: inf
ROOT
ATOM      1  C   UNL     1      15.346 128.109  56.224  1.00  0.00     0.000 C 
ENDROOT
BRANCH   1   2
ATOM      2  C   UNL     1      14.757 129.079  55.177  1.00  0.00     0.000 C 
BRANCH   2   3
ATOM      3  C   UNL     1      14.981 128.633  53.720  1.00  0.00     0.000 C 
BRANCH   3   4
ATOM      4  C   UNL     1      16.319 127.894  53.487  1.00  0.00     0.000 C 
BRANCH   4   5
ATOM      5  C   UNL     1      17.399 128.720  52.756  1.00  0.00     0.000 C 
BRANCH   5   6
ATOM      6  C   UNL     1      18.330 129.546  53.667  1.00  0.00     0.000 C 
BRANCH   6   7
ATOM      7  C   UNL     1      18.619 128.864  55.017  1.00  0.00     0.000 C 
BRANCH   7   8
ATOM      8  C   UNL     1      19.736 129.557  55.812  1.00  0.00     0.000 C 
BRANCH   8   9
ATOM      9  C   UNL     1      20.047 130.972  55.292  1.00  0.00     0.000 C 
BRANCH   9  10
ATOM     10  C   UNL     1      19.174 132.042  55.970  1.00  0.00     0.000 C 
BRANCH  10  11
ATOM     11  C   UNL     1      19.932 133.366  56.176  1.00  0.00     0.000 C 
BRANCH  11  12
ATOM     12  C   UNL     1      19.330 134.213  57.309  1.00  0.00     0.006 C 
BRANCH  12  13
ATOM     13  C   UNL     1      19.519 133.560  58.687  1.00  0.00     0.053 C 
BRANCH  13  14
ATOM     14  C   UNL     1      18.668 134.246  59.711  1.00  0.00     0.041 C 
ATOM     15  O   UNL     1      19.204 134.902  60.643  1.00  0.00    -0.550 OA
ATOM     16  O   UNL     1      17.286 134.109  59.671  1.00  0.00    -0.550 OA
ENDBRANCH  13  14
ENDBRANCH  12  13
ENDBRANCH  11  12
ENDBRANCH  10  11
ENDBRANCH   9  10
ENDBRANCH   8   9
ENDBRANCH   7   8
ENDBRANCH   6   7
ENDBRANCH   5   6
ENDBRANCH   4   5
ENDBRANCH   3   4
ENDBRANCH   2   3
ENDBRANCH   1   2
BRANCH   1  17
ATOM     17  C   UNL     1      15.742 128.804  57.542  1.00  0.00     0.000 C 
BRANCH  17  18
ATOM     18  C   UNL     1      15.598 130.337  57.499  1.00  0.00     0.000 C 
BRANCH  18  19
ATOM     19  C   UNL     1      16.723 131.057  58.266  1.00  0.00     0.000 C 
BRANCH  19  20
ATOM     20  C   UNL     1      17.776 130.079  58.815  1.00  0.00     0.000 C 
BRANCH  20  21
ATOM     21  C   UNL     1      18.112 130.340  60.293  1.00  0.00     0.000 C 
BRANCH  21  22
ATOM     22  C   UNL     1      19.300 129.496  60.789  1.00  0.00    -0.000 C 
BRANCH  22  23
ATOM     23  C   UNL     1      19.092 128.829  62.165  1.00  0.00    -0.000 C 
BRANCH  23  24
ATOM     24  C   UNL     1      18.144 129.582  63.122  1.00  0.00    -0.000 C 
BRANCH  24  25
ATOM     25  C   UNL     1      17.085 128.700  63.806  1.00  0.00    -0.000 C 
BRANCH  25  26
ATOM     26  C   UNL     1      16.521 127.617  62.871  1.00  0.00    -0.000 C 
BRANCH  26  27
ATOM     27  C   UNL     1      16.595 126.211  63.485  1.00  0.00    -0.000 C 
BRANCH  27  28
ATOM     28  C   UNL     1      17.421 125.237  62.629  1.00  0.00    -0.000 C 
BRANCH  28  29
ATOM     29  C   UNL     1      18.922 125.507  62.784  1.00  0.00    -0.003 C 
ATOM     30  C   UNL     1      19.739 124.245  62.521  1.00  0.00     0.004 C 
ENDBRANCH  28  29
ENDBRANCH  27  28
ENDBRANCH  26  27
ENDBRANCH  25  26
ENDBRANCH  24  25
ENDBRANCH  23  24
ENDBRANCH  22  23
ENDBRANCH  21  22
ENDBRANCH  20  21
ENDBRANCH  19  20
ENDBRANCH  18  19
ENDBRANCH  17  18
ENDBRANCH   1  17
TORSDOF 26
ENDMDL
MODEL 2
REMARK VINA RESULT:    -4.330      2.901      7.844
REMARK INTER + INTRA:         -14.374
REMARK INTER:                  -8.463
REMARK INTRA:                  -5.911
REMARK UNBOUND:                -3.463
REMARK SMILES CCCCCCCCCCCCCCCCCCCCCCCCCCCC(=O)[O-]
REMARK SMILES IDX 15 1 16 2 17 3 18 4 19 5 20 6 21 7 22 8 23 9 24 10 25 11
REMARK SMILES IDX 26 12 27 13 28 14 29 15 30 16 14 17 13 18 12 19 11 20 10 21
REMARK SMILES IDX 9 22 8 23 7 24 6 25 5 26 4 27 3 28 2 29 1 30
REMARK H PARENT
REMARK Flexibility Score: inf
ROOT
ATOM      1  C   UNL     1      15.217 128.228  53.586  1.00  0.00     0.000 C 
ENDROOT
BRANCH   1   2
ATOM      2  C   UNL     1      16.729 127.916  53.591  1.00  0.00     0.000 C 
BRANCH   2   3
ATOM      3  C   UNL     1      17.428 128.242  54.924  1.00  0.00     0.000 C 
BRANCH   3   4
ATOM      4  C   UNL     1      18.837 128.857  54.761  1.00  0.00     0.000 C 
BRANCH   4   5
ATOM      5  C   UNL     1      19.342 129.657  55.981  1.00  0.00     0.000 C 
BRANCH   5   6
ATOM      6  C   UNL     1      19.543 131.168  55.745  1.00  0.00     0.000 C 
BRANCH   6   7
ATOM      7  C   UNL     1      18.637 132.045  56.627  1.00  0.00     0.000 C 
BRANCH   7   8
ATOM      8  C   UNL     1      17.142 131.845  56.336  1.00  0.00     0.000 C 
BRANCH   8   9
ATOM      9  C   UNL     1      16.312 131.609  57.611  1.00  0.00     0.000 C 
BRANCH   9  10
ATOM     10  C   UNL     1      16.018 130.116  57.841  1.00  0.00     0.000 C 
BRANCH  10  11
ATOM     11  C   UNL     1      17.074 129.448  58.740  1.00  0.00     0.000 C 
BRANCH  11  12
ATOM     12  C   UNL     1      17.674 130.426  59.763  1.00  0.00     0.006 C 
BRANCH  12  13
ATOM     13  C   UNL     1      19.085 130.010  60.207  1.00  0.00     0.053 C 
BRANCH  13  14
ATOM     14  C   UNL     1      19.015 129.149  61.431  1.00  0.00     0.041 C 
ATOM     15  O   UNL     1      19.934 128.323  61.675  1.00  0.00    -0.550 OA
ATOM     16  O   UNL     1      17.909 129.217  62.267  1.00  0.00    -0.550 OA
ENDBRANCH  13  14
ENDBRANCH  12  13
ENDBRANCH  11  12
ENDBRANCH  10  11
ENDBRANCH   9  10
ENDBRANCH   8   9
ENDBRANCH   7   8
ENDBRANCH   6   7
ENDBRANCH   5   6
ENDBRANCH   4   5
ENDBRANCH   3   4
ENDBRANCH   2   3
ENDBRANCH   1   2
BRANCH   1  17
ATOM     17  C   UNL     1      14.796 129.218  54.690  1.00  0.00     0.000 C 
BRANCH  17  18
ATOM     18  C   UNL     1      13.915 130.374  54.180  1.00  0.00     0.000 C 
BRANCH  18  19
ATOM     19  C   UNL     1      12.898 129.917  53.117  1.00  0.00     0.000 C 
BRANCH  19  20
ATOM     20  C   UNL     1      12.908 130.820  51.872  1.00  0.00     0.000 C 
BRANCH  20  21
ATOM     21  C   UNL     1      14.226 131.598  51.716  1.00  0.00     0.000 C 
BRANCH  21  22
ATOM     22  C   UNL     1      15.219 130.899  50.769  1.00  0.00    -0.000 C 
BRANCH  22  23
ATOM     23  C   UNL     1      16.707 131.136  51.101  1.00  0.00    -0.000 C 
BRANCH  23  24
ATOM     24  C   UNL     1      17.005 131.470  52.577  1.00  0.00    -0.000 C 
BRANCH  24  25
ATOM     25  C   UNL     1      18.061 132.570  52.789  1.00  0.00    -0.000 C 
BRANCH  25  26
ATOM     26  C   UNL     1      17.454 133.982  52.793  1.00  0.00    -0.000 C 
BRANCH  26  27
ATOM     27  C   UNL     1      17.772 134.756  54.083  1.00  0.00    -0.000 C 
BRANCH  27  28
ATOM     28  C   UNL     1      16.507 135.265  54.791  1.00  0.00    -0.000 C 
BRANCH  28  29
ATOM     29  C   UNL     1      15.243 134.787  54.066  1.00  0.00    -0.003 C 
ATOM     30  C   UNL     1      14.429 133.839  54.944  1.00  0.00     0.004 C 
ENDBRANCH  28  29
ENDBRANCH  27  28
ENDBRANCH  26  27
ENDBRANCH  25  26
ENDBRANCH  24  25
ENDBRANCH  23  24
ENDBRANCH  22  23
ENDBRANCH  21  22
ENDBRANCH  20  21
ENDBRANCH  19  20
ENDBRANCH  18  19
ENDBRANCH  17  18
ENDBRANCH   1  17
TORSDOF 26
ENDMDL
MODEL 3
REMARK VINA RESULT:    -4.314      3.839      6.657
REMARK INTER + INTRA:         -14.333
REMARK INTER:                  -9.764
REMARK INTRA:                  -4.568
REMARK UNBOUND:                -3.463
REMARK SMILES CCCCCCCCCCCCCCCCCCCCCCCCCCCC(=O)[O-]
REMARK SMILES IDX 15 1 16 2 17 3 18 4 19 5 20 6 21 7 22 8 23 9 24 10 25 11
REMARK SMILES IDX 26 12 27 13 28 14 29 15 30 16 14 17 13 18 12 19 11 20 10 21
REMARK SMILES IDX 9 22 8 23 7 24 6 25 5 26 4 27 3 28 2 29 1 30
REMARK H PARENT
REMARK Flexibility Score: inf
ROOT
ATOM      1  C   UNL     1      18.716 128.689  55.085  1.00  0.00     0.000 C 
ENDROOT
BRANCH   1   2
ATOM      2  C   UNL     1      19.815 129.768  55.188  1.00  0.00     0.000 C 
BRANCH   2   3
ATOM      3  C   UNL     1      19.378 131.154  54.678  1.00  0.00     0.000 C 
BRANCH   3   4
ATOM      4  C   UNL     1      19.928 132.333  55.512  1.00  0.00     0.000 C 
BRANCH   4   5
ATOM      5  C   UNL     1      19.204 133.679  55.293  1.00  0.00     0.000 C 
BRANCH   5   6
ATOM      6  C   UNL     1      18.330 133.762  54.025  1.00  0.00     0.000 C 
BRANCH   6   7
ATOM      7  C   UNL     1      17.012 134.527  54.246  1.00  0.00     0.000 C 
BRANCH   7   8
ATOM      8  C   UNL     1      15.771 133.703  53.869  1.00  0.00     0.000 C 
BRANCH   8   9
ATOM      9  C   UNL     1      16.114 132.257  53.471  1.00  0.00     0.000 C 
BRANCH   9  10
ATOM     10  C   UNL     1      15.648 131.924  52.043  1.00  0.00     0.000 C 
BRANCH  10  11
ATOM     11  C   UNL     1      16.750 131.239  51.217  1.00  0.00     0.000 C 
BRANCH  11  12
ATOM     12  C   UNL     1      16.197 130.124  50.314  1.00  0.00     0.006 C 
BRANCH  12  13
ATOM     13  C   UNL     1      16.535 130.353  48.833  1.00  0.00     0.053 C 
BRANCH  13  14
ATOM     14  C   UNL     1      17.832 129.690  48.484  1.00  0.00     0.041 C 
ATOM     15  O   UNL     1      18.498 130.087  47.491  1.00  0.00    -0.550 OA
ATOM     16  O   UNL     1      18.274 128.598  49.219  1.00  0.00    -0.550 OA
ENDBRANCH  13  14
ENDBRANCH  12  13
ENDBRANCH  11  12
ENDBRANCH  10  11
ENDBRANCH   9  10
ENDBRANCH   8   9
ENDBRANCH   7   8
ENDBRANCH   6   7
ENDBRANCH   5   6
ENDBRANCH   4   5
ENDBRANCH   3   4
ENDBRANCH   2   3
ENDBRANCH   1   2
BRANCH   1  17
ATOM     17  C   UNL     1      17.742 128.923  53.913  1.00  0.00     0.000 C 
BRANCH  17  18
ATOM     18  C   UNL     1      16.597 127.894  53.846  1.00  0.00     0.000 C 
BRANCH  18  19
ATOM     19  C   UNL     1      15.212 128.557  53.736  1.00  0.00     0.000 C 
BRANCH  19  20
ATOM     20  C   UNL     1      14.767 129.205  55.058  1.00  0.00     0.000 C 
BRANCH  20  21
ATOM     21  C   UNL     1      15.169 128.373  56.289  1.00  0.00     0.000 C 
BRANCH  21  22
ATOM     22  C   UNL     1      15.380 129.238  57.545  1.00  0.00    -0.000 C 
BRANCH  22  23
ATOM     23  C   UNL     1      15.851 130.681  57.266  1.00  0.00    -0.000 C 
BRANCH  23  24
ATOM     24  C   UNL     1      17.275 131.013  57.758  1.00  0.00    -0.000 C 
BRANCH  24  25
ATOM     25  C   UNL     1      18.026 129.834  58.401  1.00  0.00    -0.000 C 
BRANCH  25  26
ATOM     26  C   UNL     1      18.815 130.246  59.655  1.00  0.00    -0.000 C 
BRANCH  26  27
ATOM     27  C   UNL     1      17.899 130.663  60.816  1.00  0.00    -0.000 C 
BRANCH  27  28
ATOM     28  C   UNL     1      17.522 129.481  61.723  1.00  0.00    -0.000 C 
BRANCH  28  29
ATOM     29  C   UNL     1      18.771 128.713  62.170  1.00  0.00    -0.003 C 
ATOM     30  C   UNL     1      18.395 127.442  62.927  1.00  0.00     0.004 C 
ENDBRANCH  28  29
ENDBRANCH  27  28
ENDBRANCH  26  27
ENDBRANCH  25  26
ENDBRANCH  24  25
ENDBRANCH  23  24
ENDBRANCH  22  23
ENDBRANCH  21  22
ENDBRANCH  20  21
ENDBRANCH  19  20
ENDBRANCH  18  19
ENDBRANCH  17  18
ENDBRANCH   1  17
TORSDOF 26
ENDMDL
MODEL 4
REMARK VINA RESULT:    -4.312      4.254      7.339
REMARK INTER + INTRA:         -14.330
REMARK INTER:                  -8.150
REMARK INTRA:                  -6.180
REMARK UNBOUND:                -3.463
REMARK SMILES CCCCCCCCCCCCCCCCCCCCCCCCCCCC(=O)[O-]
REMARK SMILES IDX 15 1 16 2 17 3 18 4 19 5 20 6 21 7 22 8 23 9 24 10 25 11
REMARK SMILES IDX 26 12 27 13 28 14 29 15 30 16 14 17 13 18 12 19 11 20 10 21
REMARK SMILES IDX 9 22 8 23 7 24 6 25 5 26 4 27 3 28 2 29 1 30
REMARK H PARENT
REMARK Flexibility Score: inf
ROOT
ATOM      1  C   UNL     1      18.943 129.496  55.408  1.00  0.00     0.000 C 
ENDROOT
BRANCH   1   2
ATOM      2  C   UNL     1      18.441 129.371  56.863  1.00  0.00     0.000 C 
BRANCH   2   3
ATOM      3  C   UNL     1      17.022 128.785  56.985  1.00  0.00     0.000 C 
BRANCH   3   4
ATOM      4  C   UNL     1      16.579 127.950  55.762  1.00  0.00     0.000 C 
BRANCH   4   5
ATOM      5  C   UNL     1      15.315 128.468  55.043  1.00  0.00     0.000 C 
BRANCH   5   6
ATOM      6  C   UNL     1      15.407 128.533  53.505  1.00  0.00     0.000 C 
BRANCH   6   7
ATOM      7  C   UNL     1      16.692 127.894  52.947  1.00  0.00     0.000 C 
BRANCH   7   8
ATOM      8  C   UNL     1      17.379 128.762  51.882  1.00  0.00     0.000 C 
BRANCH   8   9
ATOM      9  C   UNL     1      16.378 129.440  50.929  1.00  0.00     0.000 C 
BRANCH   9  10
ATOM     10  C   UNL     1      16.754 130.903  50.641  1.00  0.00     0.000 C 
BRANCH  10  11
ATOM     11  C   UNL     1      15.520 131.822  50.594  1.00  0.00     0.000 C 
BRANCH  11  12
ATOM     12  C   UNL     1      14.243 131.065  50.193  1.00  0.00     0.006 C 
BRANCH  12  13
ATOM     13  C   UNL     1      13.006 131.567  50.956  1.00  0.00     0.053 C 
BRANCH  13  14
ATOM     14  C   UNL     1      12.912 130.901  52.294  1.00  0.00     0.041 C 
ATOM     15  O   UNL     1      12.282 129.817  52.417  1.00  0.00    -0.550 OA
ATOM     16  O   UNL     1      13.467 131.507  53.413  1.00  0.00    -0.550 OA
ENDBRANCH  13  14
ENDBRANCH  12  13
ENDBRANCH  11  12
ENDBRANCH  10  11
ENDBRANCH   9  10
ENDBRANCH   8   9
ENDBRANCH   7   8
ENDBRANCH   6   7
ENDBRANCH   5   6
ENDBRANCH   4   5
ENDBRANCH   3   4
ENDBRANCH   2   3
ENDBRANCH   1   2
BRANCH   1  17
ATOM     17  C   UNL     1      19.671 130.825  55.127  1.00  0.00     0.000 C 
BRANCH  17  18
ATOM     18  C   UNL     1      18.971 131.702  54.071  1.00  0.00     0.000 C 
BRANCH  18  19
ATOM     19  C   UNL     1      17.437 131.600  54.143  1.00  0.00     0.000 C 
BRANCH  19  20
ATOM     20  C   UNL     1      16.746 132.937  53.822  1.00  0.00     0.000 C 
BRANCH  20  21
ATOM     21  C   UNL     1      17.685 133.935  53.122  1.00  0.00     0.000 C 
BRANCH  21  22
ATOM     22  C   UNL     1      17.672 135.325  53.784  1.00  0.00    -0.000 C 
BRANCH  22  23
ATOM     23  C   UNL     1      18.732 135.527  54.887  1.00  0.00    -0.000 C 
BRANCH  23  24
ATOM     24  C   UNL     1      18.327 135.020  56.286  1.00  0.00    -0.000 C 
BRANCH  24  25
ATOM     25  C   UNL     1      19.344 134.074  56.948  1.00  0.00    -0.000 C 
BRANCH  25  26
ATOM     26  C   UNL     1      18.685 133.076  57.915  1.00  0.00    -0.000 C 
BRANCH  26  27
ATOM     27  C   UNL     1      17.212 132.808  57.570  1.00  0.00    -0.000 C 
BRANCH  27  28
ATOM     28  C   UNL     1      16.482 132.027  58.675  1.00  0.00    -0.000 C 
BRANCH  28  29
ATOM     29  C   UNL     1      15.018 131.776  58.294  1.00  0.00    -0.003 C 
ATOM     30  C   UNL     1      14.837 131.765  56.778  1.00  0.00     0.004 C 
ENDBRANCH  28  29
ENDBRANCH  27  28
ENDBRANCH  26  27
ENDBRANCH  25  26
ENDBRANCH  24  25
ENDBRANCH  23  24
ENDBRANCH  22  23
ENDBRANCH  21  22
ENDBRANCH  20  21
ENDBRANCH  19  20
ENDBRANCH  18  19
ENDBRANCH  17  18
ENDBRANCH   1  17
TORSDOF 26
ENDMDL
MODEL 5
REMARK VINA RESULT:    -4.286      4.381      7.208
REMARK INTER + INTRA:         -14.264
REMARK INTER:                  -8.349
REMARK INTRA:                  -5.914
REMARK UNBOUND:                -3.463
REMARK SMILES CCCCCCCCCCCCCCCCCCCCCCCCCCCC(=O)[O-]
REMARK SMILES IDX 15 1 16 2 17 3 18 4 19 5 20 6 21 7 22 8 23 9 24 10 25 11
REMARK SMILES IDX 26 12 27 13 28 14 29 15 30 16 14 17 13 18 12 19 11 20 10 21
REMARK SMILES IDX 9 22 8 23 7 24 6 25 5 26 4 27 3 28 2 29 1 30
REMARK H PARENT
REMARK Flexibility Score: inf
ROOT
ATOM      1  C   UNL     1      18.560 131.881  53.629  1.00  0.00     0.000 C 
ENDROOT
BRANCH   1   2
ATOM      2  C   UNL     1      19.889 131.852  54.414  1.00  0.00     0.000 C 
BRANCH   2   3
ATOM      3  C   UNL     1      19.975 130.717  55.451  1.00  0.00     0.000 C 
BRANCH   3   4
ATOM      4  C   UNL     1      18.863 129.653  55.313  1.00  0.00     0.000 C 
BRANCH   4   5
ATOM      5  C   UNL     1      17.654 129.850  56.252  1.00  0.00     0.000 C 
BRANCH   5   6
ATOM      6  C   UNL     1      17.049 128.555  56.834  1.00  0.00     0.000 C 
BRANCH   6   7
ATOM      7  C   UNL     1      16.142 127.809  55.838  1.00  0.00     0.000 C 
BRANCH   7   8
ATOM      8  C   UNL     1      15.128 128.732  55.145  1.00  0.00     0.000 C 
BRANCH   8   9
ATOM      9  C   UNL     1      15.118 128.563  53.615  1.00  0.00     0.000 C 
BRANCH   9  10
ATOM     10  C   UNL     1      16.426 127.943  53.093  1.00  0.00     0.000 C 
BRANCH  10  11
ATOM     11  C   UNL     1      17.077 128.801  51.994  1.00  0.00     0.000 C 
BRANCH  11  12
ATOM     12  C   UNL     1      16.129 129.890  51.464  1.00  0.00     0.006 C 
BRANCH  12  13
ATOM     13  C   UNL     1      16.822 130.827  50.462  1.00  0.00     0.053 C 
BRANCH  13  14
ATOM     14  C   UNL     1      16.786 130.239  49.085  1.00  0.00     0.041 C 
ATOM     15  O   UNL     1      15.739 129.678  48.665  1.00  0.00    -0.550 OA
ATOM     16  O   UNL     1      17.925 130.258  48.291  1.00  0.00    -0.550 OA
ENDBRANCH  13  14
ENDBRANCH  12  13
ENDBRANCH  11  12
ENDBRANCH  10  11
ENDBRANCH   9  10
ENDBRANCH   8   9
ENDBRANCH   7   8
ENDBRANCH   6   7
ENDBRANCH   5   6
ENDBRANCH   4   5
ENDBRANCH   3   4
ENDBRANCH   2   3
ENDBRANCH   1   2
BRANCH   1  17
ATOM     17  C   UNL     1      18.087 133.308  53.287  1.00  0.00     0.000 C 
BRANCH  17  18
ATOM     18  C   UNL     1      16.571 133.516  53.466  1.00  0.00     0.000 C 
BRANCH  18  19
ATOM     19  C   UNL     1      15.887 132.317  54.148  1.00  0.00     0.000 C 
BRANCH  19  20
ATOM     20  C   UNL     1      14.621 132.726  54.919  1.00  0.00     0.000 C 
BRANCH  20  21
ATOM     21  C   UNL     1      14.522 132.046  56.296  1.00  0.00     0.000 C 
BRANCH  21  22
ATOM     22  C   UNL     1      15.560 132.584  57.298  1.00  0.00    -0.000 C 
BRANCH  22  23
ATOM     23  C   UNL     1      15.651 134.123  57.372  1.00  0.00    -0.000 C 
BRANCH  23  24
ATOM     24  C   UNL     1      17.053 134.682  57.691  1.00  0.00    -0.000 C 
BRANCH  24  25
ATOM     25  C   UNL     1      18.204 134.019  56.913  1.00  0.00    -0.000 C 
BRANCH  25  26
ATOM     26  C   UNL     1      19.249 133.372  57.836  1.00  0.00    -0.000 C 
BRANCH  26  27
ATOM     27  C   UNL     1      18.672 133.003  59.212  1.00  0.00    -0.000 C 
BRANCH  27  28
ATOM     28  C   UNL     1      18.850 131.513  59.545  1.00  0.00    -0.000 C 
BRANCH  28  29
ATOM     29  C   UNL     1      17.497 130.844  59.809  1.00  0.00    -0.003 C 
ATOM     30  C   UNL     1      16.835 131.412  61.062  1.00  0.00     0.004 C 
ENDBRANCH  28  29
ENDBRANCH  27  28
ENDBRANCH  26  27
ENDBRANCH  25  26
ENDBRANCH  24  25
ENDBRANCH  23  24
ENDBRANCH  22  23
ENDBRANCH  21  22
ENDBRANCH  20  21
ENDBRANCH  19  20
ENDBRANCH  18  19
ENDBRANCH  17  18
ENDBRANCH   1  17
TORSDOF 26
ENDMDL
MODEL 6
REMARK VINA RESULT:    -4.278      2.379      3.876
REMARK INTER + INTRA:         -14.242
REMARK INTER:                  -9.186
REMARK INTRA:                  -5.056
REMARK UNBOUND:                -3.463
REMARK SMILES CCCCCCCCCCCCCCCCCCCCCCCCCCCC(=O)[O-]
REMARK SMILES IDX 15 1 16 2 17 3 18 4 19 5 20 6 21 7 22 8 23 9 24 10 25 11
REMARK SMILES IDX 26 12 27 13 28 14 29 15 30 16 14 17 13 18 12 19 11 20 10 21
REMARK SMILES IDX 9 22 8 23 7 24 6 25 5 26 4 27 3 28 2 29 1 30
REMARK H PARENT
REMARK Flexibility Score: inf
ROOT
ATOM      1  C   UNL     1      17.111 128.535  56.568  1.00  0.00     0.000 C 
ENDROOT
BRANCH   1   2
ATOM      2  C   UNL     1      17.435 128.205  55.095  1.00  0.00     0.000 C 
BRANCH   2   3
ATOM      3  C   UNL     1      16.309 127.451  54.363  1.00  0.00     0.000 C 
BRANCH   3   4
ATOM      4  C   UNL     1      16.150 127.846  52.877  1.00  0.00     0.000 C 
BRANCH   4   5
ATOM      5  C   UNL     1      17.188 128.865  52.360  1.00  0.00     0.000 C 
BRANCH   5   6
ATOM      6  C   UNL     1      16.615 130.228  51.921  1.00  0.00     0.000 C 
BRANCH   6   7
ATOM      7  C   UNL     1      15.110 130.375  52.212  1.00  0.00     0.000 C 
BRANCH   7   8
ATOM      8  C   UNL     1      14.804 131.467  53.249  1.00  0.00     0.000 C 
BRANCH   8   9
ATOM      9  C   UNL     1      15.111 131.023  54.690  1.00  0.00     0.000 C 
BRANCH   9  10
ATOM     10  C   UNL     1      15.771 132.143  55.512  1.00  0.00     0.000 C 
BRANCH  10  11
ATOM     11  C   UNL     1      16.750 132.981  54.671  1.00  0.00     0.000 C 
BRANCH  11  12
ATOM     12  C   UNL     1      18.078 132.248  54.418  1.00  0.00     0.006 C 
BRANCH  12  13
ATOM     13  C   UNL     1      18.715 131.731  55.717  1.00  0.00     0.053 C 
BRANCH  13  14
ATOM     14  C   UNL     1      20.053 131.120  55.436  1.00  0.00     0.041 C 
ATOM     15  O   UNL     1      20.909 131.754  54.763  1.00  0.00    -0.550 OA
ATOM     16  O   UNL     1      20.332 129.829  55.865  1.00  0.00    -0.550 OA
ENDBRANCH  13  14
ENDBRANCH  12  13
ENDBRANCH  11  12
ENDBRANCH  10  11
ENDBRANCH   9  10
ENDBRANCH   8   9
ENDBRANCH   7   8
ENDBRANCH   6   7
ENDBRANCH   5   6
ENDBRANCH   4   5
ENDBRANCH   3   4
ENDBRANCH   2   3
ENDBRANCH   1   2
BRANCH   1  17
ATOM     17  C   UNL     1      15.650 128.230  56.952  1.00  0.00     0.000 C 
BRANCH  17  18
ATOM     18  C   UNL     1      15.062 129.218  57.978  1.00  0.00     0.000 C 
BRANCH  18  19
ATOM     19  C   UNL     1      15.158 128.695  59.423  1.00  0.00     0.000 C 
BRANCH  19  20
ATOM     20  C   UNL     1      14.729 129.751  60.457  1.00  0.00     0.000 C 
BRANCH  20  21
ATOM     21  C   UNL     1      14.813 131.185  59.907  1.00  0.00     0.000 C 
BRANCH  21  22
ATOM     22  C   UNL     1      16.127 131.890  60.291  1.00  0.00    -0.000 C 
BRANCH  22  23
ATOM     23  C   UNL     1      17.134 132.060  59.133  1.00  0.00    -0.000 C 
BRANCH  23  24
ATOM     24  C   UNL     1      18.544 131.495  59.401  1.00  0.00    -0.000 C 
BRANCH  24  25
ATOM     25  C   UNL     1      18.612 129.962  59.523  1.00  0.00    -0.000 C 
BRANCH  25  26
ATOM     26  C   UNL     1      19.184 129.499  60.873  1.00  0.00    -0.000 C 
BRANCH  26  27
ATOM     27  C   UNL     1      18.104 128.932  61.807  1.00  0.00    -0.000 C 
BRANCH  27  28
ATOM     28  C   UNL     1      18.384 129.240  63.286  1.00  0.00    -0.000 C 
BRANCH  28  29
ATOM     29  C   UNL     1      18.290 127.970  64.139  1.00  0.00    -0.003 C 
ATOM     30  C   UNL     1      18.280 126.718  63.265  1.00  0.00     0.004 C 
ENDBRANCH  28  29
ENDBRANCH  27  28
ENDBRANCH  26  27
ENDBRANCH  25  26
ENDBRANCH  24  25
ENDBRANCH  23  24
ENDBRANCH  22  23
ENDBRANCH  21  22
ENDBRANCH  20  21
ENDBRANCH  19  20
ENDBRANCH  18  19
ENDBRANCH  17  18
ENDBRANCH   1  17
TORSDOF 26
ENDMDL
MODEL 7
REMARK VINA RESULT:    -4.276      2.964      7.551
REMARK INTER + INTRA:         -14.239
REMARK INTER:                  -8.551
REMARK INTRA:                  -5.688
REMARK UNBOUND:                -3.463
REMARK SMILES CCCCCCCCCCCCCCCCCCCCCCCCCCCC(=O)[O-]
REMARK SMILES IDX 15 1 16 2 17 3 18 4 19 5 20 6 21 7 22 8 23 9 24 10 25 11
REMARK SMILES IDX 26 12 27 13 28 14 29 15 30 16 14 17 13 18 12 19 11 20 10 21
REMARK SMILES IDX 9 22 8 23 7 24 6 25 5 26 4 27 3 28 2 29 1 30
REMARK H PARENT
REMARK Flexibility Score: inf
ROOT
ATOM      1  C   UNL     1      19.749 129.772  55.819  1.00  0.00     0.000 C 
ENDROOT
BRANCH   1   2
ATOM      2  C   UNL     1      19.052 128.885  54.764  1.00  0.00     0.000 C 
BRANCH   2   3
ATOM      3  C   UNL     1      18.164 129.669  53.780  1.00  0.00     0.000 C 
BRANCH   3   4
ATOM      4  C   UNL     1      17.454 128.783  52.731  1.00  0.00     0.000 C 
BRANCH   4   5
ATOM      5  C   UNL     1      16.281 127.941  53.277  1.00  0.00     0.000 C 
BRANCH   5   6
ATOM      6  C   UNL     1      14.998 128.729  53.608  1.00  0.00     0.000 C 
BRANCH   6   7
ATOM      7  C   UNL     1      14.727 128.840  55.120  1.00  0.00     0.000 C 
BRANCH   7   8
ATOM      8  C   UNL     1      15.562 127.855  55.952  1.00  0.00     0.000 C 
BRANCH   8   9
ATOM      9  C   UNL     1      16.431 128.558  57.011  1.00  0.00     0.000 C 
BRANCH   9  10
ATOM     10  C   UNL     1      16.198 130.078  57.033  1.00  0.00     0.000 C 
BRANCH  10  11
ATOM     11  C   UNL     1      16.574 130.703  58.389  1.00  0.00     0.000 C 
BRANCH  11  12
ATOM     12  C   UNL     1      17.866 130.106  58.970  1.00  0.00     0.006 C 
BRANCH  12  13
ATOM     13  C   UNL     1      18.819 131.188  59.501  1.00  0.00     0.053 C 
BRANCH  13  14
ATOM     14  C   UNL     1      18.133 132.029  60.532  1.00  0.00     0.041 C 
ATOM     15  O   UNL     1      17.711 131.505  61.597  1.00  0.00    -0.550 OA
ATOM     16  O   UNL     1      17.906 133.377  60.291  1.00  0.00    -0.550 OA
ENDBRANCH  13  14
ENDBRANCH  12  13
ENDBRANCH  11  12
ENDBRANCH  10  11
ENDBRANCH   9  10
ENDBRANCH   8   9
ENDBRANCH   7   8
ENDBRANCH   6   7
ENDBRANCH   5   6
ENDBRANCH   4   5
ENDBRANCH   3   4
ENDBRANCH   2   3
ENDBRANCH   1   2
BRANCH   1  17
ATOM     17  C   UNL     1      20.321 131.078  55.233  1.00  0.00     0.000 C 
BRANCH  17  18
ATOM     18  C   UNL     1      19.669 132.350  55.808  1.00  0.00     0.000 C 
BRANCH  18  19
ATOM     19  C   UNL     1      19.098 133.268  54.712  1.00  0.00     0.000 C 
BRANCH  19  20
ATOM     20  C   UNL     1      18.578 134.601  55.277  1.00  0.00     0.000 C 
BRANCH  20  21
ATOM     21  C   UNL     1      18.132 134.487  56.745  1.00  0.00     0.000 C 
BRANCH  21  22
ATOM     22  C   UNL     1      16.691 133.962  56.886  1.00  0.00    -0.000 C 
BRANCH  22  23
ATOM     23  C   UNL     1      15.700 134.497  55.831  1.00  0.00    -0.000 C 
BRANCH  23  24
ATOM     24  C   UNL     1      14.827 133.425  55.148  1.00  0.00    -0.000 C 
BRANCH  24  25
ATOM     25  C   UNL     1      15.608 132.387  54.323  1.00  0.00    -0.000 C 
BRANCH  25  26
ATOM     26  C   UNL     1      15.356 132.519  52.812  1.00  0.00    -0.000 C 
BRANCH  26  27
ATOM     27  C   UNL     1      16.518 133.209  52.079  1.00  0.00    -0.000 C 
BRANCH  27  28
ATOM     28  C   UNL     1      16.342 134.734  52.002  1.00  0.00    -0.000 C 
BRANCH  28  29
ATOM     29  C   UNL     1      14.864 135.109  51.837  1.00  0.00    -0.003 C 
ATOM     30  C   UNL     1      14.490 135.240  50.363  1.00  0.00     0.004 C 
ENDBRANCH  28  29
ENDBRANCH  27  28
ENDBRANCH  26  27
ENDBRANCH  25  26
ENDBRANCH  24  25
ENDBRANCH  23  24
ENDBRANCH  22  23
ENDBRANCH  21  22
ENDBRANCH  20  21
ENDBRANCH  19  20
ENDBRANCH  18  19
ENDBRANCH  17  18
ENDBRANCH   1  17
TORSDOF 26
ENDMDL
MODEL 8
REMARK VINA RESULT:    -4.276      5.396      8.698
REMARK INTER + INTRA:         -14.237
REMARK INTER:                  -8.672
REMARK INTRA:                  -5.565
REMARK UNBOUND:                -3.463
REMARK SMILES CCCCCCCCCCCCCCCCCCCCCCCCCCCC(=O)[O-]
REMARK SMILES IDX 15 1 16 2 17 3 18 4 19 5 20 6 21 7 22 8 23 9 24 10 25 11
REMARK SMILES IDX 26 12 27 13 28 14 29 15 30 16 14 17 13 18 12 19 11 20 10 21
REMARK SMILES IDX 9 22 8 23 7 24 6 25 5 26 4 27 3 28 2 29 1 30
REMARK H PARENT
REMARK Flexibility Score: inf
ROOT
ATOM      1  C   UNL     1      17.056 127.909  54.293  1.00  0.00     0.000 C 
ENDROOT
BRANCH   1   2
ATOM      2  C   UNL     1      16.224 127.520  55.535  1.00  0.00     0.000 C 
BRANCH   2   3
ATOM      3  C   UNL     1      15.187 128.581  55.948  1.00  0.00     0.000 C 
BRANCH   3   4
ATOM      4  C   UNL     1      15.750 130.020  56.006  1.00  0.00     0.000 C 
BRANCH   4   5
ATOM      5  C   UNL     1      15.067 131.024  55.053  1.00  0.00     0.000 C 
BRANCH   5   6
ATOM      6  C   UNL     1      14.104 130.406  54.019  1.00  0.00     0.000 C 
BRANCH   6   7
ATOM      7  C   UNL     1      13.470 131.449  53.081  1.00  0.00     0.000 C 
BRANCH   7   8
ATOM      8  C   UNL     1      13.190 130.899  51.675  1.00  0.00     0.000 C 
BRANCH   8   9
ATOM      9  C   UNL     1      13.559 131.895  50.561  1.00  0.00     0.000 C 
BRANCH   9  10
ATOM     10  C   UNL     1      12.893 131.537  49.221  1.00  0.00     0.000 C 
BRANCH  10  11
ATOM     11  C   UNL     1      13.521 130.290  48.574  1.00  0.00     0.000 C 
BRANCH  11  12
ATOM     12  C   UNL     1      15.053 130.390  48.478  1.00  0.00     0.006 C 
BRANCH  12  13
ATOM     13  C   UNL     1      15.680 129.133  47.857  1.00  0.00     0.053 C 
BRANCH  13  14
ATOM     14  C   UNL     1      17.134 129.048  48.206  1.00  0.00     0.041 C 
ATOM     15  O   UNL     1      17.799 130.099  48.408  1.00  0.00    -0.550 OA
ATOM     16  O   UNL     1      17.768 127.813  48.249  1.00  0.00    -0.550 OA
ENDBRANCH  13  14
ENDBRANCH  12  13
ENDBRANCH  11  12
ENDBRANCH  10  11
ENDBRANCH   9  10
ENDBRANCH   8   9
ENDBRANCH   7   8
ENDBRANCH   6   7
ENDBRANCH   5   6
ENDBRANCH   4   5
ENDBRANCH   3   4
ENDBRANCH   2   3
ENDBRANCH   1   2
BRANCH   1  17
ATOM     17  C   UNL     1      16.317 127.660  52.964  1.00  0.00     0.000 C 
BRANCH  17  18
ATOM     18  C   UNL     1      16.698 128.653  51.849  1.00  0.00     0.000 C 
BRANCH  18  19
ATOM     19  C   UNL     1      17.368 129.926  52.398  1.00  0.00     0.000 C 
BRANCH  19  20
ATOM     20  C   UNL     1      16.938 131.190  51.633  1.00  0.00     0.000 C 
BRANCH  20  21
ATOM     21  C   UNL     1      17.298 132.485  52.381  1.00  0.00     0.000 C 
BRANCH  21  22
ATOM     22  C   UNL     1      16.338 133.644  52.055  1.00  0.00    -0.000 C 
BRANCH  22  23
ATOM     23  C   UNL     1      16.396 134.830  53.040  1.00  0.00    -0.000 C 
BRANCH  23  24
ATOM     24  C   UNL     1      15.952 134.508  54.481  1.00  0.00    -0.000 C 
BRANCH  24  25
ATOM     25  C   UNL     1      16.926 134.978  55.576  1.00  0.00    -0.000 C 
BRANCH  25  26
ATOM     26  C   UNL     1      17.478 133.815  56.418  1.00  0.00    -0.000 C 
BRANCH  26  27
ATOM     27  C   UNL     1      18.567 133.019  55.680  1.00  0.00    -0.000 C 
BRANCH  27  28
ATOM     28  C   UNL     1      18.917 131.702  56.390  1.00  0.00    -0.000 C 
BRANCH  28  29
ATOM     29  C   UNL     1      19.556 130.706  55.416  1.00  0.00    -0.003 C 
ATOM     30  C   UNL     1      19.880 129.386  56.111  1.00  0.00     0.004 C 
ENDBRANCH  28  29
ENDBRANCH  27  28
ENDBRANCH  26  27
ENDBRANCH  25  26
ENDBRANCH  24  25
ENDBRANCH  23  24
ENDBRANCH  22  23
ENDBRANCH  21  22
ENDBRANCH  20  21
ENDBRANCH  19  20
ENDBRANCH  18  19
ENDBRANCH  17  18
ENDBRANCH   1  17
TORSDOF 26
ENDMDL
MODEL 9
REMARK VINA RESULT:    -4.240      2.894      7.963
REMARK INTER + INTRA:         -14.147
REMARK INTER:                  -9.327
REMARK INTRA:                  -4.820
REMARK UNBOUND:                -3.463
REMARK SMILES CCCCCCCCCCCCCCCCCCCCCCCCCCCC(=O)[O-]
REMARK SMILES IDX 15 1 16 2 17 3 18 4 19 5 20 6 21 7 22 8 23 9 24 10 25 11
REMARK SMILES IDX 26 12 27 13 28 14 29 15 30 16 14 17 13 18 12 19 11 20 10 21
REMARK SMILES IDX 9 22 8 23 7 24 6 25 5 26 4 27 3 28 2 29 1 30
REMARK H PARENT
REMARK Flexibility Score: inf
ROOT
ATOM      1  C   UNL     1      15.988 127.876  53.687  1.00  0.00     0.000 C 
ENDROOT
BRANCH   1   2
ATOM      2  C   UNL     1      15.132 129.081  54.136  1.00  0.00     0.000 C 
BRANCH   2   3
ATOM      3  C   UNL     1      14.716 129.032  55.618  1.00  0.00     0.000 C 
BRANCH   3   4
ATOM      4  C   UNL     1      15.683 128.226  56.516  1.00  0.00     0.000 C 
BRANCH   4   5
ATOM      5  C   UNL     1      16.175 128.972  57.775  1.00  0.00     0.000 C 
BRANCH   5   6
ATOM      6  C   UNL     1      15.352 130.214  58.173  1.00  0.00     0.000 C 
BRANCH   6   7
ATOM      7  C   UNL     1      16.100 131.155  59.135  1.00  0.00     0.000 C 
BRANCH   7   8
ATOM      8  C   UNL     1      17.570 130.759  59.337  1.00  0.00     0.000 C 
BRANCH   8   9
ATOM      9  C   UNL     1      18.174 131.349  60.625  1.00  0.00     0.000 C 
BRANCH   9  10
ATOM     10  C   UNL     1      17.846 130.494  61.861  1.00  0.00     0.000 C 
BRANCH  10  11
ATOM     11  C   UNL     1      17.927 128.987  61.563  1.00  0.00     0.000 C 
BRANCH  11  12
ATOM     12  C   UNL     1      18.839 128.243  62.553  1.00  0.00     0.006 C 
BRANCH  12  13
ATOM     13  C   UNL     1      18.078 127.766  63.800  1.00  0.00     0.053 C 
BRANCH  13  14
ATOM     14  C   UNL     1      17.062 126.731  63.428  1.00  0.00     0.041 C 
ATOM     15  O   UNL     1      17.405 125.719  62.759  1.00  0.00    -0.550 OA
ATOM     16  O   UNL     1      15.727 126.913  63.766  1.00  0.00    -0.550 OA
ENDBRANCH  13  14
ENDBRANCH  12  13
ENDBRANCH  11  12
ENDBRANCH  10  11
ENDBRANCH   9  10
ENDBRANCH   8   9
ENDBRANCH   7   8
ENDBRANCH   6   7
ENDBRANCH   5   6
ENDBRANCH   4   5
ENDBRANCH   3   4
ENDBRANCH   2   3
ENDBRANCH   1   2
BRANCH   1  17
ATOM     17  C   UNL     1      17.226 128.283  52.863  1.00  0.00     0.000 C 
BRANCH  17  18
ATOM     18  C   UNL     1      18.152 129.277  53.590  1.00  0.00     0.000 C 
BRANCH  18  19
ATOM     19  C   UNL     1      18.891 128.635  54.779  1.00  0.00     0.000 C 
BRANCH  19  20
ATOM     20  C   UNL     1      19.142 129.634  55.921  1.00  0.00     0.000 C 
BRANCH  20  21
ATOM     21  C   UNL     1      19.975 130.847  55.472  1.00  0.00     0.000 C 
BRANCH  21  22
ATOM     22  C   UNL     1      19.264 132.186  55.741  1.00  0.00    -0.000 C 
BRANCH  22  23
ATOM     23  C   UNL     1      17.732 132.085  55.905  1.00  0.00    -0.000 C 
BRANCH  23  24
ATOM     24  C   UNL     1      16.911 132.526  54.676  1.00  0.00    -0.000 C 
BRANCH  24  25
ATOM     25  C   UNL     1      17.747 133.059  53.499  1.00  0.00    -0.000 C 
BRANCH  25  26
ATOM     26  C   UNL     1      17.207 132.604  52.133  1.00  0.00    -0.000 C 
BRANCH  26  27
ATOM     27  C   UNL     1      15.726 132.199  52.191  1.00  0.00    -0.000 C 
BRANCH  27  28
ATOM     28  C   UNL     1      15.381 131.085  51.191  1.00  0.00    -0.000 C 
BRANCH  28  29
ATOM     29  C   UNL     1      16.567 130.793  50.264  1.00  0.00    -0.003 C 
ATOM     30  C   UNL     1      16.114 130.061  49.003  1.00  0.00     0.004 C 
ENDBRANCH  28  29
ENDBRANCH  27  28
ENDBRANCH  26  27
ENDBRANCH  25  26
ENDBRANCH  24  25
ENDBRANCH  23  24
ENDBRANCH  22  23
ENDBRANCH  21  22
ENDBRANCH  20  21
ENDBRANCH  19  20
ENDBRANCH  18  19
ENDBRANCH  17  18
ENDBRANCH   1  17
TORSDOF 26
ENDMDL
