MODEL 1
REMARK VINA RESULT:    -5.764      0.000      0.000
REMARK INTER + INTRA:          -5.764
REMARK INTER:                  -5.764
REMARK INTRA:                   0.000
REMARK UNBOUND:                 0.000
REMARK SMILES CC1=CC(=O)[C@H]2C[C@@H]1C2(C)C
REMARK SMILES IDX 1 1 2 2 3 3 4 4 5 5 6 6 7 7 8 8 9 9 10 10 11 11
REMARK H PARENT
REMARK Flexibility Score: inf
ROOT
ATOM      1  C   UNL     1      11.881 -28.739  23.874  1.00  0.00     0.040 C 
ATOM      2  C   UNL     1      12.744 -29.553  22.964  1.00  0.00    -0.066 C 
ATOM      3  C   UNL     1      12.205 -30.343  21.993  1.00  0.00     0.047 C 
ATOM      4  C   UNL     1      13.174 -31.133  21.167  1.00  0.00     0.159 C 
ATOM      5  O   UNL     1      12.798 -31.928  20.266  1.00  0.00    -0.295 OA
ATOM      6  C   UNL     1      14.650 -30.907  21.494  1.00  0.00     0.067 C 
ATOM      7  C   UNL     1      14.781 -29.372  21.609  1.00  0.00     0.021 C 
ATOM      8  C   UNL     1      14.284 -29.526  23.064  1.00  0.00     0.022 C 
ATOM      9  C   UNL     1      14.831 -30.982  23.038  1.00  0.00    -0.019 C 
ATOM     10  C   UNL     1      16.322 -31.059  23.453  1.00  0.00     0.012 C 
ATOM     11  C   UNL     1      14.050 -32.075  23.821  1.00  0.00     0.012 C 
ENDROOT
TORSDOF 0
ENDMDL
MODEL 2
REMARK VINA RESULT:    -5.229      1.524      3.022
REMARK INTER + INTRA:          -5.229
REMARK INTER:                  -5.229
REMARK INTRA:                   0.000
REMARK UNBOUND:                 0.000
REMARK SMILES CC1=CC(=O)[C@H]2C[C@@H]1C2(C)C
REMARK SMILES IDX 1 1 2 2 3 3 4 4 5 5 6 6 7 7 8 8 9 9 10 10 11 11
REMARK H PARENT
REMARK Flexibility Score: inf
ROOT
ATOM      1  C   UNL     1      13.469 -32.643  19.916  1.00  0.00     0.040 C 
ATOM      2  C   UNL     1      13.432 -31.837  21.175  1.00  0.00    -0.066 C 
ATOM      3  C   UNL     1      12.414 -30.967  21.431  1.00  0.00     0.047 C 
ATOM      4  C   UNL     1      12.509 -30.194  22.712  1.00  0.00     0.159 C 
ATOM      5  O   UNL     1      11.652 -29.333  23.042  1.00  0.00    -0.295 OA
ATOM      6  C   UNL     1      13.717 -30.524  23.588  1.00  0.00     0.067 C 
ATOM      7  C   UNL     1      13.770 -32.068  23.594  1.00  0.00     0.021 C 
ATOM      8  C   UNL     1      14.531 -31.960  22.253  1.00  0.00     0.022 C 
ATOM      9  C   UNL     1      14.989 -30.539  22.691  1.00  0.00    -0.019 C 
ATOM     10  C   UNL     1      16.296 -30.571  23.523  1.00  0.00     0.012 C 
ATOM     11  C   UNL     1      15.134 -29.443  21.597  1.00  0.00     0.012 C 
ENDROOT
TORSDOF 0
ENDMDL
MODEL 3
REMARK VINA RESULT:    -5.145      1.737      3.473
REMARK INTER + INTRA:          -5.145
REMARK INTER:                  -5.145
REMARK INTRA:                   0.000
REMARK UNBOUND:                 0.000
REMARK SMILES CC1=CC(=O)[C@H]2C[C@@H]1C2(C)C
REMARK SMILES IDX 1 1 2 2 3 3 4 4 5 5 6 6 7 7 8 8 9 9 10 10 11 11
REMARK H PARENT
REMARK Flexibility Score: inf
ROOT
ATOM      1  C   UNL     1      16.436 -29.517  21.638  1.00  0.00     0.040 C 
ATOM      2  C   UNL     1      15.368 -30.336  22.289  1.00  0.00    -0.066 C 
ATOM      3  C   UNL     1      15.665 -31.483  22.962  1.00  0.00     0.047 C 
ATOM      4  C   UNL     1      14.503 -32.231  23.543  1.00  0.00     0.159 C 
ATOM      5  O   UNL     1      14.644 -33.323  24.153  1.00  0.00    -0.295 OA
ATOM      6  C   UNL     1      13.137 -31.575  23.342  1.00  0.00     0.067 C 
ATOM      7  C   UNL     1      13.374 -30.090  23.696  1.00  0.00     0.021 C 
ATOM      8  C   UNL     1      13.883 -29.917  22.247  1.00  0.00     0.022 C 
ATOM      9  C   UNL     1      13.009 -31.142  21.853  1.00  0.00    -0.019 C 
ATOM     10  C   UNL     1      11.561 -30.738  21.479  1.00  0.00     0.012 C 
ATOM     11  C   UNL     1      13.546 -32.105  20.756  1.00  0.00     0.012 C 
ENDROOT
TORSDOF 0
ENDMDL
MODEL 4
REMARK VINA RESULT:    -5.143      0.983      3.199
REMARK INTER + INTRA:          -5.143
REMARK INTER:                  -5.143
REMARK INTRA:                   0.000
REMARK UNBOUND:                 0.000
REMARK SMILES CC1=CC(=O)[C@H]2C[C@@H]1C2(C)C
REMARK SMILES IDX 1 1 2 2 3 3 4 4 5 5 6 6 7 7 8 8 9 9 10 10 11 11
REMARK H PARENT
REMARK Flexibility Score: inf
ROOT
ATOM      1  C   UNL     1      17.001 -32.169  22.994  1.00  0.00     0.040 C 
ATOM      2  C   UNL     1      15.602 -31.816  22.603  1.00  0.00    -0.066 C 
ATOM      3  C   UNL     1      15.058 -32.258  21.434  1.00  0.00     0.047 C 
ATOM      4  C   UNL     1      13.658 -31.810  21.142  1.00  0.00     0.159 C 
ATOM      5  O   UNL     1      13.062 -32.119  20.078  1.00  0.00    -0.295 OA
ATOM      6  C   UNL     1      13.007 -30.950  22.225  1.00  0.00     0.067 C 
ATOM      7  C   UNL     1      13.340 -31.686  23.542  1.00  0.00     0.021 C 
ATOM      8  C   UNL     1      14.698 -30.951  23.508  1.00  0.00     0.022 C 
ATOM      9  C   UNL     1      14.015 -29.845  22.653  1.00  0.00    -0.019 C 
ATOM     10  C   UNL     1      13.353 -28.749  23.526  1.00  0.00     0.012 C 
ATOM     11  C   UNL     1      14.856 -29.145  21.548  1.00  0.00     0.012 C 
ENDROOT
TORSDOF 0
ENDMDL
MODEL 5
REMARK VINA RESULT:    -5.007      1.753      2.369
REMARK INTER + INTRA:          -5.007
REMARK INTER:                  -5.007
REMARK INTRA:                   0.000
REMARK UNBOUND:                 0.000
REMARK SMILES CC1=CC(=O)[C@H]2C[C@@H]1C2(C)C
REMARK SMILES IDX 1 1 2 2 3 3 4 4 5 5 6 6 7 7 8 8 9 9 10 10 11 11
REMARK H PARENT
REMARK Flexibility Score: inf
ROOT
ATOM      1  C   UNL     1      13.449 -28.351  23.198  1.00  0.00     0.040 C 
ATOM      2  C   UNL     1      13.852 -29.774  22.977  1.00  0.00    -0.066 C 
ATOM      3  C   UNL     1      13.500 -30.756  23.854  1.00  0.00     0.047 C 
ATOM      4  C   UNL     1      13.991 -32.136  23.538  1.00  0.00     0.159 C 
ATOM      5  O   UNL     1      13.765 -33.119  24.291  1.00  0.00    -0.295 OA
ATOM      6  C   UNL     1      14.786 -32.265  22.239  1.00  0.00     0.067 C 
ATOM      7  C   UNL     1      13.957 -31.469  21.207  1.00  0.00     0.021 C 
ATOM      8  C   UNL     1      14.669 -30.206  21.740  1.00  0.00     0.022 C 
ATOM      9  C   UNL     1      15.842 -31.124  22.188  1.00  0.00    -0.019 C 
ATOM     10  C   UNL     1      16.887 -31.337  21.064  1.00  0.00     0.012 C 
ATOM     11  C   UNL     1      16.601 -30.762  23.497  1.00  0.00     0.012 C 
ENDROOT
TORSDOF 0
ENDMDL
MODEL 6
REMARK VINA RESULT:    -5.003      8.847     10.260
REMARK INTER + INTRA:          -5.003
REMARK INTER:                  -5.003
REMARK INTRA:                   0.000
REMARK UNBOUND:                 0.000
REMARK SMILES CC1=CC(=O)[C@H]2C[C@@H]1C2(C)C
REMARK SMILES IDX 1 1 2 2 3 3 4 4 5 5 6 6 7 7 8 8 9 9 10 10 11 11
REMARK H PARENT
REMARK Flexibility Score: inf
ROOT
ATOM      1  C   UNL     1      22.504 -24.148  23.348  1.00  0.00     0.040 C 
ATOM      2  C   UNL     1      22.685 -24.960  22.106  1.00  0.00    -0.066 C 
ATOM      3  C   UNL     1      23.145 -24.400  20.952  1.00  0.00     0.047 C 
ATOM      4  C   UNL     1      23.253 -25.313  19.768  1.00  0.00     0.159 C 
ATOM      5  O   UNL     1      23.628 -24.905  18.637  1.00  0.00    -0.295 OA
ATOM      6  C   UNL     1      22.877 -26.771  20.030  1.00  0.00     0.067 C 
ATOM      7  C   UNL     1      23.590 -27.114  21.356  1.00  0.00     0.021 C 
ATOM      8  C   UNL     1      22.379 -26.473  22.072  1.00  0.00     0.022 C 
ATOM      9  C   UNL     1      21.531 -26.802  20.810  1.00  0.00    -0.019 C 
ATOM     10  C   UNL     1      20.916 -28.223  20.867  1.00  0.00     0.012 C 
ATOM     11  C   UNL     1      20.413 -25.803  20.395  1.00  0.00     0.012 C 
ENDROOT
TORSDOF 0
ENDMDL
MODEL 7
REMARK VINA RESULT:    -4.885      4.440      5.791
REMARK INTER + INTRA:          -4.885
REMARK INTER:                  -4.885
REMARK INTRA:                   0.000
REMARK UNBOUND:                 0.000
REMARK SMILES CC1=CC(=O)[C@H]2C[C@@H]1C2(C)C
REMARK SMILES IDX 1 1 2 2 3 3 4 4 5 5 6 6 7 7 8 8 9 9 10 10 11 11
REMARK H PARENT
REMARK Flexibility Score: inf
ROOT
ATOM      1  C   UNL     1      19.130 -32.271  20.865  1.00  0.00     0.040 C 
ATOM      2  C   UNL     1      17.919 -33.131  20.685  1.00  0.00    -0.066 C 
ATOM      3  C   UNL     1      16.680 -32.699  21.054  1.00  0.00     0.047 C 
ATOM      4  C   UNL     1      15.553 -33.665  20.851  1.00  0.00     0.159 C 
ATOM      5  O   UNL     1      14.370 -33.398  21.188  1.00  0.00    -0.295 OA
ATOM      6  C   UNL     1      15.940 -34.997  20.209  1.00  0.00     0.067 C 
ATOM      7  C   UNL     1      16.855 -34.596  19.030  1.00  0.00     0.021 C 
ATOM      8  C   UNL     1      18.007 -34.539  20.058  1.00  0.00     0.022 C 
ATOM      9  C   UNL     1      17.204 -35.546  20.931  1.00  0.00    -0.019 C 
ATOM     10  C   UNL     1      17.503 -37.020  20.557  1.00  0.00     0.012 C 
ATOM     11  C   UNL     1      17.289 -35.409  22.478  1.00  0.00     0.012 C 
ENDROOT
TORSDOF 0
ENDMDL
MODEL 8
REMARK VINA RESULT:    -4.817      2.193      3.908
REMARK INTER + INTRA:          -4.817
REMARK INTER:                  -4.817
REMARK INTRA:                   0.000
REMARK UNBOUND:                 0.000
REMARK SMILES CC1=CC(=O)[C@H]2C[C@@H]1C2(C)C
REMARK SMILES IDX 1 1 2 2 3 3 4 4 5 5 6 6 7 7 8 8 9 9 10 10 11 11
REMARK H PARENT
REMARK Flexibility Score: inf
ROOT
ATOM      1  C   UNL     1      15.807 -35.109  20.528  1.00  0.00     0.040 C 
ATOM      2  C   UNL     1      15.253 -33.926  21.256  1.00  0.00    -0.066 C 
ATOM      3  C   UNL     1      14.228 -33.191  20.739  1.00  0.00     0.047 C 
ATOM      4  C   UNL     1      13.783 -32.012  21.550  1.00  0.00     0.159 C 
ATOM      5  O   UNL     1      12.873 -31.234  21.161  1.00  0.00    -0.295 OA
ATOM      6  C   UNL     1      14.512 -31.820  22.880  1.00  0.00     0.067 C 
ATOM      7  C   UNL     1      14.546 -33.234  23.500  1.00  0.00     0.021 C 
ATOM      8  C   UNL     1      15.799 -33.489  22.632  1.00  0.00     0.022 C 
ATOM      9  C   UNL     1      16.042 -31.953  22.630  1.00  0.00    -0.019 C 
ATOM     10  C   UNL     1      16.881 -31.487  23.846  1.00  0.00     0.012 C 
ATOM     11  C   UNL     1      16.640 -31.305  21.348  1.00  0.00     0.012 C 
ENDROOT
TORSDOF 0
ENDMDL
MODEL 9
REMARK VINA RESULT:    -4.814      2.148      3.882
REMARK INTER + INTRA:          -4.814
REMARK INTER:                  -4.814
REMARK INTRA:                   0.000
REMARK UNBOUND:                 0.000
REMARK SMILES CC1=CC(=O)[C@H]2C[C@@H]1C2(C)C
REMARK SMILES IDX 1 1 2 2 3 3 4 4 5 5 6 6 7 7 8 8 9 9 10 10 11 11
REMARK H PARENT
REMARK Flexibility Score: inf
ROOT
ATOM      1  C   UNL     1      17.664 -30.692  21.109  1.00  0.00     0.040 C 
ATOM      2  C   UNL     1      16.671 -31.692  21.611  1.00  0.00    -0.066 C 
ATOM      3  C   UNL     1      16.440 -32.859  20.945  1.00  0.00     0.047 C 
ATOM      4  C   UNL     1      15.400 -33.763  21.533  1.00  0.00     0.159 C 
ATOM      5  O   UNL     1      15.069 -34.849  20.990  1.00  0.00    -0.295 OA
ATOM      6  C   UNL     1      14.768 -33.273  22.836  1.00  0.00     0.067 C 
ATOM      7  C   UNL     1      15.969 -32.800  23.684  1.00  0.00     0.021 C 
ATOM      8  C   UNL     1      15.874 -31.464  22.913  1.00  0.00     0.022 C 
ATOM      9  C   UNL     1      14.371 -31.779  22.663  1.00  0.00    -0.019 C 
ATOM     10  C   UNL     1      13.463 -31.273  23.813  1.00  0.00     0.012 C 
ATOM     11  C   UNL     1      13.741 -31.333  21.313  1.00  0.00     0.012 C 
ENDROOT
TORSDOF 0
ENDMDL
