MODEL 1
REMARK VINA RESULT:    -5.132      0.000      0.000
REMARK INTER + INTRA:         -10.017
REMARK INTER:                  -7.832
REMARK INTRA:                  -2.185
REMARK UNBOUND:                -2.185
REMARK SMILES CC(=O)CCC=C(C)CCC=C(C)CCC=C(C)C
REMARK SMILES IDX 10 1 11 2 12 3 13 4 14 5 15 6 16 7 18 8 17 9 19 10 9 11 7 12
REMARK SMILES IDX 6 13 8 14 5 15 4 16 2 17 3 18 1 19
REMARK H PARENT
REMARK Flexibility Score: inf
ROOT
ATOM      1  C   UNL     1     -12.465  -6.263  16.307  1.00  0.00     0.032 C 
ENDROOT
BRANCH   1   2
ATOM      2  C   UNL     1     -11.834  -7.575  15.911  1.00  0.00    -0.028 C 
ATOM      3  C   UNL     1     -10.670  -7.686  15.231  1.00  0.00    -0.077 C 
ATOM      4  C   UNL     1      -9.839  -6.478  14.869  1.00  0.00     0.039 C 
BRANCH   3   5
ATOM      5  C   UNL     1     -10.183  -9.063  14.825  1.00  0.00     0.034 C 
BRANCH   5   6
ATOM      6  C   UNL     1      -8.681  -9.239  15.090  1.00  0.00     0.032 C 
BRANCH   6   7
ATOM      7  C   UNL     1      -8.411  -9.717  16.498  1.00  0.00    -0.028 C 
ATOM      8  C   UNL     1      -7.383  -9.731  18.729  1.00  0.00     0.039 C 
ATOM      9  C   UNL     1      -7.590  -9.101  17.375  1.00  0.00    -0.080 C 
ATOM     10  C   UNL     1      -6.894  -7.801  17.046  1.00  0.00     0.039 C 
ENDBRANCH   6   7
ENDBRANCH   5   6
ENDBRANCH   3   5
ENDBRANCH   1   2
BRANCH   1  11
ATOM     11  C   UNL     1     -12.266  -6.001  17.804  1.00  0.00     0.034 C 
BRANCH  11  12
ATOM     12  C   UNL     1     -10.997  -5.217  18.050  1.00  0.00    -0.077 C 
ATOM     13  C   UNL     1      -9.937  -5.843  18.611  1.00  0.00    -0.028 C 
ATOM     14  C   UNL     1     -10.941  -3.763  17.643  1.00  0.00     0.039 C 
BRANCH  13  15
ATOM     15  C   UNL     1      -8.627  -5.173  18.942  1.00  0.00     0.035 C 
BRANCH  15  16
ATOM     16  C   UNL     1      -8.358  -5.216  20.450  1.00  0.00     0.079 C 
BRANCH  16  17
ATOM     17  C   UNL     1      -9.246  -4.241  21.177  1.00  0.00     0.130 C 
ATOM     18  O   UNL     1      -9.227  -3.061  20.862  1.00  0.00    -0.300 OA
ATOM     19  C   UNL     1     -10.165  -4.689  22.275  1.00  0.00     0.087 C 
ENDBRANCH  16  17
ENDBRANCH  15  16
ENDBRANCH  13  15
ENDBRANCH  11  12
ENDBRANCH   1  11
TORSDOF 9
ENDMDL
MODEL 2
REMARK VINA RESULT:    -4.808      1.147      3.738
REMARK INTER + INTRA:          -9.522
REMARK INTER:                  -7.241
REMARK INTRA:                  -2.281
REMARK UNBOUND:                -2.185
REMARK SMILES CC(=O)CCC=C(C)CCC=C(C)CCC=C(C)C
REMARK SMILES IDX 10 1 11 2 12 3 13 4 14 5 15 6 16 7 18 8 17 9 19 10 9 11 7 12
REMARK SMILES IDX 6 13 8 14 5 15 4 16 2 17 3 18 1 19
REMARK H PARENT
REMARK Flexibility Score: inf
ROOT
ATOM      1  C   UNL     1      -5.998  -7.221  17.329  1.00  0.00     0.032 C 
ENDROOT
BRANCH   1   2
ATOM      2  C   UNL     1      -6.839  -8.137  16.477  1.00  0.00    -0.028 C 
ATOM      3  C   UNL     1      -7.467  -9.243  16.936  1.00  0.00    -0.077 C 
ATOM      4  C   UNL     1      -7.446  -9.622  18.398  1.00  0.00     0.039 C 
BRANCH   3   5
ATOM      5  C   UNL     1      -8.219 -10.124  15.958  1.00  0.00     0.034 C 
BRANCH   5   6
ATOM      6  C   UNL     1      -9.051  -9.296  14.967  1.00  0.00     0.032 C 
BRANCH   6   7
ATOM      7  C   UNL     1     -10.215  -8.611  15.645  1.00  0.00    -0.028 C 
ATOM      8  C   UNL     1     -11.610  -6.741  16.411  1.00  0.00     0.039 C 
ATOM      9  C   UNL     1     -10.429  -7.278  15.644  1.00  0.00    -0.080 C 
ATOM     10  C   UNL     1      -9.536  -6.323  14.888  1.00  0.00     0.039 C 
ENDBRANCH   6   7
ENDBRANCH   5   6
ENDBRANCH   3   5
ENDBRANCH   1   2
BRANCH   1  11
ATOM     11  C   UNL     1      -6.641  -5.833  17.425  1.00  0.00     0.034 C 
BRANCH  11  12
ATOM     12  C   UNL     1      -7.586  -5.759  18.603  1.00  0.00    -0.077 C 
ATOM     13  C   UNL     1      -8.830  -5.258  18.417  1.00  0.00    -0.028 C 
ATOM     14  C   UNL     1      -7.123  -6.263  19.950  1.00  0.00     0.039 C 
BRANCH  13  15
ATOM     15  C   UNL     1      -9.857  -5.094  19.509  1.00  0.00     0.035 C 
BRANCH  15  16
ATOM     16  C   UNL     1      -9.703  -3.738  20.204  1.00  0.00     0.079 C 
BRANCH  16  17
ATOM     17  C   UNL     1      -9.404  -3.921  21.668  1.00  0.00     0.130 C 
ATOM     18  O   UNL     1      -8.468  -3.318  22.171  1.00  0.00    -0.300 OA
ATOM     19  C   UNL     1     -10.240  -4.821  22.530  1.00  0.00     0.087 C 
ENDBRANCH  16  17
ENDBRANCH  15  16
ENDBRANCH  13  15
ENDBRANCH  11  12
ENDBRANCH   1  11
TORSDOF 9
ENDMDL
MODEL 3
REMARK VINA RESULT:    -4.757      1.270      3.924
REMARK INTER + INTRA:          -9.444
REMARK INTER:                  -7.064
REMARK INTRA:                  -2.381
REMARK UNBOUND:                -2.185
REMARK SMILES CC(=O)CCC=C(C)CCC=C(C)CCC=C(C)C
REMARK SMILES IDX 10 1 11 2 12 3 13 4 14 5 15 6 16 7 18 8 17 9 19 10 9 11 7 12
REMARK SMILES IDX 6 13 8 14 5 15 4 16 2 17 3 18 1 19
REMARK H PARENT
REMARK Flexibility Score: inf
ROOT
ATOM      1  C   UNL     1      -7.244  -9.569  16.699  1.00  0.00     0.032 C 
ENDROOT
BRANCH   1   2
ATOM      2  C   UNL     1      -8.629  -9.650  16.108  1.00  0.00    -0.028 C 
ATOM      3  C   UNL     1      -9.143  -8.747  15.243  1.00  0.00    -0.077 C 
ATOM      4  C   UNL     1      -8.324  -7.592  14.717  1.00  0.00     0.039 C 
BRANCH   3   5
ATOM      5  C   UNL     1     -10.579  -8.902  14.782  1.00  0.00     0.034 C 
BRANCH   5   6
ATOM      6  C   UNL     1     -11.332  -7.563  14.802  1.00  0.00     0.032 C 
BRANCH   6   7
ATOM      7  C   UNL     1     -11.715  -7.154  16.205  1.00  0.00    -0.028 C 
ATOM      8  C   UNL     1     -11.778  -5.748  18.218  1.00  0.00     0.039 C 
ATOM      9  C   UNL     1     -11.362  -5.989  16.790  1.00  0.00    -0.080 C 
ATOM     10  C   UNL     1     -10.584  -4.925  16.052  1.00  0.00     0.039 C 
ENDBRANCH   6   7
ENDBRANCH   5   6
ENDBRANCH   3   5
ENDBRANCH   1   2
BRANCH   1  11
ATOM     11  C   UNL     1      -7.317  -9.324  18.210  1.00  0.00     0.034 C 
BRANCH  11  12
ATOM     12  C   UNL     1      -7.103  -7.862  18.529  1.00  0.00    -0.077 C 
ATOM     13  C   UNL     1      -8.147  -7.007  18.423  1.00  0.00    -0.028 C 
ATOM     14  C   UNL     1      -5.736  -7.399  18.977  1.00  0.00     0.039 C 
BRANCH  13  15
ATOM     15  C   UNL     1      -8.065  -5.523  18.676  1.00  0.00     0.035 C 
BRANCH  15  16
ATOM     16  C   UNL     1      -8.542  -5.183  20.091  1.00  0.00     0.079 C 
BRANCH  16  17
ATOM     17  C   UNL     1      -9.190  -3.824  20.123  1.00  0.00     0.130 C 
ATOM     18  O   UNL     1      -9.643  -3.399  21.175  1.00  0.00    -0.300 OA
ATOM     19  C   UNL     1      -9.283  -2.974  18.891  1.00  0.00     0.087 C 
ENDBRANCH  16  17
ENDBRANCH  15  16
ENDBRANCH  13  15
ENDBRANCH  11  12
ENDBRANCH   1  11
TORSDOF 9
ENDMDL
MODEL 4
REMARK VINA RESULT:    -4.589     19.489     22.063
REMARK INTER + INTRA:          -9.187
REMARK INTER:                  -6.519
REMARK INTRA:                  -2.668
REMARK UNBOUND:                -2.185
REMARK SMILES CC(=O)CCC=C(C)CCC=C(C)CCC=C(C)C
REMARK SMILES IDX 10 1 11 2 12 3 13 4 14 5 15 6 16 7 18 8 17 9 19 10 9 11 7 12
REMARK SMILES IDX 6 13 8 14 5 15 4 16 2 17 3 18 1 19
REMARK H PARENT
REMARK Flexibility Score: inf
ROOT
ATOM      1  C   UNL     1       0.685   6.176  31.324  1.00  0.00     0.032 C 
ENDROOT
BRANCH   1   2
ATOM      2  C   UNL     1       1.853   5.225  31.400  1.00  0.00    -0.028 C 
ATOM      3  C   UNL     1       3.048   5.529  31.953  1.00  0.00    -0.077 C 
ATOM      4  C   UNL     1       3.299   6.854  32.633  1.00  0.00     0.039 C 
BRANCH   3   5
ATOM      5  C   UNL     1       4.168   4.508  31.896  1.00  0.00     0.034 C 
BRANCH   5   6
ATOM      6  C   UNL     1       3.788   3.292  31.037  1.00  0.00     0.032 C 
BRANCH   6   7
ATOM      7  C   UNL     1       4.505   3.298  29.707  1.00  0.00    -0.028 C 
ATOM      8  C   UNL     1       4.745   3.295  27.263  1.00  0.00     0.039 C 
ATOM      9  C   UNL     1       3.892   3.349  28.504  1.00  0.00    -0.080 C 
ATOM     10  C   UNL     1       2.393   3.476  28.373  1.00  0.00     0.039 C 
ENDBRANCH   6   7
ENDBRANCH   5   6
ENDBRANCH   3   5
ENDBRANCH   1   2
BRANCH   1  11
ATOM     11  C   UNL     1       0.508   6.698  29.894  1.00  0.00     0.034 C 
BRANCH  11  12
ATOM     12  C   UNL     1       1.665   7.588  29.499  1.00  0.00    -0.077 C 
ATOM     13  C   UNL     1       2.583   7.121  28.621  1.00  0.00    -0.028 C 
ATOM     14  C   UNL     1       1.753   8.980  30.080  1.00  0.00     0.039 C 
BRANCH  13  15
ATOM     15  C   UNL     1       3.801   7.887  28.171  1.00  0.00     0.035 C 
BRANCH  15  16
ATOM     16  C   UNL     1       4.937   6.932  27.791  1.00  0.00     0.079 C 
BRANCH  16  17
ATOM     17  C   UNL     1       5.879   6.739  28.951  1.00  0.00     0.130 C 
ATOM     18  O   UNL     1       6.683   5.820  28.924  1.00  0.00    -0.300 OA
ATOM     19  C   UNL     1       5.859   7.658  30.136  1.00  0.00     0.087 C 
ENDBRANCH  16  17
ENDBRANCH  15  16
ENDBRANCH  13  15
ENDBRANCH  11  12
ENDBRANCH   1  11
TORSDOF 9
ENDMDL
MODEL 5
REMARK VINA RESULT:    -4.576     20.444     22.309
REMARK INTER + INTRA:          -9.169
REMARK INTER:                  -6.386
REMARK INTRA:                  -2.782
REMARK UNBOUND:                -2.185
REMARK SMILES CC(=O)CCC=C(C)CCC=C(C)CCC=C(C)C
REMARK SMILES IDX 10 1 11 2 12 3 13 4 14 5 15 6 16 7 18 8 17 9 19 10 9 11 7 12
REMARK SMILES IDX 6 13 8 14 5 15 4 16 2 17 3 18 1 19
REMARK H PARENT
REMARK Flexibility Score: inf
ROOT
ATOM      1  C   UNL     1       0.680   6.503  29.293  1.00  0.00     0.032 C 
ENDROOT
BRANCH   1   2
ATOM      2  C   UNL     1       1.753   5.542  28.846  1.00  0.00    -0.028 C 
ATOM      3  C   UNL     1       3.012   5.906  28.514  1.00  0.00    -0.077 C 
ATOM      4  C   UNL     1       3.490   7.333  28.643  1.00  0.00     0.039 C 
BRANCH   3   5
ATOM      5  C   UNL     1       3.974   4.851  28.005  1.00  0.00     0.034 C 
BRANCH   5   6
ATOM      6  C   UNL     1       3.736   3.490  28.676  1.00  0.00     0.032 C 
BRANCH   6   7
ATOM      7  C   UNL     1       4.505   3.359  29.970  1.00  0.00    -0.028 C 
ATOM      8  C   UNL     1       4.847   3.201  32.397  1.00  0.00     0.039 C 
ATOM      9  C   UNL     1       3.942   3.276  31.194  1.00  0.00    -0.080 C 
ATOM     10  C   UNL     1       2.444   3.238  31.386  1.00  0.00     0.039 C 
ENDBRANCH   6   7
ENDBRANCH   5   6
ENDBRANCH   3   5
ENDBRANCH   1   2
BRANCH   1  11
ATOM     11  C   UNL     1       0.404   6.343  30.792  1.00  0.00     0.034 C 
BRANCH  11  12
ATOM     12  C   UNL     1       1.309   7.240  31.605  1.00  0.00    -0.077 C 
ATOM     13  C   UNL     1       2.388   6.701  32.219  1.00  0.00    -0.028 C 
ATOM     14  C   UNL     1       0.996   8.715  31.693  1.00  0.00     0.039 C 
BRANCH  13  15
ATOM     15  C   UNL     1       3.351   7.472  33.087  1.00  0.00     0.035 C 
BRANCH  15  16
ATOM     16  C   UNL     1       4.751   6.854  33.031  1.00  0.00     0.079 C 
BRANCH  16  17
ATOM     17  C   UNL     1       5.495   7.333  31.812  1.00  0.00     0.130 C 
ATOM     18  O   UNL     1       5.467   8.518  31.518  1.00  0.00    -0.300 OA
ATOM     19  C   UNL     1       6.283   6.386  30.955  1.00  0.00     0.087 C 
ENDBRANCH  16  17
ENDBRANCH  15  16
ENDBRANCH  13  15
ENDBRANCH  11  12
ENDBRANCH   1  11
TORSDOF 9
ENDMDL
MODEL 6
REMARK VINA RESULT:    -4.519      1.905      5.883
REMARK INTER + INTRA:          -9.082
REMARK INTER:                  -7.463
REMARK INTRA:                  -1.619
REMARK UNBOUND:                -2.185
REMARK SMILES CC(=O)CCC=C(C)CCC=C(C)CCC=C(C)C
REMARK SMILES IDX 10 1 11 2 12 3 13 4 14 5 15 6 16 7 18 8 17 9 19 10 9 11 7 12
REMARK SMILES IDX 6 13 8 14 5 15 4 16 2 17 3 18 1 19
REMARK H PARENT
REMARK Flexibility Score: inf
ROOT
ATOM      1  C   UNL     1      -7.866  -9.326  17.456  1.00  0.00     0.032 C 
ENDROOT
BRANCH   1   2
ATOM      2  C   UNL     1      -7.729  -7.962  18.084  1.00  0.00    -0.028 C 
ATOM      3  C   UNL     1      -6.777  -7.629  18.984  1.00  0.00    -0.077 C 
ATOM      4  C   UNL     1      -5.690  -8.596  19.390  1.00  0.00     0.039 C 
BRANCH   3   5
ATOM      5  C   UNL     1      -6.797  -6.243  19.599  1.00  0.00     0.034 C 
BRANCH   5   6
ATOM      6  C   UNL     1      -8.164  -5.564  19.432  1.00  0.00     0.032 C 
BRANCH   6   7
ATOM      7  C   UNL     1      -8.751  -5.147  20.761  1.00  0.00    -0.028 C 
ATOM      8  C   UNL     1      -9.762  -3.645  22.420  1.00  0.00     0.039 C 
ATOM      9  C   UNL     1      -9.259  -3.924  21.027  1.00  0.00    -0.080 C 
ATOM     10  C   UNL     1      -9.352  -2.848  19.972  1.00  0.00     0.039 C 
ENDBRANCH   6   7
ENDBRANCH   5   6
ENDBRANCH   3   5
ENDBRANCH   1   2
BRANCH   1  11
ATOM     11  C   UNL     1      -7.691  -9.240  15.936  1.00  0.00     0.034 C 
BRANCH  11  12
ATOM     12  C   UNL     1      -8.830  -8.470  15.306  1.00  0.00    -0.077 C 
ATOM     13  C   UNL     1     -10.093  -8.936  15.444  1.00  0.00    -0.028 C 
ATOM     14  C   UNL     1      -8.529  -7.192  14.558  1.00  0.00     0.039 C 
BRANCH  13  15
ATOM     15  C   UNL     1     -11.313  -8.288  14.840  1.00  0.00     0.035 C 
BRANCH  15  16
ATOM     16  C   UNL     1     -12.205  -7.682  15.928  1.00  0.00     0.079 C 
BRANCH  16  17
ATOM     17  C   UNL     1     -11.758  -6.284  16.265  1.00  0.00     0.130 C 
ATOM     18  O   UNL     1     -11.799  -5.417  15.406  1.00  0.00    -0.300 OA
ATOM     19  C   UNL     1     -11.273  -5.928  17.640  1.00  0.00     0.087 C 
ENDBRANCH  16  17
ENDBRANCH  15  16
ENDBRANCH  13  15
ENDBRANCH  11  12
ENDBRANCH   1  11
TORSDOF 9
ENDMDL
MODEL 7
REMARK VINA RESULT:    -4.513      1.861      5.211
REMARK INTER + INTRA:          -9.073
REMARK INTER:                  -7.706
REMARK INTRA:                  -1.367
REMARK UNBOUND:                -2.185
REMARK SMILES CC(=O)CCC=C(C)CCC=C(C)CCC=C(C)C
REMARK SMILES IDX 10 1 11 2 12 3 13 4 14 5 15 6 16 7 18 8 17 9 19 10 9 11 7 12
REMARK SMILES IDX 6 13 8 14 5 15 4 16 2 17 3 18 1 19
REMARK H PARENT
REMARK Flexibility Score: inf
ROOT
ATOM      1  C   UNL     1     -10.237  -7.482  14.625  1.00  0.00     0.032 C 
ENDROOT
BRANCH   1   2
ATOM      2  C   UNL     1     -10.278  -6.732  15.933  1.00  0.00    -0.028 C 
ATOM      3  C   UNL     1     -11.409  -6.468  16.625  1.00  0.00    -0.077 C 
ATOM      4  C   UNL     1     -12.756  -6.986  16.179  1.00  0.00     0.039 C 
BRANCH   3   5
ATOM      5  C   UNL     1     -11.322  -5.635  17.889  1.00  0.00     0.034 C 
BRANCH   5   6
ATOM      6  C   UNL     1      -9.871  -5.269  18.233  1.00  0.00     0.032 C 
BRANCH   6   7
ATOM      7  C   UNL     1      -9.651  -5.184  19.726  1.00  0.00    -0.028 C 
ATOM      8  C   UNL     1      -9.097  -4.141  21.879  1.00  0.00     0.039 C 
ATOM      9  C   UNL     1      -9.336  -4.054  20.393  1.00  0.00    -0.080 C 
ATOM     10  C   UNL     1      -9.236  -2.715  19.700  1.00  0.00     0.039 C 
ENDBRANCH   6   7
ENDBRANCH   5   6
ENDBRANCH   3   5
ENDBRANCH   1   2
BRANCH   1  11
ATOM     11  C   UNL     1     -10.011  -8.978  14.869  1.00  0.00     0.034 C 
BRANCH  11  12
ATOM     12  C   UNL     1      -8.611  -9.234  15.381  1.00  0.00    -0.077 C 
ATOM     13  C   UNL     1      -8.450  -9.768  16.614  1.00  0.00    -0.028 C 
ATOM     14  C   UNL     1      -7.433  -8.905  14.493  1.00  0.00     0.039 C 
BRANCH  13  15
ATOM     15  C   UNL     1      -7.114 -10.041  17.258  1.00  0.00     0.035 C 
BRANCH  15  16
ATOM     16  C   UNL     1      -7.170  -9.773  18.765  1.00  0.00     0.079 C 
BRANCH  16  17
ATOM     17  C   UNL     1      -6.358  -8.555  19.120  1.00  0.00     0.130 C 
ATOM     18  O   UNL     1      -5.512  -8.632  19.997  1.00  0.00    -0.300 OA
ATOM     19  C   UNL     1      -6.556  -7.249  18.409  1.00  0.00     0.087 C 
ENDBRANCH  16  17
ENDBRANCH  15  16
ENDBRANCH  13  15
ENDBRANCH  11  12
ENDBRANCH   1  11
TORSDOF 9
ENDMDL
MODEL 8
REMARK VINA RESULT:    -4.461     19.557     21.707
REMARK INTER + INTRA:          -8.993
REMARK INTER:                  -6.866
REMARK INTRA:                  -2.127
REMARK UNBOUND:                -2.185
REMARK SMILES CC(=O)CCC=C(C)CCC=C(C)CCC=C(C)C
REMARK SMILES IDX 10 1 11 2 12 3 13 4 14 5 15 6 16 7 18 8 17 9 19 10 9 11 7 12
REMARK SMILES IDX 6 13 8 14 5 15 4 16 2 17 3 18 1 19
REMARK H PARENT
REMARK Flexibility Score: inf
ROOT
ATOM      1  C   UNL     1       3.596   3.728  31.167  1.00  0.00     0.032 C 
ENDROOT
BRANCH   1   2
ATOM      2  C   UNL     1       4.251   3.377  29.855  1.00  0.00    -0.028 C 
ATOM      3  C   UNL     1       3.649   3.483  28.649  1.00  0.00    -0.077 C 
ATOM      4  C   UNL     1       2.258   4.054  28.500  1.00  0.00     0.039 C 
BRANCH   3   5
ATOM      5  C   UNL     1       4.392   3.022  27.411  1.00  0.00     0.034 C 
BRANCH   5   6
ATOM      6  C   UNL     1       5.694   3.808  27.200  1.00  0.00     0.032 C 
BRANCH   6   7
ATOM      7  C   UNL     1       5.455   5.104  26.459  1.00  0.00    -0.028 C 
ATOM      8  C   UNL     1       5.115   7.518  26.169  1.00  0.00     0.039 C 
ATOM      9  C   UNL     1       5.416   6.324  27.037  1.00  0.00    -0.080 C 
ATOM     10  C   UNL     1       5.681   6.522  28.510  1.00  0.00     0.039 C 
ENDBRANCH   6   7
ENDBRANCH   5   6
ENDBRANCH   3   5
ENDBRANCH   1   2
BRANCH   1  11
ATOM     11  C   UNL     1       4.208   5.008  31.749  1.00  0.00     0.034 C 
BRANCH  11  12
ATOM     12  C   UNL     1       3.127   5.983  32.158  1.00  0.00    -0.077 C 
ATOM     13  C   UNL     1       1.855   5.761  31.753  1.00  0.00    -0.028 C 
ATOM     14  C   UNL     1       3.494   7.165  33.024  1.00  0.00     0.039 C 
BRANCH  13  15
ATOM     15  C   UNL     1       0.690   6.669  32.060  1.00  0.00     0.035 C 
BRANCH  15  16
ATOM     16  C   UNL     1       0.642   7.844  31.078  1.00  0.00     0.079 C 
BRANCH  16  17
ATOM     17  C   UNL     1       0.873   7.368  29.668  1.00  0.00     0.130 C 
ATOM     18  O   UNL     1       0.021   6.688  29.116  1.00  0.00    -0.300 OA
ATOM     19  C   UNL     1       2.124   7.720  28.918  1.00  0.00     0.087 C 
ENDBRANCH  16  17
ENDBRANCH  15  16
ENDBRANCH  13  15
ENDBRANCH  11  12
ENDBRANCH   1  11
TORSDOF 9
ENDMDL
MODEL 9
REMARK VINA RESULT:    -4.433      1.412      2.929
REMARK INTER + INTRA:          -8.950
REMARK INTER:                  -7.194
REMARK INTRA:                  -1.756
REMARK UNBOUND:                -2.185
REMARK SMILES CC(=O)CCC=C(C)CCC=C(C)CCC=C(C)C
REMARK SMILES IDX 10 1 11 2 12 3 13 4 14 5 15 6 16 7 18 8 17 9 19 10 9 11 7 12
REMARK SMILES IDX 6 13 8 14 5 15 4 16 2 17 3 18 1 19
REMARK H PARENT
REMARK Flexibility Score: inf
ROOT
ATOM      1  C   UNL     1     -10.411  -8.585  14.869  1.00  0.00     0.032 C 
ENDROOT
BRANCH   1   2
ATOM      2  C   UNL     1      -9.376  -9.077  15.849  1.00  0.00    -0.028 C 
ATOM      3  C   UNL     1      -8.177  -9.593  15.498  1.00  0.00    -0.077 C 
ATOM      4  C   UNL     1      -7.724  -9.648  14.058  1.00  0.00     0.039 C 
BRANCH   3   5
ATOM      5  C   UNL     1      -7.258 -10.125  16.580  1.00  0.00     0.034 C 
BRANCH   5   6
ATOM      6  C   UNL     1      -7.755  -9.754  17.985  1.00  0.00     0.032 C 
BRANCH   6   7
ATOM      7  C   UNL     1      -6.692  -9.039  18.787  1.00  0.00    -0.028 C 
ATOM      8  C   UNL     1      -5.310  -7.157  19.547  1.00  0.00     0.039 C 
ATOM      9  C   UNL     1      -6.440  -7.714  18.721  1.00  0.00    -0.080 C 
ATOM     10  C   UNL     1      -7.265  -6.783  17.864  1.00  0.00     0.039 C 
ENDBRANCH   6   7
ENDBRANCH   5   6
ENDBRANCH   3   5
ENDBRANCH   1   2
BRANCH   1  11
ATOM     11  C   UNL     1     -10.368  -7.056  14.762  1.00  0.00     0.034 C 
BRANCH  11  12
ATOM     12  C   UNL     1     -11.071  -6.415  15.936  1.00  0.00    -0.077 C 
ATOM     13  C   UNL     1     -10.436  -5.443  16.631  1.00  0.00    -0.028 C 
ATOM     14  C   UNL     1     -12.471  -6.863  16.289  1.00  0.00     0.039 C 
BRANCH  13  15
ATOM     15  C   UNL     1     -11.007  -4.746  17.841  1.00  0.00     0.035 C 
BRANCH  15  16
ATOM     16  C   UNL     1     -10.469  -5.370  19.133  1.00  0.00     0.079 C 
BRANCH  16  17
ATOM     17  C   UNL     1      -9.463  -4.459  19.785  1.00  0.00     0.130 C 
ATOM     18  O   UNL     1      -8.667  -4.920  20.588  1.00  0.00    -0.300 OA
ATOM     19  C   UNL     1      -9.409  -2.995  19.462  1.00  0.00     0.087 C 
ENDBRANCH  16  17
ENDBRANCH  15  16
ENDBRANCH  13  15
ENDBRANCH  11  12
ENDBRANCH   1  11
TORSDOF 9
ENDMDL
