MODEL 1
REMARK VINA RESULT:    -4.594      0.000      0.000
REMARK INTER + INTRA:          -7.550
REMARK INTER:                  -7.011
REMARK INTRA:                  -0.539
REMARK UNBOUND:                -0.539
REMARK SMILES O=C([O-])CCCCCCCCC(=O)[O-]
REMARK SMILES IDX 7 1 6 2 5 3 4 4 2 5 1 6 3 7 8 8 9 9 10 10 11 11 12 12 13 13
REMARK SMILES IDX 14 14
REMARK H PARENT
REMARK Flexibility Score: inf
ROOT
ATOM      1  C   UNL     1      12.564 -21.478 -14.859  1.00  0.00     0.000 C 
ENDROOT
BRANCH   1   2
ATOM      2  C   UNL     1      11.363 -22.441 -14.864  1.00  0.00     0.000 C 
BRANCH   2   3
ATOM      3  C   UNL     1      11.421 -23.480 -13.734  1.00  0.00     0.006 C 
BRANCH   3   4
ATOM      4  C   UNL     1      11.321 -24.903 -14.293  1.00  0.00     0.053 C 
BRANCH   4   5
ATOM      5  C   UNL     1      12.636 -25.606 -14.172  1.00  0.00     0.041 C 
ATOM      6  O   UNL     1      13.690 -24.948 -13.967  1.00  0.00    -0.550 OA
ATOM      7  O   UNL     1      12.691 -26.993 -14.234  1.00  0.00    -0.550 OA
ENDBRANCH   4   5
ENDBRANCH   3   4
ENDBRANCH   2   3
ENDBRANCH   1   2
BRANCH   1   8
ATOM      8  C   UNL     1      12.351 -20.157 -15.622  1.00  0.00     0.000 C 
BRANCH   8   9
ATOM      9  C   UNL     1      11.278 -19.261 -14.979  1.00  0.00     0.000 C 
BRANCH   9  10
ATOM     10  C   UNL     1      11.444 -19.135 -13.454  1.00  0.00     0.006 C 
BRANCH  10  11
ATOM     11  C   UNL     1      11.720 -17.705 -12.961  1.00  0.00     0.053 C 
BRANCH  11  12
ATOM     12  C   UNL     1      13.088 -17.234 -13.348  1.00  0.00     0.041 C 
ATOM     13  O   UNL     1      13.238 -16.117 -13.909  1.00  0.00    -0.550 OA
ATOM     14  O   UNL     1      14.194 -18.041 -13.116  1.00  0.00    -0.550 OA
ENDBRANCH  11  12
ENDBRANCH  10  11
ENDBRANCH   9  10
ENDBRANCH   8   9
ENDBRANCH   1   8
TORSDOF 9
ENDMDL
MODEL 2
REMARK VINA RESULT:    -4.541      1.708      7.273
REMARK INTER + INTRA:          -7.468
REMARK INTER:                  -7.040
REMARK INTRA:                  -0.428
REMARK UNBOUND:                -0.539
REMARK SMILES O=C([O-])CCCCCCCCC(=O)[O-]
REMARK SMILES IDX 7 1 6 2 5 3 4 4 2 5 1 6 3 7 8 8 9 9 10 10 11 11 12 12 13 13
REMARK SMILES IDX 14 14
REMARK H PARENT
REMARK Flexibility Score: inf
ROOT
ATOM      1  C   UNL     1      12.671 -22.782 -13.762  1.00  0.00     0.000 C 
ENDROOT
BRANCH   1   2
ATOM      2  C   UNL     1      12.979 -21.464 -14.496  1.00  0.00     0.000 C 
BRANCH   2   3
ATOM      3  C   UNL     1      11.792 -20.944 -15.320  1.00  0.00     0.006 C 
BRANCH   3   4
ATOM      4  C   UNL     1      11.391 -19.535 -14.874  1.00  0.00     0.053 C 
BRANCH   4   5
ATOM      5  C   UNL     1      12.559 -18.604 -14.967  1.00  0.00     0.041 C 
ATOM      6  O   UNL     1      12.976 -18.007 -13.939  1.00  0.00    -0.550 OA
ATOM      7  O   UNL     1      13.218 -18.434 -16.177  1.00  0.00    -0.550 OA
ENDBRANCH   4   5
ENDBRANCH   3   4
ENDBRANCH   2   3
ENDBRANCH   1   2
BRANCH   1   8
ATOM      8  C   UNL     1      11.312 -23.421 -14.104  1.00  0.00     0.000 C 
BRANCH   8   9
ATOM      9  C   UNL     1      11.351 -24.960 -14.082  1.00  0.00     0.000 C 
BRANCH   9  10
ATOM     10  C   UNL     1      12.785 -25.518 -14.082  1.00  0.00     0.006 C 
BRANCH  10  11
ATOM     11  C   UNL     1      12.883 -27.015 -14.422  1.00  0.00     0.053 C 
BRANCH  11  12
ATOM     12  C   UNL     1      14.299 -27.447 -14.647  1.00  0.00     0.041 C 
ATOM     13  O   UNL     1      15.085 -26.721 -15.311  1.00  0.00    -0.550 OA
ATOM     14  O   UNL     1      14.742 -28.666 -14.149  1.00  0.00    -0.550 OA
ENDBRANCH  11  12
ENDBRANCH  10  11
ENDBRANCH   9  10
ENDBRANCH   8   9
ENDBRANCH   1   8
TORSDOF 9
ENDMDL
MODEL 3
REMARK VINA RESULT:    -4.535      1.640      2.467
REMARK INTER + INTRA:          -7.460
REMARK INTER:                  -6.774
REMARK INTRA:                  -0.686
REMARK UNBOUND:                -0.539
REMARK SMILES O=C([O-])CCCCCCCCC(=O)[O-]
REMARK SMILES IDX 7 1 6 2 5 3 4 4 2 5 1 6 3 7 8 8 9 9 10 10 11 11 12 12 13 13
REMARK SMILES IDX 14 14
REMARK H PARENT
REMARK Flexibility Score: inf
ROOT
ATOM      1  C   UNL     1      12.049 -19.668 -16.146  1.00  0.00     0.000 C 
ENDROOT
BRANCH   1   2
ATOM      2  C   UNL     1      11.643 -19.665 -14.661  1.00  0.00     0.000 C 
BRANCH   2   3
ATOM      3  C   UNL     1      12.001 -20.972 -13.937  1.00  0.00     0.006 C 
BRANCH   3   4
ATOM      4  C   UNL     1      11.499 -22.188 -14.721  1.00  0.00     0.053 C 
BRANCH   4   5
ATOM      5  C   UNL     1      12.044 -23.451 -14.133  1.00  0.00     0.041 C 
ATOM      6  O   UNL     1      13.191 -23.464 -13.614  1.00  0.00    -0.550 OA
ATOM      7  O   UNL     1      11.266 -24.601 -14.113  1.00  0.00    -0.550 OA
ENDBRANCH   4   5
ENDBRANCH   3   4
ENDBRANCH   2   3
ENDBRANCH   1   2
BRANCH   1   8
ATOM      8  C   UNL     1      13.228 -18.745 -16.506  1.00  0.00     0.000 C 
BRANCH   8   9
ATOM      9  C   UNL     1      14.048 -18.313 -15.278  1.00  0.00     0.000 C 
BRANCH   9  10
ATOM     10  C   UNL     1      14.049 -16.788 -15.070  1.00  0.00     0.006 C 
BRANCH  10  11
ATOM     11  C   UNL     1      13.260 -16.314 -13.839  1.00  0.00     0.053 C 
BRANCH  11  12
ATOM     12  C   UNL     1      13.678 -17.033 -12.594  1.00  0.00     0.041 C 
ATOM     13  O   UNL     1      12.844 -17.725 -11.951  1.00  0.00    -0.550 OA
ATOM     14  O   UNL     1      14.980 -16.915 -12.126  1.00  0.00    -0.550 OA
ENDBRANCH  11  12
ENDBRANCH  10  11
ENDBRANCH   9  10
ENDBRANCH   8   9
ENDBRANCH   1   8
TORSDOF 9
ENDMDL
MODEL 4
REMARK VINA RESULT:    -4.521      1.382      1.835
REMARK INTER + INTRA:          -7.438
REMARK INTER:                  -6.902
REMARK INTRA:                  -0.536
REMARK UNBOUND:                -0.539
REMARK SMILES O=C([O-])CCCCCCCCC(=O)[O-]
REMARK SMILES IDX 7 1 6 2 5 3 4 4 2 5 1 6 3 7 8 8 9 9 10 10 11 11 12 12 13 13
REMARK SMILES IDX 14 14
REMARK H PARENT
REMARK Flexibility Score: inf
ROOT
ATOM      1  C   UNL     1      12.001 -20.217 -15.258  1.00  0.00     0.000 C 
ENDROOT
BRANCH   1   2
ATOM      2  C   UNL     1      11.478 -21.663 -15.189  1.00  0.00     0.000 C 
BRANCH   2   3
ATOM      3  C   UNL     1      11.782 -22.348 -13.848  1.00  0.00     0.006 C 
BRANCH   3   4
ATOM      4  C   UNL     1      12.905 -23.379 -14.001  1.00  0.00     0.053 C 
BRANCH   4   5
ATOM      5  C   UNL     1      12.349 -24.768 -13.967  1.00  0.00     0.041 C 
ATOM      6  O   UNL     1      11.103 -24.952 -14.002  1.00  0.00    -0.550 OA
ATOM      7  O   UNL     1      13.206 -25.860 -13.947  1.00  0.00    -0.550 OA
ENDBRANCH   4   5
ENDBRANCH   3   4
ENDBRANCH   2   3
ENDBRANCH   1   2
BRANCH   1   8
ATOM      8  C   UNL     1      11.024 -19.141 -14.745  1.00  0.00     0.000 C 
BRANCH   8   9
ATOM      9  C   UNL     1      11.337 -18.683 -13.309  1.00  0.00     0.000 C 
BRANCH   9  10
ATOM     10  C   UNL     1      12.178 -17.394 -13.267  1.00  0.00     0.006 C 
BRANCH  10  11
ATOM     11  C   UNL     1      13.684 -17.626 -13.060  1.00  0.00     0.053 C 
BRANCH  11  12
ATOM     12  C   UNL     1      14.494 -17.100 -14.205  1.00  0.00     0.041 C 
ATOM     13  O   UNL     1      15.572 -16.486 -13.989  1.00  0.00    -0.550 OA
ATOM     14  O   UNL     1      14.044 -17.263 -15.509  1.00  0.00    -0.550 OA
ENDBRANCH  11  12
ENDBRANCH  10  11
ENDBRANCH   9  10
ENDBRANCH   8   9
ENDBRANCH   1   8
TORSDOF 9
ENDMDL
MODEL 5
REMARK VINA RESULT:    -4.484      1.520      6.693
REMARK INTER + INTRA:          -7.382
REMARK INTER:                  -6.859
REMARK INTRA:                  -0.522
REMARK UNBOUND:                -0.539
REMARK SMILES O=C([O-])CCCCCCCCC(=O)[O-]
REMARK SMILES IDX 7 1 6 2 5 3 4 4 2 5 1 6 3 7 8 8 9 9 10 10 11 11 12 12 13 13
REMARK SMILES IDX 14 14
REMARK H PARENT
REMARK Flexibility Score: inf
ROOT
ATOM      1  C   UNL     1      11.306 -19.263 -13.250  1.00  0.00     0.000 C 
ENDROOT
BRANCH   1   2
ATOM      2  C   UNL     1      11.581 -17.821 -12.785  1.00  0.00     0.000 C 
BRANCH   2   3
ATOM      3  C   UNL     1      13.077 -17.474 -12.757  1.00  0.00     0.006 C 
BRANCH   3   4
ATOM      4  C   UNL     1      13.417 -16.431 -13.827  1.00  0.00     0.053 C 
BRANCH   4   5
ATOM      5  C   UNL     1      14.574 -16.891 -14.657  1.00  0.00     0.041 C 
ATOM      6  O   UNL     1      15.753 -16.635 -14.297  1.00  0.00    -0.550 OA
ATOM      7  O   UNL     1      14.352 -17.647 -15.801  1.00  0.00    -0.550 OA
ENDBRANCH   4   5
ENDBRANCH   3   4
ENDBRANCH   2   3
ENDBRANCH   1   2
BRANCH   1   8
ATOM      8  C   UNL     1      11.324 -19.475 -14.775  1.00  0.00     0.000 C 
BRANCH   8   9
ATOM      9  C   UNL     1      11.837 -20.868 -15.181  1.00  0.00     0.000 C 
BRANCH   9  10
ATOM     10  C   UNL     1      11.754 -21.890 -14.033  1.00  0.00     0.006 C 
BRANCH  10  11
ATOM     11  C   UNL     1      12.918 -22.893 -13.991  1.00  0.00     0.053 C 
BRANCH  11  12
ATOM     12  C   UNL     1      12.435 -24.311 -13.961  1.00  0.00     0.041 C 
ATOM     13  O   UNL     1      13.258 -25.262 -14.032  1.00  0.00    -0.550 OA
ATOM     14  O   UNL     1      11.075 -24.582 -13.885  1.00  0.00    -0.550 OA
ENDBRANCH  11  12
ENDBRANCH  10  11
ENDBRANCH   9  10
ENDBRANCH   8   9
ENDBRANCH   1   8
TORSDOF 9
ENDMDL
MODEL 6
REMARK VINA RESULT:    -4.482      1.935      2.821
REMARK INTER + INTRA:          -7.379
REMARK INTER:                  -6.997
REMARK INTRA:                  -0.381
REMARK UNBOUND:                -0.539
REMARK SMILES O=C([O-])CCCCCCCCC(=O)[O-]
REMARK SMILES IDX 7 1 6 2 5 3 4 4 2 5 1 6 3 7 8 8 9 9 10 10 11 11 12 12 13 13
REMARK SMILES IDX 14 14
REMARK H PARENT
REMARK Flexibility Score: inf
ROOT
ATOM      1  C   UNL     1      11.343 -23.534 -13.991  1.00  0.00     0.000 C 
ENDROOT
BRANCH   1   2
ATOM      2  C   UNL     1      11.425 -25.065 -14.131  1.00  0.00     0.000 C 
BRANCH   2   3
ATOM      3  C   UNL     1      12.864 -25.599 -14.058  1.00  0.00     0.006 C 
BRANCH   3   4
ATOM      4  C   UNL     1      12.924 -27.070 -14.477  1.00  0.00     0.053 C 
BRANCH   4   5
ATOM      5  C   UNL     1      14.339 -27.483 -14.738  1.00  0.00     0.041 C 
ATOM      6  O   UNL     1      15.087 -26.763 -15.451  1.00  0.00    -0.550 OA
ATOM      7  O   UNL     1      14.847 -28.635 -14.152  1.00  0.00    -0.550 OA
ENDBRANCH   4   5
ENDBRANCH   3   4
ENDBRANCH   2   3
ENDBRANCH   1   2
BRANCH   1   8
ATOM      8  C   UNL     1      12.694 -22.820 -13.796  1.00  0.00     0.000 C 
BRANCH   8   9
ATOM      9  C   UNL     1      12.843 -21.567 -14.677  1.00  0.00     0.000 C 
BRANCH   9  10
ATOM     10  C   UNL     1      11.848 -20.454 -14.301  1.00  0.00     0.006 C 
BRANCH  10  11
ATOM     11  C   UNL     1      11.552 -19.459 -15.435  1.00  0.00     0.053 C 
BRANCH  11  12
ATOM     12  C   UNL     1      12.793 -18.775 -15.920  1.00  0.00     0.041 C 
ATOM     13  O   UNL     1      13.224 -18.996 -17.083  1.00  0.00    -0.550 OA
ATOM     14  O   UNL     1      13.491 -17.919 -15.078  1.00  0.00    -0.550 OA
ENDBRANCH  11  12
ENDBRANCH  10  11
ENDBRANCH   9  10
ENDBRANCH   8   9
ENDBRANCH   1   8
TORSDOF 9
ENDMDL
MODEL 7
REMARK VINA RESULT:    -4.469      1.622      2.234
REMARK INTER + INTRA:          -7.359
REMARK INTER:                  -6.852
REMARK INTRA:                  -0.507
REMARK UNBOUND:                -0.539
REMARK SMILES O=C([O-])CCCCCCCCC(=O)[O-]
REMARK SMILES IDX 7 1 6 2 5 3 4 4 2 5 1 6 3 7 8 8 9 9 10 10 11 11 12 12 13 13
REMARK SMILES IDX 14 14
REMARK H PARENT
REMARK Flexibility Score: inf
ROOT
ATOM      1  C   UNL     1      11.481 -20.412 -14.263  1.00  0.00     0.000 C 
ENDROOT
BRANCH   1   2
ATOM      2  C   UNL     1      12.285 -21.660 -14.672  1.00  0.00     0.000 C 
BRANCH   2   3
ATOM      3  C   UNL     1      11.547 -22.974 -14.375  1.00  0.00     0.006 C 
BRANCH   3   4
ATOM      4  C   UNL     1      12.503 -24.022 -13.800  1.00  0.00     0.053 C 
BRANCH   4   5
ATOM      5  C   UNL     1      12.090 -25.397 -14.223  1.00  0.00     0.041 C 
ATOM      6  O   UNL     1      12.903 -26.356 -14.140  1.00  0.00    -0.550 OA
ATOM      7  O   UNL     1      10.793 -25.629 -14.661  1.00  0.00    -0.550 OA
ENDBRANCH   4   5
ENDBRANCH   3   4
ENDBRANCH   2   3
ENDBRANCH   1   2
BRANCH   1   8
ATOM      8  C   UNL     1      11.604 -19.211 -15.219  1.00  0.00     0.000 C 
BRANCH   8   9
ATOM      9  C   UNL     1      12.498 -19.502 -16.437  1.00  0.00     0.000 C 
BRANCH   9  10
ATOM     10  C   UNL     1      13.712 -18.560 -16.522  1.00  0.00     0.006 C 
BRANCH  10  11
ATOM     11  C   UNL     1      14.594 -18.545 -15.263  1.00  0.00     0.053 C 
BRANCH  11  12
ATOM     12  C   UNL     1      14.840 -17.153 -14.767  1.00  0.00     0.041 C 
ATOM     13  O   UNL     1      15.961 -16.841 -14.286  1.00  0.00    -0.550 OA
ATOM     14  O   UNL     1      13.821 -16.210 -14.808  1.00  0.00    -0.550 OA
ENDBRANCH  11  12
ENDBRANCH  10  11
ENDBRANCH   9  10
ENDBRANCH   8   9
ENDBRANCH   1   8
TORSDOF 9
ENDMDL
MODEL 8
REMARK VINA RESULT:    -4.455      2.684      6.411
REMARK INTER + INTRA:          -7.338
REMARK INTER:                  -6.585
REMARK INTRA:                  -0.753
REMARK UNBOUND:                -0.539
REMARK SMILES O=C([O-])CCCCCCCCC(=O)[O-]
REMARK SMILES IDX 7 1 6 2 5 3 4 4 2 5 1 6 3 7 8 8 9 9 10 10 11 11 12 12 13 13
REMARK SMILES IDX 14 14
REMARK H PARENT
REMARK Flexibility Score: inf
ROOT
ATOM      1  C   UNL     1      11.626 -17.992 -10.920  1.00  0.00     0.000 C 
ENDROOT
BRANCH   1   2
ATOM      2  C   UNL     1      13.144 -18.171 -11.098  1.00  0.00     0.000 C 
BRANCH   2   3
ATOM      3  C   UNL     1      13.862 -16.867 -11.476  1.00  0.00     0.006 C 
BRANCH   3   4
ATOM      4  C   UNL     1      14.683 -17.045 -12.757  1.00  0.00     0.053 C 
BRANCH   4   5
ATOM      5  C   UNL     1      13.906 -16.576 -13.946  1.00  0.00     0.041 C 
ATOM      6  O   UNL     1      12.915 -15.813 -13.794  1.00  0.00    -0.550 OA
ATOM      7  O   UNL     1      14.306 -16.938 -15.226  1.00  0.00    -0.550 OA
ENDBRANCH   4   5
ENDBRANCH   3   4
ENDBRANCH   2   3
ENDBRANCH   1   2
BRANCH   1   8
ATOM      8  C   UNL     1      10.751 -18.757 -11.931  1.00  0.00     0.000 C 
BRANCH   8   9
ATOM      9  C   UNL     1      11.570 -19.416 -13.055  1.00  0.00     0.000 C 
BRANCH   9  10
ATOM     10  C   UNL     1      11.136 -18.952 -14.457  1.00  0.00     0.006 C 
BRANCH  10  11
ATOM     11  C   UNL     1      11.796 -19.722 -15.613  1.00  0.00     0.053 C 
BRANCH  11  12
ATOM     12  C   UNL     1      12.159 -21.121 -15.220  1.00  0.00     0.041 C 
ATOM     13  O   UNL     1      11.278 -22.020 -15.193  1.00  0.00    -0.550 OA
ATOM     14  O   UNL     1      13.464 -21.425 -14.854  1.00  0.00    -0.550 OA
ENDBRANCH  11  12
ENDBRANCH  10  11
ENDBRANCH   9  10
ENDBRANCH   8   9
ENDBRANCH   1   8
TORSDOF 9
ENDMDL
MODEL 9
REMARK VINA RESULT:    -4.417      1.492      2.021
REMARK INTER + INTRA:          -7.280
REMARK INTER:                  -6.842
REMARK INTRA:                  -0.438
REMARK UNBOUND:                -0.539
REMARK SMILES O=C([O-])CCCCCCCCC(=O)[O-]
REMARK SMILES IDX 7 1 6 2 5 3 4 4 2 5 1 6 3 7 8 8 9 9 10 10 11 11 12 12 13 13
REMARK SMILES IDX 14 14
REMARK H PARENT
REMARK Flexibility Score: inf
ROOT
ATOM      1  C   UNL     1      12.439 -22.653 -13.761  1.00  0.00     0.000 C 
ENDROOT
BRANCH   1   2
ATOM      2  C   UNL     1      11.367 -23.718 -14.056  1.00  0.00     0.000 C 
BRANCH   2   3
ATOM      3  C   UNL     1      11.941 -25.141 -14.136  1.00  0.00     0.006 C 
BRANCH   3   4
ATOM      4  C   UNL     1      13.423 -25.157 -13.751  1.00  0.00     0.053 C 
BRANCH   4   5
ATOM      5  C   UNL     1      14.130 -26.285 -14.435  1.00  0.00     0.041 C 
ATOM      6  O   UNL     1      15.207 -26.075 -15.054  1.00  0.00    -0.550 OA
ATOM      7  O   UNL     1      13.627 -27.576 -14.346  1.00  0.00    -0.550 OA
ENDBRANCH   4   5
ENDBRANCH   3   4
ENDBRANCH   2   3
ENDBRANCH   1   2
BRANCH   1   8
ATOM      8  C   UNL     1      12.015 -21.200 -14.047  1.00  0.00     0.000 C 
BRANCH   8   9
ATOM      9  C   UNL     1      11.781 -20.926 -15.543  1.00  0.00     0.000 C 
BRANCH   9  10
ATOM     10  C   UNL     1      12.029 -19.456 -15.924  1.00  0.00     0.006 C 
BRANCH  10  11
ATOM     11  C   UNL     1      13.411 -18.919 -15.518  1.00  0.00     0.053 C 
BRANCH  11  12
ATOM     12  C   UNL     1      13.310 -17.646 -14.735  1.00  0.00     0.041 C 
ATOM     13  O   UNL     1      12.548 -17.577 -13.734  1.00  0.00    -0.550 OA
ATOM     14  O   UNL     1      14.034 -16.528 -15.128  1.00  0.00    -0.550 OA
ENDBRANCH  11  12
ENDBRANCH  10  11
ENDBRANCH   9  10
ENDBRANCH   8   9
ENDBRANCH   1   8
TORSDOF 9
ENDMDL
