MODEL 1
REMARK VINA RESULT:    -6.322      0.000      0.000
REMARK INTER + INTRA:         -17.945
REMARK INTER:                 -15.932
REMARK INTRA:                  -2.013
REMARK UNBOUND:                -2.013
REMARK SMILES CCCCCCCCCCCCCCCCCCCCCCCCCCCC(=O)[O-]
REMARK SMILES IDX 15 1 16 2 17 3 18 4 19 5 20 6 21 7 22 8 23 9 24 10 25 11
REMARK SMILES IDX 26 12 27 13 28 14 29 15 30 16 14 17 13 18 12 19 11 20 10 21
REMARK SMILES IDX 9 22 8 23 7 24 6 25 5 26 4 27 3 28 2 29 1 30
REMARK H PARENT
REMARK Flexibility Score: inf
ROOT
ATOM      1  C   UNL     1      -8.897  62.343  47.371  1.00  0.00     0.000 C 
ENDROOT
BRANCH   1   2
ATOM      2  C   UNL     1      -9.639  63.240  48.373  1.00  0.00     0.000 C 
BRANCH   2   3
ATOM      3  C   UNL     1      -8.918  64.584  48.530  1.00  0.00     0.000 C 
BRANCH   3   4
ATOM      4  C   UNL     1      -8.103  64.634  49.831  1.00  0.00     0.000 C 
BRANCH   4   5
ATOM      5  C   UNL     1      -6.689  65.202  49.619  1.00  0.00     0.000 C 
BRANCH   5   6
ATOM      6  C   UNL     1      -5.862  65.233  50.916  1.00  0.00     0.000 C 
BRANCH   6   7
ATOM      7  C   UNL     1      -6.561  66.008  52.048  1.00  0.00     0.000 C 
BRANCH   7   8
ATOM      8  C   UNL     1      -6.649  65.258  53.390  1.00  0.00     0.000 C 
BRANCH   8   9
ATOM      9  C   UNL     1      -6.625  63.732  53.219  1.00  0.00     0.000 C 
BRANCH   9  10
ATOM     10  C   UNL     1      -7.826  63.083  53.919  1.00  0.00     0.000 C 
BRANCH  10  11
ATOM     11  C   UNL     1      -7.722  61.554  53.895  1.00  0.00     0.000 C 
BRANCH  11  12
ATOM     12  C   UNL     1      -6.309  61.096  54.286  1.00  0.00     0.006 C 
BRANCH  12  13
ATOM     13  C   UNL     1      -6.159  60.893  55.800  1.00  0.00     0.053 C 
BRANCH  13  14
ATOM     14  C   UNL     1      -5.669  59.517  56.133  1.00  0.00     0.041 C 
ATOM     15  O   UNL     1      -4.750  59.357  56.980  1.00  0.00    -0.550 OA
ATOM     16  O   UNL     1      -6.246  58.407  55.527  1.00  0.00    -0.550 OA
ENDBRANCH  13  14
ENDBRANCH  12  13
ENDBRANCH  11  12
ENDBRANCH  10  11
ENDBRANCH   9  10
ENDBRANCH   8   9
ENDBRANCH   7   8
ENDBRANCH   6   7
ENDBRANCH   5   6
ENDBRANCH   4   5
ENDBRANCH   3   4
ENDBRANCH   2   3
ENDBRANCH   1   2
BRANCH   1  17
ATOM     17  C   UNL     1      -9.218  62.676  45.904  1.00  0.00     0.000 C 
BRANCH  17  18
ATOM     18  C   UNL     1      -9.307  61.460  44.964  1.00  0.00     0.000 C 
BRANCH  18  19
ATOM     19  C   UNL     1     -10.367  61.630  43.858  1.00  0.00     0.000 C 
BRANCH  19  20
ATOM     20  C   UNL     1      -9.792  62.229  42.558  1.00  0.00     0.000 C 
BRANCH  20  21
ATOM     21  C   UNL     1      -9.980  63.754  42.425  1.00  0.00     0.000 C 
BRANCH  21  22
ATOM     22  C   UNL     1      -9.420  64.377  41.136  1.00  0.00    -0.000 C 
BRANCH  22  23
ATOM     23  C   UNL     1      -9.141  63.336  40.042  1.00  0.00    -0.000 C 
BRANCH  23  24
ATOM     24  C   UNL     1      -9.864  63.699  38.736  1.00  0.00    -0.000 C 
BRANCH  24  25
ATOM     25  C   UNL     1     -10.864  62.619  38.292  1.00  0.00    -0.000 C 
BRANCH  25  26
ATOM     26  C   UNL     1     -11.871  62.253  39.397  1.00  0.00    -0.000 C 
BRANCH  26  27
ATOM     27  C   UNL     1     -11.789  60.775  39.807  1.00  0.00    -0.000 C 
BRANCH  27  28
ATOM     28  C   UNL     1     -13.075  59.997  39.490  1.00  0.00    -0.000 C 
BRANCH  28  29
ATOM     29  C   UNL     1     -14.049  60.859  38.675  1.00  0.00    -0.003 C 
ATOM     30  C   UNL     1     -15.481  60.344  38.795  1.00  0.00     0.004 C 
ENDBRANCH  28  29
ENDBRANCH  27  28
ENDBRANCH  26  27
ENDBRANCH  25  26
ENDBRANCH  24  25
ENDBRANCH  23  24
ENDBRANCH  22  23
ENDBRANCH  21  22
ENDBRANCH  20  21
ENDBRANCH  19  20
ENDBRANCH  18  19
ENDBRANCH  17  18
ENDBRANCH   1  17
TORSDOF 26
ENDMDL
MODEL 2
REMARK VINA RESULT:    -6.267      1.083      2.147
REMARK INTER + INTRA:         -17.805
REMARK INTER:                 -15.657
REMARK INTRA:                  -2.148
REMARK UNBOUND:                -2.013
REMARK SMILES CCCCCCCCCCCCCCCCCCCCCCCCCCCC(=O)[O-]
REMARK SMILES IDX 15 1 16 2 17 3 18 4 19 5 20 6 21 7 22 8 23 9 24 10 25 11
REMARK SMILES IDX 26 12 27 13 28 14 29 15 30 16 14 17 13 18 12 19 11 20 10 21
REMARK SMILES IDX 9 22 8 23 7 24 6 25 5 26 4 27 3 28 2 29 1 30
REMARK H PARENT
REMARK Flexibility Score: inf
ROOT
ATOM      1  C   UNL     1      -8.585  64.389  48.991  1.00  0.00     0.000 C 
ENDROOT
BRANCH   1   2
ATOM      2  C   UNL     1      -7.691  63.236  49.470  1.00  0.00     0.000 C 
BRANCH   2   3
ATOM      3  C   UNL     1      -6.279  63.743  49.785  1.00  0.00     0.000 C 
BRANCH   3   4
ATOM      4  C   UNL     1      -6.222  65.278  49.783  1.00  0.00     0.000 C 
BRANCH   4   5
ATOM      5  C   UNL     1      -5.897  65.857  51.172  1.00  0.00     0.000 C 
BRANCH   5   6
ATOM      6  C   UNL     1      -7.022  65.614  52.193  1.00  0.00     0.000 C 
BRANCH   6   7
ATOM      7  C   UNL     1      -6.639  64.574  53.262  1.00  0.00     0.000 C 
BRANCH   7   8
ATOM      8  C   UNL     1      -7.796  63.675  53.735  1.00  0.00     0.000 C 
BRANCH   8   9
ATOM      9  C   UNL     1      -7.487  62.179  53.576  1.00  0.00     0.000 C 
BRANCH   9  10
ATOM     10  C   UNL     1      -5.992  61.952  53.317  1.00  0.00     0.000 C 
BRANCH  10  11
ATOM     11  C   UNL     1      -5.278  61.470  54.584  1.00  0.00     0.000 C 
BRANCH  11  12
ATOM     12  C   UNL     1      -6.243  60.697  55.496  1.00  0.00     0.006 C 
BRANCH  12  13
ATOM     13  C   UNL     1      -5.864  59.216  55.625  1.00  0.00     0.053 C 
BRANCH  13  14
ATOM     14  C   UNL     1      -4.582  59.031  56.378  1.00  0.00     0.041 C 
ATOM     15  O   UNL     1      -3.792  58.100  56.069  1.00  0.00    -0.550 OA
ATOM     16  O   UNL     1      -4.246  59.906  57.405  1.00  0.00    -0.550 OA
ENDBRANCH  13  14
ENDBRANCH  12  13
ENDBRANCH  11  12
ENDBRANCH  10  11
ENDBRANCH   9  10
ENDBRANCH   8   9
ENDBRANCH   7   8
ENDBRANCH   6   7
ENDBRANCH   5   6
ENDBRANCH   4   5
ENDBRANCH   3   4
ENDBRANCH   2   3
ENDBRANCH   1   2
BRANCH   1  17
ATOM     17  C   UNL     1      -9.262  64.109  47.638  1.00  0.00     0.000 C 
BRANCH  17  18
ATOM     18  C   UNL     1      -9.244  62.634  47.193  1.00  0.00     0.000 C 
BRANCH  18  19
ATOM     19  C   UNL     1      -8.862  62.457  45.711  1.00  0.00     0.000 C 
BRANCH  19  20
ATOM     20  C   UNL     1      -9.662  61.339  45.010  1.00  0.00     0.000 C 
BRANCH  20  21
ATOM     21  C   UNL     1     -10.271  61.751  43.655  1.00  0.00     0.000 C 
BRANCH  21  22
ATOM     22  C   UNL     1      -9.754  63.078  43.076  1.00  0.00    -0.000 C 
BRANCH  22  23
ATOM     23  C   UNL     1      -9.951  63.184  41.557  1.00  0.00    -0.000 C 
BRANCH  23  24
ATOM     24  C   UNL     1     -10.036  61.792  40.911  1.00  0.00    -0.000 C 
BRANCH  24  25
ATOM     25  C   UNL     1     -11.108  61.713  39.812  1.00  0.00    -0.000 C 
BRANCH  25  26
ATOM     26  C   UNL     1     -11.974  60.446  39.918  1.00  0.00    -0.000 C 
BRANCH  26  27
ATOM     27  C   UNL     1     -13.460  60.761  40.143  1.00  0.00    -0.000 C 
BRANCH  27  28
ATOM     28  C   UNL     1     -14.292  60.661  38.855  1.00  0.00    -0.000 C 
BRANCH  28  29
ATOM     29  C   UNL     1     -15.792  60.768  39.162  1.00  0.00    -0.003 C 
ATOM     30  C   UNL     1     -16.571  61.282  37.955  1.00  0.00     0.004 C 
ENDBRANCH  28  29
ENDBRANCH  27  28
ENDBRANCH  26  27
ENDBRANCH  25  26
ENDBRANCH  24  25
ENDBRANCH  23  24
ENDBRANCH  22  23
ENDBRANCH  21  22
ENDBRANCH  20  21
ENDBRANCH  19  20
ENDBRANCH  18  19
ENDBRANCH  17  18
ENDBRANCH   1  17
TORSDOF 26
ENDMDL
MODEL 3
REMARK VINA RESULT:    -6.166      5.254     13.512
REMARK INTER + INTRA:         -17.551
REMARK INTER:                 -15.532
REMARK INTRA:                  -2.019
REMARK UNBOUND:                -2.013
REMARK SMILES CCCCCCCCCCCCCCCCCCCCCCCCCCCC(=O)[O-]
REMARK SMILES IDX 15 1 16 2 17 3 18 4 19 5 20 6 21 7 22 8 23 9 24 10 25 11
REMARK SMILES IDX 26 12 27 13 28 14 29 15 30 16 14 17 13 18 12 19 11 20 10 21
REMARK SMILES IDX 9 22 8 23 7 24 6 25 5 26 4 27 3 28 2 29 1 30
REMARK H PARENT
REMARK Flexibility Score: inf
ROOT
ATOM      1  C   UNL     1      -9.542  61.504  45.193  1.00  0.00     0.000 C 
ENDROOT
BRANCH   1   2
ATOM      2  C   UNL     1      -9.967  61.944  43.784  1.00  0.00     0.000 C 
BRANCH   2   3
ATOM      3  C   UNL     1      -9.580  63.407  43.535  1.00  0.00     0.000 C 
BRANCH   3   4
ATOM      4  C   UNL     1      -9.897  63.832  42.093  1.00  0.00     0.000 C 
BRANCH   4   5
ATOM      5  C   UNL     1      -9.327  65.220  41.750  1.00  0.00     0.000 C 
BRANCH   5   6
ATOM      6  C   UNL     1      -9.139  65.426  40.237  1.00  0.00     0.000 C 
BRANCH   6   7
ATOM      7  C   UNL     1      -8.845  64.112  39.490  1.00  0.00     0.000 C 
BRANCH   7   8
ATOM      8  C   UNL     1      -9.885  63.727  38.421  1.00  0.00     0.000 C 
BRANCH   8   9
ATOM      9  C   UNL     1     -10.283  62.246  38.487  1.00  0.00     0.000 C 
BRANCH   9  10
ATOM     10  C   UNL     1     -11.682  62.081  39.095  1.00  0.00     0.000 C 
BRANCH  10  11
ATOM     11  C   UNL     1     -11.686  61.011  40.193  1.00  0.00     0.000 C 
BRANCH  11  12
ATOM     12  C   UNL     1     -12.869  60.048  40.016  1.00  0.00     0.006 C 
BRANCH  12  13
ATOM     13  C   UNL     1     -13.465  60.109  38.604  1.00  0.00     0.053 C 
BRANCH  13  14
ATOM     14  C   UNL     1     -14.868  60.635  38.612  1.00  0.00     0.041 C 
ATOM     15  O   UNL     1     -15.813  59.919  39.042  1.00  0.00    -0.550 OA
ATOM     16  O   UNL     1     -15.130  61.927  38.171  1.00  0.00    -0.550 OA
ENDBRANCH  13  14
ENDBRANCH  12  13
ENDBRANCH  11  12
ENDBRANCH  10  11
ENDBRANCH   9  10
ENDBRANCH   8   9
ENDBRANCH   7   8
ENDBRANCH   6   7
ENDBRANCH   5   6
ENDBRANCH   4   5
ENDBRANCH   3   4
ENDBRANCH   2   3
ENDBRANCH   1   2
BRANCH   1  17
ATOM     17  C   UNL     1      -8.855  62.623  45.995  1.00  0.00     0.000 C 
BRANCH  17  18
ATOM     18  C   UNL     1      -8.894  62.446  47.525  1.00  0.00     0.000 C 
BRANCH  18  19
ATOM     19  C   UNL     1      -9.741  63.520  48.233  1.00  0.00     0.000 C 
BRANCH  19  20
ATOM     20  C   UNL     1      -8.898  64.487  49.090  1.00  0.00     0.000 C 
BRANCH  20  21
ATOM     21  C   UNL     1      -7.551  63.904  49.562  1.00  0.00     0.000 C 
BRANCH  21  22
ATOM     22  C   UNL     1      -6.462  64.940  49.885  1.00  0.00    -0.000 C 
BRANCH  22  23
ATOM     23  C   UNL     1      -6.209  65.091  51.392  1.00  0.00    -0.000 C 
BRANCH  23  24
ATOM     24  C   UNL     1      -6.642  63.830  52.155  1.00  0.00    -0.000 C 
BRANCH  24  25
ATOM     25  C   UNL     1      -7.703  64.121  53.229  1.00  0.00    -0.000 C 
BRANCH  25  26
ATOM     26  C   UNL     1      -7.842  62.981  54.252  1.00  0.00    -0.000 C 
BRANCH  26  27
ATOM     27  C   UNL     1      -7.384  61.625  53.693  1.00  0.00    -0.000 C 
BRANCH  27  28
ATOM     28  C   UNL     1      -6.752  60.723  54.765  1.00  0.00    -0.000 C 
BRANCH  28  29
ATOM     29  C   UNL     1      -5.221  60.739  54.660  1.00  0.00    -0.003 C 
ATOM     30  C   UNL     1      -4.569  60.446  56.008  1.00  0.00     0.004 C 
ENDBRANCH  28  29
ENDBRANCH  27  28
ENDBRANCH  26  27
ENDBRANCH  25  26
ENDBRANCH  24  25
ENDBRANCH  23  24
ENDBRANCH  22  23
ENDBRANCH  21  22
ENDBRANCH  20  21
ENDBRANCH  19  20
ENDBRANCH  18  19
ENDBRANCH  17  18
ENDBRANCH   1  17
TORSDOF 26
ENDMDL
MODEL 4
REMARK VINA RESULT:    -6.136      5.236     13.669
REMARK INTER + INTRA:         -17.476
REMARK INTER:                 -15.705
REMARK INTRA:                  -1.771
REMARK UNBOUND:                -2.013
REMARK SMILES CCCCCCCCCCCCCCCCCCCCCCCCCCCC(=O)[O-]
REMARK SMILES IDX 15 1 16 2 17 3 18 4 19 5 20 6 21 7 22 8 23 9 24 10 25 11
REMARK SMILES IDX 26 12 27 13 28 14 29 15 30 16 14 17 13 18 12 19 11 20 10 21
REMARK SMILES IDX 9 22 8 23 7 24 6 25 5 26 4 27 3 28 2 29 1 30
REMARK H PARENT
REMARK Flexibility Score: inf
ROOT
ATOM      1  C   UNL     1      -9.328  61.928  47.171  1.00  0.00     0.000 C 
ENDROOT
BRANCH   1   2
ATOM      2  C   UNL     1      -8.985  62.400  45.751  1.00  0.00     0.000 C 
BRANCH   2   3
ATOM      3  C   UNL     1      -9.369  61.333  44.719  1.00  0.00     0.000 C 
BRANCH   3   4
ATOM      4  C   UNL     1     -10.447  61.849  43.754  1.00  0.00     0.000 C 
BRANCH   4   5
ATOM      5  C   UNL     1      -9.891  62.130  42.346  1.00  0.00     0.000 C 
BRANCH   5   6
ATOM      6  C   UNL     1     -10.017  63.610  41.944  1.00  0.00     0.000 C 
BRANCH   6   7
ATOM      7  C   UNL     1      -9.191  63.957  40.692  1.00  0.00     0.000 C 
BRANCH   7   8
ATOM      8  C   UNL     1     -10.011  64.110  39.397  1.00  0.00     0.000 C 
BRANCH   8   9
ATOM      9  C   UNL     1     -10.251  62.771  38.685  1.00  0.00     0.000 C 
BRANCH   9  10
ATOM     10  C   UNL     1     -11.709  62.320  38.843  1.00  0.00     0.000 C 
BRANCH  10  11
ATOM     11  C   UNL     1     -11.806  61.060  39.711  1.00  0.00     0.000 C 
BRANCH  11  12
ATOM     12  C   UNL     1     -13.076  60.262  39.378  1.00  0.00     0.006 C 
BRANCH  12  13
ATOM     13  C   UNL     1     -14.310  60.792  40.119  1.00  0.00     0.053 C 
BRANCH  13  14
ATOM     14  C   UNL     1     -15.499  60.902  39.214  1.00  0.00     0.041 C 
ATOM     15  O   UNL     1     -15.348  60.920  37.964  1.00  0.00    -0.550 OA
ATOM     16  O   UNL     1     -16.780  60.956  39.753  1.00  0.00    -0.550 OA
ENDBRANCH  13  14
ENDBRANCH  12  13
ENDBRANCH  11  12
ENDBRANCH  10  11
ENDBRANCH   9  10
ENDBRANCH   8   9
ENDBRANCH   7   8
ENDBRANCH   6   7
ENDBRANCH   5   6
ENDBRANCH   4   5
ENDBRANCH   3   4
ENDBRANCH   2   3
ENDBRANCH   1   2
BRANCH   1  17
ATOM     17  C   UNL     1      -8.556  62.684  48.266  1.00  0.00     0.000 C 
BRANCH  17  18
ATOM     18  C   UNL     1      -9.204  64.003  48.727  1.00  0.00     0.000 C 
BRANCH  18  19
ATOM     19  C   UNL     1      -8.278  64.846  49.625  1.00  0.00     0.000 C 
BRANCH  19  20
ATOM     20  C   UNL     1      -6.796  64.429  49.526  1.00  0.00     0.000 C 
BRANCH  20  21
ATOM     21  C   UNL     1      -5.983  64.670  50.813  1.00  0.00     0.000 C 
BRANCH  21  22
ATOM     22  C   UNL     1      -6.259  66.003  51.527  1.00  0.00    -0.000 C 
BRANCH  22  23
ATOM     23  C   UNL     1      -6.548  65.830  53.026  1.00  0.00    -0.000 C 
BRANCH  23  24
ATOM     24  C   UNL     1      -6.478  64.351  53.436  1.00  0.00    -0.000 C 
BRANCH  24  25
ATOM     25  C   UNL     1      -7.867  63.734  53.668  1.00  0.00    -0.000 C 
BRANCH  25  26
ATOM     26  C   UNL     1      -7.822  62.496  54.581  1.00  0.00    -0.000 C 
BRANCH  26  27
ATOM     27  C   UNL     1      -7.399  61.223  53.833  1.00  0.00    -0.000 C 
BRANCH  27  28
ATOM     28  C   UNL     1      -6.117  60.596  54.403  1.00  0.00    -0.000 C 
BRANCH  28  29
ATOM     29  C   UNL     1      -6.353  60.062  55.822  1.00  0.00    -0.003 C 
ATOM     30  C   UNL     1      -5.133  59.306  56.341  1.00  0.00     0.004 C 
ENDBRANCH  28  29
ENDBRANCH  27  28
ENDBRANCH  26  27
ENDBRANCH  25  26
ENDBRANCH  24  25
ENDBRANCH  23  24
ENDBRANCH  22  23
ENDBRANCH  21  22
ENDBRANCH  20  21
ENDBRANCH  19  20
ENDBRANCH  18  19
ENDBRANCH  17  18
ENDBRANCH   1  17
TORSDOF 26
ENDMDL
MODEL 5
REMARK VINA RESULT:    -6.094      4.750     13.491
REMARK INTER + INTRA:         -17.369
REMARK INTER:                 -15.143
REMARK INTRA:                  -2.226
REMARK UNBOUND:                -2.013
REMARK SMILES CCCCCCCCCCCCCCCCCCCCCCCCCCCC(=O)[O-]
REMARK SMILES IDX 15 1 16 2 17 3 18 4 19 5 20 6 21 7 22 8 23 9 24 10 25 11
REMARK SMILES IDX 26 12 27 13 28 14 29 15 30 16 14 17 13 18 12 19 11 20 10 21
REMARK SMILES IDX 9 22 8 23 7 24 6 25 5 26 4 27 3 28 2 29 1 30
REMARK H PARENT
REMARK Flexibility Score: inf
ROOT
ATOM      1  C   UNL     1      -8.653  62.255  46.721  1.00  0.00     0.000 C 
ENDROOT
BRANCH   1   2
ATOM      2  C   UNL     1      -9.253  62.688  45.376  1.00  0.00     0.000 C 
BRANCH   2   3
ATOM      3  C   UNL     1      -9.782  61.473  44.604  1.00  0.00     0.000 C 
BRANCH   3   4
ATOM      4  C   UNL     1     -10.398  61.889  43.259  1.00  0.00     0.000 C 
BRANCH   4   5
ATOM      5  C   UNL     1      -9.428  62.720  42.400  1.00  0.00     0.000 C 
BRANCH   5   6
ATOM      6  C   UNL     1      -9.987  64.112  42.055  1.00  0.00     0.000 C 
BRANCH   6   7
ATOM      7  C   UNL     1      -8.960  65.000  41.330  1.00  0.00     0.000 C 
BRANCH   7   8
ATOM      8  C   UNL     1      -8.361  64.387  40.051  1.00  0.00     0.000 C 
BRANCH   8   9
ATOM      9  C   UNL     1      -9.190  64.701  38.797  1.00  0.00     0.000 C 
BRANCH   9  10
ATOM     10  C   UNL     1      -9.901  63.443  38.281  1.00  0.00     0.000 C 
BRANCH  10  11
ATOM     11  C   UNL     1     -11.347  63.379  38.786  1.00  0.00     0.000 C 
BRANCH  11  12
ATOM     12  C   UNL     1     -11.649  62.008  39.410  1.00  0.00     0.006 C 
BRANCH  12  13
ATOM     13  C   UNL     1     -13.149  61.688  39.415  1.00  0.00     0.053 C 
BRANCH  13  14
ATOM     14  C   UNL     1     -13.413  60.248  39.097  1.00  0.00     0.041 C 
ATOM     15  O   UNL     1     -14.330  59.932  38.292  1.00  0.00    -0.550 OA
ATOM     16  O   UNL     1     -12.628  59.253  39.669  1.00  0.00    -0.550 OA
ENDBRANCH  13  14
ENDBRANCH  12  13
ENDBRANCH  11  12
ENDBRANCH  10  11
ENDBRANCH   9  10
ENDBRANCH   8   9
ENDBRANCH   7   8
ENDBRANCH   6   7
ENDBRANCH   5   6
ENDBRANCH   4   5
ENDBRANCH   3   4
ENDBRANCH   2   3
ENDBRANCH   1   2
BRANCH   1  17
ATOM     17  C   UNL     1      -9.358  62.889  47.932  1.00  0.00     0.000 C 
BRANCH  17  18
ATOM     18  C   UNL     1      -9.016  64.370  48.184  1.00  0.00     0.000 C 
BRANCH  18  19
ATOM     19  C   UNL     1      -8.360  64.610  49.557  1.00  0.00     0.000 C 
BRANCH  19  20
ATOM     20  C   UNL     1      -6.842  64.334  49.558  1.00  0.00     0.000 C 
BRANCH  20  21
ATOM     21  C   UNL     1      -6.072  65.031  50.698  1.00  0.00     0.000 C 
BRANCH  21  22
ATOM     22  C   UNL     1      -6.947  65.677  51.784  1.00  0.00    -0.000 C 
BRANCH  22  23
ATOM     23  C   UNL     1      -6.605  65.185  53.198  1.00  0.00    -0.000 C 
BRANCH  23  24
ATOM     24  C   UNL     1      -6.501  63.653  53.241  1.00  0.00    -0.000 C 
BRANCH  24  25
ATOM     25  C   UNL     1      -7.727  62.993  53.894  1.00  0.00    -0.000 C 
BRANCH  25  26
ATOM     26  C   UNL     1      -7.775  61.473  53.668  1.00  0.00    -0.000 C 
BRANCH  26  27
ATOM     27  C   UNL     1      -6.492  60.764  54.129  1.00  0.00    -0.000 C 
BRANCH  27  28
ATOM     28  C   UNL     1      -6.304  60.806  55.653  1.00  0.00    -0.000 C 
BRANCH  28  29
ATOM     29  C   UNL     1      -4.898  60.330  56.045  1.00  0.00    -0.003 C 
ATOM     30  C   UNL     1      -3.869  60.707  54.983  1.00  0.00     0.004 C 
ENDBRANCH  28  29
ENDBRANCH  27  28
ENDBRANCH  26  27
ENDBRANCH  25  26
ENDBRANCH  24  25
ENDBRANCH  23  24
ENDBRANCH  22  23
ENDBRANCH  21  22
ENDBRANCH  20  21
ENDBRANCH  19  20
ENDBRANCH  18  19
ENDBRANCH  17  18
ENDBRANCH   1  17
TORSDOF 26
ENDMDL
MODEL 6
REMARK VINA RESULT:    -6.064      4.455     13.685
REMARK INTER + INTRA:         -17.295
REMARK INTER:                 -15.274
REMARK INTRA:                  -2.022
REMARK UNBOUND:                -2.013
REMARK SMILES CCCCCCCCCCCCCCCCCCCCCCCCCCCC(=O)[O-]
REMARK SMILES IDX 15 1 16 2 17 3 18 4 19 5 20 6 21 7 22 8 23 9 24 10 25 11
REMARK SMILES IDX 26 12 27 13 28 14 29 15 30 16 14 17 13 18 12 19 11 20 10 21
REMARK SMILES IDX 9 22 8 23 7 24 6 25 5 26 4 27 3 28 2 29 1 30
REMARK H PARENT
REMARK Flexibility Score: inf
ROOT
ATOM      1  C   UNL     1      -9.241  63.292  48.077  1.00  0.00     0.000 C 
ENDROOT
BRANCH   1   2
ATOM      2  C   UNL     1      -8.887  62.229  47.027  1.00  0.00     0.000 C 
BRANCH   2   3
ATOM      3  C   UNL     1      -9.258  62.715  45.621  1.00  0.00     0.000 C 
BRANCH   3   4
ATOM      4  C   UNL     1      -9.409  61.539  44.644  1.00  0.00     0.000 C 
BRANCH   4   5
ATOM      5  C   UNL     1     -10.407  61.839  43.511  1.00  0.00     0.000 C 
BRANCH   5   6
ATOM      6  C   UNL     1      -9.732  62.470  42.280  1.00  0.00     0.000 C 
BRANCH   6   7
ATOM      7  C   UNL     1      -9.808  64.008  42.284  1.00  0.00     0.000 C 
BRANCH   7   8
ATOM      8  C   UNL     1      -9.239  64.688  41.025  1.00  0.00     0.000 C 
BRANCH   8   9
ATOM      9  C   UNL     1      -9.021  63.704  39.866  1.00  0.00     0.000 C 
BRANCH   9  10
ATOM     10  C   UNL     1     -10.021  63.962  38.732  1.00  0.00     0.000 C 
BRANCH  10  11
ATOM     11  C   UNL     1     -10.723  62.668  38.308  1.00  0.00     0.000 C 
BRANCH  11  12
ATOM     12  C   UNL     1     -11.939  62.385  39.204  1.00  0.00     0.006 C 
BRANCH  12  13
ATOM     13  C   UNL     1     -11.859  61.010  39.879  1.00  0.00     0.053 C 
BRANCH  13  14
ATOM     14  C   UNL     1     -13.185  60.581  40.429  1.00  0.00     0.041 C 
ATOM     15  O   UNL     1     -13.249  59.968  41.528  1.00  0.00    -0.550 OA
ATOM     16  O   UNL     1     -14.355  60.883  39.741  1.00  0.00    -0.550 OA
ENDBRANCH  13  14
ENDBRANCH  12  13
ENDBRANCH  11  12
ENDBRANCH  10  11
ENDBRANCH   9  10
ENDBRANCH   8   9
ENDBRANCH   7   8
ENDBRANCH   6   7
ENDBRANCH   5   6
ENDBRANCH   4   5
ENDBRANCH   3   4
ENDBRANCH   2   3
ENDBRANCH   1   2
BRANCH   1  17
ATOM     17  C   UNL     1      -8.182  63.427  49.185  1.00  0.00     0.000 C 
BRANCH  17  18
ATOM     18  C   UNL     1      -7.800  64.874  49.548  1.00  0.00     0.000 C 
BRANCH  18  19
ATOM     19  C   UNL     1      -6.285  65.064  49.754  1.00  0.00     0.000 C 
BRANCH  19  20
ATOM     20  C   UNL     1      -5.941  65.797  51.067  1.00  0.00     0.000 C 
BRANCH  20  21
ATOM     21  C   UNL     1      -6.976  65.601  52.192  1.00  0.00     0.000 C 
BRANCH  21  22
ATOM     22  C   UNL     1      -6.575  64.603  53.291  1.00  0.00    -0.000 C 
BRANCH  22  23
ATOM     23  C   UNL     1      -7.062  63.174  53.007  1.00  0.00    -0.000 C 
BRANCH  23  24
ATOM     24  C   UNL     1      -7.769  62.578  54.234  1.00  0.00    -0.000 C 
BRANCH  24  25
ATOM     25  C   UNL     1      -6.901  61.549  54.977  1.00  0.00    -0.000 C 
BRANCH  25  26
ATOM     26  C   UNL     1      -5.549  61.303  54.285  1.00  0.00    -0.000 C 
BRANCH  26  27
ATOM     27  C   UNL     1      -4.400  61.106  55.285  1.00  0.00    -0.000 C 
BRANCH  27  28
ATOM     28  C   UNL     1      -3.594  59.825  55.021  1.00  0.00    -0.000 C 
BRANCH  28  29
ATOM     29  C   UNL     1      -3.661  58.878  56.227  1.00  0.00    -0.003 C 
ATOM     30  C   UNL     1      -4.038  59.627  57.501  1.00  0.00     0.004 C 
ENDBRANCH  28  29
ENDBRANCH  27  28
ENDBRANCH  26  27
ENDBRANCH  25  26
ENDBRANCH  24  25
ENDBRANCH  23  24
ENDBRANCH  22  23
ENDBRANCH  21  22
ENDBRANCH  20  21
ENDBRANCH  19  20
ENDBRANCH  18  19
ENDBRANCH  17  18
ENDBRANCH   1  17
TORSDOF 26
ENDMDL
MODEL 7
REMARK VINA RESULT:    -5.939      1.027      2.198
REMARK INTER + INTRA:         -16.979
REMARK INTER:                 -15.139
REMARK INTRA:                  -1.840
REMARK UNBOUND:                -2.013
REMARK SMILES CCCCCCCCCCCCCCCCCCCCCCCCCCCC(=O)[O-]
REMARK SMILES IDX 15 1 16 2 17 3 18 4 19 5 20 6 21 7 22 8 23 9 24 10 25 11
REMARK SMILES IDX 26 12 27 13 28 14 29 15 30 16 14 17 13 18 12 19 11 20 10 21
REMARK SMILES IDX 9 22 8 23 7 24 6 25 5 26 4 27 3 28 2 29 1 30
REMARK H PARENT
REMARK Flexibility Score: inf
ROOT
ATOM      1  C   UNL     1      -9.207  61.274  44.812  1.00  0.00     0.000 C 
ENDROOT
BRANCH   1   2
ATOM      2  C   UNL     1      -8.887  62.400  45.807  1.00  0.00     0.000 C 
BRANCH   2   3
ATOM      3  C   UNL     1      -9.509  62.103  47.176  1.00  0.00     0.000 C 
BRANCH   3   4
ATOM      4  C   UNL     1      -8.663  62.694  48.315  1.00  0.00     0.000 C 
BRANCH   4   5
ATOM      5  C   UNL     1      -8.904  64.202  48.506  1.00  0.00     0.000 C 
BRANCH   5   6
ATOM      6  C   UNL     1      -8.081  64.791  49.665  1.00  0.00     0.000 C 
BRANCH   6   7
ATOM      7  C   UNL     1      -7.398  63.708  50.519  1.00  0.00     0.000 C 
BRANCH   7   8
ATOM      8  C   UNL     1      -6.234  64.211  51.393  1.00  0.00     0.000 C 
BRANCH   8   9
ATOM      9  C   UNL     1      -6.373  63.794  52.864  1.00  0.00     0.000 C 
BRANCH   9  10
ATOM     10  C   UNL     1      -7.844  63.807  53.301  1.00  0.00     0.000 C 
BRANCH  10  11
ATOM     11  C   UNL     1      -8.056  62.952  54.555  1.00  0.00     0.000 C 
BRANCH  11  12
ATOM     12  C   UNL     1      -7.470  61.545  54.365  1.00  0.00     0.006 C 
BRANCH  12  13
ATOM     13  C   UNL     1      -6.654  61.085  55.580  1.00  0.00     0.053 C 
BRANCH  13  14
ATOM     14  C   UNL     1      -5.405  60.364  55.173  1.00  0.00     0.041 C 
ATOM     15  O   UNL     1      -5.260  59.141  55.440  1.00  0.00    -0.550 OA
ATOM     16  O   UNL     1      -4.410  61.037  54.472  1.00  0.00    -0.550 OA
ENDBRANCH  13  14
ENDBRANCH  12  13
ENDBRANCH  11  12
ENDBRANCH  10  11
ENDBRANCH   9  10
ENDBRANCH   8   9
ENDBRANCH   7   8
ENDBRANCH   6   7
ENDBRANCH   5   6
ENDBRANCH   4   5
ENDBRANCH   3   4
ENDBRANCH   2   3
ENDBRANCH   1   2
BRANCH   1  17
ATOM     17  C   UNL     1     -10.393  61.600  43.889  1.00  0.00     0.000 C 
BRANCH  17  18
ATOM     18  C   UNL     1     -10.020  62.313  42.576  1.00  0.00     0.000 C 
BRANCH  18  19
ATOM     19  C   UNL     1      -9.688  63.804  42.774  1.00  0.00     0.000 C 
BRANCH  19  20
ATOM     20  C   UNL     1      -9.882  64.642  41.493  1.00  0.00     0.000 C 
BRANCH  20  21
ATOM     21  C   UNL     1      -8.679  64.615  40.530  1.00  0.00     0.000 C 
BRANCH  21  22
ATOM     22  C   UNL     1      -9.001  64.200  39.085  1.00  0.00    -0.000 C 
BRANCH  22  23
ATOM     23  C   UNL     1      -9.670  62.820  38.994  1.00  0.00    -0.000 C 
BRANCH  23  24
ATOM     24  C   UNL     1     -11.015  62.905  38.257  1.00  0.00    -0.000 C 
BRANCH  24  25
ATOM     25  C   UNL     1     -12.220  62.789  39.206  1.00  0.00    -0.000 C 
BRANCH  25  26
ATOM     26  C   UNL     1     -12.699  61.338  39.383  1.00  0.00    -0.000 C 
BRANCH  26  27
ATOM     27  C   UNL     1     -14.191  61.246  39.737  1.00  0.00    -0.000 C 
BRANCH  27  28
ATOM     28  C   UNL     1     -15.089  61.973  38.724  1.00  0.00    -0.000 C 
BRANCH  28  29
ATOM     29  C   UNL     1     -15.986  60.978  37.976  1.00  0.00    -0.003 C 
ATOM     30  C   UNL     1     -16.780  60.107  38.945  1.00  0.00     0.004 C 
ENDBRANCH  28  29
ENDBRANCH  27  28
ENDBRANCH  26  27
ENDBRANCH  25  26
ENDBRANCH  24  25
ENDBRANCH  23  24
ENDBRANCH  22  23
ENDBRANCH  21  22
ENDBRANCH  20  21
ENDBRANCH  19  20
ENDBRANCH  18  19
ENDBRANCH  17  18
ENDBRANCH   1  17
TORSDOF 26
ENDMDL
MODEL 8
REMARK VINA RESULT:    -5.913      1.033      2.165
REMARK INTER + INTRA:         -16.915
REMARK INTER:                 -14.806
REMARK INTRA:                  -2.109
REMARK UNBOUND:                -2.013
REMARK SMILES CCCCCCCCCCCCCCCCCCCCCCCCCCCC(=O)[O-]
REMARK SMILES IDX 15 1 16 2 17 3 18 4 19 5 20 6 21 7 22 8 23 9 24 10 25 11
REMARK SMILES IDX 26 12 27 13 28 14 29 15 30 16 14 17 13 18 12 19 11 20 10 21
REMARK SMILES IDX 9 22 8 23 7 24 6 25 5 26 4 27 3 28 2 29 1 30
REMARK H PARENT
REMARK Flexibility Score: inf
ROOT
ATOM      1  C   UNL     1      -9.633  61.369  44.805  1.00  0.00     0.000 C 
ENDROOT
BRANCH   1   2
ATOM      2  C   UNL     1      -8.837  62.268  45.762  1.00  0.00     0.000 C 
BRANCH   2   3
ATOM      3  C   UNL     1      -9.318  62.080  47.206  1.00  0.00     0.000 C 
BRANCH   3   4
ATOM      4  C   UNL     1      -9.219  63.389  48.005  1.00  0.00     0.000 C 
BRANCH   4   5
ATOM      5  C   UNL     1      -8.118  63.341  49.079  1.00  0.00     0.000 C 
BRANCH   5   6
ATOM      6  C   UNL     1      -8.110  64.591  49.975  1.00  0.00     0.000 C 
BRANCH   6   7
ATOM      7  C   UNL     1      -6.770  64.790  50.707  1.00  0.00     0.000 C 
BRANCH   7   8
ATOM      8  C   UNL     1      -6.865  65.562  52.036  1.00  0.00     0.000 C 
BRANCH   8   9
ATOM      9  C   UNL     1      -7.581  64.765  53.136  1.00  0.00     0.000 C 
BRANCH   9  10
ATOM     10  C   UNL     1      -6.688  63.634  53.662  1.00  0.00     0.000 C 
BRANCH  10  11
ATOM     11  C   UNL     1      -7.233  62.262  53.252  1.00  0.00     0.000 C 
BRANCH  11  12
ATOM     12  C   UNL     1      -6.440  61.133  53.927  1.00  0.00     0.006 C 
BRANCH  12  13
ATOM     13  C   UNL     1      -6.628  61.118  55.450  1.00  0.00     0.053 C 
BRANCH  13  14
ATOM     14  C   UNL     1      -5.894  59.981  56.092  1.00  0.00     0.041 C 
ATOM     15  O   UNL     1      -6.463  58.869  56.259  1.00  0.00    -0.550 OA
ATOM     16  O   UNL     1      -4.569  60.140  56.482  1.00  0.00    -0.550 OA
ENDBRANCH  13  14
ENDBRANCH  12  13
ENDBRANCH  11  12
ENDBRANCH  10  11
ENDBRANCH   9  10
ENDBRANCH   8   9
ENDBRANCH   7   8
ENDBRANCH   6   7
ENDBRANCH   5   6
ENDBRANCH   4   5
ENDBRANCH   3   4
ENDBRANCH   2   3
ENDBRANCH   1   2
BRANCH   1  17
ATOM     17  C   UNL     1     -10.009  62.069  43.488  1.00  0.00     0.000 C 
BRANCH  17  18
ATOM     18  C   UNL     1      -9.622  63.557  43.407  1.00  0.00     0.000 C 
BRANCH  18  19
ATOM     19  C   UNL     1      -9.642  64.107  41.968  1.00  0.00     0.000 C 
BRANCH  19  20
ATOM     20  C   UNL     1      -9.344  65.619  41.894  1.00  0.00     0.000 C 
BRANCH  20  21
ATOM     21  C   UNL     1      -8.787  66.089  40.536  1.00  0.00     0.000 C 
BRANCH  21  22
ATOM     22  C   UNL     1      -7.822  65.111  39.845  1.00  0.00    -0.000 C 
BRANCH  22  23
ATOM     23  C   UNL     1      -8.211  64.815  38.389  1.00  0.00    -0.000 C 
BRANCH  23  24
ATOM     24  C   UNL     1      -9.689  64.410  38.283  1.00  0.00    -0.000 C 
BRANCH  24  25
ATOM     25  C   UNL     1      -9.872  62.938  37.877  1.00  0.00    -0.000 C 
BRANCH  25  26
ATOM     26  C   UNL     1     -10.125  62.017  39.083  1.00  0.00    -0.000 C 
BRANCH  26  27
ATOM     27  C   UNL     1     -11.615  61.903  39.439  1.00  0.00    -0.000 C 
BRANCH  27  28
ATOM     28  C   UNL     1     -11.893  60.822  40.495  1.00  0.00    -0.000 C 
BRANCH  28  29
ATOM     29  C   UNL     1     -12.620  59.622  39.873  1.00  0.00    -0.003 C 
ATOM     30  C   UNL     1     -13.389  60.028  38.619  1.00  0.00     0.004 C 
ENDBRANCH  28  29
ENDBRANCH  27  28
ENDBRANCH  26  27
ENDBRANCH  25  26
ENDBRANCH  24  25
ENDBRANCH  23  24
ENDBRANCH  22  23
ENDBRANCH  21  22
ENDBRANCH  20  21
ENDBRANCH  19  20
ENDBRANCH  18  19
ENDBRANCH  17  18
ENDBRANCH   1  17
TORSDOF 26
ENDMDL
MODEL 9
REMARK VINA RESULT:    -5.807      5.413     13.630
REMARK INTER + INTRA:         -16.647
REMARK INTER:                 -14.567
REMARK INTRA:                  -2.080
REMARK UNBOUND:                -2.013
REMARK SMILES CCCCCCCCCCCCCCCCCCCCCCCCCCCC(=O)[O-]
REMARK SMILES IDX 15 1 16 2 17 3 18 4 19 5 20 6 21 7 22 8 23 9 24 10 25 11
REMARK SMILES IDX 26 12 27 13 28 14 29 15 30 16 14 17 13 18 12 19 11 20 10 21
REMARK SMILES IDX 9 22 8 23 7 24 6 25 5 26 4 27 3 28 2 29 1 30
REMARK H PARENT
REMARK Flexibility Score: inf
ROOT
ATOM      1  C   UNL     1      -9.792  63.347  43.339  1.00  0.00     0.000 C 
ENDROOT
BRANCH   1   2
ATOM      2  C   UNL     1      -9.445  63.523  41.853  1.00  0.00     0.000 C 
BRANCH   2   3
ATOM      3  C   UNL     1      -9.893  64.902  41.354  1.00  0.00     0.000 C 
BRANCH   3   4
ATOM      4  C   UNL     1      -8.950  65.437  40.265  1.00  0.00     0.000 C 
BRANCH   4   5
ATOM      5  C   UNL     1      -8.496  64.338  39.288  1.00  0.00     0.000 C 
BRANCH   5   6
ATOM      6  C   UNL     1      -9.497  64.116  38.140  1.00  0.00     0.000 C 
BRANCH   6   7
ATOM      7  C   UNL     1     -10.299  62.812  38.296  1.00  0.00     0.000 C 
BRANCH   7   8
ATOM      8  C   UNL     1     -11.803  63.004  38.569  1.00  0.00     0.000 C 
BRANCH   8   9
ATOM      9  C   UNL     1     -12.257  62.344  39.879  1.00  0.00     0.000 C 
BRANCH   9  10
ATOM     10  C   UNL     1     -12.120  60.818  39.800  1.00  0.00     0.000 C 
BRANCH  10  11
ATOM     11  C   UNL     1     -13.492  60.136  39.857  1.00  0.00     0.000 C 
BRANCH  11  12
ATOM     12  C   UNL     1     -14.152  60.115  38.470  1.00  0.00     0.006 C 
BRANCH  12  13
ATOM     13  C   UNL     1     -15.189  61.232  38.300  1.00  0.00     0.053 C 
BRANCH  13  14
ATOM     14  C   UNL     1     -16.553  60.800  38.745  1.00  0.00     0.041 C 
ATOM     15  O   UNL     1     -17.470  61.649  38.901  1.00  0.00    -0.550 OA
ATOM     16  O   UNL     1     -16.820  59.452  38.960  1.00  0.00    -0.550 OA
ENDBRANCH  13  14
ENDBRANCH  12  13
ENDBRANCH  11  12
ENDBRANCH  10  11
ENDBRANCH   9  10
ENDBRANCH   8   9
ENDBRANCH   7   8
ENDBRANCH   6   7
ENDBRANCH   5   6
ENDBRANCH   4   5
ENDBRANCH   3   4
ENDBRANCH   2   3
ENDBRANCH   1   2
BRANCH   1  17
ATOM     17  C   UNL     1     -10.067  61.884  43.728  1.00  0.00     0.000 C 
BRANCH  17  18
ATOM     18  C   UNL     1      -9.360  61.407  45.010  1.00  0.00     0.000 C 
BRANCH  18  19
ATOM     19  C   UNL     1      -8.887  62.569  45.904  1.00  0.00     0.000 C 
BRANCH  19  20
ATOM     20  C   UNL     1      -9.284  62.394  47.385  1.00  0.00     0.000 C 
BRANCH  20  21
ATOM     21  C   UNL     1      -8.169  62.753  48.386  1.00  0.00     0.000 C 
BRANCH  21  22
ATOM     22  C   UNL     1      -8.456  63.968  49.284  1.00  0.00    -0.000 C 
BRANCH  22  23
ATOM     23  C   UNL     1      -7.215  64.844  49.518  1.00  0.00    -0.000 C 
BRANCH  23  24
ATOM     24  C   UNL     1      -6.401  64.340  50.719  1.00  0.00    -0.000 C 
BRANCH  24  25
ATOM     25  C   UNL     1      -6.449  65.305  51.915  1.00  0.00    -0.000 C 
BRANCH  25  26
ATOM     26  C   UNL     1      -7.131  64.689  53.149  1.00  0.00    -0.000 C 
BRANCH  26  27
ATOM     27  C   UNL     1      -7.376  63.180  52.998  1.00  0.00    -0.000 C 
BRANCH  27  28
ATOM     28  C   UNL     1      -7.755  62.504  54.325  1.00  0.00    -0.000 C 
BRANCH  28  29
ATOM     29  C   UNL     1      -7.145  61.098  54.417  1.00  0.00    -0.003 C 
ATOM     30  C   UNL     1      -6.050  61.037  55.478  1.00  0.00     0.004 C 
ENDBRANCH  28  29
ENDBRANCH  27  28
ENDBRANCH  26  27
ENDBRANCH  25  26
ENDBRANCH  24  25
ENDBRANCH  23  24
ENDBRANCH  22  23
ENDBRANCH  21  22
ENDBRANCH  20  21
ENDBRANCH  19  20
ENDBRANCH  18  19
ENDBRANCH  17  18
ENDBRANCH   1  17
TORSDOF 26
ENDMDL
