MODEL 1
REMARK VINA RESULT:    -2.659      0.000      0.000
REMARK INTER + INTRA:          -2.659
REMARK INTER:                  -2.659
REMARK INTRA:                   0.000
REMARK UNBOUND:                 0.000
REMARK SMILES CC(=O)[O-]
REMARK SMILES IDX 1 1 2 2 3 3 4 4
REMARK H PARENT
REMARK Flexibility Score: inf
ROOT
ATOM      1  C   UNL     1      41.659  28.069  16.972  1.00  0.00     0.063 C 
ATOM      2  C   UNL     1      41.156  26.677  16.789  1.00  0.00     0.038 C 
ATOM      3  O   UNL     1      39.941  26.474  16.530  1.00  0.00    -0.550 OA
ATOM      4  O   UNL     1      42.015  25.599  16.960  1.00  0.00    -0.550 OA
ENDROOT
TORSDOF 0
ENDMDL
MODEL 2
REMARK VINA RESULT:    -2.653      1.936      2.380
REMARK INTER + INTRA:          -2.653
REMARK INTER:                  -2.653
REMARK INTRA:                   0.000
REMARK UNBOUND:                 0.000
REMARK SMILES CC(=O)[O-]
REMARK SMILES IDX 1 1 2 2 3 3 4 4
REMARK H PARENT
REMARK Flexibility Score: inf
ROOT
ATOM      1  C   UNL     1      40.918  26.631  16.580  1.00  0.00     0.063 C 
ATOM      2  C   UNL     1      39.604  26.521  17.277  1.00  0.00     0.038 C 
ATOM      3  O   UNL     1      39.531  26.717  18.519  1.00  0.00    -0.550 OA
ATOM      4  O   UNL     1      38.469  26.148  16.569  1.00  0.00    -0.550 OA
ENDROOT
TORSDOF 0
ENDMDL
MODEL 3
REMARK VINA RESULT:    -2.644      1.381      2.040
REMARK INTER + INTRA:          -2.644
REMARK INTER:                  -2.644
REMARK INTRA:                   0.000
REMARK UNBOUND:                 0.000
REMARK SMILES CC(=O)[O-]
REMARK SMILES IDX 1 1 2 2 3 3 4 4
REMARK H PARENT
REMARK Flexibility Score: inf
ROOT
ATOM      1  C   UNL     1      41.991  25.603  17.340  1.00  0.00     0.063 C 
ATOM      2  C   UNL     1      41.101  26.658  16.775  1.00  0.00     0.038 C 
ATOM      3  O   UNL     1      41.567  27.794  16.497  1.00  0.00    -0.550 OA
ATOM      4  O   UNL     1      39.745  26.408  16.608  1.00  0.00    -0.550 OA
ENDROOT
TORSDOF 0
ENDMDL
MODEL 4
REMARK VINA RESULT:    -2.637      1.306      1.658
REMARK INTER + INTRA:          -2.637
REMARK INTER:                  -2.637
REMARK INTRA:                   0.000
REMARK UNBOUND:                 0.000
REMARK SMILES CC(=O)[O-]
REMARK SMILES IDX 1 1 2 2 3 3 4 4
REMARK H PARENT
REMARK Flexibility Score: inf
ROOT
ATOM      1  C   UNL     1      39.645  26.493  17.033  1.00  0.00     0.063 C 
ATOM      2  C   UNL     1      41.110  26.692  16.835  1.00  0.00     0.038 C 
ATOM      3  O   UNL     1      41.556  27.828  16.525  1.00  0.00    -0.550 OA
ATOM      4  O   UNL     1      41.979  25.614  16.937  1.00  0.00    -0.550 OA
ENDROOT
TORSDOF 0
ENDMDL
MODEL 5
REMARK VINA RESULT:    -2.635      1.370      1.744
REMARK INTER + INTRA:          -2.635
REMARK INTER:                  -2.635
REMARK INTRA:                   0.000
REMARK UNBOUND:                 0.000
REMARK SMILES CC(=O)[O-]
REMARK SMILES IDX 1 1 2 2 3 3 4 4
REMARK H PARENT
REMARK Flexibility Score: inf
ROOT
ATOM      1  C   UNL     1      41.998  25.587  17.345  1.00  0.00     0.063 C 
ATOM      2  C   UNL     1      41.130  26.683  16.825  1.00  0.00     0.038 C 
ATOM      3  O   UNL     1      39.920  26.458  16.561  1.00  0.00    -0.550 OA
ATOM      4  O   UNL     1      41.668  27.939  16.579  1.00  0.00    -0.550 OA
ENDROOT
TORSDOF 0
ENDMDL
MODEL 6
REMARK VINA RESULT:    -2.617      1.840      2.216
REMARK INTER + INTRA:          -2.617
REMARK INTER:                  -2.617
REMARK INTRA:                   0.000
REMARK UNBOUND:                 0.000
REMARK SMILES CC(=O)[O-]
REMARK SMILES IDX 1 1 2 2 3 3 4 4
REMARK H PARENT
REMARK Flexibility Score: inf
ROOT
ATOM      1  C   UNL     1      41.120  26.517  16.611  1.00  0.00     0.063 C 
ATOM      2  C   UNL     1      41.922  25.674  17.544  1.00  0.00     0.038 C 
ATOM      3  O   UNL     1      42.685  24.781  17.089  1.00  0.00    -0.550 OA
ATOM      4  O   UNL     1      41.786  25.833  18.916  1.00  0.00    -0.550 OA
ENDROOT
TORSDOF 0
ENDMDL
MODEL 7
REMARK VINA RESULT:    -2.143     13.850     14.236
REMARK INTER + INTRA:          -2.143
REMARK INTER:                  -2.143
REMARK INTRA:                   0.000
REMARK UNBOUND:                 0.000
REMARK SMILES CC(=O)[O-]
REMARK SMILES IDX 1 1 2 2 3 3 4 4
REMARK H PARENT
REMARK Flexibility Score: inf
ROOT
ATOM      1  C   UNL     1      45.141  21.463  27.732  1.00  0.00     0.063 C 
ATOM      2  C   UNL     1      45.541  21.024  29.099  1.00  0.00     0.038 C 
ATOM      3  O   UNL     1      44.841  21.344  30.095  1.00  0.00    -0.550 OA
ATOM      4  O   UNL     1      46.717  20.309  29.284  1.00  0.00    -0.550 OA
ENDROOT
TORSDOF 0
ENDMDL
MODEL 8
REMARK VINA RESULT:    -2.018     12.978     13.299
REMARK INTER + INTRA:          -2.018
REMARK INTER:                  -2.018
REMARK INTRA:                   0.000
REMARK UNBOUND:                 0.000
REMARK SMILES CC(=O)[O-]
REMARK SMILES IDX 1 1 2 2 3 3 4 4
REMARK H PARENT
REMARK Flexibility Score: inf
ROOT
ATOM      1  C   UNL     1      32.808  27.325  28.073  1.00  0.00     0.063 C 
ATOM      2  C   UNL     1      32.493  26.684  26.763  1.00  0.00     0.038 C 
ATOM      3  O   UNL     1      32.086  25.493  26.725  1.00  0.00    -0.550 OA
ATOM      4  O   UNL     1      32.702  27.380  25.580  1.00  0.00    -0.550 OA
ENDROOT
TORSDOF 0
ENDMDL
MODEL 9
REMARK VINA RESULT:    -2.014     13.453     13.880
REMARK INTER + INTRA:          -2.014
REMARK INTER:                  -2.014
REMARK INTRA:                   0.000
REMARK UNBOUND:                 0.000
REMARK SMILES CC(=O)[O-]
REMARK SMILES IDX 1 1 2 2 3 3 4 4
REMARK H PARENT
REMARK Flexibility Score: inf
ROOT
ATOM      1  C   UNL     1      45.854  20.213  29.461  1.00  0.00     0.063 C 
ATOM      2  C   UNL     1      45.191  21.335  28.736  1.00  0.00     0.038 C 
ATOM      3  O   UNL     1      45.520  21.601  27.550  1.00  0.00    -0.550 OA
ATOM      4  O   UNL     1      44.251  22.124  29.385  1.00  0.00    -0.550 OA
ENDROOT
TORSDOF 0
ENDMDL
