MODEL 1
REMARK VINA RESULT:    -6.298      0.000      0.000
REMARK INTER + INTRA:          -9.701
REMARK INTER:                  -8.691
REMARK INTRA:                  -1.010
REMARK UNBOUND:                -1.010
REMARK SMILES O=C([O-])[C@@H]1O[C@H](Oc2cc3oc(-c4ccccc4)cc(=O)c3c(O)c2O)[C@H](O)[C@@H](O)[C@@H]1O
REMARK SMILES IDX 7 1 6 2 4 3 31 4 5 5 29 6 27 7 2 8 1 9 3 10 32 11 30 13
REMARK SMILES IDX 28 15 8 17 25 18 9 19 23 20 10 21 22 22 11 23 20 24 12 25
REMARK SMILES IDX 19 26 21 27 26 28 24 30 13 32 14 33 18 34 15 35 17 36 16 37
REMARK H PARENT 32 12 30 14 28 16 26 29 24 31
REMARK Flexibility Score: inf
ROOT
ATOM      1  O   UNL     1      43.789  15.351  -4.662  1.00  0.00    -0.458 OA
ENDROOT
BRANCH   1   2
ATOM      2  C   UNL     1      43.726  16.775  -4.538  1.00  0.00     0.339 C 
ATOM      3  C   UNL     1      41.353  16.988  -4.735  1.00  0.00     0.199 C 
ATOM      4  C   UNL     1      41.216  17.339  -3.230  1.00  0.00     0.180 C 
ATOM      5  O   UNL     1      42.631  17.311  -5.274  1.00  0.00    -0.328 OA
ATOM      6  C   UNL     1      42.380  16.779  -2.395  1.00  0.00     0.181 C 
ATOM      7  C   UNL     1      43.701  17.197  -3.057  1.00  0.00     0.214 C 
BRANCH   3   8
ATOM      8  C   UNL     1      40.916  15.591  -5.113  1.00  0.00     0.073 C 
ATOM      9  O   UNL     1      40.660  15.326  -6.316  1.00  0.00    -0.547 OA
ATOM     10  O   UNL     1      40.806  14.583  -4.163  1.00  0.00    -0.547 OA
ENDBRANCH   3   8
BRANCH   4  11
ATOM     11  O   UNL     1      39.963  16.951  -2.720  1.00  0.00    -0.387 OA
ATOM     12  H   UNL     1      40.066  16.762  -1.751  1.00  0.00     0.211 HD
ENDBRANCH   4  11
BRANCH   6  13
ATOM     13  O   UNL     1      42.306  17.300  -1.092  1.00  0.00    -0.387 OA
ATOM     14  H   UNL     1      43.143  17.034  -0.629  1.00  0.00     0.211 HD
ENDBRANCH   6  13
BRANCH   7  15
ATOM     15  O   UNL     1      44.810  16.675  -2.366  1.00  0.00    -0.384 OA
ATOM     16  H   UNL     1      45.163  17.388  -1.773  1.00  0.00     0.211 HD
ENDBRANCH   7  15
ENDBRANCH   1   2
BRANCH   1  17
ATOM     17  C   UNL     1      44.917  14.559  -4.391  1.00  0.00     0.172 A 
ATOM     18  C   UNL     1      44.756  13.443  -3.564  1.00  0.00     0.201 A 
ATOM     19  C   UNL     1      46.185  14.859  -4.907  1.00  0.00     0.098 A 
ATOM     20  C   UNL     1      45.851  12.622  -3.234  1.00  0.00     0.176 A 
ATOM     21  C   UNL     1      47.282  14.050  -4.613  1.00  0.00     0.146 A 
ATOM     22  C   UNL     1      47.134  12.901  -3.795  1.00  0.00     0.111 A 
ATOM     23  O   UNL     1      48.465  14.381  -5.119  1.00  0.00    -0.456 OA
ATOM     24  C   UNL     1      48.284  12.095  -3.617  1.00  0.00     0.197 A 
ATOM     25  C   UNL     1      49.572  13.676  -4.915  1.00  0.00     0.138 A 
ATOM     26  C   UNL     1      49.505  12.496  -4.162  1.00  0.00     0.100 A 
ATOM     27  O   UNL     1      48.242  10.995  -3.006  1.00  0.00    -0.289 OA
BRANCH  18  28
ATOM     28  O   UNL     1      43.483  13.173  -3.054  1.00  0.00    -0.502 OA
ATOM     29  H   UNL     1      42.844  13.905  -2.765  1.00  0.00     0.293 HD
ENDBRANCH  18  28
BRANCH  20  30
ATOM     30  O   UNL     1      45.614  11.578  -2.333  1.00  0.00    -0.504 OA
ATOM     31  H   UNL     1      46.160  10.734  -2.265  1.00  0.00     0.293 HD
ENDBRANCH  20  30
BRANCH  25  32
ATOM     32  C   UNL     1      50.843  14.151  -5.514  1.00  0.00     0.017 A 
ATOM     33  C   UNL     1      51.197  15.515  -5.515  1.00  0.00     0.012 A 
ATOM     34  C   UNL     1      51.707  13.227  -6.132  1.00  0.00     0.012 A 
ATOM     35  C   UNL     1      52.393  15.937  -6.104  1.00  0.00     0.001 A 
ATOM     36  C   UNL     1      52.902  13.654  -6.720  1.00  0.00     0.001 A 
ATOM     37  C   UNL     1      53.245  15.008  -6.704  1.00  0.00     0.000 A 
ENDBRANCH  25  32
ENDBRANCH   1  17
TORSDOF 9
ENDMDL
MODEL 2
REMARK VINA RESULT:    -6.243      1.608      2.349
REMARK INTER + INTRA:          -9.625
REMARK INTER:                  -8.267
REMARK INTRA:                  -1.358
REMARK UNBOUND:                -1.010
REMARK SMILES O=C([O-])[C@@H]1O[C@H](Oc2cc3oc(-c4ccccc4)cc(=O)c3c(O)c2O)[C@H](O)[C@@H](O)[C@@H]1O
REMARK SMILES IDX 7 1 6 2 4 3 31 4 5 5 29 6 27 7 2 8 1 9 3 10 32 11 30 13
REMARK SMILES IDX 28 15 8 17 25 18 9 19 23 20 10 21 22 22 11 23 20 24 12 25
REMARK SMILES IDX 19 26 21 27 26 28 24 30 13 32 14 33 18 34 15 35 17 36 16 37
REMARK H PARENT 32 12 30 14 28 16 26 29 24 31
REMARK Flexibility Score: inf
ROOT
ATOM      1  O   UNL     1      44.270  16.870  -4.026  1.00  0.00    -0.458 OA
ENDROOT
BRANCH   1   2
ATOM      2  C   UNL     1      43.478  17.240  -5.157  1.00  0.00     0.339 C 
ATOM      3  C   UNL     1      41.663  18.218  -3.946  1.00  0.00     0.199 C 
ATOM      4  C   UNL     1      42.082  19.645  -4.386  1.00  0.00     0.180 C 
ATOM      5  O   UNL     1      42.088  17.203  -4.851  1.00  0.00    -0.328 OA
ATOM      6  C   UNL     1      43.579  19.732  -4.727  1.00  0.00     0.181 C 
ATOM      7  C   UNL     1      43.920  18.607  -5.715  1.00  0.00     0.214 C 
BRANCH   3   8
ATOM      8  C   UNL     1      41.983  17.866  -2.511  1.00  0.00     0.073 C 
ATOM      9  O   UNL     1      42.452  18.748  -1.746  1.00  0.00    -0.547 OA
ATOM     10  O   UNL     1      41.757  16.591  -2.009  1.00  0.00    -0.547 OA
ENDBRANCH   3   8
BRANCH   4  11
ATOM     11  O   UNL     1      41.698  20.612  -3.437  1.00  0.00    -0.387 OA
ATOM     12  H   UNL     1      41.853  21.511  -3.829  1.00  0.00     0.211 HD
ENDBRANCH   4  11
BRANCH   6  13
ATOM     13  O   UNL     1      43.848  20.983  -5.308  1.00  0.00    -0.387 OA
ATOM     14  H   UNL     1      44.812  20.989  -5.542  1.00  0.00     0.211 HD
ENDBRANCH   6  13
BRANCH   7  15
ATOM     15  O   UNL     1      45.291  18.601  -6.034  1.00  0.00    -0.384 OA
ATOM     16  H   UNL     1      45.682  17.761  -5.677  1.00  0.00     0.211 HD
ENDBRANCH   7  15
ENDBRANCH   1   2
BRANCH   1  17
ATOM     17  C   UNL     1      45.179  15.800  -3.983  1.00  0.00     0.172 A 
ATOM     18  C   UNL     1      44.760  14.601  -3.397  1.00  0.00     0.201 A 
ATOM     19  C   UNL     1      46.481  15.901  -4.492  1.00  0.00     0.098 A 
ATOM     20  C   UNL     1      45.631  13.499  -3.301  1.00  0.00     0.176 A 
ATOM     21  C   UNL     1      47.356  14.817  -4.428  1.00  0.00     0.146 A 
ATOM     22  C   UNL     1      46.942  13.587  -3.859  1.00  0.00     0.111 A 
ATOM     23  O   UNL     1      48.583  14.967  -4.916  1.00  0.00    -0.456 OA
ATOM     24  C   UNL     1      47.869  12.518  -3.911  1.00  0.00     0.197 A 
ATOM     25  C   UNL     1      49.492  13.999  -4.920  1.00  0.00     0.138 A 
ATOM     26  C   UNL     1      49.149  12.734  -4.425  1.00  0.00     0.100 A 
ATOM     27  O   UNL     1      47.569  11.354  -3.539  1.00  0.00    -0.289 OA
BRANCH  18  28
ATOM     28  O   UNL     1      43.461  14.530  -2.889  1.00  0.00    -0.502 OA
ATOM     29  H   UNL     1      42.652  14.365  -3.476  1.00  0.00     0.293 HD
ENDBRANCH  18  28
BRANCH  20  30
ATOM     30  O   UNL     1      45.155  12.370  -2.624  1.00  0.00    -0.504 OA
ATOM     31  H   UNL     1      45.074  11.447  -3.019  1.00  0.00     0.293 HD
ENDBRANCH  20  30
BRANCH  25  32
ATOM     32  C   UNL     1      50.839  14.284  -5.474  1.00  0.00     0.017 A 
ATOM     33  C   UNL     1      51.341  15.598  -5.560  1.00  0.00     0.012 A 
ATOM     34  C   UNL     1      51.627  13.224  -5.961  1.00  0.00     0.012 A 
ATOM     35  C   UNL     1      52.606  15.839  -6.105  1.00  0.00     0.001 A 
ATOM     36  C   UNL     1      52.892  13.471  -6.504  1.00  0.00     0.001 A 
ATOM     37  C   UNL     1      53.381  14.778  -6.574  1.00  0.00     0.000 A 
ENDBRANCH  25  32
ENDBRANCH   1  17
TORSDOF 9
ENDMDL
MODEL 3
REMARK VINA RESULT:    -6.236      1.476      2.000
REMARK INTER + INTRA:          -9.617
REMARK INTER:                  -8.100
REMARK INTRA:                  -1.517
REMARK UNBOUND:                -1.010
REMARK SMILES O=C([O-])[C@@H]1O[C@H](Oc2cc3oc(-c4ccccc4)cc(=O)c3c(O)c2O)[C@H](O)[C@@H](O)[C@@H]1O
REMARK SMILES IDX 7 1 6 2 4 3 31 4 5 5 29 6 27 7 2 8 1 9 3 10 32 11 30 13
REMARK SMILES IDX 28 15 8 17 25 18 9 19 23 20 10 21 22 22 11 23 20 24 12 25
REMARK SMILES IDX 19 26 21 27 26 28 24 30 13 32 14 33 18 34 15 35 17 36 16 37
REMARK H PARENT 32 12 30 14 28 16 26 29 24 31
REMARK Flexibility Score: inf
ROOT
ATOM      1  O   UNL     1      43.462  16.740  -4.010  1.00  0.00    -0.458 OA
ENDROOT
BRANCH   1   2
ATOM      2  C   UNL     1      43.486  17.906  -3.182  1.00  0.00     0.339 C 
ATOM      3  C   UNL     1      42.502  19.411  -4.756  1.00  0.00     0.199 C 
ATOM      4  C   UNL     1      41.178  19.461  -3.948  1.00  0.00     0.180 C 
ATOM      5  O   UNL     1      43.637  19.090  -3.959  1.00  0.00    -0.328 OA
ATOM      6  C   UNL     1      40.974  18.199  -3.093  1.00  0.00     0.181 C 
ATOM      7  C   UNL     1      42.246  17.957  -2.268  1.00  0.00     0.214 C 
BRANCH   3   8
ATOM      8  C   UNL     1      42.451  18.591  -6.026  1.00  0.00     0.073 C 
ATOM      9  O   UNL     1      43.441  18.589  -6.802  1.00  0.00    -0.547 OA
ATOM     10  O   UNL     1      41.340  17.824  -6.350  1.00  0.00    -0.547 OA
ENDBRANCH   3   8
BRANCH   4  11
ATOM     11  O   UNL     1      40.073  19.722  -4.780  1.00  0.00    -0.387 OA
ATOM     12  H   UNL     1      40.389  19.737  -5.721  1.00  0.00     0.211 HD
ENDBRANCH   4  11
BRANCH   6  13
ATOM     13  O   UNL     1      39.875  18.394  -2.238  1.00  0.00    -0.387 OA
ATOM     14  H   UNL     1      39.132  18.736  -2.800  1.00  0.00     0.211 HD
ENDBRANCH   6  13
BRANCH   7  15
ATOM     15  O   UNL     1      42.143  16.786  -1.495  1.00  0.00    -0.384 OA
ATOM     16  H   UNL     1      43.043  16.372  -1.447  1.00  0.00     0.211 HD
ENDBRANCH   7  15
ENDBRANCH   1   2
BRANCH   1  17
ATOM     17  C   UNL     1      44.405  15.699  -3.978  1.00  0.00     0.172 A 
ATOM     18  C   UNL     1      44.008  14.467  -3.448  1.00  0.00     0.201 A 
ATOM     19  C   UNL     1      45.717  15.861  -4.442  1.00  0.00     0.098 A 
ATOM     20  C   UNL     1      44.912  13.390  -3.365  1.00  0.00     0.176 A 
ATOM     21  C   UNL     1      46.626  14.804  -4.390  1.00  0.00     0.146 A 
ATOM     22  C   UNL     1      46.236  13.541  -3.878  1.00  0.00     0.111 A 
ATOM     23  O   UNL     1      47.860  15.011  -4.835  1.00  0.00    -0.456 OA
ATOM     24  C   UNL     1      47.199  12.505  -3.941  1.00  0.00     0.197 A 
ATOM     25  C   UNL     1      48.801  14.073  -4.845  1.00  0.00     0.138 A 
ATOM     26  C   UNL     1      48.486  12.781  -4.406  1.00  0.00     0.100 A 
ATOM     27  O   UNL     1      46.928  11.319  -3.620  1.00  0.00    -0.289 OA
BRANCH  18  28
ATOM     28  O   UNL     1      42.698  14.335  -2.982  1.00  0.00    -0.502 OA
ATOM     29  H   UNL     1      42.409  13.581  -2.370  1.00  0.00     0.293 HD
ENDBRANCH  18  28
BRANCH  20  30
ATOM     30  O   UNL     1      44.455  12.222  -2.743  1.00  0.00    -0.504 OA
ATOM     31  H   UNL     1      44.107  12.165  -1.799  1.00  0.00     0.293 HD
ENDBRANCH  20  30
BRANCH  25  32
ATOM     32  C   UNL     1      50.153  14.422  -5.347  1.00  0.00     0.017 A 
ATOM     33  C   UNL     1      50.604  15.757  -5.395  1.00  0.00     0.012 A 
ATOM     34  C   UNL     1      51.001  13.403  -5.821  1.00  0.00     0.012 A 
ATOM     35  C   UNL     1      51.876  16.058  -5.891  1.00  0.00     0.001 A 
ATOM     36  C   UNL     1      52.272  13.710  -6.316  1.00  0.00     0.001 A 
ATOM     37  C   UNL     1      52.709  15.036  -6.349  1.00  0.00     0.000 A 
ENDBRANCH  25  32
ENDBRANCH   1  17
TORSDOF 9
ENDMDL
MODEL 4
REMARK VINA RESULT:    -5.972      2.198      8.326
REMARK INTER + INTRA:          -9.251
REMARK INTER:                  -7.754
REMARK INTRA:                  -1.497
REMARK UNBOUND:                -1.010
REMARK SMILES O=C([O-])[C@@H]1O[C@H](Oc2cc3oc(-c4ccccc4)cc(=O)c3c(O)c2O)[C@H](O)[C@@H](O)[C@@H]1O
REMARK SMILES IDX 7 1 6 2 4 3 31 4 5 5 29 6 27 7 2 8 1 9 3 10 32 11 30 13
REMARK SMILES IDX 28 15 8 17 25 18 9 19 23 20 10 21 22 22 11 23 20 24 12 25
REMARK SMILES IDX 19 26 21 27 26 28 24 30 13 32 14 33 18 34 15 35 17 36 16 37
REMARK H PARENT 32 12 30 14 28 16 26 29 24 31
REMARK Flexibility Score: inf
ROOT
ATOM      1  O   UNL     1      47.620  14.353  -4.984  1.00  0.00    -0.458 OA
ENDROOT
BRANCH   1   2
ATOM      2  C   UNL     1      48.752  14.728  -4.194  1.00  0.00     0.339 C 
ATOM      3  C   UNL     1      50.222  12.995  -4.935  1.00  0.00     0.199 C 
ATOM      4  C   UNL     1      51.071  14.004  -5.752  1.00  0.00     0.180 C 
ATOM      5  O   UNL     1      49.535  13.593  -3.840  1.00  0.00    -0.328 OA
ATOM      6  C   UNL     1      50.263  15.248  -6.157  1.00  0.00     0.181 C 
ATOM      7  C   UNL     1      49.581  15.816  -4.904  1.00  0.00     0.214 C 
BRANCH   3   8
ATOM      8  C   UNL     1      49.313  12.105  -5.754  1.00  0.00     0.073 C 
ATOM      9  O   UNL     1      48.668  11.187  -5.185  1.00  0.00    -0.547 OA
ATOM     10  O   UNL     1      49.160  12.288  -7.122  1.00  0.00    -0.547 OA
ENDBRANCH   3   8
BRANCH   4  11
ATOM     11  O   UNL     1      51.684  13.386  -6.859  1.00  0.00    -0.387 OA
ATOM     12  H   UNL     1      52.600  13.110  -6.593  1.00  0.00     0.211 HD
ENDBRANCH   4  11
BRANCH   6  13
ATOM     13  O   UNL     1      51.133  16.204  -6.708  1.00  0.00    -0.387 OA
ATOM     14  H   UNL     1      50.588  17.009  -6.904  1.00  0.00     0.211 HD
ENDBRANCH   6  13
BRANCH   7  15
ATOM     15  O   UNL     1      48.785  16.934  -5.214  1.00  0.00    -0.384 OA
ATOM     16  H   UNL     1      48.148  17.072  -4.465  1.00  0.00     0.211 HD
ENDBRANCH   7  15
ENDBRANCH   1   2
BRANCH   1  17
ATOM     17  C   UNL     1      46.276  14.499  -4.601  1.00  0.00     0.172 A 
ATOM     18  C   UNL     1      45.419  13.408  -4.776  1.00  0.00     0.201 A 
ATOM     19  C   UNL     1      45.774  15.695  -4.070  1.00  0.00     0.098 A 
ATOM     20  C   UNL     1      44.055  13.497  -4.435  1.00  0.00     0.176 A 
ATOM     21  C   UNL     1      44.431  15.803  -3.705  1.00  0.00     0.146 A 
ATOM     22  C   UNL     1      43.552  14.700  -3.853  1.00  0.00     0.111 A 
ATOM     23  O   UNL     1      44.001  16.960  -3.215  1.00  0.00    -0.456 OA
ATOM     24  C   UNL     1      42.229  14.875  -3.381  1.00  0.00     0.197 A 
ATOM     25  C   UNL     1      42.750  17.169  -2.823  1.00  0.00     0.138 A 
ATOM     26  C   UNL     1      41.827  16.116  -2.885  1.00  0.00     0.100 A 
ATOM     27  O   UNL     1      41.397  13.931  -3.358  1.00  0.00    -0.289 OA
BRANCH  18  28
ATOM     28  O   UNL     1      45.943  12.232  -5.317  1.00  0.00    -0.502 OA
ATOM     29  H   UNL     1      46.508  11.587  -4.777  1.00  0.00     0.293 HD
ENDBRANCH  18  28
BRANCH  20  30
ATOM     30  O   UNL     1      43.254  12.386  -4.723  1.00  0.00    -0.504 OA
ATOM     31  H   UNL     1      42.615  11.950  -4.079  1.00  0.00     0.293 HD
ENDBRANCH  20  30
BRANCH  25  32
ATOM     32  C   UNL     1      42.375  18.509  -2.309  1.00  0.00     0.017 A 
ATOM     33  C   UNL     1      42.958  19.687  -2.818  1.00  0.00     0.012 A 
ATOM     34  C   UNL     1      41.441  18.613  -1.261  1.00  0.00     0.012 A 
ATOM     35  C   UNL     1      42.601  20.936  -2.300  1.00  0.00     0.001 A 
ATOM     36  C   UNL     1      41.087  19.865  -0.747  1.00  0.00     0.001 A 
ATOM     37  C   UNL     1      41.665  21.025  -1.268  1.00  0.00     0.000 A 
ENDBRANCH  25  32
ENDBRANCH   1  17
TORSDOF 9
ENDMDL
MODEL 5
REMARK VINA RESULT:    -5.741      2.911      8.139
REMARK INTER + INTRA:          -8.933
REMARK INTER:                  -7.665
REMARK INTRA:                  -1.269
REMARK UNBOUND:                -1.010
REMARK SMILES O=C([O-])[C@@H]1O[C@H](Oc2cc3oc(-c4ccccc4)cc(=O)c3c(O)c2O)[C@H](O)[C@@H](O)[C@@H]1O
REMARK SMILES IDX 7 1 6 2 4 3 31 4 5 5 29 6 27 7 2 8 1 9 3 10 32 11 30 13
REMARK SMILES IDX 28 15 8 17 25 18 9 19 23 20 10 21 22 22 11 23 20 24 12 25
REMARK SMILES IDX 19 26 21 27 26 28 24 30 13 32 14 33 18 34 15 35 17 36 16 37
REMARK H PARENT 32 12 30 14 28 16 26 29 24 31
REMARK Flexibility Score: inf
ROOT
ATOM      1  O   UNL     1      46.713  14.812  -4.111  1.00  0.00    -0.458 OA
ENDROOT
BRANCH   1   2
ATOM      2  C   UNL     1      46.887  13.616  -4.876  1.00  0.00     0.339 C 
ATOM      3  C   UNL     1      48.983  14.198  -5.868  1.00  0.00     0.199 C 
ATOM      4  C   UNL     1      49.735  13.165  -4.989  1.00  0.00     0.180 C 
ATOM      5  O   UNL     1      47.612  13.870  -6.075  1.00  0.00    -0.328 OA
ATOM      6  C   UNL     1      48.986  12.860  -3.681  1.00  0.00     0.181 C 
ATOM      7  C   UNL     1      47.532  12.507  -4.023  1.00  0.00     0.214 C 
BRANCH   3   8
ATOM      8  C   UNL     1      49.162  15.643  -5.460  1.00  0.00     0.073 C 
ATOM      9  O   UNL     1      49.835  15.918  -4.433  1.00  0.00    -0.547 OA
ATOM     10  O   UNL     1      48.615  16.681  -6.204  1.00  0.00    -0.547 OA
ENDBRANCH   3   8
BRANCH   4  11
ATOM     11  O   UNL     1      51.068  13.555  -4.758  1.00  0.00    -0.387 OA
ATOM     12  H   UNL     1      51.068  14.269  -4.069  1.00  0.00     0.211 HD
ENDBRANCH   4  11
BRANCH   6  13
ATOM     13  O   UNL     1      49.607  11.778  -3.035  1.00  0.00    -0.387 OA
ATOM     14  H   UNL     1      49.467  11.906  -2.061  1.00  0.00     0.211 HD
ENDBRANCH   6  13
BRANCH   7  15
ATOM     15  O   UNL     1      46.776  12.261  -2.862  1.00  0.00    -0.384 OA
ATOM     16  H   UNL     1      46.647  11.280  -2.784  1.00  0.00     0.211 HD
ENDBRANCH   7  15
ENDBRANCH   1   2
BRANCH   1  17
ATOM     17  C   UNL     1      45.539  15.581  -4.059  1.00  0.00     0.172 A 
ATOM     18  C   UNL     1      44.425  15.043  -3.406  1.00  0.00     0.201 A 
ATOM     19  C   UNL     1      45.447  16.850  -4.647  1.00  0.00     0.098 A 
ATOM     20  C   UNL     1      43.211  15.753  -3.339  1.00  0.00     0.176 A 
ATOM     21  C   UNL     1      44.262  17.583  -4.578  1.00  0.00     0.146 A 
ATOM     22  C   UNL     1      43.131  17.063  -3.900  1.00  0.00     0.111 A 
ATOM     23  O   UNL     1      44.224  18.777  -5.159  1.00  0.00    -0.456 OA
ATOM     24  C   UNL     1      42.000  17.911  -3.810  1.00  0.00     0.197 A 
ATOM     25  C   UNL     1      43.154  19.564  -5.143  1.00  0.00     0.138 A 
ATOM     26  C   UNL     1      42.009  19.152  -4.450  1.00  0.00     0.100 A 
ATOM     27  O   UNL     1      40.983  17.600  -3.137  1.00  0.00    -0.289 OA
BRANCH  18  28
ATOM     28  O   UNL     1      44.540  13.772  -2.837  1.00  0.00    -0.502 OA
ATOM     29  H   UNL     1      45.286  13.131  -3.079  1.00  0.00     0.293 HD
ENDBRANCH  18  28
BRANCH  20  30
ATOM     30  O   UNL     1      42.126  15.103  -2.741  1.00  0.00    -0.504 OA
ATOM     31  H   UNL     1      41.989  14.995  -1.748  1.00  0.00     0.293 HD
ENDBRANCH  20  30
BRANCH  25  32
ATOM     32  C   UNL     1      43.217  20.871  -5.844  1.00  0.00     0.017 A 
ATOM     33  C   UNL     1      44.434  21.398  -6.320  1.00  0.00     0.012 A 
ATOM     34  C   UNL     1      42.041  21.626  -6.008  1.00  0.00     0.012 A 
ATOM     35  C   UNL     1      44.466  22.641  -6.959  1.00  0.00     0.001 A 
ATOM     36  C   UNL     1      42.079  22.869  -6.648  1.00  0.00     0.001 A 
ATOM     37  C   UNL     1      43.291  23.375  -7.125  1.00  0.00     0.000 A 
ENDBRANCH  25  32
ENDBRANCH   1  17
TORSDOF 9
ENDMDL
MODEL 6
REMARK VINA RESULT:    -5.541      2.693      8.544
REMARK INTER + INTRA:          -8.657
REMARK INTER:                  -7.933
REMARK INTRA:                  -0.724
REMARK UNBOUND:                -1.010
REMARK SMILES O=C([O-])[C@@H]1O[C@H](Oc2cc3oc(-c4ccccc4)cc(=O)c3c(O)c2O)[C@H](O)[C@@H](O)[C@@H]1O
REMARK SMILES IDX 7 1 6 2 4 3 31 4 5 5 29 6 27 7 2 8 1 9 3 10 32 11 30 13
REMARK SMILES IDX 28 15 8 17 25 18 9 19 23 20 10 21 22 22 11 23 20 24 12 25
REMARK SMILES IDX 19 26 21 27 26 28 24 30 13 32 14 33 18 34 15 35 17 36 16 37
REMARK H PARENT 32 12 30 14 28 16 26 29 24 31
REMARK Flexibility Score: inf
ROOT
ATOM      1  O   UNL     1      46.362  13.697  -4.459  1.00  0.00    -0.458 OA
ENDROOT
BRANCH   1   2
ATOM      2  C   UNL     1      47.029  13.249  -3.276  1.00  0.00     0.339 C 
ATOM      3  C   UNL     1      47.729  11.123  -4.114  1.00  0.00     0.199 C 
ATOM      4  C   UNL     1      49.207  11.588  -4.183  1.00  0.00     0.180 C 
ATOM      5  O   UNL     1      46.960  11.832  -3.148  1.00  0.00    -0.328 OA
ATOM      6  C   UNL     1      49.329  13.115  -4.322  1.00  0.00     0.181 C 
ATOM      7  C   UNL     1      48.477  13.774  -3.228  1.00  0.00     0.214 C 
BRANCH   3   8
ATOM      8  C   UNL     1      47.019  11.031  -5.446  1.00  0.00     0.073 C 
ATOM      9  O   UNL     1      45.770  10.886  -5.474  1.00  0.00    -0.547 OA
ATOM     10  O   UNL     1      47.714  11.121  -6.646  1.00  0.00    -0.547 OA
ENDBRANCH   3   8
BRANCH   4  11
ATOM     11  O   UNL     1      49.918  10.906  -5.190  1.00  0.00    -0.387 OA
ATOM     12  H   UNL     1      49.332  10.194  -5.555  1.00  0.00     0.211 HD
ENDBRANCH   4  11
BRANCH   6  13
ATOM     13  O   UNL     1      50.677  13.486  -4.173  1.00  0.00    -0.387 OA
ATOM     14  H   UNL     1      51.217  12.798  -4.641  1.00  0.00     0.211 HD
ENDBRANCH   6  13
BRANCH   7  15
ATOM     15  O   UNL     1      48.507  15.177  -3.328  1.00  0.00    -0.384 OA
ATOM     16  H   UNL     1      49.370  15.490  -2.951  1.00  0.00     0.211 HD
ENDBRANCH   7  15
ENDBRANCH   1   2
BRANCH   1  17
ATOM     17  C   UNL     1      45.916  15.008  -4.696  1.00  0.00     0.172 A 
ATOM     18  C   UNL     1      46.451  15.700  -5.787  1.00  0.00     0.201 A 
ATOM     19  C   UNL     1      44.974  15.639  -3.872  1.00  0.00     0.098 A 
ATOM     20  C   UNL     1      46.063  17.025  -6.064  1.00  0.00     0.176 A 
ATOM     21  C   UNL     1      44.558  16.944  -4.137  1.00  0.00     0.146 A 
ATOM     22  C   UNL     1      45.071  17.653  -5.253  1.00  0.00     0.111 A 
ATOM     23  O   UNL     1      43.669  17.502  -3.322  1.00  0.00    -0.456 OA
ATOM     24  C   UNL     1      44.531  18.940  -5.491  1.00  0.00     0.197 A 
ATOM     25  C   UNL     1      43.194  18.730  -3.488  1.00  0.00     0.138 A 
ATOM     26  C   UNL     1      43.608  19.483  -4.595  1.00  0.00     0.100 A 
ATOM     27  O   UNL     1      44.829  19.612  -6.512  1.00  0.00    -0.289 OA
BRANCH  18  28
ATOM     28  O   UNL     1      47.396  15.052  -6.585  1.00  0.00    -0.502 OA
ATOM     29  H   UNL     1      47.137  14.444  -7.354  1.00  0.00     0.293 HD
ENDBRANCH  18  28
BRANCH  20  30
ATOM     30  O   UNL     1      46.712  17.668  -7.125  1.00  0.00    -0.504 OA
ATOM     31  H   UNL     1      46.337  18.441  -7.651  1.00  0.00     0.293 HD
ENDBRANCH  20  30
BRANCH  25  32
ATOM     32  C   UNL     1      42.219  19.259  -2.502  1.00  0.00     0.017 A 
ATOM     33  C   UNL     1      40.939  18.689  -2.348  1.00  0.00     0.012 A 
ATOM     34  C   UNL     1      42.559  20.381  -1.724  1.00  0.00     0.012 A 
ATOM     35  C   UNL     1      40.033  19.221  -1.425  1.00  0.00     0.001 A 
ATOM     36  C   UNL     1      41.649  20.909  -0.802  1.00  0.00     0.001 A 
ATOM     37  C   UNL     1      40.388  20.328  -0.652  1.00  0.00     0.000 A 
ENDBRANCH  25  32
ENDBRANCH   1  17
TORSDOF 9
ENDMDL
MODEL 7
REMARK VINA RESULT:    -5.411      2.277      8.137
REMARK INTER + INTRA:          -8.477
REMARK INTER:                  -7.924
REMARK INTRA:                  -0.552
REMARK UNBOUND:                -1.010
REMARK SMILES O=C([O-])[C@@H]1O[C@H](Oc2cc3oc(-c4ccccc4)cc(=O)c3c(O)c2O)[C@H](O)[C@@H](O)[C@@H]1O
REMARK SMILES IDX 7 1 6 2 4 3 31 4 5 5 29 6 27 7 2 8 1 9 3 10 32 11 30 13
REMARK SMILES IDX 28 15 8 17 25 18 9 19 23 20 10 21 22 22 11 23 20 24 12 25
REMARK SMILES IDX 19 26 21 27 26 28 24 30 13 32 14 33 18 34 15 35 17 36 16 37
REMARK H PARENT 32 12 30 14 28 16 26 29 24 31
REMARK Flexibility Score: inf
ROOT
ATOM      1  O   UNL     1      47.748  14.306  -4.432  1.00  0.00    -0.458 OA
ENDROOT
BRANCH   1   2
ATOM      2  C   UNL     1      48.306  13.393  -5.381  1.00  0.00     0.339 C 
ATOM      3  C   UNL     1      48.807  14.997  -7.081  1.00  0.00     0.199 C 
ATOM      4  C   UNL     1      50.329  14.879  -6.805  1.00  0.00     0.180 C 
ATOM      5  O   UNL     1      48.076  13.830  -6.717  1.00  0.00    -0.328 OA
ATOM      6  C   UNL     1      50.623  14.408  -5.371  1.00  0.00     0.181 C 
ATOM      7  C   UNL     1      49.798  13.144  -5.093  1.00  0.00     0.214 C 
BRANCH   3   8
ATOM      8  C   UNL     1      48.154  16.258  -6.562  1.00  0.00     0.073 C 
ATOM      9  O   UNL     1      46.990  16.553  -6.937  1.00  0.00    -0.547 OA
ATOM     10  O   UNL     1      48.803  17.094  -5.663  1.00  0.00    -0.547 OA
ENDBRANCH   3   8
BRANCH   4  11
ATOM     11  O   UNL     1      51.006  16.072  -7.121  1.00  0.00    -0.387 OA
ATOM     12  H   UNL     1      51.897  15.835  -7.489  1.00  0.00     0.211 HD
ENDBRANCH   4  11
BRANCH   6  13
ATOM     13  O   UNL     1      51.995  14.127  -5.250  1.00  0.00    -0.387 OA
ATOM     14  H   UNL     1      52.156  13.882  -4.302  1.00  0.00     0.211 HD
ENDBRANCH   6  13
BRANCH   7  15
ATOM     15  O   UNL     1      49.987  12.686  -3.775  1.00  0.00    -0.384 OA
ATOM     16  H   UNL     1      49.202  12.970  -3.239  1.00  0.00     0.211 HD
ENDBRANCH   7  15
ENDBRANCH   1   2
BRANCH   1  17
ATOM     17  C   UNL     1      46.378  14.474  -4.172  1.00  0.00     0.172 A 
ATOM     18  C   UNL     1      45.523  13.394  -4.415  1.00  0.00     0.201 A 
ATOM     19  C   UNL     1      45.847  15.681  -3.697  1.00  0.00     0.098 A 
ATOM     20  C   UNL     1      44.136  13.505  -4.198  1.00  0.00     0.176 A 
ATOM     21  C   UNL     1      44.480  15.811  -3.454  1.00  0.00     0.146 A 
ATOM     22  C   UNL     1      43.601  14.720  -3.672  1.00  0.00     0.111 A 
ATOM     23  O   UNL     1      44.025  16.978  -3.013  1.00  0.00    -0.456 OA
ATOM     24  C   UNL     1      42.244  14.918  -3.321  1.00  0.00     0.197 A 
ATOM     25  C   UNL     1      42.747  17.209  -2.736  1.00  0.00     0.138 A 
ATOM     26  C   UNL     1      41.817  16.169  -2.872  1.00  0.00     0.100 A 
ATOM     27  O   UNL     1      41.399  13.986  -3.365  1.00  0.00    -0.289 OA
BRANCH  18  28
ATOM     28  O   UNL     1      46.076  12.206  -4.898  1.00  0.00    -0.502 OA
ATOM     29  H   UNL     1      46.967  11.847  -4.575  1.00  0.00     0.293 HD
ENDBRANCH  18  28
BRANCH  20  30
ATOM     30  O   UNL     1      43.347  12.403  -4.547  1.00  0.00    -0.504 OA
ATOM     31  H   UNL     1      43.283  11.546  -4.022  1.00  0.00     0.293 HD
ENDBRANCH  20  30
BRANCH  25  32
ATOM     32  C   UNL     1      42.348  18.559  -2.267  1.00  0.00     0.017 A 
ATOM     33  C   UNL     1      42.902  19.729  -2.822  1.00  0.00     0.012 A 
ATOM     34  C   UNL     1      41.420  18.681  -1.216  1.00  0.00     0.012 A 
ATOM     35  C   UNL     1      42.523  20.988  -2.347  1.00  0.00     0.001 A 
ATOM     36  C   UNL     1      41.043  19.943  -0.745  1.00  0.00     0.001 A 
ATOM     37  C   UNL     1      41.593  21.095  -1.311  1.00  0.00     0.000 A 
ENDBRANCH  25  32
ENDBRANCH   1  17
TORSDOF 9
ENDMDL
MODEL 8
REMARK VINA RESULT:    -5.210      1.812      3.071
REMARK INTER + INTRA:          -8.200
REMARK INTER:                  -7.357
REMARK INTRA:                  -0.842
REMARK UNBOUND:                -1.010
REMARK SMILES O=C([O-])[C@@H]1O[C@H](Oc2cc3oc(-c4ccccc4)cc(=O)c3c(O)c2O)[C@H](O)[C@@H](O)[C@@H]1O
REMARK SMILES IDX 7 1 6 2 4 3 31 4 5 5 29 6 27 7 2 8 1 9 3 10 32 11 30 13
REMARK SMILES IDX 28 15 8 17 25 18 9 19 23 20 10 21 22 22 11 23 20 24 12 25
REMARK SMILES IDX 19 26 21 27 26 28 24 30 13 32 14 33 18 34 15 35 17 36 16 37
REMARK H PARENT 32 12 30 14 28 16 26 29 24 31
REMARK Flexibility Score: inf
ROOT
ATOM      1  O   UNL     1      43.344  17.067  -3.772  1.00  0.00    -0.458 OA
ENDROOT
BRANCH   1   2
ATOM      2  C   UNL     1      42.161  17.216  -4.562  1.00  0.00     0.339 C 
ATOM      3  C   UNL     1      41.271  19.116  -3.418  1.00  0.00     0.199 C 
ATOM      4  C   UNL     1      41.600  20.046  -4.615  1.00  0.00     0.180 C 
ATOM      5  O   UNL     1      41.089  17.755  -3.795  1.00  0.00    -0.328 OA
ATOM      6  C   UNL     1      42.755  19.501  -5.473  1.00  0.00     0.181 C 
ATOM      7  C   UNL     1      42.448  18.040  -5.832  1.00  0.00     0.214 C 
BRANCH   3   8
ATOM      8  C   UNL     1      42.189  19.254  -2.223  1.00  0.00     0.073 C 
ATOM      9  O   UNL     1      41.903  18.662  -1.150  1.00  0.00    -0.547 OA
ATOM     10  O   UNL     1      43.353  20.008  -2.286  1.00  0.00    -0.547 OA
ENDBRANCH   3   8
BRANCH   4  11
ATOM     11  O   UNL     1      41.832  21.370  -4.193  1.00  0.00    -0.387 OA
ATOM     12  H   UNL     1      42.615  21.721  -4.691  1.00  0.00     0.211 HD
ENDBRANCH   4  11
BRANCH   6  13
ATOM     13  O   UNL     1      42.865  20.273  -6.642  1.00  0.00    -0.387 OA
ATOM     14  H   UNL     1      42.157  19.958  -7.261  1.00  0.00     0.211 HD
ENDBRANCH   6  13
BRANCH   7  15
ATOM     15  O   UNL     1      43.491  17.465  -6.581  1.00  0.00    -0.384 OA
ATOM     16  H   UNL     1      44.211  17.204  -5.949  1.00  0.00     0.211 HD
ENDBRANCH   7  15
ENDBRANCH   1   2
BRANCH   1  17
ATOM     17  C   UNL     1      44.231  15.980  -3.829  1.00  0.00     0.172 A 
ATOM     18  C   UNL     1      43.775  14.734  -3.387  1.00  0.00     0.201 A 
ATOM     19  C   UNL     1      45.545  16.108  -4.298  1.00  0.00     0.098 A 
ATOM     20  C   UNL     1      44.622  13.608  -3.396  1.00  0.00     0.176 A 
ATOM     21  C   UNL     1      46.398  15.005  -4.336  1.00  0.00     0.146 A 
ATOM     22  C   UNL     1      45.947  13.728  -3.914  1.00  0.00     0.111 A 
ATOM     23  O   UNL     1      47.638  15.180  -4.780  1.00  0.00    -0.456 OA
ATOM     24  C   UNL     1      46.854  12.652  -4.066  1.00  0.00     0.197 A 
ATOM     25  C   UNL     1      48.528  14.199  -4.873  1.00  0.00     0.138 A 
ATOM     26  C   UNL     1      48.150  12.895  -4.526  1.00  0.00     0.100 A 
ATOM     27  O   UNL     1      46.524  11.461  -3.830  1.00  0.00    -0.289 OA
BRANCH  18  28
ATOM     28  O   UNL     1      42.464  14.635  -2.916  1.00  0.00    -0.502 OA
ATOM     29  H   UNL     1      41.837  15.430  -2.875  1.00  0.00     0.293 HD
ENDBRANCH  18  28
BRANCH  20  30
ATOM     30  O   UNL     1      44.110  12.423  -2.857  1.00  0.00    -0.504 OA
ATOM     31  H   UNL     1      43.798  11.629  -3.392  1.00  0.00     0.293 HD
ENDBRANCH  20  30
BRANCH  25  32
ATOM     32  C   UNL     1      49.892  14.514  -5.364  1.00  0.00     0.017 A 
ATOM     33  C   UNL     1      50.882  13.520  -5.489  1.00  0.00     0.012 A 
ATOM     34  C   UNL     1      50.224  15.845  -5.682  1.00  0.00     0.012 A 
ATOM     35  C   UNL     1      52.166  13.849  -5.936  1.00  0.00     0.001 A 
ATOM     36  C   UNL     1      51.509  16.169  -6.129  1.00  0.00     0.001 A 
ATOM     37  C   UNL     1      52.478  15.171  -6.257  1.00  0.00     0.000 A 
ENDBRANCH  25  32
ENDBRANCH   1  17
TORSDOF 9
ENDMDL
MODEL 9
REMARK VINA RESULT:    -5.079      2.696      7.964
REMARK INTER + INTRA:          -8.019
REMARK INTER:                  -6.612
REMARK INTRA:                  -1.407
REMARK UNBOUND:                -1.010
REMARK SMILES O=C([O-])[C@@H]1O[C@H](Oc2cc3oc(-c4ccccc4)cc(=O)c3c(O)c2O)[C@H](O)[C@@H](O)[C@@H]1O
REMARK SMILES IDX 7 1 6 2 4 3 31 4 5 5 29 6 27 7 2 8 1 9 3 10 32 11 30 13
REMARK SMILES IDX 28 15 8 17 25 18 9 19 23 20 10 21 22 22 11 23 20 24 12 25
REMARK SMILES IDX 19 26 21 27 26 28 24 30 13 32 14 33 18 34 15 35 17 36 16 37
REMARK H PARENT 32 12 30 14 28 16 26 29 24 31
REMARK Flexibility Score: inf
ROOT
ATOM      1  O   UNL     1      46.276  14.200  -4.153  1.00  0.00    -0.458 OA
ENDROOT
BRANCH   1   2
ATOM      2  C   UNL     1      47.610  14.580  -3.805  1.00  0.00     0.339 C 
ATOM      3  C   UNL     1      48.334  12.444  -3.014  1.00  0.00     0.199 C 
ATOM      4  C   UNL     1      49.238  12.240  -4.258  1.00  0.00     0.180 C 
ATOM      5  O   UNL     1      48.098  13.815  -2.708  1.00  0.00    -0.328 OA
ATOM      6  C   UNL     1      48.747  13.051  -5.470  1.00  0.00     0.181 C 
ATOM      7  C   UNL     1      48.541  14.507  -5.031  1.00  0.00     0.214 C 
BRANCH   3   8
ATOM      8  C   UNL     1      47.057  11.634  -3.005  1.00  0.00     0.073 C 
ATOM      9  O   UNL     1      46.727  10.986  -4.031  1.00  0.00    -0.547 OA
ATOM     10  O   UNL     1      46.244  11.574  -1.880  1.00  0.00    -0.547 OA
ENDBRANCH   3   8
BRANCH   4  11
ATOM     11  O   UNL     1      49.398  10.875  -4.563  1.00  0.00    -0.387 OA
ATOM     12  H   UNL     1      50.268  10.760  -5.026  1.00  0.00     0.211 HD
ENDBRANCH   4  11
BRANCH   6  13
ATOM     13  O   UNL     1      49.712  12.986  -6.489  1.00  0.00    -0.387 OA
ATOM     14  H   UNL     1      49.225  13.052  -7.351  1.00  0.00     0.211 HD
ENDBRANCH   6  13
BRANCH   7  15
ATOM     15  O   UNL     1      48.045  15.297  -6.086  1.00  0.00    -0.384 OA
ATOM     16  H   UNL     1      47.748  16.163  -5.705  1.00  0.00     0.211 HD
ENDBRANCH   7  15
ENDBRANCH   1   2
BRANCH   1  17
ATOM     17  C   UNL     1      45.149  15.036  -4.092  1.00  0.00     0.172 A 
ATOM     18  C   UNL     1      44.010  14.560  -3.435  1.00  0.00     0.201 A 
ATOM     19  C   UNL     1      45.128  16.310  -4.675  1.00  0.00     0.098 A 
ATOM     20  C   UNL     1      42.839  15.339  -3.359  1.00  0.00     0.176 A 
ATOM     21  C   UNL     1      43.988  17.110  -4.596  1.00  0.00     0.146 A 
ATOM     22  C   UNL     1      42.832  16.655  -3.914  1.00  0.00     0.111 A 
ATOM     23  O   UNL     1      44.016  18.307  -5.173  1.00  0.00    -0.456 OA
ATOM     24  C   UNL     1      41.753  17.566  -3.814  1.00  0.00     0.197 A 
ATOM     25  C   UNL     1      42.994  19.155  -5.147  1.00  0.00     0.138 A 
ATOM     26  C   UNL     1      41.830  18.806  -4.449  1.00  0.00     0.100 A 
ATOM     27  O   UNL     1      40.723  17.311  -3.137  1.00  0.00    -0.289 OA
BRANCH  18  28
ATOM     28  O   UNL     1      44.054  13.283  -2.872  1.00  0.00    -0.502 OA
ATOM     29  H   UNL     1      44.618  12.535  -3.258  1.00  0.00     0.293 HD
ENDBRANCH  18  28
BRANCH  20  30
ATOM     30  O   UNL     1      41.722  14.750  -2.757  1.00  0.00    -0.504 OA
ATOM     31  H   UNL     1      41.712  13.849  -2.307  1.00  0.00     0.293 HD
ENDBRANCH  20  30
BRANCH  25  32
ATOM     32  C   UNL     1      43.129  20.459  -5.843  1.00  0.00     0.017 A 
ATOM     33  C   UNL     1      44.389  21.037  -6.094  1.00  0.00     0.012 A 
ATOM     34  C   UNL     1      41.972  21.159  -6.233  1.00  0.00     0.012 A 
ATOM     35  C   UNL     1      44.485  22.277  -6.734  1.00  0.00     0.001 A 
ATOM     36  C   UNL     1      42.073  22.398  -6.874  1.00  0.00     0.001 A 
ATOM     37  C   UNL     1      43.329  22.955  -7.125  1.00  0.00     0.000 A 
ENDBRANCH  25  32
ENDBRANCH   1  17
TORSDOF 9
ENDMDL
