MODEL 1
REMARK VINA RESULT:     4.311      0.000      0.000
REMARK INTER + INTRA:           8.545
REMARK INTER:                   5.823
REMARK INTRA:                   2.722
REMARK UNBOUND:                 2.722
REMARK SMILES C=C1CCC=C(C)CC[C@H]2[C@@H]1CC2(C)C
REMARK SMILES IDX 11 1 12 2 13 3 10 4 14 5 15 6 9 7 8 8 6 9 7 10 5 11 2 13
REMARK SMILES IDX 1 14 3 15 4 16
REMARK H PARENT
REMARK Flexibility Score: 70.00
ROOT
ATOM      1  C   UNL     1       7.304   8.439  12.021  1.00  0.00     0.018 C 
ATOM      2  C   UNL     1       8.223   9.367  12.840  1.00  0.00     0.015 C 
ATOM      3  C   UNL     1       8.698   8.185  13.694  1.00  0.00    -0.031 C 
ATOM      4  C   UNL     1       7.759   7.240  12.901  1.00  0.00     0.002 C 
ATOM      5  C   UNL     1       8.388   8.390  15.193  1.00  0.00     0.011 C 
ATOM      6  C   UNL     1      10.188   7.862  13.475  1.00  0.00     0.011 C 
ENDROOT
BRANCH   4   7
ATOM      7  C   UNL     1       6.695   6.479  13.731  1.00  0.00     0.009 C 
BRANCH   7   8
ATOM      8  C   UNL     1       5.893   5.504  12.848  1.00  0.00     0.030 C 
BRANCH   8   9
ATOM      9  C   UNL     1       4.422   5.850  12.670  1.00  0.00    -0.077 C 
ATOM     10  C   UNL     1       3.547   4.876  11.918  1.00  0.00     0.039 C 
ATOM     11  C   UNL     1       3.861   7.036  13.024  1.00  0.00    -0.028 CG0
ATOM     12  G   UNL     1       4.426   8.089  13.954  1.00  0.00     0.000 G0
ENDBRANCH   8   9
ENDBRANCH   7   8
ENDBRANCH   4   7
BRANCH   1  13
ATOM     13  C   UNL     1       5.818   8.821  11.968  1.00  0.00    -0.074 C 
ATOM     14  C   UNL     1       5.044   8.496  10.913  1.00  0.00     0.008 C 
BRANCH  13  15
ATOM     15  C   UNL     1       5.101   9.276  13.225  1.00  0.00     0.035 C 
BRANCH  15  16
ATOM     16  C   UNL     1       4.412   8.094  13.936  1.00  0.00     0.032 CG0
ATOM     17  G   UNL     1       3.847   7.015  13.037  1.00  0.00     0.000 G0
ENDBRANCH  15  16
ENDBRANCH  13  15
ENDBRANCH   1  13
TORSDOF 0
ENDMDL
MODEL 2
REMARK VINA RESULT:     5.604      1.887      4.597
REMARK INTER + INTRA:          10.292
REMARK INTER:                   7.403
REMARK INTRA:                   2.889
REMARK UNBOUND:                 2.722
REMARK SMILES C=C1CCC=C(C)CC[C@H]2[C@@H]1CC2(C)C
REMARK SMILES IDX 11 1 12 2 13 3 10 4 14 5 15 6 9 7 8 8 6 9 7 10 5 11 2 13
REMARK SMILES IDX 1 14 3 15 4 16
REMARK H PARENT
REMARK Flexibility Score: 70.00
ROOT
ATOM      1  C   UNL     1       4.944   8.214  12.435  1.00  0.00     0.018 C 
ATOM      2  C   UNL     1       4.067   7.171  11.715  1.00  0.00     0.015 C 
ATOM      3  C   UNL     1       4.085   6.263  12.951  1.00  0.00    -0.031 C 
ATOM      4  C   UNL     1       4.992   7.287  13.682  1.00  0.00     0.002 C 
ATOM      5  C   UNL     1       4.693   4.877  12.644  1.00  0.00     0.011 C 
ATOM      6  C   UNL     1       2.697   6.129  13.603  1.00  0.00     0.011 C 
ENDROOT
BRANCH   4   7
ATOM      7  C   UNL     1       6.366   6.759  14.167  1.00  0.00     0.009 C 
BRANCH   7   8
ATOM      8  C   UNL     1       7.275   7.914  14.629  1.00  0.00     0.030 C 
BRANCH   8   9
ATOM      9  C   UNL     1       8.642   7.968  13.965  1.00  0.00    -0.077 C 
ATOM     10  C   UNL     1       9.782   8.598  14.731  1.00  0.00     0.039 C 
ATOM     11  C   UNL     1       8.889   7.611  12.677  1.00  0.00    -0.028 CG0
ATOM     12  G   UNL     1       8.016   6.780  11.761  1.00  0.00     0.000 G0
ENDBRANCH   8   9
ENDBRANCH   7   8
ENDBRANCH   4   7
BRANCH   1  13
ATOM     13  C   UNL     1       6.251   8.610  11.733  1.00  0.00    -0.074 C 
ATOM     14  C   UNL     1       6.907   9.743  12.053  1.00  0.00     0.008 C 
BRANCH  13  15
ATOM     15  C   UNL     1       7.012   7.592  10.904  1.00  0.00     0.035 C 
BRANCH  15  16
ATOM     16  C   UNL     1       8.001   6.789  11.772  1.00  0.00     0.032 CG0
ATOM     17  G   UNL     1       8.891   7.600  12.688  1.00  0.00     0.000 G0
ENDBRANCH  15  16
ENDBRANCH  13  15
ENDBRANCH   1  13
TORSDOF 0
ENDMDL
MODEL 3
REMARK VINA RESULT:     5.748      1.291      1.821
REMARK INTER + INTRA:          10.486
REMARK INTER:                   7.369
REMARK INTRA:                   3.117
REMARK UNBOUND:                 2.722
REMARK SMILES C=C1CCC=C(C)CC[C@H]2[C@@H]1CC2(C)C
REMARK SMILES IDX 11 1 12 2 13 3 10 4 14 5 15 6 9 7 8 8 6 9 7 10 5 11 2 13
REMARK SMILES IDX 1 14 3 15 4 16
REMARK H PARENT
REMARK Flexibility Score: 70.00
ROOT
ATOM      1  C   UNL     1       8.635   7.327  12.752  1.00  0.00     0.018 C 
ATOM      2  C   UNL     1       9.200   8.733  13.037  1.00  0.00     0.015 C 
ATOM      3  C   UNL     1       8.706   8.666  14.487  1.00  0.00    -0.031 C 
ATOM      4  C   UNL     1       8.105   7.263  14.212  1.00  0.00     0.002 C 
ATOM      5  C   UNL     1       7.716   9.805  14.816  1.00  0.00     0.011 C 
ATOM      6  C   UNL     1       9.863   8.627  15.502  1.00  0.00     0.011 C 
ENDROOT
BRANCH   4   7
ATOM      7  C   UNL     1       6.580   7.115  14.446  1.00  0.00     0.009 C 
BRANCH   7   8
ATOM      8  C   UNL     1       6.042   5.819  13.811  1.00  0.00     0.030 C 
BRANCH   8   9
ATOM      9  C   UNL     1       4.859   6.000  12.872  1.00  0.00    -0.077 C 
ATOM     10  C   UNL     1       3.845   4.884  12.781  1.00  0.00     0.039 C 
ATOM     11  C   UNL     1       4.714   7.037  12.006  1.00  0.00    -0.028 CG0
ATOM     12  G   UNL     1       5.440   8.365  12.018  1.00  0.00     0.000 G0
ENDBRANCH   8   9
ENDBRANCH   7   8
ENDBRANCH   4   7
BRANCH   1  13
ATOM     13  C   UNL     1       7.648   7.212  11.581  1.00  0.00    -0.074 C 
ATOM     14  C   UNL     1       7.331   6.018  11.041  1.00  0.00     0.008 C 
BRANCH  13  15
ATOM     15  C   UNL     1       6.756   8.383  11.215  1.00  0.00     0.035 C 
BRANCH  15  16
ATOM     16  C   UNL     1       5.432   8.348  12.003  1.00  0.00     0.032 CG0
ATOM     17  G   UNL     1       4.699   7.024  12.012  1.00  0.00     0.000 G0
ENDBRANCH  15  16
ENDBRANCH  13  15
ENDBRANCH   1  13
TORSDOF 0
ENDMDL
MODEL 4
REMARK VINA RESULT:     6.092      1.667      4.605
REMARK INTER + INTRA:          10.951
REMARK INTER:                   8.171
REMARK INTRA:                   2.780
REMARK UNBOUND:                 2.722
REMARK SMILES C=C1CCC=C(C)CC[C@H]2[C@@H]1CC2(C)C
REMARK SMILES IDX 11 1 12 2 13 3 10 4 14 5 15 6 9 7 8 8 6 9 7 10 5 11 2 13
REMARK SMILES IDX 1 14 3 15 4 16
REMARK H PARENT
REMARK Flexibility Score: 70.00
ROOT
ATOM      1  C   UNL     1       5.799   6.649  11.625  1.00  0.00     0.018 C 
ATOM      2  C   UNL     1       4.300   6.430  11.912  1.00  0.00     0.015 C 
ATOM      3  C   UNL     1       4.098   7.934  12.138  1.00  0.00    -0.031 C 
ATOM      4  C   UNL     1       5.608   8.171  11.880  1.00  0.00     0.002 C 
ATOM      5  C   UNL     1       3.569   8.242  13.556  1.00  0.00     0.011 C 
ATOM      6  C   UNL     1       3.204   8.576  11.060  1.00  0.00     0.011 C 
ENDROOT
BRANCH   4   7
ATOM      7  C   UNL     1       6.402   8.838  13.031  1.00  0.00     0.009 C 
BRANCH   7   8
ATOM      8  C   UNL     1       7.915   8.833  12.742  1.00  0.00     0.030 C 
BRANCH   8   9
ATOM      9  C   UNL     1       8.777   8.186  13.815  1.00  0.00    -0.077 C 
ATOM     10  C   UNL     1      10.228   8.598  13.906  1.00  0.00     0.039 C 
ATOM     11  C   UNL     1       8.376   7.165  14.616  1.00  0.00    -0.028 CG0
ATOM     12  G   UNL     1       6.961   6.699  14.885  1.00  0.00     0.000 G0
ENDBRANCH   8   9
ENDBRANCH   7   8
ENDBRANCH   4   7
BRANCH   1  13
ATOM     13  C   UNL     1       6.784   5.851  12.491  1.00  0.00    -0.074 C 
ATOM     14  C   UNL     1       8.059   5.649  12.103  1.00  0.00     0.008 C 
BRANCH  13  15
ATOM     15  C   UNL     1       6.458   5.553  13.942  1.00  0.00     0.035 C 
BRANCH  15  16
ATOM     16  C   UNL     1       6.955   6.677  14.871  1.00  0.00     0.032 CG0
ATOM     17  G   UNL     1       8.361   7.178  14.616  1.00  0.00     0.000 G0
ENDBRANCH  15  16
ENDBRANCH  13  15
ENDBRANCH   1  13
TORSDOF 0
ENDMDL
