MODEL 1
REMARK VINA RESULT:    -4.940      0.000      0.000
REMARK INTER + INTRA:         -13.015
REMARK INTER:                 -10.716
REMARK INTRA:                  -2.299
REMARK UNBOUND:                -2.299
REMARK SMILES CCCCCCCCCCCCCCCCCCCCCC(=O)[O-]
REMARK SMILES IDX 12 1 11 2 10 3 9 4 8 5 7 6 6 7 5 8 4 9 3 10 2 11 1 12 13 13
REMARK SMILES IDX 14 14 15 15 16 16 17 17 18 18 19 19 20 20 21 21 22 22 23 23
REMARK SMILES IDX 24 24
REMARK H PARENT
REMARK Flexibility Score: inf
ROOT
ATOM      1  C   UNL     1      10.088   4.374   8.872  1.00  0.00     0.000 C 
ENDROOT
BRANCH   1   2
ATOM      2  C   UNL     1       9.005   3.403   9.369  1.00  0.00     0.000 C 
BRANCH   2   3
ATOM      3  C   UNL     1       9.248   1.958   8.896  1.00  0.00     0.000 C 
BRANCH   3   4
ATOM      4  C   UNL     1       9.794   1.057  10.014  1.00  0.00    -0.000 C 
BRANCH   4   5
ATOM      5  C   UNL     1      11.028   0.249   9.576  1.00  0.00    -0.000 C 
BRANCH   5   6
ATOM      6  C   UNL     1      12.279   0.575  10.411  1.00  0.00    -0.000 C 
BRANCH   6   7
ATOM      7  C   UNL     1      12.603   2.077  10.534  1.00  0.00    -0.000 C 
BRANCH   7   8
ATOM      8  C   UNL     1      12.849   2.581  11.970  1.00  0.00    -0.000 C 
BRANCH   8   9
ATOM      9  C   UNL     1      12.084   1.817  13.066  1.00  0.00    -0.000 C 
BRANCH   9  10
ATOM     10  C   UNL     1      11.891   2.644  14.345  1.00  0.00    -0.000 C 
BRANCH  10  11
ATOM     11  C   UNL     1      12.567   1.968  15.543  1.00  0.00    -0.003 C 
ATOM     12  C   UNL     1      14.087   2.075  15.452  1.00  0.00     0.004 C 
ENDBRANCH  10  11
ENDBRANCH   9  10
ENDBRANCH   8   9
ENDBRANCH   7   8
ENDBRANCH   6   7
ENDBRANCH   5   6
ENDBRANCH   4   5
ENDBRANCH   3   4
ENDBRANCH   2   3
ENDBRANCH   1   2
BRANCH   1  13
ATOM     13  C   UNL     1      10.800   5.101  10.026  1.00  0.00     0.000 C 
BRANCH  13  14
ATOM     14  C   UNL     1      10.037   4.987  11.355  1.00  0.00     0.000 C 
BRANCH  14  15
ATOM     15  C   UNL     1      10.394   6.111  12.344  1.00  0.00     0.000 C 
BRANCH  15  16
ATOM     16  C   UNL     1      11.658   6.879  11.930  1.00  0.00     0.000 C 
BRANCH  16  17
ATOM     17  C   UNL     1      11.376   8.360  11.624  1.00  0.00     0.000 C 
BRANCH  17  18
ATOM     18  C   UNL     1      12.072   8.846  10.340  1.00  0.00     0.000 C 
BRANCH  18  19
ATOM     19  C   UNL     1      12.360  10.361  10.291  1.00  0.00     0.000 C 
BRANCH  19  20
ATOM     20  C   UNL     1      11.833  11.168  11.494  1.00  0.00     0.006 C 
BRANCH  20  21
ATOM     21  C   UNL     1      12.378  12.602  11.583  1.00  0.00     0.053 C 
BRANCH  21  22
ATOM     22  C   UNL     1      11.736  13.507  10.577  1.00  0.00     0.041 C 
ATOM     23  O   UNL     1      12.294  13.721   9.467  1.00  0.00    -0.550 OA
ATOM     24  O   UNL     1      10.533  14.134  10.874  1.00  0.00    -0.550 OA
ENDBRANCH  21  22
ENDBRANCH  20  21
ENDBRANCH  19  20
ENDBRANCH  18  19
ENDBRANCH  17  18
ENDBRANCH  16  17
ENDBRANCH  15  16
ENDBRANCH  14  15
ENDBRANCH  13  14
ENDBRANCH   1  13
TORSDOF 20
ENDMDL
MODEL 2
REMARK VINA RESULT:    -4.834      1.255      2.917
REMARK INTER + INTRA:         -12.785
REMARK INTER:                 -10.521
REMARK INTRA:                  -2.264
REMARK UNBOUND:                -2.299
REMARK SMILES CCCCCCCCCCCCCCCCCCCCCC(=O)[O-]
REMARK SMILES IDX 12 1 11 2 10 3 9 4 8 5 7 6 6 7 5 8 4 9 3 10 2 11 1 12 13 13
REMARK SMILES IDX 14 14 15 15 16 16 17 17 18 18 19 19 20 20 21 21 22 22 23 23
REMARK SMILES IDX 24 24
REMARK H PARENT
REMARK Flexibility Score: inf
ROOT
ATOM      1  C   UNL     1      11.968   3.060   9.466  1.00  0.00     0.000 C 
ENDROOT
BRANCH   1   2
ATOM      2  C   UNL     1      11.779   1.535   9.497  1.00  0.00     0.000 C 
BRANCH   2   3
ATOM      3  C   UNL     1      11.902   0.954  10.917  1.00  0.00     0.000 C 
BRANCH   3   4
ATOM      4  C   UNL     1      12.774   1.825  11.835  1.00  0.00    -0.000 C 
BRANCH   4   5
ATOM      5  C   UNL     1      13.215   1.086  13.111  1.00  0.00    -0.000 C 
BRANCH   5   6
ATOM      6  C   UNL     1      13.682   2.044  14.221  1.00  0.00    -0.000 C 
BRANCH   6   7
ATOM      7  C   UNL     1      12.791   2.060  15.479  1.00  0.00    -0.000 C 
BRANCH   7   8
ATOM      8  C   UNL     1      11.392   1.437  15.301  1.00  0.00    -0.000 C 
BRANCH   8   9
ATOM      9  C   UNL     1      10.248   2.450  15.117  1.00  0.00    -0.000 C 
BRANCH   9  10
ATOM     10  C   UNL     1      10.609   3.587  14.150  1.00  0.00    -0.000 C 
BRANCH  10  11
ATOM     11  C   UNL     1      10.529   4.948  14.849  1.00  0.00    -0.003 C 
ATOM     12  C   UNL     1       9.401   5.799  14.273  1.00  0.00     0.004 C 
ENDBRANCH  10  11
ENDBRANCH   9  10
ENDBRANCH   8   9
ENDBRANCH   7   8
ENDBRANCH   6   7
ENDBRANCH   5   6
ENDBRANCH   4   5
ENDBRANCH   3   4
ENDBRANCH   2   3
ENDBRANCH   1   2
BRANCH   1  13
ATOM     13  C   UNL     1      10.634   3.817   9.358  1.00  0.00     0.000 C 
BRANCH  13  14
ATOM     14  C   UNL     1      10.401   4.776  10.537  1.00  0.00     0.000 C 
BRANCH  14  15
ATOM     15  C   UNL     1      11.710   5.369  11.088  1.00  0.00     0.000 C 
BRANCH  15  16
ATOM     16  C   UNL     1      11.900   6.842  10.695  1.00  0.00     0.000 C 
BRANCH  16  17
ATOM     17  C   UNL     1      11.355   7.811  11.758  1.00  0.00     0.000 C 
BRANCH  17  18
ATOM     18  C   UNL     1      11.385   9.280  11.298  1.00  0.00     0.000 C 
BRANCH  18  19
ATOM     19  C   UNL     1      12.369   9.581  10.148  1.00  0.00     0.000 C 
BRANCH  19  20
ATOM     20  C   UNL     1      12.506  11.071   9.777  1.00  0.00     0.006 C 
BRANCH  20  21
ATOM     21  C   UNL     1      12.213  12.042  10.931  1.00  0.00     0.053 C 
BRANCH  21  22
ATOM     22  C   UNL     1      11.800  13.393  10.433  1.00  0.00     0.041 C 
ATOM     23  O   UNL     1      10.733  13.922  10.843  1.00  0.00    -0.550 OA
ATOM     24  O   UNL     1      12.582  14.057   9.496  1.00  0.00    -0.550 OA
ENDBRANCH  21  22
ENDBRANCH  20  21
ENDBRANCH  19  20
ENDBRANCH  18  19
ENDBRANCH  17  18
ENDBRANCH  16  17
ENDBRANCH  15  16
ENDBRANCH  14  15
ENDBRANCH  13  14
ENDBRANCH   1  13
TORSDOF 20
ENDMDL
MODEL 3
REMARK VINA RESULT:    -4.820      1.756      4.281
REMARK INTER + INTRA:         -12.754
REMARK INTER:                 -10.234
REMARK INTRA:                  -2.519
REMARK UNBOUND:                -2.299
REMARK SMILES CCCCCCCCCCCCCCCCCCCCCC(=O)[O-]
REMARK SMILES IDX 12 1 11 2 10 3 9 4 8 5 7 6 6 7 5 8 4 9 3 10 2 11 1 12 13 13
REMARK SMILES IDX 14 14 15 15 16 16 17 17 18 18 19 19 20 20 21 21 22 22 23 23
REMARK SMILES IDX 24 24
REMARK H PARENT
REMARK Flexibility Score: inf
ROOT
ATOM      1  C   UNL     1      13.223   3.022  11.558  1.00  0.00     0.000 C 
ENDROOT
BRANCH   1   2
ATOM      2  C   UNL     1      13.300   2.418  12.970  1.00  0.00     0.000 C 
BRANCH   2   3
ATOM      3  C   UNL     1      12.701   1.002  13.039  1.00  0.00     0.000 C 
BRANCH   3   4
ATOM      4  C   UNL     1      13.261   0.182  14.211  1.00  0.00    -0.000 C 
BRANCH   4   5
ATOM      5  C   UNL     1      12.755   0.677  15.577  1.00  0.00    -0.000 C 
BRANCH   5   6
ATOM      6  C   UNL     1      11.318   0.219  15.880  1.00  0.00    -0.000 C 
BRANCH   6   7
ATOM      7  C   UNL     1      10.240   1.307  15.704  1.00  0.00    -0.000 C 
BRANCH   7   8
ATOM      8  C   UNL     1      10.636   2.711  16.204  1.00  0.00    -0.000 C 
BRANCH   8   9
ATOM      9  C   UNL     1      10.938   3.734  15.095  1.00  0.00    -0.000 C 
BRANCH   9  10
ATOM     10  C   UNL     1       9.702   4.084  14.254  1.00  0.00    -0.000 C 
BRANCH  10  11
ATOM     11  C   UNL     1       9.220   5.508  14.555  1.00  0.00    -0.003 C 
ATOM     12  C   UNL     1      10.305   6.321  15.255  1.00  0.00     0.004 C 
ENDBRANCH  10  11
ENDBRANCH   9  10
ENDBRANCH   8   9
ENDBRANCH   7   8
ENDBRANCH   6   7
ENDBRANCH   5   6
ENDBRANCH   4   5
ENDBRANCH   3   4
ENDBRANCH   2   3
ENDBRANCH   1   2
BRANCH   1  13
ATOM     13  C   UNL     1      12.575   2.064  10.544  1.00  0.00     0.000 C 
BRANCH  13  14
ATOM     14  C   UNL     1      11.904   2.806   9.376  1.00  0.00     0.000 C 
BRANCH  14  15
ATOM     15  C   UNL     1      10.402   3.047   9.610  1.00  0.00     0.000 C 
BRANCH  15  16
ATOM     16  C   UNL     1      10.043   4.540   9.635  1.00  0.00     0.000 C 
BRANCH  16  17
ATOM     17  C   UNL     1      10.467   5.228  10.943  1.00  0.00     0.000 C 
BRANCH  17  18
ATOM     18  C   UNL     1      11.484   6.361  10.719  1.00  0.00     0.000 C 
BRANCH  18  19
ATOM     19  C   UNL     1      11.651   7.331  11.906  1.00  0.00     0.000 C 
BRANCH  19  20
ATOM     20  C   UNL     1      11.367   8.813  11.587  1.00  0.00     0.006 C 
BRANCH  20  21
ATOM     21  C   UNL     1      11.974   9.303  10.263  1.00  0.00     0.053 C 
BRANCH  21  22
ATOM     22  C   UNL     1      12.448  10.721  10.358  1.00  0.00     0.041 C 
ATOM     23  O   UNL     1      13.056  11.254   9.391  1.00  0.00    -0.550 OA
ATOM     24  O   UNL     1      12.242  11.446  11.525  1.00  0.00    -0.550 OA
ENDBRANCH  21  22
ENDBRANCH  20  21
ENDBRANCH  19  20
ENDBRANCH  18  19
ENDBRANCH  17  18
ENDBRANCH  16  17
ENDBRANCH  15  16
ENDBRANCH  14  15
ENDBRANCH  13  14
ENDBRANCH   1  13
TORSDOF 20
ENDMDL
MODEL 4
REMARK VINA RESULT:    -4.775      4.478      7.199
REMARK INTER + INTRA:         -12.657
REMARK INTER:                  -9.600
REMARK INTRA:                  -3.057
REMARK UNBOUND:                -2.299
REMARK SMILES CCCCCCCCCCCCCCCCCCCCCC(=O)[O-]
REMARK SMILES IDX 12 1 11 2 10 3 9 4 8 5 7 6 6 7 5 8 4 9 3 10 2 11 1 12 13 13
REMARK SMILES IDX 14 14 15 15 16 16 17 17 18 18 19 19 20 20 21 21 22 22 23 23
REMARK SMILES IDX 24 24
REMARK H PARENT
REMARK Flexibility Score: inf
ROOT
ATOM      1  C   UNL     1      12.786   5.292  10.214  1.00  0.00     0.000 C 
ENDROOT
BRANCH   1   2
ATOM      2  C   UNL     1      12.908   4.421  11.476  1.00  0.00     0.000 C 
BRANCH   2   3
ATOM      3  C   UNL     1      12.053   3.143  11.394  1.00  0.00     0.000 C 
BRANCH   3   4
ATOM      4  C   UNL     1      12.894   1.864  11.519  1.00  0.00    -0.000 C 
BRANCH   4   5
ATOM      5  C   UNL     1      12.396   0.733  10.601  1.00  0.00    -0.000 C 
BRANCH   5   6
ATOM      6  C   UNL     1      11.675   1.260   9.348  1.00  0.00    -0.000 C 
BRANCH   6   7
ATOM      7  C   UNL     1      10.804   0.218   8.617  1.00  0.00    -0.000 C 
BRANCH   7   8
ATOM      8  C   UNL     1       9.297   0.540   8.567  1.00  0.00    -0.000 C 
BRANCH   8   9
ATOM      9  C   UNL     1       8.763   1.332   9.774  1.00  0.00    -0.000 C 
BRANCH   9  10
ATOM     10  C   UNL     1       8.004   2.602   9.365  1.00  0.00    -0.000 C 
BRANCH  10  11
ATOM     11  C   UNL     1       8.805   3.859   9.723  1.00  0.00    -0.003 C 
ATOM     12  C   UNL     1       9.659   4.323   8.546  1.00  0.00     0.004 C 
ENDBRANCH  10  11
ENDBRANCH   9  10
ENDBRANCH   8   9
ENDBRANCH   7   8
ENDBRANCH   6   7
ENDBRANCH   5   6
ENDBRANCH   4   5
ENDBRANCH   3   4
ENDBRANCH   2   3
ENDBRANCH   1   2
BRANCH   1  13
ATOM     13  C   UNL     1      12.074   6.627  10.488  1.00  0.00     0.000 C 
BRANCH  13  14
ATOM     14  C   UNL     1      10.852   6.468  11.408  1.00  0.00     0.000 C 
BRANCH  14  15
ATOM     15  C   UNL     1      10.863   7.457  12.587  1.00  0.00     0.000 C 
BRANCH  15  16
ATOM     16  C   UNL     1      10.377   6.817  13.896  1.00  0.00     0.000 C 
BRANCH  16  17
ATOM     17  C   UNL     1      10.052   5.322  13.738  1.00  0.00     0.000 C 
BRANCH  17  18
ATOM     18  C   UNL     1      10.438   4.494  14.977  1.00  0.00     0.000 C 
BRANCH  18  19
ATOM     19  C   UNL     1      11.056   3.114  14.670  1.00  0.00     0.000 C 
BRANCH  19  20
ATOM     20  C   UNL     1      10.812   2.034  15.742  1.00  0.00     0.006 C 
BRANCH  20  21
ATOM     21  C   UNL     1      12.078   1.573  16.479  1.00  0.00     0.053 C 
BRANCH  21  22
ATOM     22  C   UNL     1      13.229   1.373  15.541  1.00  0.00     0.041 C 
ATOM     23  O   UNL     1      14.198   2.179  15.543  1.00  0.00    -0.550 OA
ATOM     24  O   UNL     1      13.220   0.311  14.647  1.00  0.00    -0.550 OA
ENDBRANCH  21  22
ENDBRANCH  20  21
ENDBRANCH  19  20
ENDBRANCH  18  19
ENDBRANCH  17  18
ENDBRANCH  16  17
ENDBRANCH  15  16
ENDBRANCH  14  15
ENDBRANCH  13  14
ENDBRANCH   1  13
TORSDOF 20
ENDMDL
MODEL 5
REMARK VINA RESULT:    -4.752      2.528      3.980
REMARK INTER + INTRA:         -12.608
REMARK INTER:                  -9.952
REMARK INTRA:                  -2.656
REMARK UNBOUND:                -2.299
REMARK SMILES CCCCCCCCCCCCCCCCCCCCCC(=O)[O-]
REMARK SMILES IDX 12 1 11 2 10 3 9 4 8 5 7 6 6 7 5 8 4 9 3 10 2 11 1 12 13 13
REMARK SMILES IDX 14 14 15 15 16 16 17 17 18 18 19 19 20 20 21 21 22 22 23 23
REMARK SMILES IDX 24 24
REMARK H PARENT
REMARK Flexibility Score: inf
ROOT
ATOM      1  C   UNL     1      12.041   6.584  10.548  1.00  0.00     0.000 C 
ENDROOT
BRANCH   1   2
ATOM      2  C   UNL     1      11.233   5.389  10.016  1.00  0.00     0.000 C 
BRANCH   2   3
ATOM      3  C   UNL     1       9.998   5.081  10.883  1.00  0.00     0.000 C 
BRANCH   3   4
ATOM      4  C   UNL     1       9.021   4.117  10.193  1.00  0.00    -0.000 C 
BRANCH   4   5
ATOM      5  C   UNL     1       9.457   2.646  10.310  1.00  0.00    -0.000 C 
BRANCH   5   6
ATOM      6  C   UNL     1      10.191   2.142   9.055  1.00  0.00    -0.000 C 
BRANCH   6   7
ATOM      7  C   UNL     1      11.633   1.654   9.300  1.00  0.00    -0.000 C 
BRANCH   7   8
ATOM      8  C   UNL     1      12.017   1.460  10.781  1.00  0.00    -0.000 C 
BRANCH   8   9
ATOM      9  C   UNL     1      13.225   2.290  11.252  1.00  0.00    -0.000 C 
BRANCH   9  10
ATOM     10  C   UNL     1      12.875   3.256  12.393  1.00  0.00    -0.000 C 
BRANCH  10  11
ATOM     11  C   UNL     1      11.932   2.592  13.403  1.00  0.00    -0.003 C 
ATOM     12  C   UNL     1      10.991   3.615  14.034  1.00  0.00     0.004 C 
ENDBRANCH  10  11
ENDBRANCH   9  10
ENDBRANCH   8   9
ENDBRANCH   7   8
ENDBRANCH   6   7
ENDBRANCH   5   6
ENDBRANCH   4   5
ENDBRANCH   3   4
ENDBRANCH   2   3
ENDBRANCH   1   2
BRANCH   1  13
ATOM     13  C   UNL     1      11.308   7.337  11.672  1.00  0.00     0.000 C 
BRANCH  13  14
ATOM     14  C   UNL     1      11.439   8.863  11.543  1.00  0.00     0.000 C 
BRANCH  14  15
ATOM     15  C   UNL     1      12.028   9.297  10.188  1.00  0.00     0.000 C 
BRANCH  15  16
ATOM     16  C   UNL     1      12.394  10.788  10.156  1.00  0.00     0.000 C 
BRANCH  16  17
ATOM     17  C   UNL     1      12.371  11.432  11.553  1.00  0.00     0.000 C 
BRANCH  17  18
ATOM     18  C   UNL     1      11.323  12.553  11.674  1.00  0.00     0.000 C 
BRANCH  18  19
ATOM     19  C   UNL     1      10.856  12.854  13.113  1.00  0.00     0.000 C 
BRANCH  19  20
ATOM     20  C   UNL     1       9.533  12.178  13.527  1.00  0.00     0.006 C 
BRANCH  20  21
ATOM     21  C   UNL     1       9.705  10.805  14.195  1.00  0.00     0.053 C 
BRANCH  21  22
ATOM     22  C   UNL     1       9.323  10.837  15.644  1.00  0.00     0.041 C 
ATOM     23  O   UNL     1       8.110  10.805  15.982  1.00  0.00    -0.550 OA
ATOM     24  O   UNL     1      10.308  10.929  16.620  1.00  0.00    -0.550 OA
ENDBRANCH  21  22
ENDBRANCH  20  21
ENDBRANCH  19  20
ENDBRANCH  18  19
ENDBRANCH  17  18
ENDBRANCH  16  17
ENDBRANCH  15  16
ENDBRANCH  14  15
ENDBRANCH  13  14
ENDBRANCH   1  13
TORSDOF 20
ENDMDL
MODEL 6
REMARK VINA RESULT:    -4.745      4.628      6.809
REMARK INTER + INTRA:         -12.592
REMARK INTER:                  -8.581
REMARK INTRA:                  -4.010
REMARK UNBOUND:                -2.299
REMARK SMILES CCCCCCCCCCCCCCCCCCCCCC(=O)[O-]
REMARK SMILES IDX 12 1 11 2 10 3 9 4 8 5 7 6 6 7 5 8 4 9 3 10 2 11 1 12 13 13
REMARK SMILES IDX 14 14 15 15 16 16 17 17 18 18 19 19 20 20 21 21 22 22 23 23
REMARK SMILES IDX 24 24
REMARK H PARENT
REMARK Flexibility Score: inf
ROOT
ATOM      1  C   UNL     1      13.083   2.544  11.283  1.00  0.00     0.000 C 
ENDROOT
BRANCH   1   2
ATOM      2  C   UNL     1      12.378   1.299  10.719  1.00  0.00     0.000 C 
BRANCH   2   3
ATOM      3  C   UNL     1      11.820   1.530   9.303  1.00  0.00     0.000 C 
BRANCH   3   4
ATOM      4  C   UNL     1      11.058   0.309   8.765  1.00  0.00    -0.000 C 
BRANCH   4   5
ATOM      5  C   UNL     1      10.101  -0.299   9.805  1.00  0.00    -0.000 C 
BRANCH   5   6
ATOM      6  C   UNL     1       8.646   0.162   9.616  1.00  0.00    -0.000 C 
BRANCH   6   7
ATOM      7  C   UNL     1       8.081   1.014  10.770  1.00  0.00    -0.000 C 
BRANCH   7   8
ATOM      8  C   UNL     1       8.812   2.349  11.020  1.00  0.00    -0.000 C 
BRANCH   8   9
ATOM      9  C   UNL     1       8.248   3.553  10.245  1.00  0.00    -0.000 C 
BRANCH   9  10
ATOM     10  C   UNL     1       9.127   3.958   9.052  1.00  0.00    -0.000 C 
BRANCH  10  11
ATOM     11  C   UNL     1       8.297   4.044   7.766  1.00  0.00    -0.003 C 
ATOM     12  C   UNL     1       8.184   2.680   7.089  1.00  0.00     0.004 C 
ENDBRANCH  10  11
ENDBRANCH   9  10
ENDBRANCH   8   9
ENDBRANCH   7   8
ENDBRANCH   6   7
ENDBRANCH   5   6
ENDBRANCH   4   5
ENDBRANCH   3   4
ENDBRANCH   2   3
ENDBRANCH   1   2
BRANCH   1  13
ATOM     13  C   UNL     1      12.174   3.784  11.286  1.00  0.00     0.000 C 
BRANCH  13  14
ATOM     14  C   UNL     1      12.930   5.070  10.913  1.00  0.00     0.000 C 
BRANCH  14  15
ATOM     15  C   UNL     1      11.986   6.255  10.637  1.00  0.00     0.000 C 
BRANCH  15  16
ATOM     16  C   UNL     1      10.697   6.187  11.469  1.00  0.00     0.000 C 
BRANCH  16  17
ATOM     17  C   UNL     1      10.813   6.951  12.799  1.00  0.00     0.000 C 
BRANCH  17  18
ATOM     18  C   UNL     1      10.234   6.165  13.990  1.00  0.00     0.000 C 
BRANCH  18  19
ATOM     19  C   UNL     1       9.370   4.946  13.607  1.00  0.00     0.000 C 
BRANCH  19  20
ATOM     20  C   UNL     1       9.782   3.617  14.270  1.00  0.00     0.006 C 
BRANCH  20  21
ATOM     21  C   UNL     1      11.233   3.582  14.774  1.00  0.00     0.053 C 
BRANCH  21  22
ATOM     22  C   UNL     1      11.768   2.184  14.837  1.00  0.00     0.041 C 
ATOM     23  O   UNL     1      12.762   1.916  15.564  1.00  0.00    -0.550 OA
ATOM     24  O   UNL     1      11.184   1.181  14.073  1.00  0.00    -0.550 OA
ENDBRANCH  21  22
ENDBRANCH  20  21
ENDBRANCH  19  20
ENDBRANCH  18  19
ENDBRANCH  17  18
ENDBRANCH  16  17
ENDBRANCH  15  16
ENDBRANCH  14  15
ENDBRANCH  13  14
ENDBRANCH   1  13
TORSDOF 20
ENDMDL
MODEL 7
REMARK VINA RESULT:    -4.744      4.765      7.636
REMARK INTER + INTRA:         -12.589
REMARK INTER:                  -8.682
REMARK INTRA:                  -3.907
REMARK UNBOUND:                -2.299
REMARK SMILES CCCCCCCCCCCCCCCCCCCCCC(=O)[O-]
REMARK SMILES IDX 12 1 11 2 10 3 9 4 8 5 7 6 6 7 5 8 4 9 3 10 2 11 1 12 13 13
REMARK SMILES IDX 14 14 15 15 16 16 17 17 18 18 19 19 20 20 21 21 22 22 23 23
REMARK SMILES IDX 24 24
REMARK H PARENT
REMARK Flexibility Score: inf
ROOT
ATOM      1  C   UNL     1       8.754   3.738   9.984  1.00  0.00     0.000 C 
ENDROOT
BRANCH   1   2
ATOM      2  C   UNL     1       9.704   3.411   8.820  1.00  0.00     0.000 C 
BRANCH   2   3
ATOM      3  C   UNL     1      10.087   1.921   8.773  1.00  0.00     0.000 C 
BRANCH   3   4
ATOM      4  C   UNL     1      11.567   1.683   9.111  1.00  0.00    -0.000 C 
BRANCH   4   5
ATOM      5  C   UNL     1      11.767   1.106  10.524  1.00  0.00    -0.000 C 
BRANCH   5   6
ATOM      6  C   UNL     1      12.045   2.194  11.576  1.00  0.00    -0.000 C 
BRANCH   6   7
ATOM      7  C   UNL     1      13.422   2.877  11.454  1.00  0.00    -0.000 C 
BRANCH   7   8
ATOM      8  C   UNL     1      13.383   4.409  11.289  1.00  0.00    -0.000 C 
BRANCH   8   9
ATOM      9  C   UNL     1      11.974   5.028  11.305  1.00  0.00    -0.000 C 
BRANCH   9  10
ATOM     10  C   UNL     1      11.903   6.369  10.561  1.00  0.00    -0.000 C 
BRANCH  10  11
ATOM     11  C   UNL     1      11.329   7.467  11.464  1.00  0.00    -0.003 C 
ATOM     12  C   UNL     1      10.784   6.883  12.765  1.00  0.00     0.004 C 
ENDBRANCH  10  11
ENDBRANCH   9  10
ENDBRANCH   8   9
ENDBRANCH   7   8
ENDBRANCH   6   7
ENDBRANCH   5   6
ENDBRANCH   4   5
ENDBRANCH   3   4
ENDBRANCH   2   3
ENDBRANCH   1   2
BRANCH   1  13
ATOM     13  C   UNL     1       8.235   2.475  10.692  1.00  0.00     0.000 C 
BRANCH  13  14
ATOM     14  C   UNL     1       7.966   2.705  12.188  1.00  0.00     0.000 C 
BRANCH  14  15
ATOM     15  C   UNL     1       9.015   3.618  12.847  1.00  0.00     0.000 C 
BRANCH  15  16
ATOM     16  C   UNL     1       9.444   3.117  14.234  1.00  0.00     0.000 C 
BRANCH  16  17
ATOM     17  C   UNL     1      10.850   3.601  14.628  1.00  0.00     0.000 C 
BRANCH  17  18
ATOM     18  C   UNL     1      11.553   2.652  15.615  1.00  0.00     0.000 C 
BRANCH  18  19
ATOM     19  C   UNL     1      12.948   2.168  15.171  1.00  0.00     0.000 C 
BRANCH  19  20
ATOM     20  C   UNL     1      13.184   0.649  15.292  1.00  0.00     0.006 C 
BRANCH  20  21
ATOM     21  C   UNL     1      13.100  -0.114  13.961  1.00  0.00     0.053 C 
BRANCH  21  22
ATOM     22  C   UNL     1      11.783  -0.810  13.799  1.00  0.00     0.041 C 
ATOM     23  O   UNL     1      10.708  -0.153  13.835  1.00  0.00    -0.550 OA
ATOM     24  O   UNL     1      11.741  -2.189  13.634  1.00  0.00    -0.550 OA
ENDBRANCH  21  22
ENDBRANCH  20  21
ENDBRANCH  19  20
ENDBRANCH  18  19
ENDBRANCH  17  18
ENDBRANCH  16  17
ENDBRANCH  15  16
ENDBRANCH  14  15
ENDBRANCH  13  14
ENDBRANCH   1  13
TORSDOF 20
ENDMDL
MODEL 8
REMARK VINA RESULT:    -4.720      3.451      6.140
REMARK INTER + INTRA:         -12.538
REMARK INTER:                  -8.612
REMARK INTRA:                  -3.926
REMARK UNBOUND:                -2.299
REMARK SMILES CCCCCCCCCCCCCCCCCCCCCC(=O)[O-]
REMARK SMILES IDX 12 1 11 2 10 3 9 4 8 5 7 6 6 7 5 8 4 9 3 10 2 11 1 12 13 13
REMARK SMILES IDX 14 14 15 15 16 16 17 17 18 18 19 19 20 20 21 21 22 22 23 23
REMARK SMILES IDX 24 24
REMARK H PARENT
REMARK Flexibility Score: inf
ROOT
ATOM      1  C   UNL     1      12.914   2.120  11.570  1.00  0.00     0.000 C 
ENDROOT
BRANCH   1   2
ATOM      2  C   UNL     1      13.082   2.689  12.989  1.00  0.00     0.000 C 
BRANCH   2   3
ATOM      3  C   UNL     1      13.511   1.617  14.007  1.00  0.00     0.000 C 
BRANCH   3   4
ATOM      4  C   UNL     1      13.434   2.118  15.457  1.00  0.00    -0.000 C 
BRANCH   4   5
ATOM      5  C   UNL     1      12.294   1.457  16.253  1.00  0.00    -0.000 C 
BRANCH   5   6
ATOM      6  C   UNL     1      11.579   0.350  15.460  1.00  0.00    -0.000 C 
BRANCH   6   7
ATOM      7  C   UNL     1      10.090   0.622  15.167  1.00  0.00    -0.000 C 
BRANCH   7   8
ATOM      8  C   UNL     1       9.765   2.051  14.689  1.00  0.00    -0.000 C 
BRANCH   8   9
ATOM      9  C   UNL     1       8.907   2.882  15.661  1.00  0.00    -0.000 C 
BRANCH   9  10
ATOM     10  C   UNL     1       9.554   4.225  16.027  1.00  0.00    -0.000 C 
BRANCH  10  11
ATOM     11  C   UNL     1      10.539   4.673  14.941  1.00  0.00    -0.003 C 
ATOM     12  C   UNL     1      10.240   6.098  14.479  1.00  0.00     0.004 C 
ENDBRANCH  10  11
ENDBRANCH   9  10
ENDBRANCH   8   9
ENDBRANCH   7   8
ENDBRANCH   6   7
ENDBRANCH   5   6
ENDBRANCH   4   5
ENDBRANCH   3   4
ENDBRANCH   2   3
ENDBRANCH   1   2
BRANCH   1  13
ATOM     13  C   UNL     1      12.393   0.673  11.575  1.00  0.00     0.000 C 
BRANCH  13  14
ATOM     14  C   UNL     1      11.865   0.232  10.200  1.00  0.00     0.000 C 
BRANCH  14  15
ATOM     15  C   UNL     1      11.584   1.420   9.262  1.00  0.00     0.000 C 
BRANCH  15  16
ATOM     16  C   UNL     1      10.089   1.583   8.949  1.00  0.00     0.000 C 
BRANCH  16  17
ATOM     17  C   UNL     1       9.204   1.415  10.195  1.00  0.00     0.000 C 
BRANCH  17  18
ATOM     18  C   UNL     1       8.597   2.745  10.678  1.00  0.00     0.000 C 
BRANCH  18  19
ATOM     19  C   UNL     1       9.549   3.631  11.508  1.00  0.00     0.000 C 
BRANCH  19  20
ATOM     20  C   UNL     1       9.837   5.023  10.911  1.00  0.00     0.006 C 
BRANCH  20  21
ATOM     21  C   UNL     1      10.967   5.046   9.871  1.00  0.00     0.053 C 
BRANCH  21  22
ATOM     22  C   UNL     1      12.097   5.934  10.293  1.00  0.00     0.041 C 
ATOM     23  O   UNL     1      11.966   7.187  10.264  1.00  0.00    -0.550 OA
ATOM     24  O   UNL     1      13.305   5.378  10.696  1.00  0.00    -0.550 OA
ENDBRANCH  21  22
ENDBRANCH  20  21
ENDBRANCH  19  20
ENDBRANCH  18  19
ENDBRANCH  17  18
ENDBRANCH  16  17
ENDBRANCH  15  16
ENDBRANCH  14  15
ENDBRANCH  13  14
ENDBRANCH   1  13
TORSDOF 20
ENDMDL
MODEL 9
REMARK VINA RESULT:    -4.707      4.844      7.183
REMARK INTER + INTRA:         -12.510
REMARK INTER:                  -8.779
REMARK INTRA:                  -3.731
REMARK UNBOUND:                -2.299
REMARK SMILES CCCCCCCCCCCCCCCCCCCCCC(=O)[O-]
REMARK SMILES IDX 12 1 11 2 10 3 9 4 8 5 7 6 6 7 5 8 4 9 3 10 2 11 1 12 13 13
REMARK SMILES IDX 14 14 15 15 16 16 17 17 18 18 19 19 20 20 21 21 22 22 23 23
REMARK SMILES IDX 24 24
REMARK H PARENT
REMARK Flexibility Score: inf
ROOT
ATOM      1  C   UNL     1      10.206   6.409  13.757  1.00  0.00     0.000 C 
ENDROOT
BRANCH   1   2
ATOM      2  C   UNL     1      10.977   7.041  12.586  1.00  0.00     0.000 C 
BRANCH   2   3
ATOM      3  C   UNL     1      10.922   6.178  11.312  1.00  0.00     0.000 C 
BRANCH   3   4
ATOM      4  C   UNL     1      12.285   5.561  10.960  1.00  0.00    -0.000 C 
BRANCH   4   5
ATOM      5  C   UNL     1      12.159   4.317  10.065  1.00  0.00    -0.000 C 
BRANCH   5   6
ATOM      6  C   UNL     1      12.770   3.058  10.706  1.00  0.00    -0.000 C 
BRANCH   6   7
ATOM      7  C   UNL     1      13.301   3.255  12.140  1.00  0.00    -0.000 C 
BRANCH   7   8
ATOM      8  C   UNL     1      12.862   2.182  13.157  1.00  0.00    -0.000 C 
BRANCH   8   9
ATOM      9  C   UNL     1      13.642   2.188  14.484  1.00  0.00    -0.000 C 
BRANCH   9  10
ATOM     10  C   UNL     1      13.054   1.224  15.524  1.00  0.00    -0.000 C 
BRANCH  10  11
ATOM     11  C   UNL     1      11.796   1.815  16.171  1.00  0.00    -0.003 C 
ATOM     12  C   UNL     1      10.587   0.909  15.954  1.00  0.00     0.004 C 
ENDBRANCH  10  11
ENDBRANCH   9  10
ENDBRANCH   8   9
ENDBRANCH   7   8
ENDBRANCH   6   7
ENDBRANCH   5   6
ENDBRANCH   4   5
ENDBRANCH   3   4
ENDBRANCH   2   3
ENDBRANCH   1   2
BRANCH   1  13
ATOM     13  C   UNL     1      10.414   4.888  13.846  1.00  0.00     0.000 C 
BRANCH  13  14
ATOM     14  C   UNL     1       9.204   4.161  14.457  1.00  0.00     0.000 C 
BRANCH  14  15
ATOM     15  C   UNL     1       8.681   3.023  13.563  1.00  0.00     0.000 C 
BRANCH  15  16
ATOM     16  C   UNL     1       9.293   3.052  12.155  1.00  0.00     0.000 C 
BRANCH  16  17
ATOM     17  C   UNL     1       8.254   2.778  11.054  1.00  0.00     0.000 C 
BRANCH  17  18
ATOM     18  C   UNL     1       8.493   3.619   9.787  1.00  0.00     0.000 C 
BRANCH  18  19
ATOM     19  C   UNL     1       9.398   2.956   8.728  1.00  0.00     0.000 C 
BRANCH  19  20
ATOM     20  C   UNL     1       9.315   1.418   8.664  1.00  0.00     0.006 C 
BRANCH  20  21
ATOM     21  C   UNL     1      10.671   0.704   8.772  1.00  0.00     0.053 C 
BRANCH  21  22
ATOM     22  C   UNL     1      10.803  -0.051  10.059  1.00  0.00     0.041 C 
ATOM     23  O   UNL     1       9.777  -0.367  10.718  1.00  0.00    -0.550 OA
ATOM     24  O   UNL     1      12.062  -0.383  10.544  1.00  0.00    -0.550 OA
ENDBRANCH  21  22
ENDBRANCH  20  21
ENDBRANCH  19  20
ENDBRANCH  18  19
ENDBRANCH  17  18
ENDBRANCH  16  17
ENDBRANCH  15  16
ENDBRANCH  14  15
ENDBRANCH  13  14
ENDBRANCH   1  13
TORSDOF 20
ENDMDL
