MODEL 1
REMARK VINA RESULT:    -5.103      0.000      0.000
REMARK INTER + INTRA:          -7.453
REMARK INTER:                  -7.191
REMARK INTRA:                  -0.262
REMARK UNBOUND:                -0.262
REMARK SMILES CCCCCCCCC(=O)[O-]
REMARK SMILES IDX 6 1 7 2 8 3 9 4 10 5 11 6 5 7 4 8 3 9 2 10 1 11
REMARK H PARENT
REMARK Flexibility Score: inf
ROOT
ATOM      1  C   UNL     1      12.905   2.464  16.767  1.00  0.00     0.000 C 
ENDROOT
BRANCH   1   2
ATOM      2  C   UNL     1      13.099   2.176  18.262  1.00  0.00     0.006 C 
BRANCH   2   3
ATOM      3  C   UNL     1      13.297   0.678  18.512  1.00  0.00     0.053 C 
BRANCH   3   4
ATOM      4  C   UNL     1      14.460   0.445  19.423  1.00  0.00     0.041 C 
ATOM      5  O   UNL     1      15.525  -0.057  18.977  1.00  0.00    -0.550 OA
ATOM      6  O   UNL     1      14.385   0.831  20.756  1.00  0.00    -0.550 OA
ENDBRANCH   3   4
ENDBRANCH   2   3
ENDBRANCH   1   2
BRANCH   1   7
ATOM      7  C   UNL     1      13.280   1.267  15.879  1.00  0.00     0.000 C 
BRANCH   7   8
ATOM      8  C   UNL     1      14.657   1.428  15.217  1.00  0.00    -0.000 C 
BRANCH   8   9
ATOM      9  C   UNL     1      14.696   0.718  13.856  1.00  0.00    -0.000 C 
BRANCH   9  10
ATOM     10  C   UNL     1      15.168   1.642  12.722  1.00  0.00    -0.003 C 
ATOM     11  C   UNL     1      15.665   0.873  11.498  1.00  0.00     0.004 C 
ENDBRANCH   9  10
ENDBRANCH   8   9
ENDBRANCH   7   8
ENDBRANCH   1   7
TORSDOF 7
ENDMDL
MODEL 2
REMARK VINA RESULT:    -5.087      2.189      3.360
REMARK INTER + INTRA:          -7.431
REMARK INTER:                  -6.950
REMARK INTRA:                  -0.481
REMARK UNBOUND:                -0.262
REMARK SMILES CCCCCCCCC(=O)[O-]
REMARK SMILES IDX 6 1 7 2 8 3 9 4 10 5 11 6 5 7 4 8 3 9 2 10 1 11
REMARK H PARENT
REMARK Flexibility Score: inf
ROOT
ATOM      1  C   UNL     1      14.350   0.999  13.973  1.00  0.00     0.000 C 
ENDROOT
BRANCH   1   2
ATOM      2  C   UNL     1      14.869   1.198  15.405  1.00  0.00     0.006 C 
BRANCH   2   3
ATOM      3  C   UNL     1      15.994   0.208  15.723  1.00  0.00     0.053 C 
BRANCH   3   4
ATOM      4  C   UNL     1      16.405   0.322  17.157  1.00  0.00     0.041 C 
ATOM      5  O   UNL     1      17.609   0.162  17.486  1.00  0.00    -0.550 OA
ATOM      6  O   UNL     1      15.464   0.655  18.124  1.00  0.00    -0.550 OA
ENDBRANCH   3   4
ENDBRANCH   2   3
ENDBRANCH   1   2
BRANCH   1   7
ATOM      7  C   UNL     1      15.231   1.692  12.922  1.00  0.00     0.000 C 
BRANCH   7   8
ATOM      8  C   UNL     1      15.439   0.835  11.664  1.00  0.00    -0.000 C 
BRANCH   8   9
ATOM      9  C   UNL     1      16.932   0.717  11.323  1.00  0.00    -0.000 C 
BRANCH   9  10
ATOM     10  C   UNL     1      17.433  -0.736  11.359  1.00  0.00    -0.003 C 
ATOM     11  C   UNL     1      17.834  -1.190  12.762  1.00  0.00     0.004 C 
ENDBRANCH   9  10
ENDBRANCH   8   9
ENDBRANCH   7   8
ENDBRANCH   1   7
TORSDOF 7
ENDMDL
MODEL 3
REMARK VINA RESULT:    -5.076      1.848      3.389
REMARK INTER + INTRA:          -7.415
REMARK INTER:                  -7.049
REMARK INTRA:                  -0.366
REMARK UNBOUND:                -0.262
REMARK SMILES CCCCCCCCC(=O)[O-]
REMARK SMILES IDX 6 1 7 2 8 3 9 4 10 5 11 6 5 7 4 8 3 9 2 10 1 11
REMARK H PARENT
REMARK Flexibility Score: inf
ROOT
ATOM      1  C   UNL     1      14.581   0.637  13.911  1.00  0.00     0.000 C 
ENDROOT
BRANCH   1   2
ATOM      2  C   UNL     1      14.676   1.243  15.319  1.00  0.00     0.006 C 
BRANCH   2   3
ATOM      3  C   UNL     1      13.285   1.584  15.863  1.00  0.00     0.053 C 
BRANCH   3   4
ATOM      4  C   UNL     1      13.187   1.233  17.313  1.00  0.00     0.041 C 
ATOM      5  O   UNL     1      13.066   2.140  18.179  1.00  0.00    -0.550 OA
ATOM      6  O   UNL     1      13.178  -0.100  17.706  1.00  0.00    -0.550 OA
ENDBRANCH   3   4
ENDBRANCH   2   3
ENDBRANCH   1   2
BRANCH   1   7
ATOM      7  C   UNL     1      15.111   1.582  12.822  1.00  0.00     0.000 C 
BRANCH   7   8
ATOM      8  C   UNL     1      15.456   0.850  11.517  1.00  0.00    -0.000 C 
BRANCH   8   9
ATOM      9  C   UNL     1      16.977   0.709  11.353  1.00  0.00    -0.000 C 
BRANCH   9  10
ATOM     10  C   UNL     1      17.444  -0.754  11.404  1.00  0.00    -0.003 C 
ATOM     11  C   UNL     1      17.841  -1.201  12.810  1.00  0.00     0.004 C 
ENDBRANCH   9  10
ENDBRANCH   8   9
ENDBRANCH   7   8
ENDBRANCH   1   7
TORSDOF 7
ENDMDL
MODEL 4
REMARK VINA RESULT:    -5.030     16.733     18.576
REMARK INTER + INTRA:          -7.351
REMARK INTER:                  -6.599
REMARK INTRA:                  -0.751
REMARK UNBOUND:                -0.262
REMARK SMILES CCCCCCCCC(=O)[O-]
REMARK SMILES IDX 6 1 7 2 8 3 9 4 10 5 11 6 5 7 4 8 3 9 2 10 1 11
REMARK H PARENT
REMARK Flexibility Score: inf
ROOT
ATOM      1  C   UNL     1      29.380  -4.753   6.171  1.00  0.00     0.000 C 
ENDROOT
BRANCH   1   2
ATOM      2  C   UNL     1      30.346  -4.462   7.328  1.00  0.00     0.006 C 
BRANCH   2   3
ATOM      3  C   UNL     1      31.205  -3.230   7.028  1.00  0.00     0.053 C 
BRANCH   3   4
ATOM      4  C   UNL     1      31.615  -2.552   8.298  1.00  0.00     0.041 C 
ATOM      5  O   UNL     1      31.729  -1.299   8.340  1.00  0.00    -0.550 OA
ATOM      6  O   UNL     1      31.820  -3.302   9.450  1.00  0.00    -0.550 OA
ENDBRANCH   3   4
ENDBRANCH   2   3
ENDBRANCH   1   2
BRANCH   1   7
ATOM      7  C   UNL     1      28.484  -3.552   5.830  1.00  0.00     0.000 C 
BRANCH   7   8
ATOM      8  C   UNL     1      27.077  -3.671   6.434  1.00  0.00    -0.000 C 
BRANCH   8   9
ATOM      9  C   UNL     1      26.731  -2.428   7.267  1.00  0.00    -0.000 C 
BRANCH   9  10
ATOM     10  C   UNL     1      27.952  -1.532   7.528  1.00  0.00    -0.003 C 
ATOM     11  C   UNL     1      28.152  -1.218   9.010  1.00  0.00     0.004 C 
ENDBRANCH   9  10
ENDBRANCH   8   9
ENDBRANCH   7   8
ENDBRANCH   1   7
TORSDOF 7
ENDMDL
MODEL 5
REMARK VINA RESULT:    -5.006      3.695      6.591
REMARK INTER + INTRA:          -7.317
REMARK INTER:                  -7.126
REMARK INTRA:                  -0.191
REMARK UNBOUND:                -0.262
REMARK SMILES CCCCCCCCC(=O)[O-]
REMARK SMILES IDX 6 1 7 2 8 3 9 4 10 5 11 6 5 7 4 8 3 9 2 10 1 11
REMARK H PARENT
REMARK Flexibility Score: inf
ROOT
ATOM      1  C   UNL     1      15.117   1.501  12.968  1.00  0.00     0.000 C 
ENDROOT
BRANCH   1   2
ATOM      2  C   UNL     1      15.448   0.905  11.592  1.00  0.00     0.006 C 
BRANCH   2   3
ATOM      3  C   UNL     1      16.963   0.813  11.385  1.00  0.00     0.053 C 
BRANCH   3   4
ATOM      4  C   UNL     1      17.382  -0.610  11.197  1.00  0.00     0.041 C 
ATOM      5  O   UNL     1      17.452  -1.104  10.040  1.00  0.00    -0.550 OA
ATOM      6  O   UNL     1      17.747  -1.378  12.296  1.00  0.00    -0.550 OA
ENDBRANCH   3   4
ENDBRANCH   2   3
ENDBRANCH   1   2
BRANCH   1   7
ATOM      7  C   UNL     1      14.340   0.525  13.865  1.00  0.00     0.000 C 
BRANCH   7   8
ATOM      8  C   UNL     1      13.474   1.242  14.911  1.00  0.00    -0.000 C 
BRANCH   8   9
ATOM      9  C   UNL     1      14.309   1.638  16.137  1.00  0.00    -0.000 C 
BRANCH   9  10
ATOM     10  C   UNL     1      13.598   1.325  17.463  1.00  0.00    -0.003 C 
ATOM     11  C   UNL     1      12.876   2.539  18.049  1.00  0.00     0.004 C 
ENDBRANCH   9  10
ENDBRANCH   8   9
ENDBRANCH   7   8
ENDBRANCH   1   7
TORSDOF 7
ENDMDL
MODEL 6
REMARK VINA RESULT:    -4.975     16.712     18.822
REMARK INTER + INTRA:          -7.273
REMARK INTER:                  -6.641
REMARK INTRA:                  -0.632
REMARK UNBOUND:                -0.262
REMARK SMILES CCCCCCCCC(=O)[O-]
REMARK SMILES IDX 6 1 7 2 8 3 9 4 10 5 11 6 5 7 4 8 3 9 2 10 1 11
REMARK H PARENT
REMARK Flexibility Score: inf
ROOT
ATOM      1  C   UNL     1      30.776  -2.870   7.038  1.00  0.00     0.000 C 
ENDROOT
BRANCH   1   2
ATOM      2  C   UNL     1      30.992  -2.209   8.407  1.00  0.00     0.006 C 
BRANCH   2   3
ATOM      3  C   UNL     1      30.543  -0.745   8.387  1.00  0.00     0.053 C 
BRANCH   3   4
ATOM      4  C   UNL     1      31.646   0.150   8.853  1.00  0.00     0.041 C 
ATOM      5  O   UNL     1      31.381   1.220   9.461  1.00  0.00    -0.550 OA
ATOM      6  O   UNL     1      32.971  -0.223   8.663  1.00  0.00    -0.550 OA
ENDBRANCH   3   4
ENDBRANCH   2   3
ENDBRANCH   1   2
BRANCH   1   7
ATOM      7  C   UNL     1      30.399  -4.355   7.149  1.00  0.00     0.000 C 
BRANCH   7   8
ATOM      8  C   UNL     1      29.302  -4.765   6.155  1.00  0.00    -0.000 C 
BRANCH   8   9
ATOM      9  C   UNL     1      28.445  -3.555   5.755  1.00  0.00    -0.000 C 
BRANCH   9  10
ATOM     10  C   UNL     1      27.124  -3.482   6.538  1.00  0.00    -0.003 C 
ATOM     11  C   UNL     1      27.066  -2.291   7.494  1.00  0.00     0.004 C 
ENDBRANCH   9  10
ENDBRANCH   8   9
ENDBRANCH   7   8
ENDBRANCH   1   7
TORSDOF 7
ENDMDL
MODEL 7
REMARK VINA RESULT:    -4.963      3.670      4.830
REMARK INTER + INTRA:          -7.256
REMARK INTER:                  -6.620
REMARK INTRA:                  -0.636
REMARK UNBOUND:                -0.262
REMARK SMILES CCCCCCCCC(=O)[O-]
REMARK SMILES IDX 6 1 7 2 8 3 9 4 10 5 11 6 5 7 4 8 3 9 2 10 1 11
REMARK H PARENT
REMARK Flexibility Score: inf
ROOT
ATOM      1  C   UNL     1      15.594   0.052  14.903  1.00  0.00     0.000 C 
ENDROOT
BRANCH   1   2
ATOM      2  C   UNL     1      16.109  -1.388  14.767  1.00  0.00     0.006 C 
BRANCH   2   3
ATOM      3  C   UNL     1      17.535  -1.410  14.209  1.00  0.00     0.053 C 
BRANCH   3   4
ATOM      4  C   UNL     1      18.476  -2.027  15.194  1.00  0.00     0.041 C 
ATOM      5  O   UNL     1      18.472  -1.652  16.396  1.00  0.00    -0.550 OA
ATOM      6  O   UNL     1      19.324  -3.054  14.796  1.00  0.00    -0.550 OA
ENDBRANCH   3   4
ENDBRANCH   2   3
ENDBRANCH   1   2
BRANCH   1   7
ATOM      7  C   UNL     1      14.617   0.440  13.783  1.00  0.00     0.000 C 
BRANCH   7   8
ATOM      8  C   UNL     1      15.208   1.472  12.811  1.00  0.00    -0.000 C 
BRANCH   8   9
ATOM      9  C   UNL     1      15.495   0.834  11.443  1.00  0.00    -0.000 C 
BRANCH   9  10
ATOM     10  C   UNL     1      16.999   0.655  11.180  1.00  0.00    -0.003 C 
ATOM     11  C   UNL     1      17.341  -0.720  10.608  1.00  0.00     0.004 C 
ENDBRANCH   9  10
ENDBRANCH   8   9
ENDBRANCH   7   8
ENDBRANCH   1   7
TORSDOF 7
ENDMDL
MODEL 8
REMARK VINA RESULT:    -4.929     16.445     18.020
REMARK INTER + INTRA:          -7.208
REMARK INTER:                  -6.514
REMARK INTRA:                  -0.694
REMARK UNBOUND:                -0.262
REMARK SMILES CCCCCCCCC(=O)[O-]
REMARK SMILES IDX 6 1 7 2 8 3 9 4 10 5 11 6 5 7 4 8 3 9 2 10 1 11
REMARK H PARENT
REMARK Flexibility Score: inf
ROOT
ATOM      1  C   UNL     1      27.061  -2.116   7.185  1.00  0.00     0.000 C 
ENDROOT
BRANCH   1   2
ATOM      2  C   UNL     1      27.897  -1.702   8.406  1.00  0.00     0.006 C 
BRANCH   2   3
ATOM      3  C   UNL     1      29.199  -1.021   7.973  1.00  0.00     0.053 C 
BRANCH   3   4
ATOM      4  C   UNL     1      30.185  -1.010   9.098  1.00  0.00     0.041 C 
ATOM      5  O   UNL     1      31.208  -0.278   9.038  1.00  0.00    -0.550 OA
ATOM      6  O   UNL     1      29.949  -1.771  10.237  1.00  0.00    -0.550 OA
ENDBRANCH   3   4
ENDBRANCH   2   3
ENDBRANCH   1   2
BRANCH   1   7
ATOM      7  C   UNL     1      27.198  -3.609   6.852  1.00  0.00     0.000 C 
BRANCH   7   8
ATOM      8  C   UNL     1      28.184  -3.873   5.704  1.00  0.00    -0.000 C 
BRANCH   8   9
ATOM      9  C   UNL     1      29.351  -4.753   6.175  1.00  0.00    -0.000 C 
BRANCH   9  10
ATOM     10  C   UNL     1      30.652  -3.957   6.362  1.00  0.00    -0.003 C 
ATOM     11  C   UNL     1      31.306  -4.200   7.722  1.00  0.00     0.004 C 
ENDBRANCH   9  10
ENDBRANCH   8   9
ENDBRANCH   7   8
ENDBRANCH   1   7
TORSDOF 7
ENDMDL
MODEL 9
REMARK VINA RESULT:    -4.856      2.896      5.246
REMARK INTER + INTRA:          -7.105
REMARK INTER:                  -6.688
REMARK INTRA:                  -0.417
REMARK UNBOUND:                -0.262
REMARK SMILES CCCCCCCCC(=O)[O-]
REMARK SMILES IDX 6 1 7 2 8 3 9 4 10 5 11 6 5 7 4 8 3 9 2 10 1 11
REMARK H PARENT
REMARK Flexibility Score: inf
ROOT
ATOM      1  C   UNL     1      12.907   2.462  17.100  1.00  0.00     0.000 C 
ENDROOT
BRANCH   1   2
ATOM      2  C   UNL     1      13.251   1.381  16.065  1.00  0.00     0.006 C 
BRANCH   2   3
ATOM      3  C   UNL     1      14.673   1.571  15.526  1.00  0.00     0.053 C 
BRANCH   3   4
ATOM      4  C   UNL     1      14.740   1.208  14.077  1.00  0.00     0.041 C 
ATOM      5  O   UNL     1      15.227   2.015  13.243  1.00  0.00    -0.550 OA
ATOM      6  O   UNL     1      14.310  -0.044  13.654  1.00  0.00    -0.550 OA
ENDBRANCH   3   4
ENDBRANCH   2   3
ENDBRANCH   1   2
BRANCH   1   7
ATOM      7  C   UNL     1      13.513   2.173  18.482  1.00  0.00     0.000 C 
BRANCH   7   8
ATOM      8  C   UNL     1      13.618   0.671  18.782  1.00  0.00    -0.000 C 
BRANCH   8   9
ATOM      9  C   UNL     1      14.400   0.424  20.081  1.00  0.00    -0.000 C 
BRANCH   9  10
ATOM     10  C   UNL     1      15.584  -0.536  19.885  1.00  0.00    -0.003 C 
ATOM     11  C   UNL     1      16.155  -0.492  18.468  1.00  0.00     0.004 C 
ENDBRANCH   9  10
ENDBRANCH   8   9
ENDBRANCH   7   8
ENDBRANCH   1   7
TORSDOF 7
ENDMDL
