MODEL 1
REMARK VINA RESULT:    -1.059      0.000      0.000
REMARK INTER + INTRA:          -0.567
REMARK INTER:                  -1.152
REMARK INTRA:                   0.584
REMARK UNBOUND:                 0.584
REMARK SMILES CC1=CCC[C@@]2(C)CC[C@@H](C(C)(C)O)C[C@@H]12
REMARK SMILES IDX 11 1 12 2 13 3 10 4 1 5 2 6 3 7 16 8 4 9 6 10 15 11 5 12
REMARK SMILES IDX 7 13 8 14 9 15 14 16
REMARK H PARENT 14 17
REMARK Flexibility Score: inf
ROOT
ATOM      1  C   UNL     1     -17.923 -12.551  10.208  1.00  0.00     0.062 C 
ATOM      2  C   UNL     1     -18.991 -13.255   9.334  1.00  0.00     0.042 C 
ATOM      3  C   UNL     1     -18.342 -12.721  11.688  1.00  0.00     0.042 C 
ENDROOT
BRANCH   1   4
ATOM      4  C   UNL     1     -16.501 -13.188   9.951  1.00  0.00     0.021 C 
ATOM      5  C   UNL     1     -18.607 -15.997  12.072  1.00  0.00     0.039 C 
ATOM      6  C   UNL     1     -18.212 -16.082  10.616  1.00  0.00    -0.074 C 
ATOM      7  C   UNL     1     -19.124 -16.608   9.771  1.00  0.00    -0.028 C 
ATOM      8  C   UNL     1     -16.763 -15.812  10.191  1.00  0.00     0.021 C 
ATOM      9  C   UNL     1     -18.838 -16.945   8.338  1.00  0.00     0.028 C 
ATOM     10  C   UNL     1     -16.490 -15.963   8.650  1.00  0.00    -0.026 C 
ATOM     11  C   UNL     1     -16.185 -14.477  10.759  1.00  0.00     0.015 C 
ATOM     12  C   UNL     1     -17.342 -17.125   8.078  1.00  0.00     0.011 C 
ATOM     13  C   UNL     1     -15.004 -16.345   8.415  1.00  0.00     0.012 C 
ATOM     14  C   UNL     1     -16.813 -14.649   7.875  1.00  0.00     0.008 C 
ATOM     15  C   UNL     1     -16.131 -13.414   8.467  1.00  0.00     0.007 C 
ENDBRANCH   1   4
BRANCH   1  16
ATOM     16  O   UNL     1     -17.900 -11.181   9.897  1.00  0.00    -0.390 OA
ATOM     17  H   UNL     1     -17.179 -11.024   9.231  1.00  0.00     0.211 HD
ENDBRANCH   1  16
TORSDOF 2
ENDMDL
MODEL 2
REMARK VINA RESULT:     0.033      1.880      3.987
REMARK INTER + INTRA:           0.620
REMARK INTER:                   0.270
REMARK INTRA:                   0.350
REMARK UNBOUND:                 0.584
REMARK SMILES CC1=CCC[C@@]2(C)CC[C@@H](C(C)(C)O)C[C@@H]12
REMARK SMILES IDX 11 1 12 2 13 3 10 4 1 5 2 6 3 7 16 8 4 9 6 10 15 11 5 12
REMARK SMILES IDX 7 13 8 14 9 15 14 16
REMARK H PARENT 14 17
REMARK Flexibility Score: inf
ROOT
ATOM      1  C   UNL     1     -15.707 -15.927   8.788  1.00  0.00     0.062 C 
ATOM      2  C   UNL     1     -14.454 -16.209   7.922  1.00  0.00     0.042 C 
ATOM      3  C   UNL     1     -15.219 -15.407  10.162  1.00  0.00     0.042 C 
ENDROOT
BRANCH   1   4
ATOM      4  C   UNL     1     -16.631 -14.860   8.081  1.00  0.00     0.021 C 
ATOM      5  C   UNL     1     -19.125 -17.081  10.462  1.00  0.00     0.039 C 
ATOM      6  C   UNL     1     -18.711 -15.645  10.689  1.00  0.00    -0.074 C 
ATOM      7  C   UNL     1     -18.460 -15.281  11.964  1.00  0.00    -0.028 C 
ATOM      8  C   UNL     1     -18.820 -14.620   9.552  1.00  0.00     0.021 C 
ATOM      9  C   UNL     1     -18.227 -13.865  12.399  1.00  0.00     0.028 C 
ATOM     10  C   UNL     1     -18.380 -13.161   9.937  1.00  0.00    -0.026 C 
ATOM     11  C   UNL     1     -18.160 -15.097   8.218  1.00  0.00     0.015 C 
ATOM     12  C   UNL     1     -18.796 -12.857  11.400  1.00  0.00     0.011 C 
ATOM     13  C   UNL     1     -19.125 -12.135   9.041  1.00  0.00     0.012 C 
ATOM     14  C   UNL     1     -16.841 -12.961   9.781  1.00  0.00     0.008 C 
ATOM     15  C   UNL     1     -16.312 -13.383   8.408  1.00  0.00     0.007 C 
ENDBRANCH   1   4
BRANCH   1  16
ATOM     16  O   UNL     1     -16.416 -17.125   8.982  1.00  0.00    -0.390 OA
ATOM     17  H   UNL     1     -16.032 -17.816   8.379  1.00  0.00     0.211 HD
ENDBRANCH   1  16
TORSDOF 2
ENDMDL
