MODEL 1
REMARK VINA RESULT:    -2.993      0.000      0.000
REMARK INTER + INTRA:          -3.629
REMARK INTER:                  -3.518
REMARK INTRA:                  -0.111
REMARK UNBOUND:                -0.111
REMARK SMILES CCCCC(=O)[O-]
REMARK SMILES IDX 4 1 5 2 6 3 7 4 3 5 2 6 1 7
REMARK H PARENT
REMARK Flexibility Score: inf
ROOT
ATOM      1  C   UNL     1     -21.881 121.319  -0.938  1.00  0.00     0.053 C 
ENDROOT
BRANCH   1   2
ATOM      2  C   UNL     1     -23.067 120.481  -0.582  1.00  0.00     0.041 C 
ATOM      3  O   UNL     1     -22.910 119.370  -0.009  1.00  0.00    -0.550 OA
ATOM      4  O   UNL     1     -24.350 120.947  -0.840  1.00  0.00    -0.550 OA
ENDBRANCH   1   2
BRANCH   1   5
ATOM      5  C   UNL     1     -20.589 120.658  -0.439  1.00  0.00     0.006 C 
BRANCH   5   6
ATOM      6  C   UNL     1     -19.756 120.055  -1.581  1.00  0.00    -0.003 C 
ATOM      7  C   UNL     1     -19.869 118.533  -1.657  1.00  0.00     0.004 C 
ENDBRANCH   5   6
ENDBRANCH   1   5
TORSDOF 3
ENDMDL
MODEL 2
REMARK VINA RESULT:    -2.919      2.018      3.474
REMARK INTER + INTRA:          -3.541
REMARK INTER:                  -3.435
REMARK INTRA:                  -0.107
REMARK UNBOUND:                -0.111
REMARK SMILES CCCCC(=O)[O-]
REMARK SMILES IDX 4 1 5 2 6 3 7 4 3 5 2 6 1 7
REMARK H PARENT
REMARK Flexibility Score: inf
ROOT
ATOM      1  C   UNL     1     -19.823 119.855  -1.696  1.00  0.00     0.053 C 
ENDROOT
BRANCH   1   2
ATOM      2  C   UNL     1     -20.174 118.406  -1.582  1.00  0.00     0.041 C 
ATOM      3  O   UNL     1     -20.792 117.981  -0.569  1.00  0.00    -0.550 OA
ATOM      4  O   UNL     1     -19.862 117.531  -2.614  1.00  0.00    -0.550 OA
ENDBRANCH   1   2
BRANCH   1   5
ATOM      5  C   UNL     1     -20.510 120.661  -0.586  1.00  0.00     0.006 C 
BRANCH   5   6
ATOM      6  C   UNL     1     -21.793 121.356  -1.069  1.00  0.00    -0.003 C 
ATOM      7  C   UNL     1     -23.062 120.684  -0.547  1.00  0.00     0.004 C 
ENDBRANCH   5   6
ENDBRANCH   1   5
TORSDOF 3
ENDMDL
MODEL 3
REMARK VINA RESULT:    -2.904      2.472      3.017
REMARK INTER + INTRA:          -3.524
REMARK INTER:                  -3.499
REMARK INTRA:                  -0.025
REMARK UNBOUND:                -0.111
REMARK SMILES CCCCC(=O)[O-]
REMARK SMILES IDX 4 1 5 2 6 3 7 4 3 5 2 6 1 7
REMARK H PARENT
REMARK Flexibility Score: inf
ROOT
ATOM      1  C   UNL     1     -21.412 118.519  -0.282  1.00  0.00     0.053 C 
ENDROOT
BRANCH   1   2
ATOM      2  C   UNL     1     -21.721 117.614   0.868  1.00  0.00     0.041 C 
ATOM      3  O   UNL     1     -22.047 116.415   0.661  1.00  0.00    -0.550 OA
ATOM      4  O   UNL     1     -21.601 118.080   2.171  1.00  0.00    -0.550 OA
ENDBRANCH   1   2
BRANCH   1   5
ATOM      5  C   UNL     1     -21.306 119.973   0.194  1.00  0.00     0.006 C 
BRANCH   5   6
ATOM      6  C   UNL     1     -21.024 120.951  -0.956  1.00  0.00    -0.003 C 
ATOM      7  C   UNL     1     -19.800 120.559  -1.781  1.00  0.00     0.004 C 
ENDBRANCH   5   6
ENDBRANCH   1   5
TORSDOF 3
ENDMDL
MODEL 4
REMARK VINA RESULT:    -2.902      2.273      2.487
REMARK INTER + INTRA:          -3.522
REMARK INTER:                  -3.425
REMARK INTRA:                  -0.098
REMARK UNBOUND:                -0.111
REMARK SMILES CCCCC(=O)[O-]
REMARK SMILES IDX 4 1 5 2 6 3 7 4 3 5 2 6 1 7
REMARK H PARENT
REMARK Flexibility Score: inf
ROOT
ATOM      1  C   UNL     1     -21.722 119.931  -0.313  1.00  0.00     0.053 C 
ENDROOT
BRANCH   1   2
ATOM      2  C   UNL     1     -21.485 118.584   0.290  1.00  0.00     0.041 C 
ATOM      3  O   UNL     1     -21.173 117.607  -0.442  1.00  0.00    -0.550 OA
ATOM      4  O   UNL     1     -21.559 118.415   1.667  1.00  0.00    -0.550 OA
ENDBRANCH   1   2
BRANCH   1   5
ATOM      5  C   UNL     1     -20.388 120.635  -0.594  1.00  0.00     0.006 C 
BRANCH   5   6
ATOM      6  C   UNL     1     -20.047 120.677  -2.091  1.00  0.00    -0.003 C 
ATOM      7  C   UNL     1     -21.215 120.247  -2.977  1.00  0.00     0.004 C 
ENDBRANCH   5   6
ENDBRANCH   1   5
TORSDOF 3
ENDMDL
MODEL 5
REMARK VINA RESULT:    -2.855      2.135      3.481
REMARK INTER + INTRA:          -3.467
REMARK INTER:                  -3.354
REMARK INTRA:                  -0.113
REMARK UNBOUND:                -0.111
REMARK SMILES CCCCC(=O)[O-]
REMARK SMILES IDX 4 1 5 2 6 3 7 4 3 5 2 6 1 7
REMARK H PARENT
REMARK Flexibility Score: inf
ROOT
ATOM      1  C   UNL     1     -20.694 119.065  -2.336  1.00  0.00     0.053 C 
ENDROOT
BRANCH   1   2
ATOM      2  C   UNL     1     -20.316 117.877  -1.509  1.00  0.00     0.041 C 
ATOM      3  O   UNL     1     -19.250 117.251  -1.750  1.00  0.00    -0.550 OA
ATOM      4  O   UNL     1     -21.116 117.490  -0.442  1.00  0.00    -0.550 OA
ENDBRANCH   1   2
BRANCH   1   5
ATOM      5  C   UNL     1     -20.000 120.327  -1.809  1.00  0.00     0.006 C 
BRANCH   5   6
ATOM      6  C   UNL     1     -20.819 121.042  -0.724  1.00  0.00    -0.003 C 
ATOM      7  C   UNL     1     -22.323 120.998  -0.993  1.00  0.00     0.004 C 
ENDBRANCH   5   6
ENDBRANCH   1   5
TORSDOF 3
ENDMDL
MODEL 6
REMARK VINA RESULT:    -2.838      1.539      2.134
REMARK INTER + INTRA:          -3.447
REMARK INTER:                  -3.408
REMARK INTRA:                  -0.039
REMARK UNBOUND:                -0.111
REMARK SMILES CCCCC(=O)[O-]
REMARK SMILES IDX 4 1 5 2 6 3 7 4 3 5 2 6 1 7
REMARK H PARENT
REMARK Flexibility Score: inf
ROOT
ATOM      1  C   UNL     1     -22.700 120.405  -1.974  1.00  0.00     0.053 C 
ENDROOT
BRANCH   1   2
ATOM      2  C   UNL     1     -24.041 121.020  -2.223  1.00  0.00     0.041 C 
ATOM      3  O   UNL     1     -24.855 121.172  -1.273  1.00  0.00    -0.550 OA
ATOM      4  O   UNL     1     -24.375 121.469  -3.494  1.00  0.00    -0.550 OA
ENDBRANCH   1   2
BRANCH   1   5
ATOM      5  C   UNL     1     -22.059 121.010  -0.718  1.00  0.00     0.006 C 
BRANCH   5   6
ATOM      6  C   UNL     1     -20.525 120.941  -0.748  1.00  0.00    -0.003 C 
ATOM      7  C   UNL     1     -19.969 120.710  -2.152  1.00  0.00     0.004 C 
ENDBRANCH   5   6
ENDBRANCH   1   5
TORSDOF 3
ENDMDL
MODEL 7
REMARK VINA RESULT:    -2.808      1.465      2.006
REMARK INTER + INTRA:          -3.412
REMARK INTER:                  -3.281
REMARK INTRA:                  -0.131
REMARK UNBOUND:                -0.111
REMARK SMILES CCCCC(=O)[O-]
REMARK SMILES IDX 4 1 5 2 6 3 7 4 3 5 2 6 1 7
REMARK H PARENT
REMARK Flexibility Score: inf
ROOT
ATOM      1  C   UNL     1     -22.881 120.107  -1.777  1.00  0.00     0.053 C 
ENDROOT
BRANCH   1   2
ATOM      2  C   UNL     1     -22.971 118.791  -1.073  1.00  0.00     0.041 C 
ATOM      3  O   UNL     1     -22.384 117.779  -1.542  1.00  0.00    -0.550 OA
ATOM      4  O   UNL     1     -23.661 118.690   0.128  1.00  0.00    -0.550 OA
ENDBRANCH   1   2
BRANCH   1   5
ATOM      5  C   UNL     1     -22.157 121.135  -0.899  1.00  0.00     0.006 C 
BRANCH   5   6
ATOM      6  C   UNL     1     -20.669 120.802  -0.705  1.00  0.00    -0.003 C 
ATOM      7  C   UNL     1     -19.892 120.779  -2.021  1.00  0.00     0.004 C 
ENDBRANCH   5   6
ENDBRANCH   1   5
TORSDOF 3
ENDMDL
MODEL 8
REMARK VINA RESULT:    -2.739      2.460      3.800
REMARK INTER + INTRA:          -3.330
REMARK INTER:                  -3.291
REMARK INTRA:                  -0.039
REMARK UNBOUND:                -0.111
REMARK SMILES CCCCC(=O)[O-]
REMARK SMILES IDX 4 1 5 2 6 3 7 4 3 5 2 6 1 7
REMARK H PARENT
REMARK Flexibility Score: inf
ROOT
ATOM      1  C   UNL     1     -21.267 119.810  -0.417  1.00  0.00     0.053 C 
ENDROOT
BRANCH   1   2
ATOM      2  C   UNL     1     -20.083 119.656  -1.319  1.00  0.00     0.041 C 
ATOM      3  O   UNL     1     -19.555 120.669  -1.850  1.00  0.00    -0.550 OA
ATOM      4  O   UNL     1     -19.533 118.399  -1.536  1.00  0.00    -0.550 OA
ENDBRANCH   1   2
BRANCH   1   5
ATOM      5  C   UNL     1     -22.072 121.058  -0.800  1.00  0.00     0.006 C 
BRANCH   5   6
ATOM      6  C   UNL     1     -23.551 120.745  -1.074  1.00  0.00    -0.003 C 
ATOM      7  C   UNL     1     -23.966 121.060  -2.511  1.00  0.00     0.004 C 
ENDBRANCH   5   6
ENDBRANCH   1   5
TORSDOF 3
ENDMDL
MODEL 9
REMARK VINA RESULT:    -2.574      6.070      7.185
REMARK INTER + INTRA:          -3.137
REMARK INTER:                  -3.105
REMARK INTRA:                  -0.032
REMARK UNBOUND:                -0.111
REMARK SMILES CCCCC(=O)[O-]
REMARK SMILES IDX 4 1 5 2 6 3 7 4 3 5 2 6 1 7
REMARK H PARENT
REMARK Flexibility Score: inf
ROOT
ATOM      1  C   UNL     1     -18.348 114.312  -0.315  1.00  0.00     0.053 C 
ENDROOT
BRANCH   1   2
ATOM      2  C   UNL     1     -17.086 114.801  -0.951  1.00  0.00     0.041 C 
ATOM      3  O   UNL     1     -15.970 114.361  -0.566  1.00  0.00    -0.550 OA
ATOM      4  O   UNL     1     -17.143 115.706  -2.004  1.00  0.00    -0.550 OA
ENDBRANCH   1   2
BRANCH   1   5
ATOM      5  C   UNL     1     -19.484 115.319  -0.539  1.00  0.00     0.006 C 
BRANCH   5   6
ATOM      6  C   UNL     1     -20.828 114.635  -0.836  1.00  0.00    -0.003 C 
ATOM      7  C   UNL     1     -22.024 115.431  -0.317  1.00  0.00     0.004 C 
ENDBRANCH   5   6
ENDBRANCH   1   5
TORSDOF 3
ENDMDL
