MODEL 1
REMARK VINA RESULT:    -6.269      0.000      0.000
REMARK INTER + INTRA:          -7.495
REMARK INTER:                  -7.185
REMARK INTRA:                  -0.310
REMARK UNBOUND:                -0.310
REMARK SMILES O=C1C[C@H](c2ccc(O)cc2)Oc2cc(O)cc(O)c21
REMARK SMILES IDX 3 1 4 2 12 3 13 4 14 5 15 6 17 7 18 8 20 9 2 10 1 11 5 12
REMARK SMILES IDX 6 13 11 14 7 15 10 16 8 17 9 18 19 20 16 22
REMARK H PARENT 9 19 19 21 16 23
REMARK Flexibility Score: inf
ROOT
ATOM      1  C   UNL     1      10.606  -8.606  -9.404  1.00  0.00     0.131 C 
ATOM      2  C   UNL     1      10.669  -7.116  -9.759  1.00  0.00     0.211 C 
ATOM      3  O   UNL     1      10.551  -6.324  -8.579  1.00  0.00    -0.484 OA
ATOM      4  C   UNL     1       9.588  -6.599  -7.601  1.00  0.00     0.138 A 
ATOM      5  C   UNL     1       9.304  -5.624  -6.643  1.00  0.00     0.093 A 
ATOM      6  C   UNL     1       8.330  -5.856  -5.669  1.00  0.00     0.123 A 
ATOM      7  C   UNL     1       7.629  -7.061  -5.666  1.00  0.00     0.093 A 
ATOM      8  C   UNL     1       7.891  -8.051  -6.622  1.00  0.00     0.133 A 
ATOM      9  C   UNL     1       8.922  -7.846  -7.580  1.00  0.00     0.102 A 
ATOM     10  C   UNL     1       9.418  -8.890  -8.526  1.00  0.00     0.174 C 
ATOM     11  O   UNL     1       8.940 -10.053  -8.537  1.00  0.00    -0.294 OA
ENDROOT
BRANCH   2  12
ATOM     12  C   UNL     1      11.957  -6.789 -10.477  1.00  0.00    -0.007 A 
ATOM     13  C   UNL     1      12.658  -5.611 -10.169  1.00  0.00     0.011 A 
ATOM     14  C   UNL     1      12.439  -7.626 -11.499  1.00  0.00     0.011 A 
ATOM     15  C   UNL     1      13.835  -5.290 -10.853  1.00  0.00     0.046 A 
ATOM     16  C   UNL     1      13.616  -7.302 -12.180  1.00  0.00     0.046 A 
ATOM     17  C   UNL     1      14.317  -6.136 -11.860  1.00  0.00     0.115 A 
BRANCH  17  18
ATOM     18  O   UNL     1      15.488  -5.826 -12.547  1.00  0.00    -0.508 OA
ATOM     19  H   UNL     1      15.608  -4.935 -13.015  1.00  0.00     0.293 HD
ENDBRANCH  17  18
ENDBRANCH   2  12
BRANCH   8  20
ATOM     20  O   UNL     1       7.092  -9.198  -6.578  1.00  0.00    -0.507 OA
ATOM     21  H   UNL     1       7.123  -9.888  -5.845  1.00  0.00     0.293 HD
ENDBRANCH   8  20
BRANCH   6  22
ATOM     22  O   UNL     1       8.045  -4.892  -4.706  1.00  0.00    -0.508 OA
ATOM     23  H   UNL     1       7.108  -4.526  -4.583  1.00  0.00     0.293 HD
ENDBRANCH   6  22
TORSDOF 4
ENDMDL
MODEL 2
REMARK VINA RESULT:    -6.052      3.709      6.638
REMARK INTER + INTRA:          -7.246
REMARK INTER:                  -6.945
REMARK INTRA:                  -0.301
REMARK UNBOUND:                -0.310
REMARK SMILES O=C1C[C@H](c2ccc(O)cc2)Oc2cc(O)cc(O)c21
REMARK SMILES IDX 3 1 4 2 12 3 13 4 14 5 15 6 17 7 18 8 20 9 2 10 1 11 5 12
REMARK SMILES IDX 6 13 11 14 7 15 10 16 8 17 9 18 19 20 16 22
REMARK H PARENT 9 19 19 21 16 23
REMARK Flexibility Score: inf
ROOT
ATOM      1  C   UNL     1       8.121  -8.223  -9.049  1.00  0.00     0.131 C 
ATOM      2  C   UNL     1       8.740  -6.937  -8.490  1.00  0.00     0.211 C 
ATOM      3  O   UNL     1       8.192  -5.799  -9.152  1.00  0.00    -0.484 OA
ATOM      4  C   UNL     1       8.043  -5.758 -10.543  1.00  0.00     0.138 A 
ATOM      5  C   UNL     1       7.810  -4.526 -11.158  1.00  0.00     0.093 A 
ATOM      6  C   UNL     1       7.682  -4.446 -12.546  1.00  0.00     0.123 A 
ATOM      7  C   UNL     1       7.805  -5.599 -13.320  1.00  0.00     0.093 A 
ATOM      8  C   UNL     1       8.046  -6.845 -12.726  1.00  0.00     0.133 A 
ATOM      9  C   UNL     1       8.118  -6.943 -11.308  1.00  0.00     0.102 A 
ATOM     10  C   UNL     1       8.186  -8.230 -10.552  1.00  0.00     0.174 C 
ATOM     11  O   UNL     1       8.186  -9.343 -11.138  1.00  0.00    -0.294 OA
ENDROOT
BRANCH   2  12
ATOM     12  C   UNL     1       8.507  -6.834  -7.001  1.00  0.00    -0.007 A 
ATOM     13  C   UNL     1       7.877  -7.883  -6.310  1.00  0.00     0.011 A 
ATOM     14  C   UNL     1       8.864  -5.668  -6.300  1.00  0.00     0.011 A 
ATOM     15  C   UNL     1       7.633  -7.778  -4.937  1.00  0.00     0.046 A 
ATOM     16  C   UNL     1       8.618  -5.567  -4.927  1.00  0.00     0.046 A 
ATOM     17  C   UNL     1       8.004  -6.619  -4.243  1.00  0.00     0.115 A 
BRANCH  17  18
ATOM     18  O   UNL     1       7.765  -6.504  -2.875  1.00  0.00    -0.508 OA
ATOM     19  H   UNL     1       6.943  -6.030  -2.519  1.00  0.00     0.293 HD
ENDBRANCH  17  18
ENDBRANCH   2  12
BRANCH   8  20
ATOM     20  O   UNL     1       8.218  -7.932 -13.587  1.00  0.00    -0.507 OA
ATOM     21  H   UNL     1       8.043  -8.893 -13.337  1.00  0.00     0.293 HD
ENDBRANCH   8  20
BRANCH   6  22
ATOM     22  O   UNL     1       7.444  -3.222 -13.168  1.00  0.00    -0.508 OA
ATOM     23  H   UNL     1       8.161  -2.755 -13.710  1.00  0.00     0.293 HD
ENDBRANCH   6  22
TORSDOF 4
ENDMDL
MODEL 3
REMARK VINA RESULT:    -6.032     10.760     14.198
REMARK INTER + INTRA:          -7.224
REMARK INTER:                  -6.910
REMARK INTRA:                  -0.314
REMARK UNBOUND:                -0.310
REMARK SMILES O=C1C[C@H](c2ccc(O)cc2)Oc2cc(O)cc(O)c21
REMARK SMILES IDX 3 1 4 2 12 3 13 4 14 5 15 6 17 7 18 8 20 9 2 10 1 11 5 12
REMARK SMILES IDX 6 13 11 14 7 15 10 16 8 17 9 18 19 20 16 22
REMARK H PARENT 9 19 19 21 16 23
REMARK Flexibility Score: inf
ROOT
ATOM      1  C   UNL     1      19.329  -2.635 -18.968  1.00  0.00     0.131 C 
ATOM      2  C   UNL     1      18.987  -1.167 -19.243  1.00  0.00     0.211 C 
ATOM      3  O   UNL     1      19.063  -0.410 -18.037  1.00  0.00    -0.484 OA
ATOM      4  C   UNL     1      18.502  -0.874 -16.841  1.00  0.00     0.138 A 
ATOM      5  C   UNL     1      18.321   0.026 -15.789  1.00  0.00     0.093 A 
ATOM      6  C   UNL     1      17.741  -0.397 -14.592  1.00  0.00     0.123 A 
ATOM      7  C   UNL     1      17.325  -1.722 -14.455  1.00  0.00     0.093 A 
ATOM      8  C   UNL     1      17.490  -2.641 -15.499  1.00  0.00     0.133 A 
ATOM      9  C   UNL     1      18.134  -2.231 -16.700  1.00  0.00     0.102 A 
ATOM     10  C   UNL     1      18.531  -3.155 -17.804  1.00  0.00     0.174 C 
ATOM     11  O   UNL     1      18.312  -4.392 -17.743  1.00  0.00    -0.294 OA
ENDROOT
BRANCH   2  12
ATOM     12  C   UNL     1      19.917  -0.584 -20.281  1.00  0.00    -0.007 A 
ATOM     13  C   UNL     1      20.142  -1.264 -21.490  1.00  0.00     0.011 A 
ATOM     14  C   UNL     1      20.613   0.611 -20.027  1.00  0.00     0.011 A 
ATOM     15  C   UNL     1      21.026  -0.742 -22.439  1.00  0.00     0.046 A 
ATOM     16  C   UNL     1      21.497   1.129 -20.979  1.00  0.00     0.046 A 
ATOM     17  C   UNL     1      21.705   0.456 -22.186  1.00  0.00     0.115 A 
BRANCH  17  18
ATOM     18  O   UNL     1      22.588   0.984 -23.125  1.00  0.00    -0.508 OA
ATOM     19  H   UNL     1      22.513   0.757 -24.110  1.00  0.00     0.293 HD
ENDBRANCH  17  18
ENDBRANCH   2  12
BRANCH   8  20
ATOM     20  O   UNL     1      16.984  -3.927 -15.293  1.00  0.00    -0.507 OA
ATOM     21  H   UNL     1      17.183  -4.497 -14.485  1.00  0.00     0.293 HD
ENDBRANCH   8  20
BRANCH   6  22
ATOM     22  O   UNL     1      17.562   0.492 -13.535  1.00  0.00    -0.508 OA
ATOM     23  H   UNL     1      16.936   0.283 -12.766  1.00  0.00     0.293 HD
ENDBRANCH   6  22
TORSDOF 4
ENDMDL
MODEL 4
REMARK VINA RESULT:    -5.997      1.721      2.073
REMARK INTER + INTRA:          -7.183
REMARK INTER:                  -6.878
REMARK INTRA:                  -0.305
REMARK UNBOUND:                -0.310
REMARK SMILES O=C1C[C@H](c2ccc(O)cc2)Oc2cc(O)cc(O)c21
REMARK SMILES IDX 3 1 4 2 12 3 13 4 14 5 15 6 17 7 18 8 20 9 2 10 1 11 5 12
REMARK SMILES IDX 6 13 11 14 7 15 10 16 8 17 9 18 19 20 16 22
REMARK H PARENT 9 19 19 21 16 23
REMARK Flexibility Score: inf
ROOT
ATOM      1  C   UNL     1       9.343  -9.528  -9.696  1.00  0.00     0.131 C 
ATOM      2  C   UNL     1       9.799  -8.229 -10.369  1.00  0.00     0.211 C 
ATOM      3  O   UNL     1      10.264  -7.304  -9.387  1.00  0.00    -0.484 OA
ATOM      4  C   UNL     1       9.556  -7.071  -8.202  1.00  0.00     0.138 A 
ATOM      5  C   UNL     1       9.873  -5.945  -7.440  1.00  0.00     0.093 A 
ATOM      6  C   UNL     1       9.169  -5.670  -6.265  1.00  0.00     0.123 A 
ATOM      7  C   UNL     1       8.135  -6.515  -5.864  1.00  0.00     0.093 A 
ATOM      8  C   UNL     1       7.795  -7.646  -6.617  1.00  0.00     0.133 A 
ATOM      9  C   UNL     1       8.546  -7.966  -7.782  1.00  0.00     0.102 A 
ATOM     10  C   UNL     1       8.402  -9.233  -8.560  1.00  0.00     0.174 C 
ATOM     11  O   UNL     1       7.581 -10.125  -8.225  1.00  0.00    -0.294 OA
ENDROOT
BRANCH   2  12
ATOM     12  C   UNL     1      10.887  -8.502 -11.380  1.00  0.00    -0.007 A 
ATOM     13  C   UNL     1      12.209  -8.103 -11.121  1.00  0.00     0.011 A 
ATOM     14  C   UNL     1      10.582  -9.103 -12.614  1.00  0.00     0.011 A 
ATOM     15  C   UNL     1      13.212  -8.327 -12.069  1.00  0.00     0.046 A 
ATOM     16  C   UNL     1      11.588  -9.325 -13.560  1.00  0.00     0.046 A 
ATOM     17  C   UNL     1      12.904  -8.939 -13.290  1.00  0.00     0.115 A 
BRANCH  17  18
ATOM     18  O   UNL     1      13.896  -9.167 -14.241  1.00  0.00    -0.508 OA
ATOM     19  H   UNL     1      13.682  -9.577 -15.143  1.00  0.00     0.293 HD
ENDBRANCH  17  18
ENDBRANCH   2  12
BRANCH   8  20
ATOM     20  O   UNL     1       6.703  -8.396  -6.170  1.00  0.00    -0.507 OA
ATOM     21  H   UNL     1       6.700  -8.958  -5.333  1.00  0.00     0.293 HD
ENDBRANCH   8  20
BRANCH   6  22
ATOM     22  O   UNL     1       9.482  -4.552  -5.495  1.00  0.00    -0.508 OA
ATOM     23  H   UNL     1       8.811  -3.808  -5.344  1.00  0.00     0.293 HD
ENDBRANCH   6  22
TORSDOF 4
ENDMDL
MODEL 5
REMARK VINA RESULT:    -5.935      2.229      3.057
REMARK INTER + INTRA:          -7.112
REMARK INTER:                  -6.814
REMARK INTRA:                  -0.299
REMARK UNBOUND:                -0.310
REMARK SMILES O=C1C[C@H](c2ccc(O)cc2)Oc2cc(O)cc(O)c21
REMARK SMILES IDX 3 1 4 2 12 3 13 4 14 5 15 6 17 7 18 8 20 9 2 10 1 11 5 12
REMARK SMILES IDX 6 13 11 14 7 15 10 16 8 17 9 18 19 20 16 22
REMARK H PARENT 9 19 19 21 16 23
REMARK Flexibility Score: inf
ROOT
ATOM      1  C   UNL     1       9.633  -6.287 -11.153  1.00  0.00     0.131 C 
ATOM      2  C   UNL     1      10.816  -6.615 -10.235  1.00  0.00     0.211 C 
ATOM      3  O   UNL     1      10.349  -7.207  -9.024  1.00  0.00    -0.484 OA
ATOM      4  C   UNL     1       9.257  -6.683  -8.322  1.00  0.00     0.138 A 
ATOM      5  C   UNL     1       9.047  -7.092  -7.004  1.00  0.00     0.093 A 
ATOM      6  C   UNL     1       7.982  -6.570  -6.266  1.00  0.00     0.123 A 
ATOM      7  C   UNL     1       7.139  -5.622  -6.845  1.00  0.00     0.093 A 
ATOM      8  C   UNL     1       7.336  -5.190  -8.163  1.00  0.00     0.133 A 
ATOM      9  C   UNL     1       8.382  -5.763  -8.940  1.00  0.00     0.102 A 
ATOM     10  C   UNL     1       8.577  -5.524 -10.401  1.00  0.00     0.174 C 
ATOM     11  O   UNL     1       7.807  -4.777 -11.059  1.00  0.00    -0.294 OA
ENDROOT
BRANCH   2  12
ATOM     12  C   UNL     1      11.789  -7.542 -10.924  1.00  0.00    -0.007 A 
ATOM     13  C   UNL     1      11.680  -8.933 -10.756  1.00  0.00     0.011 A 
ATOM     14  C   UNL     1      12.848  -7.026 -11.692  1.00  0.00     0.011 A 
ATOM     15  C   UNL     1      12.597  -9.792 -11.369  1.00  0.00     0.046 A 
ATOM     16  C   UNL     1      13.763  -7.888 -12.303  1.00  0.00     0.046 A 
ATOM     17  C   UNL     1      13.641  -9.271 -12.144  1.00  0.00     0.115 A 
BRANCH  17  18
ATOM     18  O   UNL     1      14.560 -10.118 -12.758  1.00  0.00    -0.508 OA
ATOM     19  H   UNL     1      15.559  -9.974 -12.664  1.00  0.00     0.293 HD
ENDBRANCH  17  18
ENDBRANCH   2  12
BRANCH   8  20
ATOM     20  O   UNL     1       6.480  -4.191  -8.634  1.00  0.00    -0.507 OA
ATOM     21  H   UNL     1       6.626  -3.203  -8.499  1.00  0.00     0.293 HD
ENDBRANCH   8  20
BRANCH   6  22
ATOM     22  O   UNL     1       7.760  -6.977  -4.953  1.00  0.00    -0.508 OA
ATOM     23  H   UNL     1       7.788  -6.320  -4.182  1.00  0.00     0.293 HD
ENDBRANCH   6  22
TORSDOF 4
ENDMDL
MODEL 6
REMARK VINA RESULT:    -5.853      1.878      6.516
REMARK INTER + INTRA:          -7.018
REMARK INTER:                  -6.705
REMARK INTRA:                  -0.313
REMARK UNBOUND:                -0.310
REMARK SMILES O=C1C[C@H](c2ccc(O)cc2)Oc2cc(O)cc(O)c21
REMARK SMILES IDX 3 1 4 2 12 3 13 4 14 5 15 6 17 7 18 8 20 9 2 10 1 11 5 12
REMARK SMILES IDX 6 13 11 14 7 15 10 16 8 17 9 18 19 20 16 22
REMARK H PARENT 9 19 19 21 16 23
REMARK Flexibility Score: inf
ROOT
ATOM      1  C   UNL     1       8.370  -8.176  -9.510  1.00  0.00     0.131 C 
ATOM      2  C   UNL     1       9.572  -8.016  -8.572  1.00  0.00     0.211 C 
ATOM      3  O   UNL     1      10.673  -7.446  -9.278  1.00  0.00    -0.484 OA
ATOM      4  C   UNL     1      11.045  -7.897 -10.550  1.00  0.00     0.138 A 
ATOM      5  C   UNL     1      12.298  -7.541 -11.049  1.00  0.00     0.093 A 
ATOM      6  C   UNL     1      12.711  -7.995 -12.304  1.00  0.00     0.123 A 
ATOM      7  C   UNL     1      11.873  -8.823 -13.050  1.00  0.00     0.093 A 
ATOM      8  C   UNL     1      10.614  -9.200 -12.566  1.00  0.00     0.133 A 
ATOM      9  C   UNL     1      10.162  -8.693 -11.315  1.00  0.00     0.102 A 
ATOM     10  C   UNL     1       8.779  -8.871 -10.780  1.00  0.00     0.174 C 
ATOM     11  O   UNL     1       7.898  -9.501 -11.419  1.00  0.00    -0.294 OA
ENDROOT
BRANCH   2  12
ATOM     12  C   UNL     1       9.215  -7.154  -7.384  1.00  0.00    -0.007 A 
ATOM     13  C   UNL     1       8.100  -7.473  -6.589  1.00  0.00     0.011 A 
ATOM     14  C   UNL     1       9.953  -5.993  -7.094  1.00  0.00     0.011 A 
ATOM     15  C   UNL     1       7.749  -6.660  -5.508  1.00  0.00     0.046 A 
ATOM     16  C   UNL     1       9.599  -5.183  -6.012  1.00  0.00     0.046 A 
ATOM     17  C   UNL     1       8.499  -5.513  -5.216  1.00  0.00     0.115 A 
BRANCH  17  18
ATOM     18  O   UNL     1       8.157  -4.697  -4.140  1.00  0.00    -0.508 OA
ATOM     19  H   UNL     1       8.531  -4.858  -3.212  1.00  0.00     0.293 HD
ENDBRANCH  17  18
ENDBRANCH   2  12
BRANCH   8  20
ATOM     20  O   UNL     1       9.872 -10.083 -13.355  1.00  0.00    -0.507 OA
ATOM     21  H   UNL     1       9.761 -10.001 -14.354  1.00  0.00     0.293 HD
ENDBRANCH   8  20
BRANCH   6  22
ATOM     22  O   UNL     1      13.958  -7.639 -12.814  1.00  0.00    -0.508 OA
ATOM     23  H   UNL     1      14.112  -7.533 -13.810  1.00  0.00     0.293 HD
ENDBRANCH   6  22
TORSDOF 4
ENDMDL
MODEL 7
REMARK VINA RESULT:    -5.799      2.709      6.747
REMARK INTER + INTRA:          -6.956
REMARK INTER:                  -6.660
REMARK INTRA:                  -0.296
REMARK UNBOUND:                -0.310
REMARK SMILES O=C1C[C@H](c2ccc(O)cc2)Oc2cc(O)cc(O)c21
REMARK SMILES IDX 3 1 4 2 12 3 13 4 14 5 15 6 17 7 18 8 20 9 2 10 1 11 5 12
REMARK SMILES IDX 6 13 11 14 7 15 10 16 8 17 9 18 19 20 16 22
REMARK H PARENT 9 19 19 21 16 23
REMARK Flexibility Score: inf
ROOT
ATOM      1  C   UNL     1      10.610  -7.550  -8.532  1.00  0.00     0.131 C 
ATOM      2  C   UNL     1       9.268  -6.824  -8.381  1.00  0.00     0.211 C 
ATOM      3  O   UNL     1       8.257  -7.500  -9.126  1.00  0.00    -0.484 OA
ATOM      4  C   UNL     1       8.479  -7.944 -10.435  1.00  0.00     0.138 A 
ATOM      5  C   UNL     1       7.381  -8.302 -11.219  1.00  0.00     0.093 A 
ATOM      6  C   UNL     1       7.566  -8.725 -12.537  1.00  0.00     0.123 A 
ATOM      7  C   UNL     1       8.852  -8.771 -13.075  1.00  0.00     0.093 A 
ATOM      8  C   UNL     1       9.968  -8.410 -12.310  1.00  0.00     0.133 A 
ATOM      9  C   UNL     1       9.793  -8.035 -10.948  1.00  0.00     0.102 A 
ATOM     10  C   UNL     1      10.910  -7.808  -9.983  1.00  0.00     0.174 C 
ATOM     11  O   UNL     1      12.115  -7.935 -10.324  1.00  0.00    -0.294 OA
ENDROOT
BRANCH   2  12
ATOM     12  C   UNL     1       8.869  -6.731  -6.928  1.00  0.00    -0.007 A 
ATOM     13  C   UNL     1       8.136  -7.771  -6.329  1.00  0.00     0.011 A 
ATOM     14  C   UNL     1       9.172  -5.584  -6.174  1.00  0.00     0.011 A 
ATOM     15  C   UNL     1       7.739  -7.675  -4.992  1.00  0.00     0.046 A 
ATOM     16  C   UNL     1       8.772  -5.492  -4.837  1.00  0.00     0.046 A 
ATOM     17  C   UNL     1       8.057  -6.535  -4.243  1.00  0.00     0.115 A 
BRANCH  17  18
ATOM     18  O   UNL     1       7.665  -6.430  -2.910  1.00  0.00    -0.508 OA
ATOM     19  H   UNL     1       8.259  -5.991  -2.216  1.00  0.00     0.293 HD
ENDBRANCH  17  18
ENDBRANCH   2  12
BRANCH   8  20
ATOM     20  O   UNL     1      11.207  -8.427 -12.954  1.00  0.00    -0.507 OA
ATOM     21  H   UNL     1      11.980  -9.018 -12.691  1.00  0.00     0.293 HD
ENDBRANCH   8  20
BRANCH   6  22
ATOM     22  O   UNL     1       6.477  -9.090 -13.325  1.00  0.00    -0.508 OA
ATOM     23  H   UNL     1       5.556  -8.695 -13.172  1.00  0.00     0.293 HD
ENDBRANCH   6  22
TORSDOF 4
ENDMDL
MODEL 8
REMARK VINA RESULT:    -5.753     13.320     15.604
REMARK INTER + INTRA:          -6.904
REMARK INTER:                  -6.613
REMARK INTRA:                  -0.291
REMARK UNBOUND:                -0.310
REMARK SMILES O=C1C[C@H](c2ccc(O)cc2)Oc2cc(O)cc(O)c21
REMARK SMILES IDX 3 1 4 2 12 3 13 4 14 5 15 6 17 7 18 8 20 9 2 10 1 11 5 12
REMARK SMILES IDX 6 13 11 14 7 15 10 16 8 17 9 18 19 20 16 22
REMARK H PARENT 9 19 19 21 16 23
REMARK Flexibility Score: inf
ROOT
ATOM      1  C   UNL     1       5.179   7.180  -9.352  1.00  0.00     0.131 C 
ATOM      2  C   UNL     1       4.406   5.861  -9.445  1.00  0.00     0.211 C 
ATOM      3  O   UNL     1       4.565   5.289 -10.742  1.00  0.00    -0.484 OA
ATOM      4  C   UNL     1       4.449   6.059 -11.905  1.00  0.00     0.138 A 
ATOM      5  C   UNL     1       4.293   5.408 -13.130  1.00  0.00     0.093 A 
ATOM      6  C   UNL     1       4.150   6.147 -14.307  1.00  0.00     0.123 A 
ATOM      7  C   UNL     1       4.144   7.540 -14.252  1.00  0.00     0.093 A 
ATOM      8  C   UNL     1       4.291   8.215 -13.034  1.00  0.00     0.133 A 
ATOM      9  C   UNL     1       4.498   7.470 -11.839  1.00  0.00     0.102 A 
ATOM     10  C   UNL     1       4.849   8.071 -10.518  1.00  0.00     0.174 C 
ATOM     11  O   UNL     1       4.986   9.313 -10.371  1.00  0.00    -0.294 OA
ENDROOT
BRANCH   2  12
ATOM     12  C   UNL     1       4.873   4.889  -8.388  1.00  0.00    -0.007 A 
ATOM     13  C   UNL     1       4.090   4.658  -7.244  1.00  0.00     0.011 A 
ATOM     14  C   UNL     1       6.119   4.248  -8.506  1.00  0.00     0.011 A 
ATOM     15  C   UNL     1       4.534   3.782  -6.250  1.00  0.00     0.046 A 
ATOM     16  C   UNL     1       6.560   3.373  -7.509  1.00  0.00     0.046 A 
ATOM     17  C   UNL     1       5.770   3.136  -6.380  1.00  0.00     0.115 A 
BRANCH  17  18
ATOM     18  O   UNL     1       6.222   2.261  -5.395  1.00  0.00    -0.508 OA
ATOM     19  H   UNL     1       5.577   1.730  -4.821  1.00  0.00     0.293 HD
ENDBRANCH  17  18
ENDBRANCH   2  12
BRANCH   8  20
ATOM     20  O   UNL     1       4.208   9.610 -13.071  1.00  0.00    -0.507 OA
ATOM     21  H   UNL     1       3.461  10.126 -13.507  1.00  0.00     0.293 HD
ENDBRANCH   8  20
BRANCH   6  22
ATOM     22  O   UNL     1       4.000   5.505 -15.534  1.00  0.00    -0.508 OA
ATOM     23  H   UNL     1       3.892   6.028 -16.396  1.00  0.00     0.293 HD
ENDBRANCH   6  22
TORSDOF 4
ENDMDL
MODEL 9
REMARK VINA RESULT:    -5.615      2.354      3.997
REMARK INTER + INTRA:          -6.746
REMARK INTER:                  -6.456
REMARK INTRA:                  -0.290
REMARK UNBOUND:                -0.310
REMARK SMILES O=C1C[C@H](c2ccc(O)cc2)Oc2cc(O)cc(O)c21
REMARK SMILES IDX 3 1 4 2 12 3 13 4 14 5 15 6 17 7 18 8 20 9 2 10 1 11 5 12
REMARK SMILES IDX 6 13 11 14 7 15 10 16 8 17 9 18 19 20 16 22
REMARK H PARENT 9 19 19 21 16 23
REMARK Flexibility Score: inf
ROOT
ATOM      1  C   UNL     1      11.521  -6.669  -9.351  1.00  0.00     0.131 C 
ATOM      2  C   UNL     1      12.074  -7.216 -10.672  1.00  0.00     0.211 C 
ATOM      3  O   UNL     1      11.062  -7.190 -11.677  1.00  0.00    -0.484 OA
ATOM      4  C   UNL     1       9.759  -7.632 -11.420  1.00  0.00     0.138 A 
ATOM      5  C   UNL     1       8.910  -7.887 -12.499  1.00  0.00     0.093 A 
ATOM      6  C   UNL     1       7.612  -8.353 -12.279  1.00  0.00     0.123 A 
ATOM      7  C   UNL     1       7.171  -8.582 -10.976  1.00  0.00     0.093 A 
ATOM      8  C   UNL     1       8.007  -8.341  -9.878  1.00  0.00     0.133 A 
ATOM      9  C   UNL     1       9.310  -7.809 -10.092  1.00  0.00     0.102 A 
ATOM     10  C   UNL     1      10.221  -7.341  -9.004  1.00  0.00     0.174 C 
ATOM     11  O   UNL     1       9.885  -7.390  -7.793  1.00  0.00    -0.294 OA
ENDROOT
BRANCH   2  12
ATOM     12  C   UNL     1      13.274  -6.417 -11.123  1.00  0.00    -0.007 A 
ATOM     13  C   UNL     1      14.009  -6.821 -12.251  1.00  0.00     0.011 A 
ATOM     14  C   UNL     1      13.704  -5.296 -10.391  1.00  0.00     0.011 A 
ATOM     15  C   UNL     1      15.137  -6.101 -12.653  1.00  0.00     0.046 A 
ATOM     16  C   UNL     1      14.833  -4.579 -10.796  1.00  0.00     0.046 A 
ATOM     17  C   UNL     1      15.551  -4.977 -11.927  1.00  0.00     0.115 A 
BRANCH  17  18
ATOM     18  O   UNL     1      16.675  -4.252 -12.319  1.00  0.00    -0.508 OA
ATOM     19  H   UNL     1      16.875  -3.336 -11.935  1.00  0.00     0.293 HD
ENDBRANCH  17  18
ENDBRANCH   2  12
BRANCH   8  20
ATOM     20  O   UNL     1       7.500  -8.662  -8.616  1.00  0.00    -0.507 OA
ATOM     21  H   UNL     1       6.583  -9.046  -8.449  1.00  0.00     0.293 HD
ENDBRANCH   8  20
BRANCH   6  22
ATOM     22  O   UNL     1       6.756  -8.603 -13.349  1.00  0.00    -0.508 OA
ATOM     23  H   UNL     1       6.256  -7.855 -13.814  1.00  0.00     0.293 HD
ENDBRANCH   6  22
TORSDOF 4
ENDMDL
