MODEL 1
REMARK VINA RESULT:    -4.271      0.000      0.000
REMARK INTER + INTRA:         -13.500
REMARK INTER:                  -9.764
REMARK INTRA:                  -3.736
REMARK UNBOUND:                -3.736
REMARK SMILES CCCCCCCCCCCCCCCCCCCCCCCC(=O)[O-]
REMARK SMILES IDX 13 1 14 2 15 3 16 4 17 5 18 6 19 7 20 8 21 9 22 10 23 11
REMARK SMILES IDX 24 12 25 13 26 14 12 15 11 16 10 17 9 18 8 19 7 20 6 21 5 22
REMARK SMILES IDX 4 23 3 24 2 25 1 26
REMARK H PARENT
REMARK Flexibility Score: inf
ROOT
ATOM      1  C   UNL     1     -24.695 -12.911 -14.008  1.00  0.00     0.000 C 
ENDROOT
BRANCH   1   2
ATOM      2  C   UNL     1     -25.308 -14.322 -14.013  1.00  0.00     0.000 C 
BRANCH   2   3
ATOM      3  C   UNL     1     -24.238 -15.427 -13.987  1.00  0.00     0.000 C 
BRANCH   3   4
ATOM      4  C   UNL     1     -24.548 -16.577 -14.963  1.00  0.00     0.000 C 
BRANCH   4   5
ATOM      5  C   UNL     1     -23.318 -17.194 -15.657  1.00  0.00     0.000 C 
BRANCH   5   6
ATOM      6  C   UNL     1     -22.527 -18.209 -14.812  1.00  0.00     0.000 C 
BRANCH   6   7
ATOM      7  C   UNL     1     -21.184 -18.598 -15.451  1.00  0.00     0.000 C 
BRANCH   7   8
ATOM      8  C   UNL     1     -20.908 -17.855 -16.772  1.00  0.00     0.000 C 
BRANCH   8   9
ATOM      9  C   UNL     1     -19.505 -17.231 -16.896  1.00  0.00     0.000 C 
BRANCH   9  10
ATOM     10  C   UNL     1     -19.052 -17.054 -18.357  1.00  0.00     0.006 C 
BRANCH  10  11
ATOM     11  C   UNL     1     -17.821 -17.907 -18.689  1.00  0.00     0.053 C 
BRANCH  11  12
ATOM     12  C   UNL     1     -16.698 -17.077 -19.232  1.00  0.00     0.041 C 
ATOM     13  O   UNL     1     -15.947 -17.536 -20.132  1.00  0.00    -0.550 OA
ATOM     14  O   UNL     1     -16.463 -15.806 -18.722  1.00  0.00    -0.550 OA
ENDBRANCH  11  12
ENDBRANCH  10  11
ENDBRANCH   9  10
ENDBRANCH   8   9
ENDBRANCH   7   8
ENDBRANCH   6   7
ENDBRANCH   5   6
ENDBRANCH   4   5
ENDBRANCH   3   4
ENDBRANCH   2   3
ENDBRANCH   1   2
BRANCH   1  15
ATOM     15  C   UNL     1     -23.335 -12.868 -14.729  1.00  0.00     0.000 C 
BRANCH  15  16
ATOM     16  C   UNL     1     -23.337 -11.930 -15.946  1.00  0.00     0.000 C 
BRANCH  16  17
ATOM     17  C   UNL     1     -22.608 -12.531 -17.162  1.00  0.00     0.000 C 
BRANCH  17  18
ATOM     18  C   UNL     1     -22.342 -14.043 -16.999  1.00  0.00    -0.000 C 
BRANCH  18  19
ATOM     19  C   UNL     1     -22.517 -14.855 -18.298  1.00  0.00    -0.000 C 
BRANCH  19  20
ATOM     20  C   UNL     1     -23.087 -14.069 -19.491  1.00  0.00    -0.000 C 
BRANCH  20  21
ATOM     21  C   UNL     1     -22.449 -14.474 -20.831  1.00  0.00    -0.000 C 
BRANCH  21  22
ATOM     22  C   UNL     1     -21.143 -13.715 -21.126  1.00  0.00    -0.000 C 
BRANCH  22  23
ATOM     23  C   UNL     1     -21.085 -12.272 -20.593  1.00  0.00    -0.000 C 
BRANCH  23  24
ATOM     24  C   UNL     1     -19.945 -12.050 -19.584  1.00  0.00    -0.000 C 
BRANCH  24  25
ATOM     25  C   UNL     1     -19.205 -13.351 -19.237  1.00  0.00    -0.003 C 
ATOM     26  C   UNL     1     -18.894 -13.477 -17.745  1.00  0.00     0.004 C 
ENDBRANCH  24  25
ENDBRANCH  23  24
ENDBRANCH  22  23
ENDBRANCH  21  22
ENDBRANCH  20  21
ENDBRANCH  19  20
ENDBRANCH  18  19
ENDBRANCH  17  18
ENDBRANCH  16  17
ENDBRANCH  15  16
ENDBRANCH   1  15
TORSDOF 22
ENDMDL
MODEL 2
REMARK VINA RESULT:    -4.237      2.964      5.535
REMARK INTER + INTRA:         -13.422
REMARK INTER:                  -9.797
REMARK INTRA:                  -3.625
REMARK UNBOUND:                -3.736
REMARK SMILES CCCCCCCCCCCCCCCCCCCCCCCC(=O)[O-]
REMARK SMILES IDX 13 1 14 2 15 3 16 4 17 5 18 6 19 7 20 8 21 9 22 10 23 11
REMARK SMILES IDX 24 12 25 13 26 14 12 15 11 16 10 17 9 18 8 19 7 20 6 21 5 22
REMARK SMILES IDX 4 23 3 24 2 25 1 26
REMARK H PARENT
REMARK Flexibility Score: inf
ROOT
ATOM      1  C   UNL     1     -22.611 -14.458 -16.813  1.00  0.00     0.000 C 
ENDROOT
BRANCH   1   2
ATOM      2  C   UNL     1     -22.794 -12.930 -16.811  1.00  0.00     0.000 C 
BRANCH   2   3
ATOM      3  C   UNL     1     -23.272 -12.398 -15.449  1.00  0.00     0.000 C 
BRANCH   3   4
ATOM      4  C   UNL     1     -23.577 -13.523 -14.445  1.00  0.00     0.000 C 
BRANCH   4   5
ATOM      5  C   UNL     1     -25.047 -13.610 -13.988  1.00  0.00     0.000 C 
BRANCH   5   6
ATOM      6  C   UNL     1     -25.641 -15.030 -13.952  1.00  0.00     0.000 C 
BRANCH   6   7
ATOM      7  C   UNL     1     -24.658 -16.100 -14.456  1.00  0.00     0.000 C 
BRANCH   7   8
ATOM      8  C   UNL     1     -25.346 -17.433 -14.805  1.00  0.00     0.000 C 
BRANCH   8   9
ATOM      9  C   UNL     1     -25.772 -18.291 -13.599  1.00  0.00     0.000 C 
BRANCH   9  10
ATOM     10  C   UNL     1     -24.671 -18.414 -12.530  1.00  0.00     0.006 C 
BRANCH  10  11
ATOM     11  C   UNL     1     -23.741 -19.605 -12.791  1.00  0.00     0.053 C 
BRANCH  11  12
ATOM     12  C   UNL     1     -22.335 -19.166 -13.065  1.00  0.00     0.041 C 
ATOM     13  O   UNL     1     -22.056 -18.554 -14.130  1.00  0.00    -0.550 OA
ATOM     14  O   UNL     1     -21.325 -19.458 -12.156  1.00  0.00    -0.550 OA
ENDBRANCH  11  12
ENDBRANCH  10  11
ENDBRANCH   9  10
ENDBRANCH   8   9
ENDBRANCH   7   8
ENDBRANCH   6   7
ENDBRANCH   5   6
ENDBRANCH   4   5
ENDBRANCH   3   4
ENDBRANCH   2   3
ENDBRANCH   1   2
BRANCH   1  15
ATOM     15  C   UNL     1     -21.181 -14.869 -17.211  1.00  0.00     0.000 C 
BRANCH  15  16
ATOM     16  C   UNL     1     -20.229 -13.669 -17.330  1.00  0.00     0.000 C 
BRANCH  16  17
ATOM     17  C   UNL     1     -19.351 -13.729 -18.594  1.00  0.00     0.000 C 
BRANCH  17  18
ATOM     18  C   UNL     1     -19.726 -12.642 -19.623  1.00  0.00    -0.000 C 
BRANCH  18  19
ATOM     19  C   UNL     1     -20.698 -13.124 -20.719  1.00  0.00    -0.000 C 
BRANCH  19  20
ATOM     20  C   UNL     1     -22.188 -12.880 -20.428  1.00  0.00    -0.000 C 
BRANCH  20  21
ATOM     21  C   UNL     1     -23.021 -14.173 -20.453  1.00  0.00    -0.000 C 
BRANCH  21  22
ATOM     22  C   UNL     1     -22.225 -15.388 -20.963  1.00  0.00    -0.000 C 
BRANCH  22  23
ATOM     23  C   UNL     1     -22.477 -16.705 -20.208  1.00  0.00    -0.000 C 
BRANCH  23  24
ATOM     24  C   UNL     1     -23.861 -16.757 -19.538  1.00  0.00    -0.000 C 
BRANCH  24  25
ATOM     25  C   UNL     1     -23.854 -17.575 -18.237  1.00  0.00    -0.003 C 
ATOM     26  C   UNL     1     -24.557 -18.926 -18.383  1.00  0.00     0.004 C 
ENDBRANCH  24  25
ENDBRANCH  23  24
ENDBRANCH  22  23
ENDBRANCH  21  22
ENDBRANCH  20  21
ENDBRANCH  19  20
ENDBRANCH  18  19
ENDBRANCH  17  18
ENDBRANCH  16  17
ENDBRANCH  15  16
ENDBRANCH   1  15
TORSDOF 22
ENDMDL
MODEL 3
REMARK VINA RESULT:    -4.182      2.901      4.820
REMARK INTER + INTRA:         -13.297
REMARK INTER:                  -9.930
REMARK INTRA:                  -3.367
REMARK UNBOUND:                -3.736
REMARK SMILES CCCCCCCCCCCCCCCCCCCCCCCC(=O)[O-]
REMARK SMILES IDX 13 1 14 2 15 3 16 4 17 5 18 6 19 7 20 8 21 9 22 10 23 11
REMARK SMILES IDX 24 12 25 13 26 14 12 15 11 16 10 17 9 18 8 19 7 20 6 21 5 22
REMARK SMILES IDX 4 23 3 24 2 25 1 26
REMARK H PARENT
REMARK Flexibility Score: inf
ROOT
ATOM      1  C   UNL     1     -22.800 -12.798 -16.785  1.00  0.00     0.000 C 
ENDROOT
BRANCH   1   2
ATOM      2  C   UNL     1     -23.534 -12.142 -15.603  1.00  0.00     0.000 C 
BRANCH   2   3
ATOM      3  C   UNL     1     -23.554 -13.039 -14.354  1.00  0.00     0.000 C 
BRANCH   3   4
ATOM      4  C   UNL     1     -24.928 -13.690 -14.112  1.00  0.00     0.000 C 
BRANCH   4   5
ATOM      5  C   UNL     1     -24.909 -15.226 -13.980  1.00  0.00     0.000 C 
BRANCH   5   6
ATOM      6  C   UNL     1     -24.248 -15.978 -15.149  1.00  0.00     0.000 C 
BRANCH   6   7
ATOM      7  C   UNL     1     -24.681 -17.451 -15.230  1.00  0.00     0.000 C 
BRANCH   7   8
ATOM      8  C   UNL     1     -23.838 -18.273 -16.224  1.00  0.00     0.000 C 
BRANCH   8   9
ATOM      9  C   UNL     1     -22.922 -19.336 -15.590  1.00  0.00     0.000 C 
BRANCH   9  10
ATOM     10  C   UNL     1     -21.943 -18.749 -14.557  1.00  0.00     0.006 C 
BRANCH  10  11
ATOM     11  C   UNL     1     -22.190 -19.298 -13.147  1.00  0.00     0.053 C 
BRANCH  11  12
ATOM     12  C   UNL     1     -21.084 -20.206 -12.700  1.00  0.00     0.041 C 
ATOM     13  O   UNL     1     -20.765 -21.207 -13.393  1.00  0.00    -0.550 OA
ATOM     14  O   UNL     1     -20.426 -19.961 -11.501  1.00  0.00    -0.550 OA
ENDBRANCH  11  12
ENDBRANCH  10  11
ENDBRANCH   9  10
ENDBRANCH   8   9
ENDBRANCH   7   8
ENDBRANCH   6   7
ENDBRANCH   5   6
ENDBRANCH   4   5
ENDBRANCH   3   4
ENDBRANCH   2   3
ENDBRANCH   1   2
BRANCH   1  15
ATOM     15  C   UNL     1     -21.597 -13.642 -16.323  1.00  0.00     0.000 C 
BRANCH  15  16
ATOM     16  C   UNL     1     -21.359 -14.874 -17.211  1.00  0.00     0.000 C 
BRANCH  16  17
ATOM     17  C   UNL     1     -19.877 -15.059 -17.586  1.00  0.00     0.000 C 
BRANCH  17  18
ATOM     18  C   UNL     1     -19.156 -13.713 -17.815  1.00  0.00    -0.000 C 
BRANCH  18  19
ATOM     19  C   UNL     1     -19.332 -13.141 -19.235  1.00  0.00    -0.000 C 
BRANCH  19  20
ATOM     20  C   UNL     1     -20.205 -11.878 -19.330  1.00  0.00    -0.000 C 
BRANCH  20  21
ATOM     21  C   UNL     1     -21.407 -12.054 -20.274  1.00  0.00    -0.000 C 
BRANCH  21  22
ATOM     22  C   UNL     1     -21.637 -13.520 -20.684  1.00  0.00    -0.000 C 
BRANCH  22  23
ATOM     23  C   UNL     1     -22.976 -14.129 -20.230  1.00  0.00    -0.000 C 
BRANCH  23  24
ATOM     24  C   UNL     1     -23.130 -15.606 -20.633  1.00  0.00    -0.000 C 
BRANCH  24  25
ATOM     25  C   UNL     1     -23.542 -16.497 -19.450  1.00  0.00    -0.003 C 
ATOM     26  C   UNL     1     -24.459 -17.648 -19.867  1.00  0.00     0.004 C 
ENDBRANCH  24  25
ENDBRANCH  23  24
ENDBRANCH  22  23
ENDBRANCH  21  22
ENDBRANCH  20  21
ENDBRANCH  19  20
ENDBRANCH  18  19
ENDBRANCH  17  18
ENDBRANCH  16  17
ENDBRANCH  15  16
ENDBRANCH   1  15
TORSDOF 22
ENDMDL
MODEL 4
REMARK VINA RESULT:    -4.148      3.611      5.055
REMARK INTER + INTRA:         -13.218
REMARK INTER:                 -10.036
REMARK INTRA:                  -3.182
REMARK UNBOUND:                -3.736
REMARK SMILES CCCCCCCCCCCCCCCCCCCCCCCC(=O)[O-]
REMARK SMILES IDX 13 1 14 2 15 3 16 4 17 5 18 6 19 7 20 8 21 9 22 10 23 11
REMARK SMILES IDX 24 12 25 13 26 14 12 15 11 16 10 17 9 18 8 19 7 20 6 21 5 22
REMARK SMILES IDX 4 23 3 24 2 25 1 26
REMARK H PARENT
REMARK Flexibility Score: inf
ROOT
ATOM      1  C   UNL     1     -23.022 -12.046 -16.000  1.00  0.00     0.000 C 
ENDROOT
BRANCH   1   2
ATOM      2  C   UNL     1     -23.409 -12.872 -14.761  1.00  0.00     0.000 C 
BRANCH   2   3
ATOM      3  C   UNL     1     -23.446 -14.382 -15.050  1.00  0.00     0.000 C 
BRANCH   3   4
ATOM      4  C   UNL     1     -24.708 -15.064 -14.492  1.00  0.00     0.000 C 
BRANCH   4   5
ATOM      5  C   UNL     1     -24.725 -16.601 -14.605  1.00  0.00     0.000 C 
BRANCH   5   6
ATOM      6  C   UNL     1     -23.347 -17.261 -14.789  1.00  0.00     0.000 C 
BRANCH   6   7
ATOM      7  C   UNL     1     -23.295 -18.695 -14.237  1.00  0.00     0.000 C 
BRANCH   7   8
ATOM      8  C   UNL     1     -21.922 -19.062 -13.643  1.00  0.00     0.000 C 
BRANCH   8   9
ATOM      9  C   UNL     1     -21.962 -19.743 -12.263  1.00  0.00     0.000 C 
BRANCH   9  10
ATOM     10  C   UNL     1     -20.579 -20.225 -11.788  1.00  0.00     0.006 C 
BRANCH  10  11
ATOM     11  C   UNL     1     -20.655 -21.567 -11.050  1.00  0.00     0.053 C 
BRANCH  11  12
ATOM     12  C   UNL     1     -20.369 -22.722 -11.960  1.00  0.00     0.041 C 
ATOM     13  O   UNL     1     -19.268 -22.797 -12.567  1.00  0.00    -0.550 OA
ATOM     14  O   UNL     1     -21.332 -23.703 -12.162  1.00  0.00    -0.550 OA
ENDBRANCH  11  12
ENDBRANCH  10  11
ENDBRANCH   9  10
ENDBRANCH   8   9
ENDBRANCH   7   8
ENDBRANCH   6   7
ENDBRANCH   5   6
ENDBRANCH   4   5
ENDBRANCH   3   4
ENDBRANCH   2   3
ENDBRANCH   1   2
BRANCH   1  15
ATOM     15  C   UNL     1     -22.415 -12.921 -17.112  1.00  0.00     0.000 C 
BRANCH  15  16
ATOM     16  C   UNL     1     -22.947 -12.563 -18.509  1.00  0.00     0.000 C 
BRANCH  16  17
ATOM     17  C   UNL     1     -21.837 -12.519 -19.575  1.00  0.00     0.000 C 
BRANCH  17  18
ATOM     18  C   UNL     1     -22.107 -13.490 -20.745  1.00  0.00    -0.000 C 
BRANCH  18  19
ATOM     19  C   UNL     1     -21.146 -14.694 -20.796  1.00  0.00    -0.000 C 
BRANCH  19  20
ATOM     20  C   UNL     1     -21.819 -16.075 -20.720  1.00  0.00    -0.000 C 
BRANCH  20  21
ATOM     21  C   UNL     1     -23.112 -16.063 -19.887  1.00  0.00    -0.000 C 
BRANCH  21  22
ATOM     22  C   UNL     1     -22.861 -16.304 -18.388  1.00  0.00    -0.000 C 
BRANCH  22  23
ATOM     23  C   UNL     1     -21.483 -16.896 -18.038  1.00  0.00    -0.000 C 
BRANCH  23  24
ATOM     24  C   UNL     1     -20.664 -15.994 -17.097  1.00  0.00    -0.000 C 
BRANCH  24  25
ATOM     25  C   UNL     1     -19.264 -15.686 -17.650  1.00  0.00    -0.003 C 
ATOM     26  C   UNL     1     -19.012 -14.188 -17.823  1.00  0.00     0.004 C 
ENDBRANCH  24  25
ENDBRANCH  23  24
ENDBRANCH  22  23
ENDBRANCH  21  22
ENDBRANCH  20  21
ENDBRANCH  19  20
ENDBRANCH  18  19
ENDBRANCH  17  18
ENDBRANCH  16  17
ENDBRANCH  15  16
ENDBRANCH   1  15
TORSDOF 22
ENDMDL
MODEL 5
REMARK VINA RESULT:    -4.122      3.685      4.983
REMARK INTER + INTRA:         -13.161
REMARK INTER:                 -10.428
REMARK INTRA:                  -2.733
REMARK UNBOUND:                -3.736
REMARK SMILES CCCCCCCCCCCCCCCCCCCCCCCC(=O)[O-]
REMARK SMILES IDX 13 1 14 2 15 3 16 4 17 5 18 6 19 7 20 8 21 9 22 10 23 11
REMARK SMILES IDX 24 12 25 13 26 14 12 15 11 16 10 17 9 18 8 19 7 20 6 21 5 22
REMARK SMILES IDX 4 23 3 24 2 25 1 26
REMARK H PARENT
REMARK Flexibility Score: inf
ROOT
ATOM      1  C   UNL     1     -24.784 -13.735 -14.071  1.00  0.00     0.000 C 
ENDROOT
BRANCH   1   2
ATOM      2  C   UNL     1     -25.780 -14.907 -14.043  1.00  0.00     0.000 C 
BRANCH   2   3
ATOM      3  C   UNL     1     -25.168 -16.183 -13.440  1.00  0.00     0.000 C 
BRANCH   3   4
ATOM      4  C   UNL     1     -25.210 -17.378 -14.409  1.00  0.00     0.000 C 
BRANCH   4   5
ATOM      5  C   UNL     1     -24.286 -18.555 -14.037  1.00  0.00     0.000 C 
BRANCH   5   6
ATOM      6  C   UNL     1     -22.780 -18.242 -14.064  1.00  0.00     0.000 C 
BRANCH   6   7
ATOM      7  C   UNL     1     -21.937 -19.415 -14.591  1.00  0.00     0.000 C 
BRANCH   7   8
ATOM      8  C   UNL     1     -20.786 -19.803 -13.643  1.00  0.00     0.000 C 
BRANCH   8   9
ATOM      9  C   UNL     1     -21.124 -19.756 -12.141  1.00  0.00     0.000 C 
BRANCH   9  10
ATOM     10  C   UNL     1     -20.835 -21.083 -11.417  1.00  0.00     0.006 C 
BRANCH  10  11
ATOM     11  C   UNL     1     -21.417 -22.290 -12.163  1.00  0.00     0.053 C 
BRANCH  11  12
ATOM     12  C   UNL     1     -20.391 -23.360 -12.379  1.00  0.00     0.041 C 
ATOM     13  O   UNL     1     -19.170 -23.064 -12.463  1.00  0.00    -0.550 OA
ATOM     14  O   UNL     1     -20.788 -24.685 -12.517  1.00  0.00    -0.550 OA
ENDBRANCH  11  12
ENDBRANCH  10  11
ENDBRANCH   9  10
ENDBRANCH   8   9
ENDBRANCH   7   8
ENDBRANCH   6   7
ENDBRANCH   5   6
ENDBRANCH   4   5
ENDBRANCH   3   4
ENDBRANCH   2   3
ENDBRANCH   1   2
BRANCH   1  15
ATOM     15  C   UNL     1     -23.349 -14.202 -14.378  1.00  0.00     0.000 C 
BRANCH  15  16
ATOM     16  C   UNL     1     -22.959 -13.996 -15.851  1.00  0.00     0.000 C 
BRANCH  16  17
ATOM     17  C   UNL     1     -22.519 -15.302 -16.537  1.00  0.00     0.000 C 
BRANCH  17  18
ATOM     18  C   UNL     1     -21.164 -15.158 -17.263  1.00  0.00    -0.000 C 
BRANCH  18  19
ATOM     19  C   UNL     1     -20.420 -13.845 -16.948  1.00  0.00    -0.000 C 
BRANCH  19  20
ATOM     20  C   UNL     1     -19.098 -13.641 -17.707  1.00  0.00    -0.000 C 
BRANCH  20  21
ATOM     21  C   UNL     1     -19.296 -13.522 -19.228  1.00  0.00    -0.000 C 
BRANCH  21  22
ATOM     22  C   UNL     1     -19.903 -12.171 -19.648  1.00  0.00    -0.000 C 
BRANCH  22  23
ATOM     23  C   UNL     1     -21.176 -12.261 -20.509  1.00  0.00    -0.000 C 
BRANCH  23  24
ATOM     24  C   UNL     1     -22.435 -12.590 -19.687  1.00  0.00    -0.000 C 
BRANCH  24  25
ATOM     25  C   UNL     1     -23.091 -13.910 -20.121  1.00  0.00    -0.003 C 
ATOM     26  C   UNL     1     -22.236 -14.698 -21.114  1.00  0.00     0.004 C 
ENDBRANCH  24  25
ENDBRANCH  23  24
ENDBRANCH  22  23
ENDBRANCH  21  22
ENDBRANCH  20  21
ENDBRANCH  19  20
ENDBRANCH  18  19
ENDBRANCH  17  18
ENDBRANCH  16  17
ENDBRANCH  15  16
ENDBRANCH   1  15
TORSDOF 22
ENDMDL
MODEL 6
REMARK VINA RESULT:    -4.080      2.865      4.930
REMARK INTER + INTRA:         -13.064
REMARK INTER:                  -8.794
REMARK INTRA:                  -4.269
REMARK UNBOUND:                -3.736
REMARK SMILES CCCCCCCCCCCCCCCCCCCCCCCC(=O)[O-]
REMARK SMILES IDX 13 1 14 2 15 3 16 4 17 5 18 6 19 7 20 8 21 9 22 10 23 11
REMARK SMILES IDX 24 12 25 13 26 14 12 15 11 16 10 17 9 18 8 19 7 20 6 21 5 22
REMARK SMILES IDX 4 23 3 24 2 25 1 26
REMARK H PARENT
REMARK Flexibility Score: inf
ROOT
ATOM      1  C   UNL     1     -22.049 -12.793 -17.385  1.00  0.00     0.000 C 
ENDROOT
BRANCH   1   2
ATOM      2  C   UNL     1     -20.913 -13.781 -17.069  1.00  0.00     0.000 C 
BRANCH   2   3
ATOM      3  C   UNL     1     -19.612 -13.437 -17.814  1.00  0.00     0.000 C 
BRANCH   3   4
ATOM      4  C   UNL     1     -18.693 -14.658 -18.001  1.00  0.00     0.000 C 
BRANCH   4   5
ATOM      5  C   UNL     1     -19.224 -15.974 -17.399  1.00  0.00     0.000 C 
BRANCH   5   6
ATOM      6  C   UNL     1     -19.361 -17.143 -18.391  1.00  0.00     0.000 C 
BRANCH   6   7
ATOM      7  C   UNL     1     -19.467 -18.508 -17.692  1.00  0.00     0.000 C 
BRANCH   7   8
ATOM      8  C   UNL     1     -18.878 -18.504 -16.268  1.00  0.00     0.000 C 
BRANCH   8   9
ATOM      9  C   UNL     1     -19.804 -19.060 -15.171  1.00  0.00     0.000 C 
BRANCH   9  10
ATOM     10  C   UNL     1     -20.851 -20.051 -15.710  1.00  0.00     0.006 C 
BRANCH  10  11
ATOM     11  C   UNL     1     -21.604 -20.770 -14.584  1.00  0.00     0.053 C 
BRANCH  11  12
ATOM     12  C   UNL     1     -21.373 -20.119 -13.255  1.00  0.00     0.041 C 
ATOM     13  O   UNL     1     -20.514 -20.584 -12.460  1.00  0.00    -0.550 OA
ATOM     14  O   UNL     1     -22.130 -19.015 -12.881  1.00  0.00    -0.550 OA
ENDBRANCH  11  12
ENDBRANCH  10  11
ENDBRANCH   9  10
ENDBRANCH   8   9
ENDBRANCH   7   8
ENDBRANCH   6   7
ENDBRANCH   5   6
ENDBRANCH   4   5
ENDBRANCH   3   4
ENDBRANCH   2   3
ENDBRANCH   1   2
BRANCH   1  15
ATOM     15  C   UNL     1     -23.013 -12.621 -16.196  1.00  0.00     0.000 C 
BRANCH  15  16
ATOM     16  C   UNL     1     -22.643 -13.508 -14.997  1.00  0.00     0.000 C 
BRANCH  16  17
ATOM     17  C   UNL     1     -23.869 -14.192 -14.363  1.00  0.00     0.000 C 
BRANCH  17  18
ATOM     18  C   UNL     1     -24.244 -15.507 -15.078  1.00  0.00    -0.000 C 
BRANCH  18  19
ATOM     19  C   UNL     1     -23.109 -16.550 -15.111  1.00  0.00    -0.000 C 
BRANCH  19  20
ATOM     20  C   UNL     1     -22.703 -17.033 -16.514  1.00  0.00    -0.000 C 
BRANCH  20  21
ATOM     21  C   UNL     1     -23.460 -16.305 -17.638  1.00  0.00    -0.000 C 
BRANCH  21  22
ATOM     22  C   UNL     1     -22.833 -16.530 -19.025  1.00  0.00    -0.000 C 
BRANCH  22  23
ATOM     23  C   UNL     1     -22.769 -15.285 -19.929  1.00  0.00    -0.000 C 
BRANCH  23  24
ATOM     24  C   UNL     1     -21.811 -15.457 -21.121  1.00  0.00    -0.000 C 
BRANCH  24  25
ATOM     25  C   UNL     1     -20.743 -14.354 -21.181  1.00  0.00    -0.003 C 
ATOM     26  C   UNL     1     -21.317 -12.960 -20.926  1.00  0.00     0.004 C 
ENDBRANCH  24  25
ENDBRANCH  23  24
ENDBRANCH  22  23
ENDBRANCH  21  22
ENDBRANCH  20  21
ENDBRANCH  19  20
ENDBRANCH  18  19
ENDBRANCH  17  18
ENDBRANCH  16  17
ENDBRANCH  15  16
ENDBRANCH   1  15
TORSDOF 22
ENDMDL
MODEL 7
REMARK VINA RESULT:    -4.074      2.521      4.720
REMARK INTER + INTRA:         -13.050
REMARK INTER:                  -8.917
REMARK INTRA:                  -4.133
REMARK UNBOUND:                -3.736
REMARK SMILES CCCCCCCCCCCCCCCCCCCCCCCC(=O)[O-]
REMARK SMILES IDX 13 1 14 2 15 3 16 4 17 5 18 6 19 7 20 8 21 9 22 10 23 11
REMARK SMILES IDX 24 12 25 13 26 14 12 15 11 16 10 17 9 18 8 19 7 20 6 21 5 22
REMARK SMILES IDX 4 23 3 24 2 25 1 26
REMARK H PARENT
REMARK Flexibility Score: inf
ROOT
ATOM      1  C   UNL     1     -21.208 -13.862 -16.997  1.00  0.00     0.000 C 
ENDROOT
BRANCH   1   2
ATOM      2  C   UNL     1     -22.528 -13.164 -17.368  1.00  0.00     0.000 C 
BRANCH   2   3
ATOM      3  C   UNL     1     -23.056 -12.266 -16.236  1.00  0.00     0.000 C 
BRANCH   3   4
ATOM      4  C   UNL     1     -23.011 -12.956 -14.860  1.00  0.00     0.000 C 
BRANCH   4   5
ATOM      5  C   UNL     1     -24.386 -13.314 -14.263  1.00  0.00     0.000 C 
BRANCH   5   6
ATOM      6  C   UNL     1     -24.795 -14.792 -14.395  1.00  0.00     0.000 C 
BRANCH   6   7
ATOM      7  C   UNL     1     -23.607 -15.712 -14.722  1.00  0.00     0.000 C 
BRANCH   7   8
ATOM      8  C   UNL     1     -23.980 -16.861 -15.678  1.00  0.00     0.000 C 
BRANCH   8   9
ATOM      9  C   UNL     1     -22.960 -17.145 -16.796  1.00  0.00     0.000 C 
BRANCH   9  10
ATOM     10  C   UNL     1     -23.424 -16.646 -18.177  1.00  0.00     0.006 C 
BRANCH  10  11
ATOM     11  C   UNL     1     -24.150 -17.737 -18.973  1.00  0.00     0.053 C 
BRANCH  11  12
ATOM     12  C   UNL     1     -23.404 -18.110 -20.217  1.00  0.00     0.041 C 
ATOM     13  O   UNL     1     -23.760 -17.650 -21.334  1.00  0.00    -0.550 OA
ATOM     14  O   UNL     1     -22.332 -18.991 -20.147  1.00  0.00    -0.550 OA
ENDBRANCH  11  12
ENDBRANCH  10  11
ENDBRANCH   9  10
ENDBRANCH   8   9
ENDBRANCH   7   8
ENDBRANCH   6   7
ENDBRANCH   5   6
ENDBRANCH   4   5
ENDBRANCH   3   4
ENDBRANCH   2   3
ENDBRANCH   1   2
BRANCH   1  15
ATOM     15  C   UNL     1     -20.027 -13.353 -17.843  1.00  0.00     0.000 C 
BRANCH  15  16
ATOM     16  C   UNL     1     -20.438 -12.261 -18.843  1.00  0.00     0.000 C 
BRANCH  16  17
ATOM     17  C   UNL     1     -19.759 -12.424 -20.215  1.00  0.00     0.000 C 
BRANCH  17  18
ATOM     18  C   UNL     1     -20.750 -12.865 -21.313  1.00  0.00    -0.000 C 
BRANCH  18  19
ATOM     19  C   UNL     1     -20.555 -14.318 -21.789  1.00  0.00    -0.000 C 
BRANCH  19  20
ATOM     20  C   UNL     1     -21.002 -15.401 -20.792  1.00  0.00    -0.000 C 
BRANCH  20  21
ATOM     21  C   UNL     1     -19.874 -16.381 -20.429  1.00  0.00    -0.000 C 
BRANCH  21  22
ATOM     22  C   UNL     1     -19.884 -16.781 -18.943  1.00  0.00    -0.000 C 
BRANCH  22  23
ATOM     23  C   UNL     1     -18.522 -16.701 -18.229  1.00  0.00    -0.000 C 
BRANCH  23  24
ATOM     24  C   UNL     1     -17.333 -16.934 -19.178  1.00  0.00    -0.000 C 
BRANCH  24  25
ATOM     25  C   UNL     1     -16.323 -15.777 -19.149  1.00  0.00    -0.003 C 
ATOM     26  C   UNL     1     -16.750 -14.596 -20.023  1.00  0.00     0.004 C 
ENDBRANCH  24  25
ENDBRANCH  23  24
ENDBRANCH  22  23
ENDBRANCH  21  22
ENDBRANCH  20  21
ENDBRANCH  19  20
ENDBRANCH  18  19
ENDBRANCH  17  18
ENDBRANCH  16  17
ENDBRANCH  15  16
ENDBRANCH   1  15
TORSDOF 22
ENDMDL
MODEL 8
REMARK VINA RESULT:    -4.069      1.584      4.855
REMARK INTER + INTRA:         -13.039
REMARK INTER:                  -8.875
REMARK INTRA:                  -4.164
REMARK UNBOUND:                -3.736
REMARK SMILES CCCCCCCCCCCCCCCCCCCCCCCC(=O)[O-]
REMARK SMILES IDX 13 1 14 2 15 3 16 4 17 5 18 6 19 7 20 8 21 9 22 10 23 11
REMARK SMILES IDX 24 12 25 13 26 14 12 15 11 16 10 17 9 18 8 19 7 20 6 21 5 22
REMARK SMILES IDX 4 23 3 24 2 25 1 26
REMARK H PARENT
REMARK Flexibility Score: inf
ROOT
ATOM      1  C   UNL     1     -22.503 -12.789 -17.157  1.00  0.00     0.000 C 
ENDROOT
BRANCH   1   2
ATOM      2  C   UNL     1     -22.351 -12.019 -18.481  1.00  0.00     0.000 C 
BRANCH   2   3
ATOM      3  C   UNL     1     -22.501 -12.931 -19.711  1.00  0.00     0.000 C 
BRANCH   3   4
ATOM      4  C   UNL     1     -21.295 -12.846 -20.664  1.00  0.00     0.000 C 
BRANCH   4   5
ATOM      5  C   UNL     1     -20.706 -14.204 -21.095  1.00  0.00     0.000 C 
BRANCH   5   6
ATOM      6  C   UNL     1     -19.504 -14.691 -20.267  1.00  0.00     0.000 C 
BRANCH   6   7
ATOM      7  C   UNL     1     -19.051 -13.666 -19.214  1.00  0.00     0.000 C 
BRANCH   7   8
ATOM      8  C   UNL     1     -19.076 -14.226 -17.779  1.00  0.00     0.000 C 
BRANCH   8   9
ATOM      9  C   UNL     1     -20.126 -15.322 -17.518  1.00  0.00     0.000 C 
BRANCH   9  10
ATOM     10  C   UNL     1     -19.504 -16.662 -17.088  1.00  0.00     0.006 C 
BRANCH  10  11
ATOM     11  C   UNL     1     -19.662 -17.747 -18.160  1.00  0.00     0.053 C 
BRANCH  11  12
ATOM     12  C   UNL     1     -18.370 -18.029 -18.864  1.00  0.00     0.041 C 
ATOM     13  O   UNL     1     -17.399 -17.235 -18.754  1.00  0.00    -0.550 OA
ATOM     14  O   UNL     1     -18.248 -19.157 -19.667  1.00  0.00    -0.550 OA
ENDBRANCH  11  12
ENDBRANCH  10  11
ENDBRANCH   9  10
ENDBRANCH   8   9
ENDBRANCH   7   8
ENDBRANCH   6   7
ENDBRANCH   5   6
ENDBRANCH   4   5
ENDBRANCH   3   4
ENDBRANCH   2   3
ENDBRANCH   1   2
BRANCH   1  15
ATOM     15  C   UNL     1     -23.367 -12.024 -16.138  1.00  0.00     0.000 C 
BRANCH  15  16
ATOM     16  C   UNL     1     -23.316 -12.642 -14.732  1.00  0.00     0.000 C 
BRANCH  16  17
ATOM     17  C   UNL     1     -23.194 -14.177 -14.762  1.00  0.00     0.000 C 
BRANCH  17  18
ATOM     18  C   UNL     1     -24.507 -14.880 -14.358  1.00  0.00    -0.000 C 
BRANCH  18  19
ATOM     19  C   UNL     1     -24.559 -16.375 -14.729  1.00  0.00    -0.000 C 
BRANCH  19  20
ATOM     20  C   UNL     1     -23.191 -17.050 -14.925  1.00  0.00    -0.000 C 
BRANCH  20  21
ATOM     21  C   UNL     1     -23.057 -17.741 -16.293  1.00  0.00    -0.000 C 
BRANCH  21  22
ATOM     22  C   UNL     1     -23.399 -16.809 -17.470  1.00  0.00    -0.000 C 
BRANCH  22  23
ATOM     23  C   UNL     1     -23.385 -17.471 -18.859  1.00  0.00    -0.000 C 
BRANCH  23  24
ATOM     24  C   UNL     1     -23.674 -16.479 -20.000  1.00  0.00    -0.000 C 
BRANCH  24  25
ATOM     25  C   UNL     1     -23.006 -16.891 -21.321  1.00  0.00    -0.003 C 
ATOM     26  C   UNL     1     -21.864 -17.888 -21.121  1.00  0.00     0.004 C 
ENDBRANCH  24  25
ENDBRANCH  23  24
ENDBRANCH  22  23
ENDBRANCH  21  22
ENDBRANCH  20  21
ENDBRANCH  19  20
ENDBRANCH  18  19
ENDBRANCH  17  18
ENDBRANCH  16  17
ENDBRANCH  15  16
ENDBRANCH   1  15
TORSDOF 22
ENDMDL
MODEL 9
REMARK VINA RESULT:    -4.058      3.020      3.950
REMARK INTER + INTRA:         -13.013
REMARK INTER:                  -9.500
REMARK INTRA:                  -3.512
REMARK UNBOUND:                -3.736
REMARK SMILES CCCCCCCCCCCCCCCCCCCCCCCC(=O)[O-]
REMARK SMILES IDX 13 1 14 2 15 3 16 4 17 5 18 6 19 7 20 8 21 9 22 10 23 11
REMARK SMILES IDX 24 12 25 13 26 14 12 15 11 16 10 17 9 18 8 19 7 20 6 21 5 22
REMARK SMILES IDX 4 23 3 24 2 25 1 26
REMARK H PARENT
REMARK Flexibility Score: inf
ROOT
ATOM      1  C   UNL     1     -24.394 -12.826 -14.131  1.00  0.00     0.000 C 
ENDROOT
BRANCH   1   2
ATOM      2  C   UNL     1     -24.053 -14.320 -13.999  1.00  0.00     0.000 C 
BRANCH   2   3
ATOM      3  C   UNL     1     -25.308 -15.209 -13.977  1.00  0.00     0.000 C 
BRANCH   3   4
ATOM      4  C   UNL     1     -25.115 -16.528 -14.747  1.00  0.00     0.000 C 
BRANCH   4   5
ATOM      5  C   UNL     1     -23.669 -16.819 -15.195  1.00  0.00     0.000 C 
BRANCH   5   6
ATOM      6  C   UNL     1     -23.438 -16.809 -16.716  1.00  0.00     0.000 C 
BRANCH   6   7
ATOM      7  C   UNL     1     -22.835 -18.124 -17.236  1.00  0.00     0.000 C 
BRANCH   7   8
ATOM      8  C   UNL     1     -22.190 -18.972 -16.123  1.00  0.00     0.000 C 
BRANCH   8   9
ATOM      9  C   UNL     1     -20.706 -18.671 -15.843  1.00  0.00     0.000 C 
BRANCH   9  10
ATOM     10  C   UNL     1     -20.053 -19.694 -14.896  1.00  0.00     0.006 C 
BRANCH  10  11
ATOM     11  C   UNL     1     -20.757 -19.756 -13.535  1.00  0.00     0.053 C 
BRANCH  11  12
ATOM     12  C   UNL     1     -21.011 -21.168 -13.102  1.00  0.00     0.041 C 
ATOM     13  O   UNL     1     -21.081 -22.091 -13.955  1.00  0.00    -0.550 OA
ATOM     14  O   UNL     1     -21.199 -21.459 -11.756  1.00  0.00    -0.550 OA
ENDBRANCH  11  12
ENDBRANCH  10  11
ENDBRANCH   9  10
ENDBRANCH   8   9
ENDBRANCH   7   8
ENDBRANCH   6   7
ENDBRANCH   5   6
ENDBRANCH   4   5
ENDBRANCH   3   4
ENDBRANCH   2   3
ENDBRANCH   1   2
BRANCH   1  15
ATOM     15  C   UNL     1     -23.742 -12.191 -15.373  1.00  0.00     0.000 C 
BRANCH  15  16
ATOM     16  C   UNL     1     -22.635 -13.069 -15.978  1.00  0.00     0.000 C 
BRANCH  16  17
ATOM     17  C   UNL     1     -22.874 -13.386 -17.466  1.00  0.00     0.000 C 
BRANCH  17  18
ATOM     18  C   UNL     1     -22.486 -12.210 -18.388  1.00  0.00    -0.000 C 
BRANCH  18  19
ATOM     19  C   UNL     1     -22.224 -12.620 -19.851  1.00  0.00    -0.000 C 
BRANCH  19  20
ATOM     20  C   UNL     1     -22.932 -13.906 -20.309  1.00  0.00    -0.000 C 
BRANCH  20  21
ATOM     21  C   UNL     1     -21.980 -14.898 -20.998  1.00  0.00    -0.000 C 
BRANCH  21  22
ATOM     22  C   UNL     1     -21.635 -16.109 -20.112  1.00  0.00    -0.000 C 
BRANCH  22  23
ATOM     23  C   UNL     1     -20.211 -16.113 -19.527  1.00  0.00    -0.000 C 
BRANCH  23  24
ATOM     24  C   UNL     1     -20.166 -15.675 -18.053  1.00  0.00    -0.000 C 
BRANCH  24  25
ATOM     25  C   UNL     1     -18.887 -14.896 -17.710  1.00  0.00    -0.003 C 
ATOM     26  C   UNL     1     -19.020 -13.395 -17.970  1.00  0.00     0.004 C 
ENDBRANCH  24  25
ENDBRANCH  23  24
ENDBRANCH  22  23
ENDBRANCH  21  22
ENDBRANCH  20  21
ENDBRANCH  19  20
ENDBRANCH  18  19
ENDBRANCH  17  18
ENDBRANCH  16  17
ENDBRANCH  15  16
ENDBRANCH   1  15
TORSDOF 22
ENDMDL
