MODEL 1
REMARK VINA RESULT:    -3.982      0.000      0.000
REMARK INTER + INTRA:         -13.259
REMARK INTER:                  -9.103
REMARK INTRA:                  -4.156
REMARK UNBOUND:                -4.156
REMARK SMILES CCCCCCCCCCCCCCCCCCCCCCCC(=O)[O-]
REMARK SMILES IDX 13 1 14 2 15 3 16 4 17 5 18 6 19 7 20 8 21 9 22 10 23 11
REMARK SMILES IDX 24 12 25 13 26 14 12 15 11 16 10 17 9 18 8 19 7 20 6 21 5 22
REMARK SMILES IDX 4 23 3 24 2 25 1 26
REMARK H PARENT
REMARK Flexibility Score: inf
ROOT
ATOM      1  C   UNL     1      -8.776  17.110  -1.924  1.00  0.00     0.000 C 
ENDROOT
BRANCH   1   2
ATOM      2  C   UNL     1      -8.487  16.046  -2.994  1.00  0.00     0.000 C 
BRANCH   2   3
ATOM      3  C   UNL     1      -7.211  15.262  -2.665  1.00  0.00     0.000 C 
BRANCH   3   4
ATOM      4  C   UNL     1      -7.195  13.914  -3.397  1.00  0.00     0.000 C 
BRANCH   4   5
ATOM      5  C   UNL     1      -8.464  13.106  -3.100  1.00  0.00     0.000 C 
BRANCH   5   6
ATOM      6  C   UNL     1      -9.162  12.684  -4.403  1.00  0.00     0.000 C 
BRANCH   6   7
ATOM      7  C   UNL     1     -10.449  13.480  -4.683  1.00  0.00     0.000 C 
BRANCH   7   8
ATOM      8  C   UNL     1     -11.083  13.226  -6.063  1.00  0.00     0.000 C 
BRANCH   8   9
ATOM      9  C   UNL     1     -10.546  14.169  -7.151  1.00  0.00     0.000 C 
BRANCH   9  10
ATOM     10  C   UNL     1      -9.464  13.479  -7.991  1.00  0.00     0.006 C 
BRANCH  10  11
ATOM     11  C   UNL     1      -8.317  14.445  -8.307  1.00  0.00     0.053 C 
BRANCH  11  12
ATOM     12  C   UNL     1      -7.338  14.496  -7.176  1.00  0.00     0.041 C 
ATOM     13  O   UNL     1      -6.634  13.488  -6.900  1.00  0.00    -0.550 OA
ATOM     14  O   UNL     1      -7.201  15.657  -6.426  1.00  0.00    -0.550 OA
ENDBRANCH  11  12
ENDBRANCH  10  11
ENDBRANCH   9  10
ENDBRANCH   8   9
ENDBRANCH   7   8
ENDBRANCH   6   7
ENDBRANCH   5   6
ENDBRANCH   4   5
ENDBRANCH   3   4
ENDBRANCH   2   3
ENDBRANCH   1   2
BRANCH   1  15
ATOM     15  C   UNL     1      -9.962  16.738  -1.015  1.00  0.00     0.000 C 
BRANCH  15  16
ATOM     16  C   UNL     1     -10.765  15.502  -1.463  1.00  0.00     0.000 C 
BRANCH  16  17
ATOM     17  C   UNL     1     -10.659  14.330  -0.472  1.00  0.00     0.000 C 
BRANCH  17  18
ATOM     18  C   UNL     1      -9.707  14.623   0.698  1.00  0.00    -0.000 C 
BRANCH  18  19
ATOM     19  C   UNL     1      -8.366  13.878   0.580  1.00  0.00    -0.000 C 
BRANCH  19  20
ATOM     20  C   UNL     1      -7.300  14.429   1.544  1.00  0.00    -0.000 C 
BRANCH  20  21
ATOM     21  C   UNL     1      -6.389  15.476   0.879  1.00  0.00    -0.000 C 
BRANCH  21  22
ATOM     22  C   UNL     1      -6.795  16.920   1.244  1.00  0.00    -0.000 C 
BRANCH  22  23
ATOM     23  C   UNL     1      -6.549  17.280   2.723  1.00  0.00    -0.000 C 
BRANCH  23  24
ATOM     24  C   UNL     1      -7.816  17.637   3.519  1.00  0.00    -0.000 C 
BRANCH  24  25
ATOM     25  C   UNL     1      -9.082  17.646   2.650  1.00  0.00    -0.003 C 
ATOM     26  C   UNL     1     -10.278  17.095   3.420  1.00  0.00     0.004 C 
ENDBRANCH  24  25
ENDBRANCH  23  24
ENDBRANCH  22  23
ENDBRANCH  21  22
ENDBRANCH  20  21
ENDBRANCH  19  20
ENDBRANCH  18  19
ENDBRANCH  17  18
ENDBRANCH  16  17
ENDBRANCH  15  16
ENDBRANCH   1  15
TORSDOF 22
ENDMDL
MODEL 2
REMARK VINA RESULT:    -3.968      1.201      2.609
REMARK INTER + INTRA:         -13.228
REMARK INTER:                  -8.924
REMARK INTRA:                  -4.304
REMARK UNBOUND:                -4.156
REMARK SMILES CCCCCCCCCCCCCCCCCCCCCCCC(=O)[O-]
REMARK SMILES IDX 13 1 14 2 15 3 16 4 17 5 18 6 19 7 20 8 21 9 22 10 23 11
REMARK SMILES IDX 24 12 25 13 26 14 12 15 11 16 10 17 9 18 8 19 7 20 6 21 5 22
REMARK SMILES IDX 4 23 3 24 2 25 1 26
REMARK H PARENT
REMARK Flexibility Score: inf
ROOT
ATOM      1  C   UNL     1      -8.783  17.198  -2.246  1.00  0.00     0.000 C 
ENDROOT
BRANCH   1   2
ATOM      2  C   UNL     1      -9.885  17.015  -1.191  1.00  0.00     0.000 C 
BRANCH   2   3
ATOM      3  C   UNL     1     -10.700  15.743  -1.455  1.00  0.00     0.000 C 
BRANCH   3   4
ATOM      4  C   UNL     1     -10.694  14.827  -0.225  1.00  0.00     0.000 C 
BRANCH   4   5
ATOM      5  C   UNL     1     -10.887  13.360  -0.624  1.00  0.00     0.000 C 
BRANCH   5   6
ATOM      6  C   UNL     1     -11.139  13.232  -2.135  1.00  0.00     0.000 C 
BRANCH   6   7
ATOM      7  C   UNL     1     -10.546  11.946  -2.738  1.00  0.00     0.000 C 
BRANCH   7   8
ATOM      8  C   UNL     1     -10.136  12.052  -4.218  1.00  0.00     0.000 C 
BRANCH   8   9
ATOM      9  C   UNL     1     -10.455  13.424  -4.831  1.00  0.00     0.000 C 
BRANCH   9  10
ATOM     10  C   UNL     1      -9.967  13.505  -6.282  1.00  0.00     0.006 C 
BRANCH  10  11
ATOM     11  C   UNL     1      -9.254  14.835  -6.547  1.00  0.00     0.053 C 
BRANCH  11  12
ATOM     12  C   UNL     1      -7.834  14.604  -6.962  1.00  0.00     0.041 C 
ATOM     13  O   UNL     1      -7.568  13.789  -7.886  1.00  0.00    -0.550 OA
ATOM     14  O   UNL     1      -6.804  15.289  -6.330  1.00  0.00    -0.550 OA
ENDBRANCH  11  12
ENDBRANCH  10  11
ENDBRANCH   9  10
ENDBRANCH   8   9
ENDBRANCH   7   8
ENDBRANCH   6   7
ENDBRANCH   5   6
ENDBRANCH   4   5
ENDBRANCH   3   4
ENDBRANCH   2   3
ENDBRANCH   1   2
BRANCH   1  15
ATOM     15  C   UNL     1      -8.557  15.937  -3.101  1.00  0.00     0.000 C 
BRANCH  15  16
ATOM     16  C   UNL     1      -7.217  15.218  -2.861  1.00  0.00     0.000 C 
BRANCH  16  17
ATOM     17  C   UNL     1      -7.395  13.790  -2.317  1.00  0.00     0.000 C 
BRANCH  17  18
ATOM     18  C   UNL     1      -7.193  13.702  -0.796  1.00  0.00    -0.000 C 
BRANCH  18  19
ATOM     19  C   UNL     1      -6.566  14.975  -0.201  1.00  0.00    -0.000 C 
BRANCH  19  20
ATOM     20  C   UNL     1      -7.199  15.366   1.147  1.00  0.00    -0.000 C 
BRANCH  20  21
ATOM     21  C   UNL     1      -7.396  16.886   1.286  1.00  0.00    -0.000 C 
BRANCH  21  22
ATOM     22  C   UNL     1      -7.672  17.309   2.744  1.00  0.00    -0.000 C 
BRANCH  22  23
ATOM     23  C   UNL     1      -9.057  16.878   3.266  1.00  0.00    -0.000 C 
BRANCH  23  24
ATOM     24  C   UNL     1     -10.249  17.432   2.468  1.00  0.00    -0.000 C 
BRANCH  24  25
ATOM     25  C   UNL     1     -11.452  17.776   3.359  1.00  0.00    -0.003 C 
ATOM     26  C   UNL     1     -11.758  19.270   3.314  1.00  0.00     0.004 C 
ENDBRANCH  24  25
ENDBRANCH  23  24
ENDBRANCH  22  23
ENDBRANCH  21  22
ENDBRANCH  20  21
ENDBRANCH  19  20
ENDBRANCH  18  19
ENDBRANCH  17  18
ENDBRANCH  16  17
ENDBRANCH  15  16
ENDBRANCH   1  15
TORSDOF 22
ENDMDL
MODEL 3
REMARK VINA RESULT:    -3.934      3.255      7.787
REMARK INTER + INTRA:         -13.150
REMARK INTER:                  -8.336
REMARK INTRA:                  -4.814
REMARK UNBOUND:                -4.156
REMARK SMILES CCCCCCCCCCCCCCCCCCCCCCCC(=O)[O-]
REMARK SMILES IDX 13 1 14 2 15 3 16 4 17 5 18 6 19 7 20 8 21 9 22 10 23 11
REMARK SMILES IDX 24 12 25 13 26 14 12 15 11 16 10 17 9 18 8 19 7 20 6 21 5 22
REMARK SMILES IDX 4 23 3 24 2 25 1 26
REMARK H PARENT
REMARK Flexibility Score: inf
ROOT
ATOM      1  C   UNL     1      -9.970  16.629  -1.058  1.00  0.00     0.000 C 
ENDROOT
BRANCH   1   2
ATOM      2  C   UNL     1     -10.893  15.546  -1.638  1.00  0.00     0.000 C 
BRANCH   2   3
ATOM      3  C   UNL     1     -11.502  14.684  -0.525  1.00  0.00     0.000 C 
BRANCH   3   4
ATOM      4  C   UNL     1     -10.462  14.383   0.562  1.00  0.00     0.000 C 
BRANCH   4   5
ATOM      5  C   UNL     1      -9.890  12.969   0.406  1.00  0.00     0.000 C 
BRANCH   5   6
ATOM      6  C   UNL     1      -8.410  12.929   0.817  1.00  0.00     0.000 C 
BRANCH   6   7
ATOM      7  C   UNL     1      -7.793  14.329   0.987  1.00  0.00     0.000 C 
BRANCH   7   8
ATOM      8  C   UNL     1      -6.259  14.383   0.868  1.00  0.00     0.000 C 
BRANCH   8   9
ATOM      9  C   UNL     1      -5.703  15.814   0.941  1.00  0.00     0.000 C 
BRANCH   9  10
ATOM     10  C   UNL     1      -6.831  16.832   1.144  1.00  0.00     0.006 C 
BRANCH  10  11
ATOM     11  C   UNL     1      -6.492  17.808   2.276  1.00  0.00     0.053 C 
BRANCH  11  12
ATOM     12  C   UNL     1      -7.156  17.394   3.552  1.00  0.00     0.041 C 
ATOM     13  O   UNL     1      -8.329  17.775   3.809  1.00  0.00    -0.550 OA
ATOM     14  O   UNL     1      -6.480  16.587   4.459  1.00  0.00    -0.550 OA
ENDBRANCH  11  12
ENDBRANCH  10  11
ENDBRANCH   9  10
ENDBRANCH   8   9
ENDBRANCH   7   8
ENDBRANCH   6   7
ENDBRANCH   5   6
ENDBRANCH   4   5
ENDBRANCH   3   4
ENDBRANCH   2   3
ENDBRANCH   1   2
BRANCH   1  15
ATOM     15  C   UNL     1      -8.796  16.978  -1.992  1.00  0.00     0.000 C 
BRANCH  15  16
ATOM     16  C   UNL     1      -8.399  15.868  -2.983  1.00  0.00     0.000 C 
BRANCH  16  17
ATOM     17  C   UNL     1      -7.124  15.118  -2.560  1.00  0.00     0.000 C 
BRANCH  17  18
ATOM     18  C   UNL     1      -7.257  13.593  -2.695  1.00  0.00    -0.000 C 
BRANCH  18  19
ATOM     19  C   UNL     1      -8.678  13.148  -3.088  1.00  0.00    -0.000 C 
BRANCH  19  20
ATOM     20  C   UNL     1      -8.672  11.945  -4.048  1.00  0.00    -0.000 C 
BRANCH  20  21
ATOM     21  C   UNL     1      -9.360  12.258  -5.389  1.00  0.00    -0.000 C 
BRANCH  21  22
ATOM     22  C   UNL     1     -10.035  13.646  -5.389  1.00  0.00    -0.000 C 
BRANCH  22  23
ATOM     23  C   UNL     1      -9.693  14.504  -6.622  1.00  0.00    -0.000 C 
BRANCH  23  24
ATOM     24  C   UNL     1      -8.275  14.294  -7.182  1.00  0.00    -0.000 C 
BRANCH  24  25
ATOM     25  C   UNL     1      -7.207  15.074  -6.401  1.00  0.00    -0.003 C 
ATOM     26  C   UNL     1      -6.036  14.172  -6.025  1.00  0.00     0.004 C 
ENDBRANCH  24  25
ENDBRANCH  23  24
ENDBRANCH  22  23
ENDBRANCH  21  22
ENDBRANCH  20  21
ENDBRANCH  19  20
ENDBRANCH  18  19
ENDBRANCH  17  18
ENDBRANCH  16  17
ENDBRANCH  15  16
ENDBRANCH   1  15
TORSDOF 22
ENDMDL
MODEL 4
REMARK VINA RESULT:    -3.922      3.282      7.687
REMARK INTER + INTRA:         -13.122
REMARK INTER:                  -8.945
REMARK INTRA:                  -4.178
REMARK UNBOUND:                -4.156
REMARK SMILES CCCCCCCCCCCCCCCCCCCCCCCC(=O)[O-]
REMARK SMILES IDX 13 1 14 2 15 3 16 4 17 5 18 6 19 7 20 8 21 9 22 10 23 11
REMARK SMILES IDX 24 12 25 13 26 14 12 15 11 16 10 17 9 18 8 19 7 20 6 21 5 22
REMARK SMILES IDX 4 23 3 24 2 25 1 26
REMARK H PARENT
REMARK Flexibility Score: inf
ROOT
ATOM      1  C   UNL     1     -10.749  15.757  -1.495  1.00  0.00     0.000 C 
ENDROOT
BRANCH   1   2
ATOM      2  C   UNL     1      -9.764  16.874  -1.117  1.00  0.00     0.000 C 
BRANCH   2   3
ATOM      3  C   UNL     1      -8.746  17.117  -2.238  1.00  0.00     0.000 C 
BRANCH   3   4
ATOM      4  C   UNL     1      -8.362  15.798  -2.921  1.00  0.00     0.000 C 
BRANCH   4   5
ATOM      5  C   UNL     1      -7.032  15.260  -2.381  1.00  0.00     0.000 C 
BRANCH   5   6
ATOM      6  C   UNL     1      -7.237  13.920  -1.658  1.00  0.00     0.000 C 
BRANCH   6   7
ATOM      7  C   UNL     1      -6.741  13.938  -0.201  1.00  0.00     0.000 C 
BRANCH   7   8
ATOM      8  C   UNL     1      -7.215  15.142   0.633  1.00  0.00     0.000 C 
BRANCH   8   9
ATOM      9  C   UNL     1      -6.078  16.114   0.981  1.00  0.00     0.000 C 
BRANCH   9  10
ATOM     10  C   UNL     1      -6.426  16.947   2.221  1.00  0.00     0.006 C 
BRANCH  10  11
ATOM     11  C   UNL     1      -7.935  16.926   2.488  1.00  0.00     0.053 C 
BRANCH  11  12
ATOM     12  C   UNL     1      -8.344  18.097   3.326  1.00  0.00     0.041 C 
ATOM     13  O   UNL     1      -9.546  18.477   3.342  1.00  0.00    -0.550 OA
ATOM     14  O   UNL     1      -7.399  18.770   4.090  1.00  0.00    -0.550 OA
ENDBRANCH  11  12
ENDBRANCH  10  11
ENDBRANCH   9  10
ENDBRANCH   8   9
ENDBRANCH   7   8
ENDBRANCH   6   7
ENDBRANCH   5   6
ENDBRANCH   4   5
ENDBRANCH   3   4
ENDBRANCH   2   3
ENDBRANCH   1   2
BRANCH   1  15
ATOM     15  C   UNL     1     -10.851  14.660  -0.419  1.00  0.00     0.000 C 
BRANCH  15  16
ATOM     16  C   UNL     1     -10.970  13.223  -0.961  1.00  0.00     0.000 C 
BRANCH  16  17
ATOM     17  C   UNL     1     -11.063  13.171  -2.496  1.00  0.00     0.000 C 
BRANCH  17  18
ATOM     18  C   UNL     1     -10.055  12.194  -3.121  1.00  0.00    -0.000 C 
BRANCH  18  19
ATOM     19  C   UNL     1      -9.457  12.713  -4.441  1.00  0.00    -0.000 C 
BRANCH  19  20
ATOM     20  C   UNL     1      -8.508  11.694  -5.097  1.00  0.00    -0.000 C 
BRANCH  20  21
ATOM     21  C   UNL     1      -7.027  12.078  -4.932  1.00  0.00    -0.000 C 
BRANCH  21  22
ATOM     22  C   UNL     1      -6.509  12.928  -6.111  1.00  0.00    -0.000 C 
BRANCH  22  23
ATOM     23  C   UNL     1      -6.408  14.434  -5.796  1.00  0.00    -0.000 C 
BRANCH  23  24
ATOM     24  C   UNL     1      -7.327  15.333  -6.641  1.00  0.00    -0.000 C 
BRANCH  24  25
ATOM     25  C   UNL     1      -7.955  14.591  -7.830  1.00  0.00    -0.003 C 
ATOM     26  C   UNL     1      -9.476  14.562  -7.715  1.00  0.00     0.004 C 
ENDBRANCH  24  25
ENDBRANCH  23  24
ENDBRANCH  22  23
ENDBRANCH  21  22
ENDBRANCH  20  21
ENDBRANCH  19  20
ENDBRANCH  18  19
ENDBRANCH  17  18
ENDBRANCH  16  17
ENDBRANCH  15  16
ENDBRANCH   1  15
TORSDOF 22
ENDMDL
MODEL 5
REMARK VINA RESULT:    -3.919      3.376      8.184
REMARK INTER + INTRA:         -13.116
REMARK INTER:                  -9.483
REMARK INTRA:                  -3.633
REMARK UNBOUND:                -4.156
REMARK SMILES CCCCCCCCCCCCCCCCCCCCCCCC(=O)[O-]
REMARK SMILES IDX 13 1 14 2 15 3 16 4 17 5 18 6 19 7 20 8 21 9 22 10 23 11
REMARK SMILES IDX 24 12 25 13 26 14 12 15 11 16 10 17 9 18 8 19 7 20 6 21 5 22
REMARK SMILES IDX 4 23 3 24 2 25 1 26
REMARK H PARENT
REMARK Flexibility Score: inf
ROOT
ATOM      1  C   UNL     1      -8.709  15.811  -3.334  1.00  0.00     0.000 C 
ENDROOT
BRANCH   1   2
ATOM      2  C   UNL     1      -7.352  15.091  -3.328  1.00  0.00     0.000 C 
BRANCH   2   3
ATOM      3  C   UNL     1      -7.208  14.190  -2.096  1.00  0.00     0.000 C 
BRANCH   3   4
ATOM      4  C   UNL     1      -6.172  14.763  -1.120  1.00  0.00     0.000 C 
BRANCH   4   5
ATOM      5  C   UNL     1      -6.812  15.104   0.231  1.00  0.00     0.000 C 
BRANCH   5   6
ATOM      6  C   UNL     1      -5.869  15.971   1.079  1.00  0.00     0.000 C 
BRANCH   6   7
ATOM      7  C   UNL     1      -6.542  17.247   1.615  1.00  0.00     0.000 C 
BRANCH   7   8
ATOM      8  C   UNL     1      -6.887  17.219   3.115  1.00  0.00     0.000 C 
BRANCH   8   9
ATOM      9  C   UNL     1      -8.217  16.508   3.410  1.00  0.00     0.000 C 
BRANCH   9  10
ATOM     10  C   UNL     1      -9.338  17.043   2.510  1.00  0.00     0.006 C 
BRANCH  10  11
ATOM     11  C   UNL     1      -9.882  18.372   3.044  1.00  0.00     0.053 C 
BRANCH  11  12
ATOM     12  C   UNL     1     -11.357  18.283   3.290  1.00  0.00     0.041 C 
ATOM     13  O   UNL     1     -12.054  19.331   3.349  1.00  0.00    -0.550 OA
ATOM     14  O   UNL     1     -11.961  17.043   3.453  1.00  0.00    -0.550 OA
ENDBRANCH  11  12
ENDBRANCH  10  11
ENDBRANCH   9  10
ENDBRANCH   8   9
ENDBRANCH   7   8
ENDBRANCH   6   7
ENDBRANCH   5   6
ENDBRANCH   4   5
ENDBRANCH   3   4
ENDBRANCH   2   3
ENDBRANCH   1   2
BRANCH   1  15
ATOM     15  C   UNL     1      -8.732  17.054  -2.425  1.00  0.00     0.000 C 
BRANCH  15  16
ATOM     16  C   UNL     1      -9.624  16.932  -1.175  1.00  0.00     0.000 C 
BRANCH  16  17
ATOM     17  C   UNL     1     -10.732  15.877  -1.334  1.00  0.00     0.000 C 
BRANCH  17  18
ATOM     18  C   UNL     1     -10.524  14.653  -0.429  1.00  0.00    -0.000 C 
BRANCH  18  19
ATOM     19  C   UNL     1     -10.659  13.319  -1.186  1.00  0.00    -0.000 C 
BRANCH  19  20
ATOM     20  C   UNL     1     -11.335  13.488  -2.558  1.00  0.00    -0.000 C 
BRANCH  20  21
ATOM     21  C   UNL     1     -10.615  12.705  -3.670  1.00  0.00    -0.000 C 
BRANCH  21  22
ATOM     22  C   UNL     1     -10.946  13.248  -5.076  1.00  0.00    -0.000 C 
BRANCH  22  23
ATOM     23  C   UNL     1      -9.716  13.386  -5.996  1.00  0.00    -0.000 C 
BRANCH  23  24
ATOM     24  C   UNL     1      -9.925  14.289  -7.223  1.00  0.00    -0.000 C 
BRANCH  24  25
ATOM     25  C   UNL     1      -8.620  14.575  -7.980  1.00  0.00    -0.003 C 
ATOM     26  C   UNL     1      -7.503  14.965  -7.018  1.00  0.00     0.004 C 
ENDBRANCH  24  25
ENDBRANCH  23  24
ENDBRANCH  22  23
ENDBRANCH  21  22
ENDBRANCH  20  21
ENDBRANCH  19  20
ENDBRANCH  18  19
ENDBRANCH  17  18
ENDBRANCH  16  17
ENDBRANCH  15  16
ENDBRANCH   1  15
TORSDOF 22
ENDMDL
MODEL 6
REMARK VINA RESULT:    -3.903      1.272      2.191
REMARK INTER + INTRA:         -13.078
REMARK INTER:                  -9.042
REMARK INTRA:                  -4.036
REMARK UNBOUND:                -4.156
REMARK SMILES CCCCCCCCCCCCCCCCCCCCCCCC(=O)[O-]
REMARK SMILES IDX 13 1 14 2 15 3 16 4 17 5 18 6 19 7 20 8 21 9 22 10 23 11
REMARK SMILES IDX 24 12 25 13 26 14 12 15 11 16 10 17 9 18 8 19 7 20 6 21 5 22
REMARK SMILES IDX 4 23 3 24 2 25 1 26
REMARK H PARENT
REMARK Flexibility Score: inf
ROOT
ATOM      1  C   UNL     1      -8.767  16.309  -3.397  1.00  0.00     0.000 C 
ENDROOT
BRANCH   1   2
ATOM      2  C   UNL     1      -8.561  14.787  -3.351  1.00  0.00     0.000 C 
BRANCH   2   3
ATOM      3  C   UNL     1      -9.883  14.042  -3.572  1.00  0.00     0.000 C 
BRANCH   3   4
ATOM      4  C   UNL     1      -9.630  12.552  -3.836  1.00  0.00     0.000 C 
BRANCH   4   5
ATOM      5  C   UNL     1     -10.431  12.061  -5.048  1.00  0.00     0.000 C 
BRANCH   5   6
ATOM      6  C   UNL     1     -11.352  13.169  -5.582  1.00  0.00     0.000 C 
BRANCH   6   7
ATOM      7  C   UNL     1     -11.366  13.254  -7.119  1.00  0.00     0.000 C 
BRANCH   7   8
ATOM      8  C   UNL     1     -10.752  14.538  -7.705  1.00  0.00     0.000 C 
BRANCH   8   9
ATOM      9  C   UNL     1      -9.454  14.957  -6.998  1.00  0.00     0.000 C 
BRANCH   9  10
ATOM     10  C   UNL     1      -8.229  14.630  -7.860  1.00  0.00     0.006 C 
BRANCH  10  11
ATOM     11  C   UNL     1      -7.666  13.248  -7.510  1.00  0.00     0.053 C 
BRANCH  11  12
ATOM     12  C   UNL     1      -6.747  13.331  -6.331  1.00  0.00     0.041 C 
ATOM     13  O   UNL     1      -6.180  14.419  -6.044  1.00  0.00    -0.550 OA
ATOM     14  O   UNL     1      -6.517  12.207  -5.548  1.00  0.00    -0.550 OA
ENDBRANCH  11  12
ENDBRANCH  10  11
ENDBRANCH   9  10
ENDBRANCH   8   9
ENDBRANCH   7   8
ENDBRANCH   6   7
ENDBRANCH   5   6
ENDBRANCH   4   5
ENDBRANCH   3   4
ENDBRANCH   2   3
ENDBRANCH   1   2
BRANCH   1  15
ATOM     15  C   UNL     1      -8.727  16.962  -2.003  1.00  0.00     0.000 C 
BRANCH  15  16
ATOM     16  C   UNL     1      -9.964  16.701  -1.125  1.00  0.00     0.000 C 
BRANCH  16  17
ATOM     17  C   UNL     1      -9.674  16.859   0.378  1.00  0.00     0.000 C 
BRANCH  17  18
ATOM     18  C   UNL     1      -9.793  15.536   1.151  1.00  0.00    -0.000 C 
BRANCH  18  19
ATOM     19  C   UNL     1      -9.326  14.319   0.331  1.00  0.00    -0.000 C 
BRANCH  19  20
ATOM     20  C   UNL     1      -7.939  13.815   0.768  1.00  0.00    -0.000 C 
BRANCH  20  21
ATOM     21  C   UNL     1      -6.872  14.006  -0.324  1.00  0.00    -0.000 C 
BRANCH  21  22
ATOM     22  C   UNL     1      -6.015  15.268  -0.089  1.00  0.00    -0.000 C 
BRANCH  22  23
ATOM     23  C   UNL     1      -5.991  15.740   1.378  1.00  0.00    -0.000 C 
BRANCH  23  24
ATOM     24  C   UNL     1      -6.360  17.219   1.587  1.00  0.00    -0.000 C 
BRANCH  24  25
ATOM     25  C   UNL     1      -6.497  17.593   3.070  1.00  0.00    -0.003 C 
ATOM     26  C   UNL     1      -7.360  16.578   3.814  1.00  0.00     0.004 C 
ENDBRANCH  24  25
ENDBRANCH  23  24
ENDBRANCH  22  23
ENDBRANCH  21  22
ENDBRANCH  20  21
ENDBRANCH  19  20
ENDBRANCH  18  19
ENDBRANCH  17  18
ENDBRANCH  16  17
ENDBRANCH  15  16
ENDBRANCH   1  15
TORSDOF 22
ENDMDL
MODEL 7
REMARK VINA RESULT:    -3.890      1.270      2.953
REMARK INTER + INTRA:         -13.048
REMARK INTER:                  -8.532
REMARK INTRA:                  -4.516
REMARK UNBOUND:                -4.156
REMARK SMILES CCCCCCCCCCCCCCCCCCCCCCCC(=O)[O-]
REMARK SMILES IDX 13 1 14 2 15 3 16 4 17 5 18 6 19 7 20 8 21 9 22 10 23 11
REMARK SMILES IDX 24 12 25 13 26 14 12 15 11 16 10 17 9 18 8 19 7 20 6 21 5 22
REMARK SMILES IDX 4 23 3 24 2 25 1 26
REMARK H PARENT
REMARK Flexibility Score: inf
ROOT
ATOM      1  C   UNL     1      -8.387  15.941  -2.938  1.00  0.00     0.000 C 
ENDROOT
BRANCH   1   2
ATOM      2  C   UNL     1      -8.775  17.091  -1.996  1.00  0.00     0.000 C 
BRANCH   2   3
ATOM      3  C   UNL     1      -9.742  16.612  -0.907  1.00  0.00     0.000 C 
BRANCH   3   4
ATOM      4  C   UNL     1     -10.790  15.656  -1.491  1.00  0.00     0.000 C 
BRANCH   4   5
ATOM      5  C   UNL     1     -10.737  14.287  -0.802  1.00  0.00     0.000 C 
BRANCH   5   6
ATOM      6  C   UNL     1     -10.698  13.154  -1.839  1.00  0.00     0.000 C 
BRANCH   6   7
ATOM      7  C   UNL     1     -11.393  13.524  -3.162  1.00  0.00     0.000 C 
BRANCH   7   8
ATOM      8  C   UNL     1     -10.587  13.197  -4.433  1.00  0.00     0.000 C 
BRANCH   8   9
ATOM      9  C   UNL     1      -9.395  12.267  -4.162  1.00  0.00     0.000 C 
BRANCH   9  10
ATOM     10  C   UNL     1      -8.203  12.627  -5.057  1.00  0.00     0.006 C 
BRANCH  10  11
ATOM     11  C   UNL     1      -8.491  13.894  -5.870  1.00  0.00     0.053 C 
BRANCH  11  12
ATOM     12  C   UNL     1      -7.217  14.568  -6.275  1.00  0.00     0.041 C 
ATOM     13  O   UNL     1      -7.238  15.519  -7.102  1.00  0.00    -0.550 OA
ATOM     14  O   UNL     1      -6.007  14.148  -5.739  1.00  0.00    -0.550 OA
ENDBRANCH  11  12
ENDBRANCH  10  11
ENDBRANCH   9  10
ENDBRANCH   8   9
ENDBRANCH   7   8
ENDBRANCH   6   7
ENDBRANCH   5   6
ENDBRANCH   4   5
ENDBRANCH   3   4
ENDBRANCH   2   3
ENDBRANCH   1   2
BRANCH   1  15
ATOM     15  C   UNL     1      -7.048  15.281  -2.558  1.00  0.00     0.000 C 
BRANCH  15  16
ATOM     16  C   UNL     1      -7.172  13.967  -1.764  1.00  0.00     0.000 C 
BRANCH  16  17
ATOM     17  C   UNL     1      -6.826  14.136  -0.274  1.00  0.00     0.000 C 
BRANCH  17  18
ATOM     18  C   UNL     1      -6.123  15.469   0.027  1.00  0.00    -0.000 C 
BRANCH  18  19
ATOM     19  C   UNL     1      -6.058  15.784   1.533  1.00  0.00    -0.000 C 
BRANCH  19  20
ATOM     20  C   UNL     1      -6.450  17.238   1.847  1.00  0.00    -0.000 C 
BRANCH  20  21
ATOM     21  C   UNL     1      -6.857  17.434   3.318  1.00  0.00    -0.000 C 
BRANCH  21  22
ATOM     22  C   UNL     1      -8.078  18.366   3.467  1.00  0.00    -0.000 C 
BRANCH  22  23
ATOM     23  C   UNL     1      -9.353  17.837   2.781  1.00  0.00    -0.000 C 
BRANCH  23  24
ATOM     24  C   UNL     1     -10.059  16.691   3.525  1.00  0.00    -0.000 C 
BRANCH  24  25
ATOM     25  C   UNL     1     -10.353  15.486   2.618  1.00  0.00    -0.003 C 
ATOM     26  C   UNL     1      -9.225  14.462   2.685  1.00  0.00     0.004 C 
ENDBRANCH  24  25
ENDBRANCH  23  24
ENDBRANCH  22  23
ENDBRANCH  21  22
ENDBRANCH  20  21
ENDBRANCH  19  20
ENDBRANCH  18  19
ENDBRANCH  17  18
ENDBRANCH  16  17
ENDBRANCH  15  16
ENDBRANCH   1  15
TORSDOF 22
ENDMDL
MODEL 8
REMARK VINA RESULT:    -3.851      1.702      4.549
REMARK INTER + INTRA:         -12.959
REMARK INTER:                  -8.383
REMARK INTRA:                  -4.576
REMARK UNBOUND:                -4.156
REMARK SMILES CCCCCCCCCCCCCCCCCCCCCCCC(=O)[O-]
REMARK SMILES IDX 13 1 14 2 15 3 16 4 17 5 18 6 19 7 20 8 21 9 22 10 23 11
REMARK SMILES IDX 24 12 25 13 26 14 12 15 11 16 10 17 9 18 8 19 7 20 6 21 5 22
REMARK SMILES IDX 4 23 3 24 2 25 1 26
REMARK H PARENT
REMARK Flexibility Score: inf
ROOT
ATOM      1  C   UNL     1      -6.490  17.463   1.694  1.00  0.00     0.000 C 
ENDROOT
BRANCH   1   2
ATOM      2  C   UNL     1      -6.360  16.016   1.194  1.00  0.00     0.000 C 
BRANCH   2   3
ATOM      3  C   UNL     1      -7.164  15.801  -0.094  1.00  0.00     0.000 C 
BRANCH   3   4
ATOM      4  C   UNL     1      -8.326  16.798  -0.184  1.00  0.00     0.000 C 
BRANCH   4   5
ATOM      5  C   UNL     1      -8.901  16.854  -1.604  1.00  0.00     0.000 C 
BRANCH   5   6
ATOM      6  C   UNL     1      -9.796  15.636  -1.881  1.00  0.00     0.000 C 
BRANCH   6   7
ATOM      7  C   UNL     1      -9.394  14.870  -3.154  1.00  0.00     0.000 C 
BRANCH   7   8
ATOM      8  C   UNL     1      -8.765  13.487  -2.909  1.00  0.00     0.000 C 
BRANCH   8   9
ATOM      9  C   UNL     1      -7.234  13.538  -2.792  1.00  0.00     0.000 C 
BRANCH   9  10
ATOM     10  C   UNL     1      -6.634  14.482  -3.842  1.00  0.00     0.006 C 
BRANCH  10  11
ATOM     11  C   UNL     1      -6.401  13.749  -5.168  1.00  0.00     0.053 C 
BRANCH  11  12
ATOM     12  C   UNL     1      -7.038  14.488  -6.303  1.00  0.00     0.041 C 
ATOM     13  O   UNL     1      -7.439  15.672  -6.144  1.00  0.00    -0.550 OA
ATOM     14  O   UNL     1      -7.190  13.870  -7.538  1.00  0.00    -0.550 OA
ENDBRANCH  11  12
ENDBRANCH  10  11
ENDBRANCH   9  10
ENDBRANCH   8   9
ENDBRANCH   7   8
ENDBRANCH   6   7
ENDBRANCH   5   6
ENDBRANCH   4   5
ENDBRANCH   3   4
ENDBRANCH   2   3
ENDBRANCH   1   2
BRANCH   1  15
ATOM     15  C   UNL     1      -6.629  17.557   3.225  1.00  0.00     0.000 C 
BRANCH  15  16
ATOM     16  C   UNL     1      -8.046  17.297   3.769  1.00  0.00     0.000 C 
BRANCH  16  17
ATOM     17  C   UNL     1      -9.067  18.350   3.303  1.00  0.00     0.000 C 
BRANCH  17  18
ATOM     18  C   UNL     1     -10.326  17.726   2.681  1.00  0.00    -0.000 C 
BRANCH  18  19
ATOM     19  C   UNL     1     -10.469  16.226   2.996  1.00  0.00    -0.000 C 
BRANCH  19  20
ATOM     20  C   UNL     1     -11.014  15.425   1.800  1.00  0.00    -0.000 C 
BRANCH  20  21
ATOM     21  C   UNL     1     -10.180  14.165   1.507  1.00  0.00    -0.000 C 
BRANCH  21  22
ATOM     22  C   UNL     1      -9.100  13.915   2.582  1.00  0.00    -0.000 C 
BRANCH  22  23
ATOM     23  C   UNL     1      -8.072  12.835   2.192  1.00  0.00    -0.000 C 
BRANCH  23  24
ATOM     24  C   UNL     1      -8.095  12.426   0.710  1.00  0.00    -0.000 C 
BRANCH  24  25
ATOM     25  C   UNL     1      -6.883  11.572   0.310  1.00  0.00    -0.003 C 
ATOM     26  C   UNL     1      -5.600  12.398   0.332  1.00  0.00     0.004 C 
ENDBRANCH  24  25
ENDBRANCH  23  24
ENDBRANCH  22  23
ENDBRANCH  21  22
ENDBRANCH  20  21
ENDBRANCH  19  20
ENDBRANCH  18  19
ENDBRANCH  17  18
ENDBRANCH  16  17
ENDBRANCH  15  16
ENDBRANCH   1  15
TORSDOF 22
ENDMDL
MODEL 9
REMARK VINA RESULT:    -3.839      1.369      2.780
REMARK INTER + INTRA:         -12.933
REMARK INTER:                  -8.848
REMARK INTRA:                  -4.085
REMARK UNBOUND:                -4.156
REMARK SMILES CCCCCCCCCCCCCCCCCCCCCCCC(=O)[O-]
REMARK SMILES IDX 13 1 14 2 15 3 16 4 17 5 18 6 19 7 20 8 21 9 22 10 23 11
REMARK SMILES IDX 24 12 25 13 26 14 12 15 11 16 10 17 9 18 8 19 7 20 6 21 5 22
REMARK SMILES IDX 4 23 3 24 2 25 1 26
REMARK H PARENT
REMARK Flexibility Score: inf
ROOT
ATOM      1  C   UNL     1      -9.980  15.276   0.828  1.00  0.00     0.000 C 
ENDROOT
BRANCH   1   2
ATOM      2  C   UNL     1     -10.600  14.363  -0.241  1.00  0.00     0.000 C 
BRANCH   2   3
ATOM      3  C   UNL     1      -9.969  12.966  -0.211  1.00  0.00     0.000 C 
BRANCH   3   4
ATOM      4  C   UNL     1      -9.633  12.490  -1.630  1.00  0.00     0.000 C 
BRANCH   4   5
ATOM      5  C   UNL     1     -10.660  13.005  -2.646  1.00  0.00     0.000 C 
BRANCH   5   6
ATOM      6  C   UNL     1     -10.491  12.299  -4.000  1.00  0.00     0.000 C 
BRANCH   6   7
ATOM      7  C   UNL     1     -11.148  13.063  -5.164  1.00  0.00     0.000 C 
BRANCH   7   8
ATOM      8  C   UNL     1     -10.180  13.900  -6.020  1.00  0.00     0.000 C 
BRANCH   8   9
ATOM      9  C   UNL     1     -10.049  13.377  -7.459  1.00  0.00     0.000 C 
BRANCH   9  10
ATOM     10  C   UNL     1      -8.575  13.241  -7.862  1.00  0.00     0.006 C 
BRANCH  10  11
ATOM     11  C   UNL     1      -7.723  12.785  -6.673  1.00  0.00     0.053 C 
BRANCH  11  12
ATOM     12  C   UNL     1      -6.561  13.706  -6.466  1.00  0.00     0.041 C 
ATOM     13  O   UNL     1      -6.739  14.954  -6.437  1.00  0.00    -0.550 OA
ATOM     14  O   UNL     1      -5.282  13.189  -6.304  1.00  0.00    -0.550 OA
ENDBRANCH  11  12
ENDBRANCH  10  11
ENDBRANCH   9  10
ENDBRANCH   8   9
ENDBRANCH   7   8
ENDBRANCH   6   7
ENDBRANCH   5   6
ENDBRANCH   4   5
ENDBRANCH   3   4
ENDBRANCH   2   3
ENDBRANCH   1   2
BRANCH   1  15
ATOM     15  C   UNL     1      -9.601  16.666   0.282  1.00  0.00     0.000 C 
BRANCH  15  16
ATOM     16  C   UNL     1      -9.995  16.920  -1.185  1.00  0.00     0.000 C 
BRANCH  16  17
ATOM     17  C   UNL     1      -8.778  17.020  -2.120  1.00  0.00     0.000 C 
BRANCH  17  18
ATOM     18  C   UNL     1      -8.743  15.903  -3.175  1.00  0.00    -0.000 C 
BRANCH  18  19
ATOM     19  C   UNL     1      -7.466  15.047  -3.100  1.00  0.00    -0.000 C 
BRANCH  19  20
ATOM     20  C   UNL     1      -6.673  15.289  -1.803  1.00  0.00    -0.000 C 
BRANCH  20  21
ATOM     21  C   UNL     1      -6.432  13.993  -1.010  1.00  0.00    -0.000 C 
BRANCH  21  22
ATOM     22  C   UNL     1      -6.294  14.252   0.506  1.00  0.00    -0.000 C 
BRANCH  22  23
ATOM     23  C   UNL     1      -5.882  15.695   0.856  1.00  0.00    -0.000 C 
BRANCH  23  24
ATOM     24  C   UNL     1      -6.456  16.228   2.179  1.00  0.00    -0.000 C 
BRANCH  24  25
ATOM     25  C   UNL     1      -6.449  17.762   2.256  1.00  0.00    -0.003 C 
ATOM     26  C   UNL     1      -6.406  18.238   3.704  1.00  0.00     0.004 C 
ENDBRANCH  24  25
ENDBRANCH  23  24
ENDBRANCH  22  23
ENDBRANCH  21  22
ENDBRANCH  20  21
ENDBRANCH  19  20
ENDBRANCH  18  19
ENDBRANCH  17  18
ENDBRANCH  16  17
ENDBRANCH  15  16
ENDBRANCH   1  15
TORSDOF 22
ENDMDL
