MODEL 1
REMARK VINA RESULT:    -3.779      0.000      0.000
REMARK INTER + INTRA:          -6.617
REMARK INTER:                  -5.767
REMARK INTRA:                  -0.850
REMARK UNBOUND:                -0.850
REMARK SMILES CC(=O)CCC=C(C)CCC=C(C)CCC=C(C)C
REMARK SMILES IDX 10 1 11 2 12 3 13 4 14 5 15 6 16 7 18 8 17 9 19 10 9 11 7 12
REMARK SMILES IDX 6 13 8 14 5 15 4 16 2 17 3 18 1 19
REMARK H PARENT
REMARK Flexibility Score: inf
ROOT
ATOM      1  C   UNL     1       1.509  13.779  -8.669  1.00  0.00     0.032 C 
ENDROOT
BRANCH   1   2
ATOM      2  C   UNL     1       2.643  14.742  -8.915  1.00  0.00    -0.028 C 
ATOM      3  C   UNL     1       3.437  15.262  -7.951  1.00  0.00    -0.077 C 
ATOM      4  C   UNL     1       4.491  16.261  -8.356  1.00  0.00     0.039 C 
BRANCH   3   5
ATOM      5  C   UNL     1       3.335  14.859  -6.491  1.00  0.00     0.034 C 
BRANCH   5   6
ATOM      6  C   UNL     1       2.265  15.671  -5.745  1.00  0.00     0.032 C 
BRANCH   6   7
ATOM      7  C   UNL     1       2.546  17.154  -5.801  1.00  0.00    -0.028 C 
ATOM      8  C   UNL     1       3.764  19.245  -5.379  1.00  0.00     0.039 C 
ATOM      9  C   UNL     1       3.650  17.745  -5.293  1.00  0.00    -0.080 C 
ATOM     10  C   UNL     1       4.767  16.948  -4.662  1.00  0.00     0.039 C 
ENDBRANCH   6   7
ENDBRANCH   5   6
ENDBRANCH   3   5
ENDBRANCH   1   2
BRANCH   1  11
ATOM     11  C   UNL     1       1.890  12.365  -9.125  1.00  0.00     0.034 C 
BRANCH  11  12
ATOM     12  C   UNL     1       3.127  11.883  -8.400  1.00  0.00    -0.077 C 
ATOM     13  C   UNL     1       4.333  12.006  -8.997  1.00  0.00    -0.028 C 
ATOM     14  C   UNL     1       2.988  11.276  -7.024  1.00  0.00     0.039 C 
BRANCH  13  15
ATOM     15  C   UNL     1       5.623  11.557  -8.349  1.00  0.00     0.035 C 
BRANCH  15  16
ATOM     16  C   UNL     1       6.415  12.736  -7.767  1.00  0.00     0.079 C 
BRANCH  16  17
ATOM     17  C   UNL     1       6.248  12.837  -6.272  1.00  0.00     0.130 C 
ATOM     18  O   UNL     1       5.985  13.919  -5.767  1.00  0.00    -0.300 OA
ATOM     19  C   UNL     1       6.409  11.639  -5.385  1.00  0.00     0.087 C 
ENDBRANCH  16  17
ENDBRANCH  15  16
ENDBRANCH  13  15
ENDBRANCH  11  12
ENDBRANCH   1  11
TORSDOF 9
ENDMDL
MODEL 2
REMARK VINA RESULT:    -3.627      1.496      4.926
REMARK INTER + INTRA:          -6.385
REMARK INTER:                  -6.087
REMARK INTRA:                  -0.299
REMARK UNBOUND:                -0.850
REMARK SMILES CC(=O)CCC=C(C)CCC=C(C)CCC=C(C)C
REMARK SMILES IDX 10 1 11 2 12 3 13 4 14 5 15 6 16 7 18 8 17 9 19 10 9 11 7 12
REMARK SMILES IDX 6 13 8 14 5 15 4 16 2 17 3 18 1 19
REMARK H PARENT
REMARK Flexibility Score: inf
ROOT
ATOM      1  C   UNL     1       2.283  12.801  -6.571  1.00  0.00     0.032 C 
ENDROOT
BRANCH   1   2
ATOM      2  C   UNL     1       2.264  11.493  -7.322  1.00  0.00    -0.028 C 
ATOM      3  C   UNL     1       2.946  11.248  -8.464  1.00  0.00    -0.077 C 
ATOM      4  C   UNL     1       2.773   9.905  -9.125  1.00  0.00     0.039 C 
BRANCH   3   5
ATOM      5  C   UNL     1       3.903  12.251  -9.085  1.00  0.00     0.034 C 
BRANCH   5   6
ATOM      6  C   UNL     1       5.371  11.866  -8.846  1.00  0.00     0.032 C 
BRANCH   6   7
ATOM      7  C   UNL     1       5.683  11.726  -7.375  1.00  0.00    -0.028 C 
ATOM      8  C   UNL     1       6.337  12.449  -5.121  1.00  0.00     0.039 C 
ATOM      9  C   UNL     1       6.000  12.754  -6.558  1.00  0.00    -0.080 C 
ATOM     10  C   UNL     1       6.010  14.187  -7.037  1.00  0.00     0.039 C 
ENDBRANCH   6   7
ENDBRANCH   5   6
ENDBRANCH   3   5
ENDBRANCH   1   2
BRANCH   1  11
ATOM     11  C   UNL     1       1.796  13.947  -7.465  1.00  0.00     0.034 C 
BRANCH  11  12
ATOM     12  C   UNL     1       2.634  15.188  -7.251  1.00  0.00    -0.077 C 
ATOM     13  C   UNL     1       2.560  15.841  -6.070  1.00  0.00    -0.028 C 
ATOM     14  C   UNL     1       3.537  15.670  -8.361  1.00  0.00     0.039 C 
BRANCH  13  15
ATOM     15  C   UNL     1       3.362  17.085  -5.764  1.00  0.00     0.035 C 
BRANCH  15  16
ATOM     16  C   UNL     1       4.565  16.786  -4.860  1.00  0.00     0.079 C 
BRANCH  16  17
ATOM     17  C   UNL     1       4.202  15.845  -3.739  1.00  0.00     0.130 C 
ATOM     18  O   UNL     1       4.555  16.103  -2.598  1.00  0.00    -0.300 OA
ATOM     19  C   UNL     1       3.424  14.589  -3.996  1.00  0.00     0.087 C 
ENDBRANCH  16  17
ENDBRANCH  15  16
ENDBRANCH  13  15
ENDBRANCH  11  12
ENDBRANCH   1  11
TORSDOF 9
ENDMDL
MODEL 3
REMARK VINA RESULT:    -3.508      1.619      4.360
REMARK INTER + INTRA:          -6.204
REMARK INTER:                  -4.791
REMARK INTRA:                  -1.413
REMARK UNBOUND:                -0.850
REMARK SMILES CC(=O)CCC=C(C)CCC=C(C)CCC=C(C)C
REMARK SMILES IDX 10 1 11 2 12 3 13 4 14 5 15 6 16 7 18 8 17 9 19 10 9 11 7 12
REMARK SMILES IDX 6 13 8 14 5 15 4 16 2 17 3 18 1 19
REMARK H PARENT
REMARK Flexibility Score: inf
ROOT
ATOM      1  C   UNL     1       5.246  12.112  -8.895  1.00  0.00     0.032 C 
ENDROOT
BRANCH   1   2
ATOM      2  C   UNL     1       4.219  11.026  -9.099  1.00  0.00    -0.028 C 
ATOM      3  C   UNL     1       2.896  11.160  -8.855  1.00  0.00    -0.077 C 
ATOM      4  C   UNL     1       2.008   9.957  -9.053  1.00  0.00     0.039 C 
BRANCH   3   5
ATOM      5  C   UNL     1       2.263  12.472  -8.427  1.00  0.00     0.034 C 
BRANCH   5   6
ATOM      6  C   UNL     1       2.370  12.691  -6.910  1.00  0.00     0.032 C 
BRANCH   6   7
ATOM      7  C   UNL     1       1.865  14.055  -6.502  1.00  0.00    -0.028 C 
ATOM      8  C   UNL     1       1.499  15.987  -5.030  1.00  0.00     0.039 C 
ATOM      9  C   UNL     1       2.117  14.641  -5.311  1.00  0.00    -0.080 C 
ATOM     10  C   UNL     1       3.004  13.998  -4.272  1.00  0.00     0.039 C 
ENDBRANCH   6   7
ENDBRANCH   5   6
ENDBRANCH   3   5
ENDBRANCH   1   2
BRANCH   1  11
ATOM     11  C   UNL     1       6.165  11.775  -7.715  1.00  0.00     0.034 C 
BRANCH  11  12
ATOM     12  C   UNL     1       6.043  12.817  -6.626  1.00  0.00    -0.077 C 
ATOM     13  C   UNL     1       5.628  14.063  -6.944  1.00  0.00    -0.028 C 
ATOM     14  C   UNL     1       6.388  12.443  -5.204  1.00  0.00     0.039 C 
BRANCH  13  15
ATOM     15  C   UNL     1       5.472  15.166  -5.924  1.00  0.00     0.035 C 
BRANCH  15  16
ATOM     16  C   UNL     1       4.663  16.349  -6.474  1.00  0.00     0.079 C 
BRANCH  16  17
ATOM     17  C   UNL     1       4.435  17.407  -5.423  1.00  0.00     0.130 C 
ATOM     18  O   UNL     1       4.806  17.205  -4.276  1.00  0.00    -0.300 OA
ATOM     19  C   UNL     1       3.752  18.699  -5.753  1.00  0.00     0.087 C 
ENDBRANCH  16  17
ENDBRANCH  15  16
ENDBRANCH  13  15
ENDBRANCH  11  12
ENDBRANCH   1  11
TORSDOF 9
ENDMDL
MODEL 4
REMARK VINA RESULT:    -3.458      1.594      4.746
REMARK INTER + INTRA:          -6.127
REMARK INTER:                  -5.998
REMARK INTRA:                  -0.129
REMARK UNBOUND:                -0.850
REMARK SMILES CC(=O)CCC=C(C)CCC=C(C)CCC=C(C)C
REMARK SMILES IDX 10 1 11 2 12 3 13 4 14 5 15 6 16 7 18 8 17 9 19 10 9 11 7 12
REMARK SMILES IDX 6 13 8 14 5 15 4 16 2 17 3 18 1 19
REMARK H PARENT
REMARK Flexibility Score: inf
ROOT
ATOM      1  C   UNL     1       3.305  13.121  -9.063  1.00  0.00     0.032 C 
ENDROOT
BRANCH   1   2
ATOM      2  C   UNL     1       4.229  14.311  -9.125  1.00  0.00    -0.028 C 
ATOM      3  C   UNL     1       5.579  14.244  -9.064  1.00  0.00    -0.077 C 
ATOM      4  C   UNL     1       6.359  15.534  -9.079  1.00  0.00     0.039 C 
BRANCH   3   5
ATOM      5  C   UNL     1       6.339  12.930  -9.018  1.00  0.00     0.034 C 
BRANCH   5   6
ATOM      6  C   UNL     1       5.592  11.864  -8.202  1.00  0.00     0.032 C 
BRANCH   6   7
ATOM      7  C   UNL     1       6.245  11.623  -6.862  1.00  0.00    -0.028 C 
ATOM      8  C   UNL     1       6.967  12.135  -4.571  1.00  0.00     0.039 C 
ATOM      9  C   UNL     1       6.225  12.497  -5.831  1.00  0.00    -0.080 C 
ATOM     10  C   UNL     1       5.472  13.804  -5.903  1.00  0.00     0.039 C 
ENDBRANCH   6   7
ENDBRANCH   5   6
ENDBRANCH   3   5
ENDBRANCH   1   2
BRANCH   1  11
ATOM     11  C   UNL     1       1.947  13.519  -8.473  1.00  0.00     0.034 C 
BRANCH  11  12
ATOM     12  C   UNL     1       2.091  13.921  -7.021  1.00  0.00    -0.077 C 
ATOM     13  C   UNL     1       2.062  15.231  -6.691  1.00  0.00    -0.028 C 
ATOM     14  C   UNL     1       2.262  12.848  -5.972  1.00  0.00     0.039 C 
BRANCH  13  15
ATOM     15  C   UNL     1       2.194  15.726  -5.269  1.00  0.00     0.035 C 
BRANCH  15  16
ATOM     16  C   UNL     1       3.569  16.351  -5.002  1.00  0.00     0.079 C 
BRANCH  16  17
ATOM     17  C   UNL     1       3.840  17.519  -5.917  1.00  0.00     0.130 C 
ATOM     18  O   UNL     1       4.148  17.313  -7.081  1.00  0.00    -0.300 OA
ATOM     19  C   UNL     1       3.750  18.932  -5.425  1.00  0.00     0.087 C 
ENDBRANCH  16  17
ENDBRANCH  15  16
ENDBRANCH  13  15
ENDBRANCH  11  12
ENDBRANCH   1  11
TORSDOF 9
ENDMDL
MODEL 5
REMARK VINA RESULT:    -3.359      1.380      2.066
REMARK INTER + INTRA:          -5.976
REMARK INTER:                  -5.014
REMARK INTRA:                  -0.962
REMARK UNBOUND:                -0.850
REMARK SMILES CC(=O)CCC=C(C)CCC=C(C)CCC=C(C)C
REMARK SMILES IDX 10 1 11 2 12 3 13 4 14 5 15 6 16 7 18 8 17 9 19 10 9 11 7 12
REMARK SMILES IDX 6 13 8 14 5 15 4 16 2 17 3 18 1 19
REMARK H PARENT
REMARK Flexibility Score: inf
ROOT
ATOM      1  C   UNL     1       1.997  14.747  -7.784  1.00  0.00     0.032 C 
ENDROOT
BRANCH   1   2
ATOM      2  C   UNL     1       2.191  14.016  -6.479  1.00  0.00    -0.028 C 
ATOM      3  C   UNL     1       3.275  14.136  -5.680  1.00  0.00    -0.077 C 
ATOM      4  C   UNL     1       3.342  13.288  -4.435  1.00  0.00     0.039 C 
BRANCH   3   5
ATOM      5  C   UNL     1       4.406  15.109  -5.963  1.00  0.00     0.034 C 
BRANCH   5   6
ATOM      6  C   UNL     1       4.006  16.164  -7.006  1.00  0.00     0.032 C 
BRANCH   6   7
ATOM      7  C   UNL     1       4.117  17.566  -6.457  1.00  0.00    -0.028 C 
ATOM      8  C   UNL     1       3.395  19.606  -5.294  1.00  0.00     0.039 C 
ATOM      9  C   UNL     1       3.160  18.182  -5.729  1.00  0.00    -0.080 C 
ATOM     10  C   UNL     1       1.881  17.484  -5.330  1.00  0.00     0.039 C 
ENDBRANCH   6   7
ENDBRANCH   5   6
ENDBRANCH   3   5
ENDBRANCH   1   2
BRANCH   1  11
ATOM     11  C   UNL     1       1.896  13.757  -8.951  1.00  0.00     0.034 C 
BRANCH  11  12
ATOM     12  C   UNL     1       3.091  12.830  -8.972  1.00  0.00    -0.077 C 
ATOM     13  C   UNL     1       4.332  13.352  -9.091  1.00  0.00    -0.028 C 
ATOM     14  C   UNL     1       2.872  11.340  -8.861  1.00  0.00     0.039 C 
BRANCH  13  15
ATOM     15  C   UNL     1       5.583  12.506  -9.117  1.00  0.00     0.035 C 
BRANCH  15  16
ATOM     16  C   UNL     1       6.534  12.847  -7.961  1.00  0.00     0.079 C 
BRANCH  16  17
ATOM     17  C   UNL     1       6.214  12.049  -6.721  1.00  0.00     0.130 C 
ATOM     18  O   UNL     1       5.518  11.050  -6.812  1.00  0.00    -0.300 OA
ATOM     19  C   UNL     1       6.723  12.466  -5.374  1.00  0.00     0.087 C 
ENDBRANCH  16  17
ENDBRANCH  15  16
ENDBRANCH  13  15
ENDBRANCH  11  12
ENDBRANCH   1  11
TORSDOF 9
ENDMDL
MODEL 6
REMARK VINA RESULT:    -3.109      1.556      3.147
REMARK INTER + INTRA:          -5.594
REMARK INTER:                  -5.191
REMARK INTRA:                  -0.403
REMARK UNBOUND:                -0.850
REMARK SMILES CC(=O)CCC=C(C)CCC=C(C)CCC=C(C)C
REMARK SMILES IDX 10 1 11 2 12 3 13 4 14 5 15 6 16 7 18 8 17 9 19 10 9 11 7 12
REMARK SMILES IDX 6 13 8 14 5 15 4 16 2 17 3 18 1 19
REMARK H PARENT
REMARK Flexibility Score: inf
ROOT
ATOM      1  C   UNL     1       1.782  14.061  -8.398  1.00  0.00     0.032 C 
ENDROOT
BRANCH   1   2
ATOM      2  C   UNL     1       2.087  12.703  -8.981  1.00  0.00    -0.028 C 
ATOM      3  C   UNL     1       2.673  11.688  -8.307  1.00  0.00    -0.077 C 
ATOM      4  C   UNL     1       2.963  10.410  -9.053  1.00  0.00     0.039 C 
BRANCH   3   5
ATOM      5  C   UNL     1       3.017  11.766  -6.830  1.00  0.00     0.034 C 
BRANCH   5   6
ATOM      6  C   UNL     1       2.299  12.934  -6.136  1.00  0.00     0.032 C 
BRANCH   6   7
ATOM      7  C   UNL     1       3.245  13.752  -5.290  1.00  0.00    -0.028 C 
ATOM      8  C   UNL     1       4.160  15.763  -4.217  1.00  0.00     0.039 C 
ATOM      9  C   UNL     1       3.104  15.072  -5.039  1.00  0.00    -0.080 C 
ATOM     10  C   UNL     1       1.918  15.861  -5.543  1.00  0.00     0.039 C 
ENDBRANCH   6   7
ENDBRANCH   5   6
ENDBRANCH   3   5
ENDBRANCH   1   2
BRANCH   1  11
ATOM     11  C   UNL     1       2.582  15.152  -9.119  1.00  0.00     0.034 C 
BRANCH  11  12
ATOM     12  C   UNL     1       4.038  15.108  -8.711  1.00  0.00    -0.077 C 
ATOM     13  C   UNL     1       4.802  14.061  -9.096  1.00  0.00    -0.028 C 
ATOM     14  C   UNL     1       4.608  16.235  -7.883  1.00  0.00     0.039 C 
BRANCH  13  15
ATOM     15  C   UNL     1       6.265  13.934  -8.740  1.00  0.00     0.035 C 
BRANCH  15  16
ATOM     16  C   UNL     1       6.656  12.484  -8.424  1.00  0.00     0.079 C 
BRANCH  16  17
ATOM     17  C   UNL     1       6.320  12.112  -7.001  1.00  0.00     0.130 C 
ATOM     18  O   UNL     1       5.968  10.971  -6.744  1.00  0.00    -0.300 OA
ATOM     19  C   UNL     1       6.396  13.120  -5.893  1.00  0.00     0.087 C 
ENDBRANCH  16  17
ENDBRANCH  15  16
ENDBRANCH  13  15
ENDBRANCH  11  12
ENDBRANCH   1  11
TORSDOF 9
ENDMDL
MODEL 7
REMARK VINA RESULT:    -2.884      1.812      5.174
REMARK INTER + INTRA:          -5.251
REMARK INTER:                  -3.858
REMARK INTRA:                  -1.393
REMARK UNBOUND:                -0.850
REMARK SMILES CC(=O)CCC=C(C)CCC=C(C)CCC=C(C)C
REMARK SMILES IDX 10 1 11 2 12 3 13 4 14 5 15 6 16 7 18 8 17 9 19 10 9 11 7 12
REMARK SMILES IDX 6 13 8 14 5 15 4 16 2 17 3 18 1 19
REMARK H PARENT
REMARK Flexibility Score: inf
ROOT
ATOM      1  C   UNL     1       2.153  13.422  -7.577  1.00  0.00     0.032 C 
ENDROOT
BRANCH   1   2
ATOM      2  C   UNL     1       2.234  12.090  -8.280  1.00  0.00    -0.028 C 
ATOM      3  C   UNL     1       3.337  11.308  -8.328  1.00  0.00    -0.077 C 
ATOM      4  C   UNL     1       3.272  10.030  -9.125  1.00  0.00     0.039 C 
BRANCH   3   5
ATOM      5  C   UNL     1       4.619  11.643  -7.586  1.00  0.00     0.034 C 
BRANCH   5   6
ATOM      6  C   UNL     1       5.652  12.314  -8.504  1.00  0.00     0.032 C 
BRANCH   6   7
ATOM      7  C   UNL     1       5.235  13.713  -8.891  1.00  0.00    -0.028 C 
ATOM      8  C   UNL     1       4.722  16.093  -8.568  1.00  0.00     0.039 C 
ATOM      9  C   UNL     1       5.213  14.767  -8.046  1.00  0.00    -0.080 C 
ATOM     10  C   UNL     1       5.677  14.657  -6.613  1.00  0.00     0.039 C 
ENDBRANCH   6   7
ENDBRANCH   5   6
ENDBRANCH   3   5
ENDBRANCH   1   2
BRANCH   1  11
ATOM     11  C   UNL     1       2.246  13.239  -6.058  1.00  0.00     0.034 C 
BRANCH  11  12
ATOM     12  C   UNL     1       2.421  14.573  -5.366  1.00  0.00    -0.077 C 
ATOM     13  C   UNL     1       2.045  15.703  -6.005  1.00  0.00    -0.028 C 
ATOM     14  C   UNL     1       3.012  14.613  -3.977  1.00  0.00     0.039 C 
BRANCH  13  15
ATOM     15  C   UNL     1       2.178  17.079  -5.393  1.00  0.00     0.035 C 
BRANCH  15  16
ATOM     16  C   UNL     1       3.644  17.514  -5.268  1.00  0.00     0.079 C 
BRANCH  16  17
ATOM     17  C   UNL     1       3.831  18.962  -5.647  1.00  0.00     0.130 C 
ATOM     18  O   UNL     1       4.843  19.304  -6.238  1.00  0.00    -0.300 OA
ATOM     19  C   UNL     1       2.802  19.997  -5.301  1.00  0.00     0.087 C 
ENDBRANCH  16  17
ENDBRANCH  15  16
ENDBRANCH  13  15
ENDBRANCH  11  12
ENDBRANCH   1  11
TORSDOF 9
ENDMDL
