MODEL 1
REMARK VINA RESULT:     8.751      0.000      0.000
REMARK INTER + INTRA:          15.501
REMARK INTER:                  15.913
REMARK INTRA:                  -0.412
REMARK UNBOUND:                -0.412
REMARK SMILES CCCCCCCCCCCCCCCC(=O)[O-]
REMARK SMILES IDX 9 1 10 2 11 3 12 4 13 5 14 6 15 7 16 8 17 9 18 10 8 11 7 12
REMARK SMILES IDX 6 13 5 14 4 15 3 16 2 17 1 18
REMARK H PARENT
REMARK Flexibility Score: inf
ROOT
ATOM      1  C   UNL     1      15.012 -15.350   6.699  1.00  0.00     0.000 C 
ENDROOT
BRANCH   1   2
ATOM      2  C   UNL     1      14.164 -14.158   7.177  1.00  0.00     0.000 C 
BRANCH   2   3
ATOM      3  C   UNL     1      13.198 -13.653   6.094  1.00  0.00     0.000 C 
BRANCH   3   4
ATOM      4  C   UNL     1      12.271 -14.761   5.563  1.00  0.00     0.000 C 
BRANCH   4   5
ATOM      5  C   UNL     1      10.788 -14.345   5.553  1.00  0.00     0.000 C 
BRANCH   5   6
ATOM      6  C   UNL     1      10.508 -12.950   4.956  1.00  0.00     0.006 C 
BRANCH   6   7
ATOM      7  C   UNL     1      10.572 -11.797   5.970  1.00  0.00     0.053 C 
BRANCH   7   8
ATOM      8  C   UNL     1      11.336 -10.625   5.437  1.00  0.00     0.041 C 
ATOM      9  O   UNL     1      11.009  -9.452   5.762  1.00  0.00    -0.550 OA
ATOM     10  O   UNL     1      12.391 -10.825   4.555  1.00  0.00    -0.550 OA
ENDBRANCH   7   8
ENDBRANCH   6   7
ENDBRANCH   5   6
ENDBRANCH   4   5
ENDBRANCH   3   4
ENDBRANCH   2   3
ENDBRANCH   1   2
BRANCH   1  11
ATOM     11  C   UNL     1      16.521 -15.051   6.725  1.00  0.00     0.000 C 
BRANCH  11  12
ATOM     12  C   UNL     1      17.364 -16.290   7.077  1.00  0.00    -0.000 C 
BRANCH  12  13
ATOM     13  C   UNL     1      18.706 -16.320   6.327  1.00  0.00    -0.000 C 
BRANCH  13  14
ATOM     14  C   UNL     1      19.120 -17.744   5.917  1.00  0.00    -0.000 C 
BRANCH  14  15
ATOM     15  C   UNL     1      19.110 -17.957   4.391  1.00  0.00    -0.000 C 
BRANCH  15  16
ATOM     16  C   UNL     1      19.099 -16.665   3.552  1.00  0.00    -0.000 C 
BRANCH  16  17
ATOM     17  C   UNL     1      18.792 -16.918   2.070  1.00  0.00    -0.003 C 
ATOM     18  C   UNL     1      17.339 -17.345   1.875  1.00  0.00     0.004 C 
ENDBRANCH  16  17
ENDBRANCH  15  16
ENDBRANCH  14  15
ENDBRANCH  13  14
ENDBRANCH  12  13
ENDBRANCH  11  12
ENDBRANCH   1  11
TORSDOF 14
ENDMDL
MODEL 2
REMARK VINA RESULT:     9.263      1.661      2.328
REMARK INTER + INTRA:          16.432
REMARK INTER:                  15.133
REMARK INTRA:                   1.299
REMARK UNBOUND:                -0.412
REMARK SMILES CCCCCCCCCCCCCCCC(=O)[O-]
REMARK SMILES IDX 9 1 10 2 11 3 12 4 13 5 14 6 15 7 16 8 17 9 18 10 8 11 7 12
REMARK SMILES IDX 6 13 5 14 4 15 3 16 2 17 1 18
REMARK H PARENT
REMARK Flexibility Score: inf
ROOT
ATOM      1  C   UNL     1      14.201 -13.984   7.507  1.00  0.00     0.000 C 
ENDROOT
BRANCH   1   2
ATOM      2  C   UNL     1      13.357 -14.108   6.225  1.00  0.00     0.000 C 
BRANCH   2   3
ATOM      3  C   UNL     1      12.366 -12.946   6.061  1.00  0.00     0.000 C 
BRANCH   3   4
ATOM      4  C   UNL     1      12.670 -12.076   4.829  1.00  0.00     0.000 C 
BRANCH   4   5
ATOM      5  C   UNL     1      12.050 -10.669   4.923  1.00  0.00     0.000 C 
BRANCH   5   6
ATOM      6  C   UNL     1      10.715 -10.598   5.693  1.00  0.00     0.006 C 
BRANCH   6   7
ATOM      7  C   UNL     1      10.229 -11.944   6.254  1.00  0.00     0.053 C 
BRANCH   7   8
ATOM      8  C   UNL     1       9.247 -12.609   5.338  1.00  0.00     0.041 C 
ATOM      9  O   UNL     1       8.224 -11.989   4.945  1.00  0.00    -0.550 OA
ATOM     10  O   UNL     1       9.446 -13.927   4.946  1.00  0.00    -0.550 OA
ENDBRANCH   7   8
ENDBRANCH   6   7
ENDBRANCH   5   6
ENDBRANCH   4   5
ENDBRANCH   3   4
ENDBRANCH   2   3
ENDBRANCH   1   2
BRANCH   1  11
ATOM     11  C   UNL     1      15.673 -14.373   7.287  1.00  0.00     0.000 C 
BRANCH  11  12
ATOM     12  C   UNL     1      15.827 -15.705   6.531  1.00  0.00    -0.000 C 
BRANCH  12  13
ATOM     13  C   UNL     1      16.811 -16.663   7.223  1.00  0.00    -0.000 C 
BRANCH  13  14
ATOM     14  C   UNL     1      18.279 -16.249   7.018  1.00  0.00    -0.000 C 
BRANCH  14  15
ATOM     15  C   UNL     1      18.976 -17.046   5.900  1.00  0.00    -0.000 C 
BRANCH  15  16
ATOM     16  C   UNL     1      18.990 -16.362   4.521  1.00  0.00    -0.000 C 
BRANCH  16  17
ATOM     17  C   UNL     1      19.088 -17.360   3.359  1.00  0.00    -0.003 C 
ATOM     18  C   UNL     1      18.175 -16.951   2.205  1.00  0.00     0.004 C 
ENDBRANCH  16  17
ENDBRANCH  15  16
ENDBRANCH  14  15
ENDBRANCH  13  14
ENDBRANCH  12  13
ENDBRANCH  11  12
ENDBRANCH   1  11
TORSDOF 14
ENDMDL
MODEL 3
REMARK VINA RESULT:     9.352      1.629      1.815
REMARK INTER + INTRA:          16.594
REMARK INTER:                  15.675
REMARK INTRA:                   0.919
REMARK UNBOUND:                -0.412
REMARK SMILES CCCCCCCCCCCCCCCC(=O)[O-]
REMARK SMILES IDX 9 1 10 2 11 3 12 4 13 5 14 6 15 7 16 8 17 9 18 10 8 11 7 12
REMARK SMILES IDX 6 13 5 14 4 15 3 16 2 17 1 18
REMARK H PARENT
REMARK Flexibility Score: inf
ROOT
ATOM      1  C   UNL     1      15.426 -15.122   6.416  1.00  0.00     0.000 C 
ENDROOT
BRANCH   1   2
ATOM      2  C   UNL     1      14.493 -14.580   7.514  1.00  0.00     0.000 C 
BRANCH   2   3
ATOM      3  C   UNL     1      13.657 -13.383   7.036  1.00  0.00     0.000 C 
BRANCH   3   4
ATOM      4  C   UNL     1      12.519 -13.796   6.086  1.00  0.00     0.000 C 
BRANCH   4   5
ATOM      5  C   UNL     1      11.983 -12.619   5.249  1.00  0.00     0.000 C 
BRANCH   5   6
ATOM      6  C   UNL     1      11.274 -11.515   6.061  1.00  0.00     0.006 C 
BRANCH   6   7
ATOM      7  C   UNL     1       9.751 -11.456   5.862  1.00  0.00     0.053 C 
BRANCH   7   8
ATOM      8  C   UNL     1       9.227 -12.683   5.180  1.00  0.00     0.041 C 
ATOM      9  O   UNL     1       8.210 -12.613   4.440  1.00  0.00    -0.550 OA
ATOM     10  O   UNL     1       9.843 -13.911   5.389  1.00  0.00    -0.550 OA
ENDBRANCH   7   8
ENDBRANCH   6   7
ENDBRANCH   5   6
ENDBRANCH   4   5
ENDBRANCH   3   4
ENDBRANCH   2   3
ENDBRANCH   1   2
BRANCH   1  11
ATOM     11  C   UNL     1      16.909 -15.074   6.823  1.00  0.00     0.000 C 
BRANCH  11  12
ATOM     12  C   UNL     1      17.542 -16.474   6.917  1.00  0.00    -0.000 C 
BRANCH  12  13
ATOM     13  C   UNL     1      18.789 -16.616   6.028  1.00  0.00    -0.000 C 
BRANCH  13  14
ATOM     14  C   UNL     1      19.025 -18.066   5.571  1.00  0.00    -0.000 C 
BRANCH  14  15
ATOM     15  C   UNL     1      19.124 -18.204   4.040  1.00  0.00    -0.000 C 
BRANCH  15  16
ATOM     16  C   UNL     1      19.039 -16.880   3.258  1.00  0.00    -0.000 C 
BRANCH  16  17
ATOM     17  C   UNL     1      18.393 -17.043   1.875  1.00  0.00    -0.003 C 
ATOM     18  C   UNL     1      16.936 -16.588   1.893  1.00  0.00     0.004 C 
ENDBRANCH  16  17
ENDBRANCH  15  16
ENDBRANCH  14  15
ENDBRANCH  13  14
ENDBRANCH  12  13
ENDBRANCH  11  12
ENDBRANCH   1  11
TORSDOF 14
ENDMDL
MODEL 4
REMARK VINA RESULT:     9.405      0.878      0.996
REMARK INTER + INTRA:          16.691
REMARK INTER:                  17.096
REMARK INTRA:                  -0.406
REMARK UNBOUND:                -0.412
REMARK SMILES CCCCCCCCCCCCCCCC(=O)[O-]
REMARK SMILES IDX 9 1 10 2 11 3 12 4 13 5 14 6 15 7 16 8 17 9 18 10 8 11 7 12
REMARK SMILES IDX 6 13 5 14 4 15 3 16 2 17 1 18
REMARK H PARENT
REMARK Flexibility Score: inf
ROOT
ATOM      1  C   UNL     1      15.855 -15.599   6.775  1.00  0.00     0.000 C 
ENDROOT
BRANCH   1   2
ATOM      2  C   UNL     1      14.855 -14.449   6.997  1.00  0.00     0.000 C 
BRANCH   2   3
ATOM      3  C   UNL     1      13.504 -14.705   6.311  1.00  0.00     0.000 C 
BRANCH   3   4
ATOM      4  C   UNL     1      12.552 -13.500   6.410  1.00  0.00     0.000 C 
BRANCH   4   5
ATOM      5  C   UNL     1      11.322 -13.635   5.493  1.00  0.00     0.000 C 
BRANCH   5   6
ATOM      6  C   UNL     1      10.368 -12.422   5.504  1.00  0.00     0.006 C 
BRANCH   6   7
ATOM      7  C   UNL     1      10.962 -11.148   6.126  1.00  0.00     0.053 C 
BRANCH   7   8
ATOM      8  C   UNL     1      11.628 -10.282   5.100  1.00  0.00     0.041 C 
ATOM      9  O   UNL     1      11.176  -9.134   4.848  1.00  0.00    -0.550 OA
ATOM     10  O   UNL     1      12.728 -10.758   4.397  1.00  0.00    -0.550 OA
ENDBRANCH   7   8
ENDBRANCH   6   7
ENDBRANCH   5   6
ENDBRANCH   4   5
ENDBRANCH   3   4
ENDBRANCH   2   3
ENDBRANCH   1   2
BRANCH   1  11
ATOM     11  C   UNL     1      17.140 -15.136   6.067  1.00  0.00     0.000 C 
BRANCH  11  12
ATOM     12  C   UNL     1      18.410 -15.737   6.695  1.00  0.00    -0.000 C 
BRANCH  12  13
ATOM     13  C   UNL     1      18.355 -17.272   6.780  1.00  0.00    -0.000 C 
BRANCH  13  14
ATOM     14  C   UNL     1      18.769 -17.952   5.464  1.00  0.00    -0.000 C 
BRANCH  14  15
ATOM     15  C   UNL     1      19.072 -16.945   4.338  1.00  0.00    -0.000 C 
BRANCH  15  16
ATOM     16  C   UNL     1      19.124 -17.545   2.921  1.00  0.00    -0.000 C 
BRANCH  16  17
ATOM     17  C   UNL     1      17.799 -17.398   2.160  1.00  0.00    -0.003 C 
ATOM     18  C   UNL     1      17.471 -15.928   1.909  1.00  0.00     0.004 C 
ENDBRANCH  16  17
ENDBRANCH  15  16
ENDBRANCH  14  15
ENDBRANCH  13  14
ENDBRANCH  12  13
ENDBRANCH  11  12
ENDBRANCH   1  11
TORSDOF 14
ENDMDL
MODEL 5
REMARK VINA RESULT:    10.262      5.589      8.572
REMARK INTER + INTRA:          18.249
REMARK INTER:                  19.078
REMARK INTRA:                  -0.829
REMARK UNBOUND:                -0.412
REMARK SMILES CCCCCCCCCCCCCCCC(=O)[O-]
REMARK SMILES IDX 9 1 10 2 11 3 12 4 13 5 14 6 15 7 16 8 17 9 18 10 8 11 7 12
REMARK SMILES IDX 6 13 5 14 4 15 3 16 2 17 1 18
REMARK H PARENT
REMARK Flexibility Score: inf
ROOT
ATOM      1  C   UNL     1      15.871  -9.514   1.988  1.00  0.00     0.000 C 
ENDROOT
BRANCH   1   2
ATOM      2  C   UNL     1      14.799 -10.486   2.513  1.00  0.00     0.000 C 
BRANCH   2   3
ATOM      3  C   UNL     1      13.925  -9.860   3.610  1.00  0.00     0.000 C 
BRANCH   3   4
ATOM      4  C   UNL     1      12.831 -10.817   4.115  1.00  0.00     0.000 C 
BRANCH   4   5
ATOM      5  C   UNL     1      11.814 -10.126   5.043  1.00  0.00     0.000 C 
BRANCH   5   6
ATOM      6  C   UNL     1      11.081 -11.069   6.019  1.00  0.00     0.006 C 
BRANCH   6   7
ATOM      7  C   UNL     1      11.260 -12.565   5.718  1.00  0.00     0.053 C 
BRANCH   7   8
ATOM      8  C   UNL     1       9.961 -13.225   5.370  1.00  0.00     0.041 C 
ATOM      9  O   UNL     1       9.896 -14.478   5.259  1.00  0.00    -0.550 OA
ATOM     10  O   UNL     1       8.830 -12.453   5.136  1.00  0.00    -0.550 OA
ENDBRANCH   7   8
ENDBRANCH   6   7
ENDBRANCH   5   6
ENDBRANCH   4   5
ENDBRANCH   3   4
ENDBRANCH   2   3
ENDBRANCH   1   2
BRANCH   1  11
ATOM     11  C   UNL     1      15.461  -8.040   2.147  1.00  0.00     0.000 C 
BRANCH  11  12
ATOM     12  C   UNL     1      16.628  -7.070   1.894  1.00  0.00    -0.000 C 
BRANCH  12  13
ATOM     13  C   UNL     1      17.323  -6.633   3.195  1.00  0.00    -0.000 C 
BRANCH  13  14
ATOM     14  C   UNL     1      16.332  -6.426   4.353  1.00  0.00    -0.000 C 
BRANCH  14  15
ATOM     15  C   UNL     1      17.028  -6.109   5.689  1.00  0.00    -0.000 C 
BRANCH  15  16
ATOM     16  C   UNL     1      16.096  -5.615   6.811  1.00  0.00    -0.000 C 
BRANCH  16  17
ATOM     17  C   UNL     1      15.612  -4.174   6.595  1.00  0.00    -0.003 C 
ATOM     18  C   UNL     1      14.096  -4.124   6.421  1.00  0.00     0.004 C 
ENDBRANCH  16  17
ENDBRANCH  15  16
ENDBRANCH  14  15
ENDBRANCH  13  14
ENDBRANCH  12  13
ENDBRANCH  11  12
ENDBRANCH   1  11
TORSDOF 14
ENDMDL
MODEL 6
REMARK VINA RESULT:    10.335      1.413      2.728
REMARK INTER + INTRA:          18.381
REMARK INTER:                  19.187
REMARK INTRA:                  -0.807
REMARK UNBOUND:                -0.412
REMARK SMILES CCCCCCCCCCCCCCCC(=O)[O-]
REMARK SMILES IDX 9 1 10 2 11 3 12 4 13 5 14 6 15 7 16 8 17 9 18 10 8 11 7 12
REMARK SMILES IDX 6 13 5 14 4 15 3 16 2 17 1 18
REMARK H PARENT
REMARK Flexibility Score: inf
ROOT
ATOM      1  C   UNL     1      13.379 -13.827   7.054  1.00  0.00     0.000 C 
ENDROOT
BRANCH   1   2
ATOM      2  C   UNL     1      12.647 -14.340   5.801  1.00  0.00     0.000 C 
BRANCH   2   3
ATOM      3  C   UNL     1      11.333 -13.587   5.539  1.00  0.00     0.000 C 
BRANCH   3   4
ATOM      4  C   UNL     1      11.196 -12.317   6.397  1.00  0.00     0.000 C 
BRANCH   4   5
ATOM      5  C   UNL     1      10.609 -11.127   5.615  1.00  0.00     0.000 C 
BRANCH   5   6
ATOM      6  C   UNL     1      11.652 -10.242   4.900  1.00  0.00     0.006 C 
BRANCH   6   7
ATOM      7  C   UNL     1      12.637 -11.012   4.006  1.00  0.00     0.053 C 
BRANCH   7   8
ATOM      8  C   UNL     1      13.853 -10.198   3.683  1.00  0.00     0.041 C 
ATOM      9  O   UNL     1      14.071  -9.115   4.288  1.00  0.00    -0.550 OA
ATOM     10  O   UNL     1      14.728 -10.620   2.690  1.00  0.00    -0.550 OA
ENDBRANCH   7   8
ENDBRANCH   6   7
ENDBRANCH   5   6
ENDBRANCH   4   5
ENDBRANCH   3   4
ENDBRANCH   2   3
ENDBRANCH   1   2
BRANCH   1  11
ATOM     11  C   UNL     1      14.821 -14.356   7.154  1.00  0.00     0.000 C 
BRANCH  11  12
ATOM     12  C   UNL     1      14.920 -15.863   6.858  1.00  0.00    -0.000 C 
BRANCH  12  13
ATOM     13  C   UNL     1      16.340 -16.412   7.074  1.00  0.00    -0.000 C 
BRANCH  13  14
ATOM     14  C   UNL     1      17.428 -15.362   6.790  1.00  0.00    -0.000 C 
BRANCH  14  15
ATOM     15  C   UNL     1      18.621 -15.932   6.000  1.00  0.00    -0.000 C 
BRANCH  15  16
ATOM     16  C   UNL     1      18.834 -17.450   6.145  1.00  0.00    -0.000 C 
BRANCH  16  17
ATOM     17  C   UNL     1      19.031 -18.158   4.797  1.00  0.00    -0.003 C 
ATOM     18  C   UNL     1      19.125 -17.149   3.656  1.00  0.00     0.004 C 
ENDBRANCH  16  17
ENDBRANCH  15  16
ENDBRANCH  14  15
ENDBRANCH  13  14
ENDBRANCH  12  13
ENDBRANCH  11  12
ENDBRANCH   1  11
TORSDOF 14
ENDMDL
MODEL 7
REMARK VINA RESULT:    10.898      2.752      3.998
REMARK INTER + INTRA:          19.405
REMARK INTER:                  17.767
REMARK INTRA:                   1.639
REMARK UNBOUND:                -0.412
REMARK SMILES CCCCCCCCCCCCCCCC(=O)[O-]
REMARK SMILES IDX 9 1 10 2 11 3 12 4 13 5 14 6 15 7 16 8 17 9 18 10 8 11 7 12
REMARK SMILES IDX 6 13 5 14 4 15 3 16 2 17 1 18
REMARK H PARENT
REMARK Flexibility Score: inf
ROOT
ATOM      1  C   UNL     1      16.709 -14.570   6.785  1.00  0.00     0.000 C 
ENDROOT
BRANCH   1   2
ATOM      2  C   UNL     1      15.291 -15.139   6.970  1.00  0.00     0.000 C 
BRANCH   2   3
ATOM      3  C   UNL     1      14.242 -14.039   7.194  1.00  0.00     0.000 C 
BRANCH   3   4
ATOM      4  C   UNL     1      13.234 -13.935   6.036  1.00  0.00     0.000 C 
BRANCH   4   5
ATOM      5  C   UNL     1      11.959 -13.161   6.421  1.00  0.00     0.000 C 
BRANCH   5   6
ATOM      6  C   UNL     1      11.746 -11.839   5.655  1.00  0.00     0.006 C 
BRANCH   6   7
ATOM      7  C   UNL     1      10.298 -11.325   5.658  1.00  0.00     0.053 C 
BRANCH   7   8
ATOM      8  C   UNL     1       9.319 -12.409   5.321  1.00  0.00     0.041 C 
ATOM      9  O   UNL     1       9.692 -13.611   5.281  1.00  0.00    -0.550 OA
ATOM     10  O   UNL     1       8.002 -12.086   5.017  1.00  0.00    -0.550 OA
ENDBRANCH   7   8
ENDBRANCH   6   7
ENDBRANCH   5   6
ENDBRANCH   4   5
ENDBRANCH   3   4
ENDBRANCH   2   3
ENDBRANCH   1   2
BRANCH   1  11
ATOM     11  C   UNL     1      17.674 -15.584   6.147  1.00  0.00     0.000 C 
BRANCH  11  12
ATOM     12  C   UNL     1      18.170 -16.641   7.150  1.00  0.00    -0.000 C 
BRANCH  12  13
ATOM     13  C   UNL     1      17.331 -17.929   7.109  1.00  0.00    -0.000 C 
BRANCH  13  14
ATOM     14  C   UNL     1      15.819 -17.652   7.177  1.00  0.00    -0.000 C 
BRANCH  14  15
ATOM     15  C   UNL     1      15.003 -18.879   7.623  1.00  0.00    -0.000 C 
BRANCH  15  16
ATOM     16  C   UNL     1      13.532 -18.886   7.167  1.00  0.00    -0.000 C 
BRANCH  16  17
ATOM     17  C   UNL     1      12.934 -20.299   7.097  1.00  0.00    -0.003 C 
ATOM     18  C   UNL     1      11.986 -20.435   5.908  1.00  0.00     0.004 C 
ENDBRANCH  16  17
ENDBRANCH  15  16
ENDBRANCH  14  15
ENDBRANCH  13  14
ENDBRANCH  12  13
ENDBRANCH  11  12
ENDBRANCH   1  11
TORSDOF 14
ENDMDL
