MODEL 1
REMARK VINA RESULT:    -4.987      0.000      0.000
REMARK INTER + INTRA:          -4.987
REMARK INTER:                  -4.987
REMARK INTRA:                   0.000
REMARK UNBOUND:                 0.000
REMARK SMILES CC(C)=C1CC[C@@H](C)CC1=O
REMARK SMILES IDX 8 1 7 2 6 3 5 4 4 5 2 6 1 7 3 8 10 9 11 10 9 11
REMARK H PARENT
REMARK Flexibility Score: inf
ROOT
ATOM      1  C   UNL     1       5.009  24.320 -21.814  1.00  0.00     0.008 C 
ATOM      2  C   UNL     1       5.974  25.218 -22.605  1.00  0.00    -0.006 C 
ATOM      3  C   UNL     1       5.833  25.028 -24.126  1.00  0.00     0.008 C 
ATOM      4  C   UNL     1       6.282  23.637 -24.602  1.00  0.00     0.039 C 
ATOM      5  C   UNL     1       7.649  23.237 -24.061  1.00  0.00    -0.006 C 
ATOM      6  C   UNL     1       8.474  22.410 -24.768  1.00  0.00    -0.070 C 
ATOM      7  C   UNL     1       9.854  22.047 -24.272  1.00  0.00     0.039 C 
ATOM      8  C   UNL     1       8.057  21.845 -26.107  1.00  0.00     0.039 C 
ATOM      9  C   UNL     1       7.974  23.698 -22.679  1.00  0.00     0.159 C 
ATOM     10  O   UNL     1       8.692  23.005 -21.910  1.00  0.00    -0.295 OA
ATOM     11  C   UNL     1       7.433  25.005 -22.175  1.00  0.00     0.084 C 
ENDROOT
TORSDOF 0
ENDMDL
MODEL 2
REMARK VINA RESULT:    -4.975     17.529     19.098
REMARK INTER + INTRA:          -4.975
REMARK INTER:                  -4.975
REMARK INTRA:                   0.000
REMARK UNBOUND:                 0.000
REMARK SMILES CC(C)=C1CC[C@@H](C)CC1=O
REMARK SMILES IDX 8 1 7 2 6 3 5 4 4 5 2 6 1 7 3 8 10 9 11 10 9 11
REMARK H PARENT
REMARK Flexibility Score: inf
ROOT
ATOM      1  C   UNL     1      23.125  11.498 -28.161  1.00  0.00     0.008 C 
ATOM      2  C   UNL     1      22.663  12.227 -26.889  1.00  0.00    -0.006 C 
ATOM      3  C   UNL     1      22.869  11.377 -25.622  1.00  0.00     0.008 C 
ATOM      4  C   UNL     1      21.970  10.132 -25.580  1.00  0.00     0.039 C 
ATOM      5  C   UNL     1      20.508  10.445 -25.873  1.00  0.00    -0.006 C 
ATOM      6  C   UNL     1      19.502   9.697 -25.329  1.00  0.00    -0.070 C 
ATOM      7  C   UNL     1      18.047  10.028 -25.565  1.00  0.00     0.039 C 
ATOM      8  C   UNL     1      19.801   8.520 -24.429  1.00  0.00     0.039 C 
ATOM      9  C   UNL     1      20.250  11.523 -26.872  1.00  0.00     0.159 C 
ATOM     10  O   UNL     1      19.249  11.482 -27.636  1.00  0.00    -0.295 OA
ATOM     11  C   UNL     1      21.199  12.681 -26.992  1.00  0.00     0.084 C 
ENDROOT
TORSDOF 0
ENDMDL
MODEL 3
REMARK VINA RESULT:    -4.969     17.360     18.457
REMARK INTER + INTRA:          -4.969
REMARK INTER:                  -4.969
REMARK INTRA:                   0.000
REMARK UNBOUND:                 0.000
REMARK SMILES CC(C)=C1CC[C@@H](C)CC1=O
REMARK SMILES IDX 8 1 7 2 6 3 5 4 4 5 2 6 1 7 3 8 10 9 11 10 9 11
REMARK H PARENT
REMARK Flexibility Score: inf
ROOT
ATOM      1  C   UNL     1      20.217  12.490 -25.619  1.00  0.00     0.008 C 
ATOM      2  C   UNL     1      20.240  11.364 -26.665  1.00  0.00    -0.006 C 
ATOM      3  C   UNL     1      18.839  11.059 -27.225  1.00  0.00     0.008 C 
ATOM      4  C   UNL     1      17.891  10.455 -26.176  1.00  0.00     0.039 C 
ATOM      5  C   UNL     1      18.512   9.290 -25.416  1.00  0.00    -0.006 C 
ATOM      6  C   UNL     1      17.740   8.275 -24.926  1.00  0.00    -0.070 C 
ATOM      7  C   UNL     1      18.345   7.085 -24.219  1.00  0.00     0.039 C 
ATOM      8  C   UNL     1      16.239   8.277 -25.104  1.00  0.00     0.039 C 
ATOM      9  C   UNL     1      19.975   9.385 -25.138  1.00  0.00     0.159 C 
ATOM     10  O   UNL     1      20.475   8.899 -24.089  1.00  0.00    -0.295 OA
ATOM     11  C   UNL     1      20.882  10.084 -26.111  1.00  0.00     0.084 C 
ENDROOT
TORSDOF 0
ENDMDL
MODEL 4
REMARK VINA RESULT:    -4.894     17.616     18.936
REMARK INTER + INTRA:          -4.894
REMARK INTER:                  -4.894
REMARK INTRA:                   0.000
REMARK UNBOUND:                 0.000
REMARK SMILES CC(C)=C1CC[C@@H](C)CC1=O
REMARK SMILES IDX 8 1 7 2 6 3 5 4 4 5 2 6 1 7 3 8 10 9 11 10 9 11
REMARK H PARENT
REMARK Flexibility Score: inf
ROOT
ATOM      1  C   UNL     1      18.876   7.511 -26.022  1.00  0.00     0.008 C 
ATOM      2  C   UNL     1      18.969   8.547 -24.891  1.00  0.00    -0.006 C 
ATOM      3  C   UNL     1      18.224   9.851 -25.232  1.00  0.00     0.008 C 
ATOM      4  C   UNL     1      18.874  10.630 -26.387  1.00  0.00     0.039 C 
ATOM      5  C   UNL     1      20.375  10.813 -26.209  1.00  0.00    -0.006 C 
ATOM      6  C   UNL     1      21.020  11.904 -26.720  1.00  0.00    -0.070 C 
ATOM      7  C   UNL     1      22.498  12.129 -26.506  1.00  0.00     0.039 C 
ATOM      8  C   UNL     1      20.270  12.963 -27.497  1.00  0.00     0.039 C 
ATOM      9  C   UNL     1      21.108   9.686 -25.560  1.00  0.00     0.159 C 
ATOM     10  O   UNL     1      22.294   9.407 -25.877  1.00  0.00    -0.295 OA
ATOM     11  C   UNL     1      20.427   8.850 -24.514  1.00  0.00     0.084 C 
ENDROOT
TORSDOF 0
ENDMDL
MODEL 5
REMARK VINA RESULT:    -4.828     17.569     18.921
REMARK INTER + INTRA:          -4.828
REMARK INTER:                  -4.828
REMARK INTRA:                   0.000
REMARK UNBOUND:                 0.000
REMARK SMILES CC(C)=C1CC[C@@H](C)CC1=O
REMARK SMILES IDX 8 1 7 2 6 3 5 4 4 5 2 6 1 7 3 8 10 9 11 10 9 11
REMARK H PARENT
REMARK Flexibility Score: inf
ROOT
ATOM      1  C   UNL     1      22.003  10.675 -26.979  1.00  0.00     0.008 C 
ATOM      2  C   UNL     1      21.519  11.173 -25.608  1.00  0.00    -0.006 C 
ATOM      3  C   UNL     1      21.666  10.100 -24.513  1.00  0.00     0.008 C 
ATOM      4  C   UNL     1      20.736   8.895 -24.724  1.00  0.00     0.039 C 
ATOM      5  C   UNL     1      19.292   9.298 -24.993  1.00  0.00    -0.006 C 
ATOM      6  C   UNL     1      18.252   8.494 -24.622  1.00  0.00    -0.070 C 
ATOM      7  C   UNL     1      16.813   8.904 -24.831  1.00  0.00     0.039 C 
ATOM      8  C   UNL     1      18.495   7.164 -23.944  1.00  0.00     0.039 C 
ATOM      9  C   UNL     1      19.090  10.548 -25.784  1.00  0.00     0.159 C 
ATOM     10  O   UNL     1      18.113  10.676 -26.568  1.00  0.00    -0.295 OA
ATOM     11  C   UNL     1      20.071  11.680 -25.665  1.00  0.00     0.084 C 
ENDROOT
TORSDOF 0
ENDMDL
MODEL 6
REMARK VINA RESULT:    -4.709      1.724      4.431
REMARK INTER + INTRA:          -4.709
REMARK INTER:                  -4.709
REMARK INTRA:                   0.000
REMARK UNBOUND:                 0.000
REMARK SMILES CC(C)=C1CC[C@@H](C)CC1=O
REMARK SMILES IDX 8 1 7 2 6 3 5 4 4 5 2 6 1 7 3 8 10 9 11 10 9 11
REMARK H PARENT
REMARK Flexibility Score: inf
ROOT
ATOM      1  C   UNL     1       8.240  20.071 -24.723  1.00  0.00     0.008 C 
ATOM      2  C   UNL     1       8.900  21.339 -25.289  1.00  0.00    -0.006 C 
ATOM      3  C   UNL     1       9.631  22.150 -24.203  1.00  0.00     0.008 C 
ATOM      4  C   UNL     1       8.676  22.764 -23.166  1.00  0.00     0.039 C 
ATOM      5  C   UNL     1       7.509  23.507 -23.801  1.00  0.00    -0.006 C 
ATOM      6  C   UNL     1       6.925  24.573 -23.176  1.00  0.00    -0.070 C 
ATOM      7  C   UNL     1       5.803  25.356 -23.817  1.00  0.00     0.039 C 
ATOM      8  C   UNL     1       7.406  25.045 -21.823  1.00  0.00     0.039 C 
ATOM      9  C   UNL     1       6.969  22.934 -25.070  1.00  0.00     0.159 C 
ATOM     10  O   UNL     1       5.746  23.017 -25.358  1.00  0.00    -0.295 OA
ATOM     11  C   UNL     1       7.888  22.228 -26.026  1.00  0.00     0.084 C 
ENDROOT
TORSDOF 0
ENDMDL
MODEL 7
REMARK VINA RESULT:    -4.694     17.357     19.562
REMARK INTER + INTRA:          -4.694
REMARK INTER:                  -4.694
REMARK INTRA:                   0.000
REMARK UNBOUND:                 0.000
REMARK SMILES CC(C)=C1CC[C@@H](C)CC1=O
REMARK SMILES IDX 8 1 7 2 6 3 5 4 4 5 2 6 1 7 3 8 10 9 11 10 9 11
REMARK H PARENT
REMARK Flexibility Score: inf
ROOT
ATOM      1  C   UNL     1      20.482  13.118 -26.766  1.00  0.00     0.008 C 
ATOM      2  C   UNL     1      20.758  12.113 -25.636  1.00  0.00    -0.006 C 
ATOM      3  C   UNL     1      22.178  11.523 -25.716  1.00  0.00     0.008 C 
ATOM      4  C   UNL     1      22.390  10.631 -26.950  1.00  0.00     0.039 C 
ATOM      5  C   UNL     1      21.288   9.596 -27.131  1.00  0.00    -0.006 C 
ATOM      6  C   UNL     1      21.539   8.391 -27.722  1.00  0.00    -0.070 C 
ATOM      7  C   UNL     1      20.471   7.331 -27.859  1.00  0.00     0.039 C 
ATOM      8  C   UNL     1      22.919   8.044 -28.236  1.00  0.00     0.039 C 
ATOM      9  C   UNL     1      19.911  10.020 -26.739  1.00  0.00     0.159 C 
ATOM     10  O   UNL     1      18.895   9.591 -27.349  1.00  0.00    -0.295 OA
ATOM     11  C   UNL     1      19.715  10.987 -25.607  1.00  0.00     0.084 C 
ENDROOT
TORSDOF 0
ENDMDL
MODEL 8
REMARK VINA RESULT:    -4.581      1.358      3.824
REMARK INTER + INTRA:          -4.581
REMARK INTER:                  -4.581
REMARK INTRA:                   0.000
REMARK UNBOUND:                 0.000
REMARK SMILES CC(C)=C1CC[C@@H](C)CC1=O
REMARK SMILES IDX 8 1 7 2 6 3 5 4 4 5 2 6 1 7 3 8 10 9 11 10 9 11
REMARK H PARENT
REMARK Flexibility Score: inf
ROOT
ATOM      1  C   UNL     1       7.714  21.243 -26.785  1.00  0.00     0.008 C 
ATOM      2  C   UNL     1       6.806  20.974 -25.574  1.00  0.00    -0.006 C 
ATOM      3  C   UNL     1       5.575  21.898 -25.552  1.00  0.00     0.008 C 
ATOM      4  C   UNL     1       5.935  23.374 -25.318  1.00  0.00     0.039 C 
ATOM      5  C   UNL     1       6.871  23.577 -24.133  1.00  0.00    -0.006 C 
ATOM      6  C   UNL     1       6.840  24.726 -23.397  1.00  0.00    -0.070 C 
ATOM      7  C   UNL     1       7.722  24.920 -22.186  1.00  0.00     0.039 C 
ATOM      8  C   UNL     1       5.887  25.850 -23.738  1.00  0.00     0.039 C 
ATOM      9  C   UNL     1       7.891  22.511 -23.906  1.00  0.00     0.159 C 
ATOM     10  O   UNL     1       9.029  22.782 -23.439  1.00  0.00    -0.295 OA
ATOM     11  C   UNL     1       7.577  21.083 -24.250  1.00  0.00     0.084 C 
ENDROOT
TORSDOF 0
ENDMDL
MODEL 9
REMARK VINA RESULT:    -4.529      5.004      6.571
REMARK INTER + INTRA:          -4.529
REMARK INTER:                  -4.529
REMARK INTRA:                   0.000
REMARK UNBOUND:                 0.000
REMARK SMILES CC(C)=C1CC[C@@H](C)CC1=O
REMARK SMILES IDX 8 1 7 2 6 3 5 4 4 5 2 6 1 7 3 8 10 9 11 10 9 11
REMARK H PARENT
REMARK Flexibility Score: inf
ROOT
ATOM      1  C   UNL     1      10.000  18.289 -17.776  1.00  0.00     0.008 C 
ATOM      2  C   UNL     1      10.557  18.017 -19.183  1.00  0.00    -0.006 C 
ATOM      3  C   UNL     1      11.326  19.225 -19.750  1.00  0.00     0.008 C 
ATOM      4  C   UNL     1      10.421  20.435 -20.030  1.00  0.00     0.039 C 
ATOM      5  C   UNL     1       9.176  20.074 -20.830  1.00  0.00    -0.006 C 
ATOM      6  C   UNL     1       8.590  20.976 -21.672  1.00  0.00    -0.070 C 
ATOM      7  C   UNL     1       7.389  20.616 -22.514  1.00  0.00     0.039 C 
ATOM      8  C   UNL     1       9.145  22.374 -21.829  1.00  0.00     0.039 C 
ATOM      9  C   UNL     1       8.574  18.737 -20.550  1.00  0.00     0.159 C 
ATOM     10  O   UNL     1       7.331  18.550 -20.623  1.00  0.00    -0.295 OA
ATOM     11  C   UNL     1       9.453  17.583 -20.158  1.00  0.00     0.084 C 
ENDROOT
TORSDOF 0
ENDMDL
