MODEL 1
REMARK VINA RESULT:    -3.462      0.000      0.000
REMARK INTER + INTRA:          -5.572
REMARK INTER:                  -4.676
REMARK INTRA:                  -0.896
REMARK UNBOUND:                -0.896
REMARK SMILES O=C[C@H](O)[C@@H](O)[C@H](O)CO
REMARK SMILES IDX 7 1 9 2 10 3 5 5 3 6 2 7 1 8 4 9 6 11 8 13
REMARK H PARENT 10 4 4 10 6 12 8 14
REMARK Flexibility Score: inf
ROOT
ATOM      1  C   UNL     1      -0.708   7.777  -7.786  1.00  0.00     0.171 C 
ENDROOT
BRANCH   1   2
ATOM      2  C   UNL     1      -1.100   8.966  -8.686  1.00  0.00     0.190 C 
BRANCH   2   3
ATOM      3  O   UNL     1      -2.482   8.980  -8.920  1.00  0.00    -0.394 OA
ATOM      4  H   UNL     1      -2.867   9.610  -8.256  1.00  0.00     0.210 HD
ENDBRANCH   2   3
ENDBRANCH   1   2
BRANCH   1   5
ATOM      5  C   UNL     1      -0.899   6.407  -8.499  1.00  0.00     0.181 C 
BRANCH   5   6
ATOM      6  C   UNL     1      -2.144   5.606  -8.033  1.00  0.00     0.209 C 
BRANCH   6   7
ATOM      7  C   UNL     1      -2.090   4.146  -8.406  1.00  0.00     0.258 C 
ATOM      8  O   UNL     1      -2.004   3.799  -9.573  1.00  0.00    -0.300 OA
ENDBRANCH   6   7
BRANCH   6   9
ATOM      9  O   UNL     1      -3.309   6.193  -8.553  1.00  0.00    -0.383 OA
ATOM     10  H   UNL     1      -4.038   5.526  -8.451  1.00  0.00     0.211 HD
ENDBRANCH   6   9
ENDBRANCH   5   6
BRANCH   5  11
ATOM     11  O   UNL     1      -0.870   6.541  -9.901  1.00  0.00    -0.387 OA
ATOM     12  H   UNL     1      -1.804   6.631 -10.222  1.00  0.00     0.211 HD
ENDBRANCH   5  11
ENDBRANCH   1   5
BRANCH   1  13
ATOM     13  O   UNL     1      -1.388   7.833  -6.555  1.00  0.00    -0.388 OA
ATOM     14  H   UNL     1      -0.724   7.720  -5.827  1.00  0.00     0.211 HD
ENDBRANCH   1  13
TORSDOF 8
ENDMDL
MODEL 2
REMARK VINA RESULT:    -3.460     20.625     21.580
REMARK INTER + INTRA:          -5.569
REMARK INTER:                  -4.598
REMARK INTRA:                  -0.971
REMARK UNBOUND:                -0.896
REMARK SMILES O=C[C@H](O)[C@@H](O)[C@H](O)CO
REMARK SMILES IDX 7 1 9 2 10 3 5 5 3 6 2 7 1 8 4 9 6 11 8 13
REMARK H PARENT 10 4 4 10 6 12 8 14
REMARK Flexibility Score: inf
ROOT
ATOM      1  C   UNL     1       1.921  -6.689   6.755  1.00  0.00     0.171 C 
ENDROOT
BRANCH   1   2
ATOM      2  C   UNL     1       1.192  -7.338   7.948  1.00  0.00     0.190 C 
BRANCH   2   3
ATOM      3  O   UNL     1       2.099  -8.003   8.785  1.00  0.00    -0.394 OA
ATOM      4  H   UNL     1       1.740  -7.914   9.706  1.00  0.00     0.210 HD
ENDBRANCH   2   3
ENDBRANCH   1   2
BRANCH   1   5
ATOM      5  C   UNL     1       2.599  -7.742   5.832  1.00  0.00     0.181 C 
BRANCH   5   6
ATOM      6  C   UNL     1       4.149  -7.771   5.917  1.00  0.00     0.209 C 
BRANCH   6   7
ATOM      7  C   UNL     1       4.790  -8.633   4.859  1.00  0.00     0.258 C 
ATOM      8  O   UNL     1       4.440  -9.792   4.697  1.00  0.00    -0.300 OA
ENDBRANCH   6   7
BRANCH   6   9
ATOM      9  O   UNL     1       4.548  -8.199   7.193  1.00  0.00    -0.383 OA
ATOM     10  H   UNL     1       5.454  -7.824   7.353  1.00  0.00     0.211 HD
ENDBRANCH   6   9
ENDBRANCH   5   6
BRANCH   5  11
ATOM     11  O   UNL     1       2.052  -9.027   6.017  1.00  0.00    -0.387 OA
ATOM     12  H   UNL     1       1.714  -9.348   5.142  1.00  0.00     0.211 HD
ENDBRANCH   5  11
ENDBRANCH   1   5
BRANCH   1  13
ATOM     13  O   UNL     1       2.829  -5.707   7.195  1.00  0.00    -0.388 OA
ATOM     14  H   UNL     1       3.067  -5.134   6.420  1.00  0.00     0.211 HD
ENDBRANCH   1  13
TORSDOF 8
ENDMDL
MODEL 3
REMARK VINA RESULT:    -3.418     20.621     21.838
REMARK INTER + INTRA:          -5.513
REMARK INTER:                  -4.592
REMARK INTRA:                  -0.921
REMARK UNBOUND:                -0.896
REMARK SMILES O=C[C@H](O)[C@@H](O)[C@H](O)CO
REMARK SMILES IDX 7 1 9 2 10 3 5 5 3 6 2 7 1 8 4 9 6 11 8 13
REMARK H PARENT 10 4 4 10 6 12 8 14
REMARK Flexibility Score: inf
ROOT
ATOM      1  C   UNL     1       2.645  -7.603   6.577  1.00  0.00     0.171 C 
ENDROOT
BRANCH   1   2
ATOM      2  C   UNL     1       2.742  -6.411   7.551  1.00  0.00     0.190 C 
BRANCH   2   3
ATOM      3  O   UNL     1       3.856  -5.614   7.253  1.00  0.00    -0.394 OA
ATOM      4  H   UNL     1       3.542  -4.936   6.600  1.00  0.00     0.210 HD
ENDBRANCH   2   3
ENDBRANCH   1   2
BRANCH   1   5
ATOM      5  C   UNL     1       3.803  -8.624   6.775  1.00  0.00     0.181 C 
BRANCH   5   6
ATOM      6  C   UNL     1       4.753  -8.763   5.556  1.00  0.00     0.209 C 
BRANCH   6   7
ATOM      7  C   UNL     1       5.887  -9.731   5.789  1.00  0.00     0.258 C 
ATOM      8  O   UNL     1       6.900  -9.381   6.375  1.00  0.00    -0.300 OA
ENDBRANCH   6   7
BRANCH   6   9
ATOM      9  O   UNL     1       5.261  -7.503   5.202  1.00  0.00    -0.383 OA
ATOM     10  H   UNL     1       5.717  -7.612   4.326  1.00  0.00     0.211 HD
ENDBRANCH   6   9
ENDBRANCH   5   6
BRANCH   5  11
ATOM     11  O   UNL     1       4.522  -8.373   7.960  1.00  0.00    -0.387 OA
ATOM     12  H   UNL     1       5.393  -8.843   7.899  1.00  0.00     0.211 HD
ENDBRANCH   5  11
ENDBRANCH   1   5
BRANCH   1  13
ATOM     13  O   UNL     1       2.552  -7.159   5.245  1.00  0.00    -0.388 OA
ATOM     14  H   UNL     1       1.634  -7.347   4.918  1.00  0.00     0.211 HD
ENDBRANCH   1  13
TORSDOF 8
ENDMDL
MODEL 4
REMARK VINA RESULT:    -3.387     20.684     21.915
REMARK INTER + INTRA:          -5.472
REMARK INTER:                  -4.741
REMARK INTRA:                  -0.730
REMARK UNBOUND:                -0.896
REMARK SMILES O=C[C@H](O)[C@@H](O)[C@H](O)CO
REMARK SMILES IDX 7 1 9 2 10 3 5 5 3 6 2 7 1 8 4 9 6 11 8 13
REMARK H PARENT 10 4 4 10 6 12 8 14
REMARK Flexibility Score: inf
ROOT
ATOM      1  C   UNL     1       5.224  -8.717   5.014  1.00  0.00     0.171 C 
ENDROOT
BRANCH   1   2
ATOM      2  C   UNL     1       5.999  -9.859   5.703  1.00  0.00     0.190 C 
BRANCH   2   3
ATOM      3  O   UNL     1       7.198  -9.386   6.255  1.00  0.00    -0.394 OA
ATOM      4  H   UNL     1       7.850 -10.129   6.172  1.00  0.00     0.210 HD
ENDBRANCH   2   3
ENDBRANCH   1   2
BRANCH   1   5
ATOM      5  C   UNL     1       4.385  -7.880   6.023  1.00  0.00     0.181 C 
BRANCH   5   6
ATOM      6  C   UNL     1       2.860  -7.864   5.735  1.00  0.00     0.209 C 
BRANCH   6   7
ATOM      7  C   UNL     1       2.100  -6.880   6.588  1.00  0.00     0.258 C 
ATOM      8  O   UNL     1       2.678  -5.973   7.165  1.00  0.00    -0.300 OA
ENDBRANCH   6   7
BRANCH   6   9
ATOM      9  O   UNL     1       2.331  -9.154   5.901  1.00  0.00    -0.383 OA
ATOM     10  H   UNL     1       2.062  -9.474   5.000  1.00  0.00     0.211 HD
ENDBRANCH   6   9
ENDBRANCH   5   6
BRANCH   5  11
ATOM     11  O   UNL     1       4.652  -8.249   7.355  1.00  0.00    -0.387 OA
ATOM     12  H   UNL     1       4.774  -9.233   7.385  1.00  0.00     0.211 HD
ENDBRANCH   5  11
ENDBRANCH   1   5
BRANCH   1  13
ATOM     13  O   UNL     1       4.441  -9.209   3.953  1.00  0.00    -0.388 OA
ATOM     14  H   UNL     1       4.029  -8.437   3.487  1.00  0.00     0.211 HD
ENDBRANCH   1  13
TORSDOF 8
ENDMDL
MODEL 5
REMARK VINA RESULT:    -3.346     20.732     21.585
REMARK INTER + INTRA:          -5.416
REMARK INTER:                  -4.508
REMARK INTRA:                  -0.908
REMARK UNBOUND:                -0.896
REMARK SMILES O=C[C@H](O)[C@@H](O)[C@H](O)CO
REMARK SMILES IDX 7 1 9 2 10 3 5 5 3 6 2 7 1 8 4 9 6 11 8 13
REMARK H PARENT 10 4 4 10 6 12 8 14
REMARK Flexibility Score: inf
ROOT
ATOM      1  C   UNL     1       2.317  -7.667   7.912  1.00  0.00     0.171 C 
ENDROOT
BRANCH   1   2
ATOM      2  C   UNL     1       2.864  -6.377   8.557  1.00  0.00     0.190 C 
BRANCH   2   3
ATOM      3  O   UNL     1       3.401  -5.522   7.584  1.00  0.00    -0.394 OA
ATOM      4  H   UNL     1       2.695  -4.854   7.385  1.00  0.00     0.210 HD
ENDBRANCH   2   3
ENDBRANCH   1   2
BRANCH   1   5
ATOM      5  C   UNL     1       3.426  -8.479   7.182  1.00  0.00     0.181 C 
BRANCH   5   6
ATOM      6  C   UNL     1       3.345  -8.430   5.633  1.00  0.00     0.209 C 
BRANCH   6   7
ATOM      7  C   UNL     1       4.550  -9.027   4.951  1.00  0.00     0.258 C 
ATOM      8  O   UNL     1       5.609  -8.421   4.904  1.00  0.00    -0.300 OA
ENDBRANCH   6   7
BRANCH   6   9
ATOM      9  O   UNL     1       3.159  -7.104   5.208  1.00  0.00    -0.383 OA
ATOM     10  H   UNL     1       3.763  -6.538   5.756  1.00  0.00     0.211 HD
ENDBRANCH   6   9
ENDBRANCH   5   6
BRANCH   5  11
ATOM     11  O   UNL     1       4.712  -8.133   7.639  1.00  0.00    -0.387 OA
ATOM     12  H   UNL     1       5.158  -8.958   7.961  1.00  0.00     0.211 HD
ENDBRANCH   5  11
ENDBRANCH   1   5
BRANCH   1  13
ATOM     13  O   UNL     1       1.225  -7.384   7.071  1.00  0.00    -0.388 OA
ATOM     14  H   UNL     1       1.040  -8.189   6.520  1.00  0.00     0.211 HD
ENDBRANCH   1  13
TORSDOF 8
ENDMDL
MODEL 6
REMARK VINA RESULT:    -3.301     20.678     21.721
REMARK INTER + INTRA:          -5.355
REMARK INTER:                  -4.417
REMARK INTRA:                  -0.938
REMARK UNBOUND:                -0.896
REMARK SMILES O=C[C@H](O)[C@@H](O)[C@H](O)CO
REMARK SMILES IDX 7 1 9 2 10 3 5 5 3 6 2 7 1 8 4 9 6 11 8 13
REMARK H PARENT 10 4 4 10 6 12 8 14
REMARK Flexibility Score: inf
ROOT
ATOM      1  C   UNL     1       4.249  -7.492   5.985  1.00  0.00     0.171 C 
ENDROOT
BRANCH   1   2
ATOM      2  C   UNL     1       5.053  -8.630   5.324  1.00  0.00     0.190 C 
BRANCH   2   3
ATOM      3  O   UNL     1       4.196  -9.623   4.828  1.00  0.00    -0.394 OA
ATOM      4  H   UNL     1       4.055  -9.411   3.869  1.00  0.00     0.210 HD
ENDBRANCH   2   3
ENDBRANCH   1   2
BRANCH   1   5
ATOM      5  C   UNL     1       3.951  -7.773   7.486  1.00  0.00     0.181 C 
BRANCH   5   6
ATOM      6  C   UNL     1       3.364  -6.565   8.263  1.00  0.00     0.209 C 
BRANCH   6   7
ATOM      7  C   UNL     1       1.872  -6.651   8.465  1.00  0.00     0.258 C 
ATOM      8  O   UNL     1       1.116  -6.761   7.513  1.00  0.00    -0.300 OA
ENDBRANCH   6   7
BRANCH   6   9
ATOM      9  O   UNL     1       3.692  -5.369   7.603  1.00  0.00    -0.383 OA
ATOM     10  H   UNL     1       3.279  -4.630   8.123  1.00  0.00     0.211 HD
ENDBRANCH   6   9
ENDBRANCH   5   6
BRANCH   5  11
ATOM     11  O   UNL     1       3.158  -8.925   7.653  1.00  0.00    -0.387 OA
ATOM     12  H   UNL     1       3.722  -9.633   8.058  1.00  0.00     0.211 HD
ENDBRANCH   5  11
ENDBRANCH   1   5
BRANCH   1  13
ATOM     13  O   UNL     1       3.078  -7.213   5.255  1.00  0.00    -0.388 OA
ATOM     14  H   UNL     1       2.731  -6.332   5.548  1.00  0.00     0.211 HD
ENDBRANCH   1  13
TORSDOF 8
ENDMDL
MODEL 7
REMARK VINA RESULT:    -3.290     10.158     11.311
REMARK INTER + INTRA:          -5.340
REMARK INTER:                  -4.390
REMARK INTRA:                  -0.950
REMARK UNBOUND:                -0.896
REMARK SMILES O=C[C@H](O)[C@@H](O)[C@H](O)CO
REMARK SMILES IDX 7 1 9 2 10 3 5 5 3 6 2 7 1 8 4 9 6 11 8 13
REMARK H PARENT 10 4 4 10 6 12 8 14
REMARK Flexibility Score: inf
ROOT
ATOM      1  C   UNL     1       8.624   2.925  -8.092  1.00  0.00     0.171 C 
ENDROOT
BRANCH   1   2
ATOM      2  C   UNL     1       8.813   1.556  -8.776  1.00  0.00     0.190 C 
BRANCH   2   3
ATOM      3  O   UNL     1       8.249   1.557 -10.060  1.00  0.00    -0.394 OA
ATOM      4  H   UNL     1       8.942   1.186 -10.665  1.00  0.00     0.210 HD
ENDBRANCH   2   3
ENDBRANCH   1   2
BRANCH   1   5
ATOM      5  C   UNL     1       8.213   4.037  -9.100  1.00  0.00     0.181 C 
BRANCH   5   6
ATOM      6  C   UNL     1       7.860   5.400  -8.446  1.00  0.00     0.209 C 
BRANCH   6   7
ATOM      7  C   UNL     1       8.932   6.445  -8.627  1.00  0.00     0.258 C 
ATOM      8  O   UNL     1      10.089   6.218  -8.310  1.00  0.00    -0.300 OA
ENDBRANCH   6   7
BRANCH   6   9
ATOM      9  O   UNL     1       7.591   5.217  -7.080  1.00  0.00    -0.383 OA
ATOM     10  H   UNL     1       6.622   5.396  -6.951  1.00  0.00     0.211 HD
ENDBRANCH   6   9
ENDBRANCH   5   6
BRANCH   5  11
ATOM     11  O   UNL     1       9.167   4.191 -10.124  1.00  0.00    -0.387 OA
ATOM     12  H   UNL     1       8.750   3.916 -10.980  1.00  0.00     0.211 HD
ENDBRANCH   5  11
ENDBRANCH   1   5
BRANCH   1  13
ATOM     13  O   UNL     1       9.766   3.278  -7.349  1.00  0.00    -0.388 OA
ATOM     14  H   UNL     1       9.955   4.238  -7.508  1.00  0.00     0.211 HD
ENDBRANCH   1  13
TORSDOF 8
ENDMDL
MODEL 8
REMARK VINA RESULT:    -3.286     20.736     21.609
REMARK INTER + INTRA:          -5.335
REMARK INTER:                  -4.461
REMARK INTRA:                  -0.874
REMARK UNBOUND:                -0.896
REMARK SMILES O=C[C@H](O)[C@@H](O)[C@H](O)CO
REMARK SMILES IDX 7 1 9 2 10 3 5 5 3 6 2 7 1 8 4 9 6 11 8 13
REMARK H PARENT 10 4 4 10 6 12 8 14
REMARK Flexibility Score: inf
ROOT
ATOM      1  C   UNL     1       4.473  -8.230   5.991  1.00  0.00     0.171 C 
ENDROOT
BRANCH   1   2
ATOM      2  C   UNL     1       5.237  -8.862   4.810  1.00  0.00     0.190 C 
BRANCH   2   3
ATOM      3  O   UNL     1       4.689 -10.108   4.472  1.00  0.00    -0.394 OA
ATOM      4  H   UNL     1       3.753  -9.930   4.193  1.00  0.00     0.210 HD
ENDBRANCH   2   3
ENDBRANCH   1   2
BRANCH   1   5
ATOM      5  C   UNL     1       2.986  -8.683   6.044  1.00  0.00     0.181 C 
BRANCH   5   6
ATOM      6  C   UNL     1       2.238  -8.289   7.346  1.00  0.00     0.209 C 
BRANCH   6   7
ATOM      7  C   UNL     1       1.448  -7.010   7.218  1.00  0.00     0.258 C 
ATOM      8  O   UNL     1       2.003  -5.953   6.965  1.00  0.00    -0.300 OA
ENDBRANCH   6   7
BRANCH   6   9
ATOM      9  O   UNL     1       3.152  -8.185   8.407  1.00  0.00    -0.383 OA
ATOM     10  H   UNL     1       3.262  -9.098   8.783  1.00  0.00     0.211 HD
ENDBRANCH   6   9
ENDBRANCH   5   6
BRANCH   5  11
ATOM     11  O   UNL     1       2.275  -8.272   4.900  1.00  0.00    -0.387 OA
ATOM     12  H   UNL     1       2.648  -7.404   4.599  1.00  0.00     0.211 HD
ENDBRANCH   5  11
ENDBRANCH   1   5
BRANCH   1  13
ATOM     13  O   UNL     1       4.601  -6.828   5.980  1.00  0.00    -0.388 OA
ATOM     14  H   UNL     1       5.230  -6.579   5.255  1.00  0.00     0.211 HD
ENDBRANCH   1  13
TORSDOF 8
ENDMDL
