MODEL 1
REMARK VINA RESULT:     0.000      0.000      0.000
REMARK INTER + INTRA:          -0.194
REMARK INTER:                   0.000
REMARK INTRA:                  -0.194
REMARK UNBOUND:                -0.194
REMARK SMILES O=C([O-])CCC(=O)[O-]
REMARK SMILES IDX 4 1 2 2 1 3 3 4 5 5 6 6 7 7 8 8
REMARK H PARENT
REMARK Flexibility Score: inf
ROOT
ATOM      1  C   UNL     1      14.622  27.735  28.632  1.00  0.00     0.059 C 
ENDROOT
BRANCH   1   2
ATOM      2  C   UNL     1      14.980  27.822  30.081  1.00  0.00     0.042 C 
ATOM      3  O   UNL     1      15.979  28.495  30.449  1.00  0.00    -0.550 OA
ATOM      4  O   UNL     1      14.182  27.200  31.033  1.00  0.00    -0.550 OA
ENDBRANCH   1   2
BRANCH   1   5
ATOM      5  C   UNL     1      13.197  28.238  28.402  1.00  0.00     0.059 C 
BRANCH   5   6
ATOM      6  C   UNL     1      13.098  29.698  28.715  1.00  0.00     0.042 C 
ATOM      7  O   UNL     1      12.280  30.105  29.583  1.00  0.00    -0.550 OA
ATOM      8  O   UNL     1      13.944  30.604  28.088  1.00  0.00    -0.550 OA
ENDBRANCH   5   6
ENDBRANCH   1   5
TORSDOF 3
ENDMDL
MODEL 2
REMARK VINA RESULT:     0.000      7.315      8.736
REMARK INTER + INTRA:          -0.194
REMARK INTER:                   0.000
REMARK INTRA:                  -0.194
REMARK UNBOUND:                -0.194
REMARK SMILES O=C([O-])CCC(=O)[O-]
REMARK SMILES IDX 4 1 2 2 1 3 3 4 5 5 6 6 7 7 8 8
REMARK H PARENT
REMARK Flexibility Score: inf
ROOT
ATOM      1  C   UNL     1      22.419  25.069  32.973  1.00  0.00     0.059 C 
ENDROOT
BRANCH   1   2
ATOM      2  C   UNL     1      22.426  26.470  33.497  1.00  0.00     0.042 C 
ATOM      3  O   UNL     1      22.835  27.416  32.774  1.00  0.00    -0.550 OA
ATOM      4  O   UNL     1      21.936  26.738  34.769  1.00  0.00    -0.550 OA
ENDBRANCH   1   2
BRANCH   1   5
ATOM      5  C   UNL     1      21.008  24.484  33.027  1.00  0.00     0.059 C 
BRANCH   5   6
ATOM      6  C   UNL     1      20.096  25.225  32.102  1.00  0.00     0.042 C 
ATOM      7  O   UNL     1      19.055  25.778  32.546  1.00  0.00    -0.550 OA
ATOM      8  O   UNL     1      20.421  25.350  30.757  1.00  0.00    -0.550 OA
ENDBRANCH   5   6
ENDBRANCH   1   5
TORSDOF 3
ENDMDL
MODEL 3
REMARK VINA RESULT:     0.000      1.687      3.480
REMARK INTER + INTRA:          -0.194
REMARK INTER:                   0.000
REMARK INTRA:                  -0.194
REMARK UNBOUND:                -0.194
REMARK SMILES O=C([O-])CCC(=O)[O-]
REMARK SMILES IDX 4 1 2 2 1 3 3 4 5 5 6 6 7 7 8 8
REMARK H PARENT
REMARK Flexibility Score: inf
ROOT
ATOM      1  C   UNL     1      13.480  29.955  29.689  1.00  0.00     0.059 C 
ENDROOT
BRANCH   1   2
ATOM      2  C   UNL     1      12.982  30.440  28.365  1.00  0.00     0.042 C 
ATOM      3  O   UNL     1      13.793  30.828  27.485  1.00  0.00    -0.550 OA
ATOM      4  O   UNL     1      11.621  30.418  28.085  1.00  0.00    -0.550 OA
ENDBRANCH   1   2
BRANCH   1   5
ATOM      5  C   UNL     1      13.004  28.526  29.950  1.00  0.00     0.059 C 
BRANCH   5   6
ATOM      6  C   UNL     1      13.613  27.582  28.962  1.00  0.00     0.042 C 
ATOM      7  O   UNL     1      12.876  26.873  28.226  1.00  0.00    -0.550 OA
ATOM      8  O   UNL     1      14.993  27.519  28.818  1.00  0.00    -0.550 OA
ENDBRANCH   5   6
ENDBRANCH   1   5
TORSDOF 3
ENDMDL
MODEL 4
REMARK VINA RESULT:     0.000      7.192      8.220
REMARK INTER + INTRA:          -0.194
REMARK INTER:                   0.000
REMARK INTRA:                  -0.194
REMARK UNBOUND:                -0.194
REMARK SMILES O=C([O-])CCC(=O)[O-]
REMARK SMILES IDX 4 1 2 2 1 3 3 4 5 5 6 6 7 7 8 8
REMARK H PARENT
REMARK Flexibility Score: inf
ROOT
ATOM      1  C   UNL     1      16.094  22.086  30.880  1.00  0.00     0.059 C 
ENDROOT
BRANCH   1   2
ATOM      2  C   UNL     1      17.513  21.672  30.659  1.00  0.00     0.042 C 
ATOM      3  O   UNL     1      18.404  22.540  30.466  1.00  0.00    -0.550 OA
ATOM      4  O   UNL     1      17.862  20.329  30.715  1.00  0.00    -0.550 OA
ENDBRANCH   1   2
BRANCH   1   5
ATOM      5  C   UNL     1      15.584  21.559  32.222  1.00  0.00     0.059 C 
BRANCH   5   6
ATOM      6  C   UNL     1      16.330  22.195  33.352  1.00  0.00     0.042 C 
ATOM      7  O   UNL     1      16.954  21.480  34.181  1.00  0.00    -0.550 OA
ATOM      8  O   UNL     1      16.380  23.579  33.464  1.00  0.00    -0.550 OA
ENDBRANCH   5   6
ENDBRANCH   1   5
TORSDOF 3
ENDMDL
MODEL 5
REMARK VINA RESULT:     0.000      8.129      8.956
REMARK INTER + INTRA:          -0.194
REMARK INTER:                   0.000
REMARK INTRA:                  -0.194
REMARK UNBOUND:                -0.194
REMARK SMILES O=C([O-])CCC(=O)[O-]
REMARK SMILES IDX 4 1 2 2 1 3 3 4 5 5 6 6 7 7 8 8
REMARK H PARENT
REMARK Flexibility Score: inf
ROOT
ATOM      1  C   UNL     1      10.056  25.308  22.490  1.00  0.00     0.059 C 
ENDROOT
BRANCH   1   2
ATOM      2  C   UNL     1       8.695  25.774  22.898  1.00  0.00     0.042 C 
ATOM      3  O   UNL     1       8.508  26.257  24.046  1.00  0.00    -0.550 OA
ATOM      4  O   UNL     1       7.642  25.720  21.994  1.00  0.00    -0.550 OA
ENDBRANCH   1   2
BRANCH   1   5
ATOM      5  C   UNL     1      10.521  26.046  21.234  1.00  0.00     0.059 C 
BRANCH   5   6
ATOM      6  C   UNL     1      10.704  27.503  21.521  1.00  0.00     0.042 C 
ATOM      7  O   UNL     1      10.066  28.364  20.858  1.00  0.00    -0.550 OA
ATOM      8  O   UNL     1      11.541  27.910  22.552  1.00  0.00    -0.550 OA
ENDBRANCH   5   6
ENDBRANCH   1   5
TORSDOF 3
ENDMDL
MODEL 6
REMARK VINA RESULT:     0.000      8.730      9.526
REMARK INTER + INTRA:          -0.194
REMARK INTER:                   0.000
REMARK INTRA:                  -0.194
REMARK UNBOUND:                -0.194
REMARK SMILES O=C([O-])CCC(=O)[O-]
REMARK SMILES IDX 4 1 2 2 1 3 3 4 5 5 6 6 7 7 8 8
REMARK H PARENT
REMARK Flexibility Score: inf
ROOT
ATOM      1  C   UNL     1      21.691  31.098  23.567  1.00  0.00     0.059 C 
ENDROOT
BRANCH   1   2
ATOM      2  C   UNL     1      21.735  31.090  25.062  1.00  0.00     0.042 C 
ATOM      3  O   UNL     1      20.701  31.359  25.728  1.00  0.00    -0.550 OA
ATOM      4  O   UNL     1      22.905  30.736  25.721  1.00  0.00    -0.550 OA
ENDBRANCH   1   2
BRANCH   1   5
ATOM      5  C   UNL     1      22.110  29.737  23.011  1.00  0.00     0.059 C 
BRANCH   5   6
ATOM      6  C   UNL     1      21.120  28.685  23.399  1.00  0.00     0.042 C 
ATOM      7  O   UNL     1      21.494  27.673  24.051  1.00  0.00    -0.550 OA
ATOM      8  O   UNL     1      19.776  28.844  23.087  1.00  0.00    -0.550 OA
ENDBRANCH   5   6
ENDBRANCH   1   5
TORSDOF 3
ENDMDL
MODEL 7
REMARK VINA RESULT:     0.000     10.347     11.498
REMARK INTER + INTRA:          -0.194
REMARK INTER:                   0.000
REMARK INTRA:                  -0.194
REMARK UNBOUND:                -0.194
REMARK SMILES O=C([O-])CCC(=O)[O-]
REMARK SMILES IDX 4 1 2 2 1 3 3 4 5 5 6 6 7 7 8 8
REMARK H PARENT
REMARK Flexibility Score: inf
ROOT
ATOM      1  C   UNL     1      23.278  27.108  36.395  1.00  0.00     0.059 C 
ENDROOT
BRANCH   1   2
ATOM      2  C   UNL     1      23.345  25.745  37.006  1.00  0.00     0.042 C 
ATOM      3  O   UNL     1      23.786  25.595  38.175  1.00  0.00    -0.550 OA
ATOM      4  O   UNL     1      22.875  24.644  36.301  1.00  0.00    -0.550 OA
ENDBRANCH   1   2
BRANCH   1   5
ATOM      5  C   UNL     1      21.844  27.438  35.977  1.00  0.00     0.059 C 
BRANCH   5   6
ATOM      6  C   UNL     1      20.956  27.531  37.177  1.00  0.00     0.042 C 
ATOM      7  O   UNL     1      19.941  26.791  37.274  1.00  0.00    -0.550 OA
ATOM      8  O   UNL     1      21.275  28.399  38.214  1.00  0.00    -0.550 OA
ENDBRANCH   5   6
ENDBRANCH   1   5
TORSDOF 3
ENDMDL
MODEL 8
REMARK VINA RESULT:     0.000      9.649     10.840
REMARK INTER + INTRA:          -0.194
REMARK INTER:                   0.000
REMARK INTRA:                  -0.194
REMARK UNBOUND:                -0.194
REMARK SMILES O=C([O-])CCC(=O)[O-]
REMARK SMILES IDX 4 1 2 2 1 3 3 4 5 5 6 6 7 7 8 8
REMARK H PARENT
REMARK Flexibility Score: inf
ROOT
ATOM      1  C   UNL     1      19.509  34.763  22.603  1.00  0.00     0.059 C 
ENDROOT
BRANCH   1   2
ATOM      2  C   UNL     1      20.139  33.940  21.525  1.00  0.00     0.042 C 
ATOM      3  O   UNL     1      20.317  32.705  21.692  1.00  0.00    -0.550 OA
ATOM      4  O   UNL     1      20.487  34.528  20.316  1.00  0.00    -0.550 OA
ENDBRANCH   1   2
BRANCH   1   5
ATOM      5  C   UNL     1      18.252  35.459  22.079  1.00  0.00     0.059 C 
BRANCH   5   6
ATOM      6  C   UNL     1      17.203  34.452  21.728  1.00  0.00     0.042 C 
ATOM      7  O   UNL     1      16.733  34.408  20.559  1.00  0.00    -0.550 OA
ATOM      8  O   UNL     1      16.778  33.529  22.674  1.00  0.00    -0.550 OA
ENDBRANCH   5   6
ENDBRANCH   1   5
TORSDOF 3
ENDMDL
MODEL 9
REMARK VINA RESULT:     0.000     10.304     11.191
REMARK INTER + INTRA:          -0.194
REMARK INTER:                   0.000
REMARK INTRA:                  -0.194
REMARK UNBOUND:                -0.194
REMARK SMILES O=C([O-])CCC(=O)[O-]
REMARK SMILES IDX 4 1 2 2 1 3 3 4 5 5 6 6 7 7 8 8
REMARK H PARENT
REMARK Flexibility Score: inf
ROOT
ATOM      1  C   UNL     1      22.076  24.976  21.696  1.00  0.00     0.059 C 
ENDROOT
BRANCH   1   2
ATOM      2  C   UNL     1      22.116  25.933  20.548  1.00  0.00     0.042 C 
ATOM      3  O   UNL     1      21.567  25.636  19.455  1.00  0.00    -0.550 OA
ATOM      4  O   UNL     1      22.720  27.175  20.699  1.00  0.00    -0.550 OA
ENDBRANCH   1   2
BRANCH   1   5
ATOM      5  C   UNL     1      21.427  25.631  22.916  1.00  0.00     0.059 C 
BRANCH   5   6
ATOM      6  C   UNL     1      19.988  25.936  22.644  1.00  0.00     0.042 C 
ATOM      7  O   UNL     1      19.561  27.117  22.744  1.00  0.00    -0.550 OA
ATOM      8  O   UNL     1      19.128  24.926  22.232  1.00  0.00    -0.550 OA
ENDBRANCH   5   6
ENDBRANCH   1   5
TORSDOF 3
ENDMDL
