MODEL 1
REMARK VINA RESULT:    -3.778      0.000      0.000
REMARK INTER + INTRA:          -7.600
REMARK INTER:                  -5.877
REMARK INTRA:                  -1.724
REMARK UNBOUND:                -1.724
REMARK SMILES COc1cc(CNC(=O)CCCCC=CC(C)C)ccc1O
REMARK SMILES IDX 11 1 12 2 13 3 14 4 15 5 16 6 17 7 18 8 10 9 8 10 9 11 7 12
REMARK SMILES IDX 6 14 5 15 4 16 19 17 3 18 20 19 21 20 2 21 1 22 22 23
REMARK H PARENT 7 13 22 24
REMARK Flexibility Score: inf
ROOT
ATOM      1  C   UNL     1     119.300 115.361 113.526  1.00  0.00     0.010 C 
ENDROOT
BRANCH   1   2
ATOM      2  C   UNL     1     118.680 114.061 112.975  1.00  0.00     0.005 C 
BRANCH   2   3
ATOM      3  C   UNL     1     117.470 114.277 112.054  1.00  0.00     0.027 C 
BRANCH   3   4
ATOM      4  C   UNL     1     116.171 114.187 112.810  1.00  0.00    -0.031 C 
ATOM      5  C   UNL     1     115.408 115.269 113.027  1.00  0.00    -0.028 C 
BRANCH   5   6
ATOM      6  C   UNL     1     114.089 115.179 113.754  1.00  0.00     0.005 C 
ATOM      7  C   UNL     1     114.214 115.824 115.137  1.00  0.00     0.012 C 
ATOM      8  C   UNL     1     113.661 113.715 113.873  1.00  0.00     0.012 C 
ENDBRANCH   5   6
ENDBRANCH   3   4
ENDBRANCH   2   3
ENDBRANCH   1   2
BRANCH   1   9
ATOM      9  C   UNL     1     119.093 116.590 112.628  1.00  0.00     0.100 C 
BRANCH   9  10
ATOM     10  C   UNL     1     118.692 117.800 113.420  1.00  0.00     0.220 C 
ATOM     11  O   UNL     1     119.263 118.903 113.196  1.00  0.00    -0.275 OA
ATOM     12  N   UNL     1     117.696 117.696 114.447  1.00  0.00    -0.352 N 
ATOM     13  H   UNL     1     117.274 116.763 114.656  1.00  0.00     0.163 HD
BRANCH  12  14
ATOM     14  C   UNL     1     117.279 118.840 115.254  1.00  0.00     0.151 C 
BRANCH  14  15
ATOM     15  C   UNL     1     115.822 119.137 115.020  1.00  0.00    -0.025 A 
ATOM     16  C   UNL     1     114.977 119.397 116.108  1.00  0.00     0.056 A 
ATOM     17  C   UNL     1     115.293 119.126 113.722  1.00  0.00     0.009 A 
ATOM     18  C   UNL     1     113.606 119.656 115.906  1.00  0.00     0.160 A 
ATOM     19  C   UNL     1     113.936 119.382 113.515  1.00  0.00     0.050 A 
ATOM     20  C   UNL     1     113.091 119.647 114.597  1.00  0.00     0.157 A 
BRANCH  18  21
ATOM     21  O   UNL     1     112.734 119.923 116.974  1.00  0.00    -0.493 OA
ATOM     22  C   UNL     1     112.169 118.928 117.823  1.00  0.00     0.278 C 
ENDBRANCH  18  21
BRANCH  20  23
ATOM     23  O   UNL     1     111.741 119.896 114.351  1.00  0.00    -0.504 OA
ATOM     24  H   UNL     1     111.005 119.320 114.740  1.00  0.00     0.293 HD
ENDBRANCH  20  23
ENDBRANCH  14  15
ENDBRANCH  12  14
ENDBRANCH   9  10
ENDBRANCH   1   9
TORSDOF 10
ENDMDL
MODEL 2
REMARK VINA RESULT:    -3.765      2.522      4.834
REMARK INTER + INTRA:          -7.580
REMARK INTER:                  -5.983
REMARK INTRA:                  -1.597
REMARK UNBOUND:                -1.724
REMARK SMILES COc1cc(CNC(=O)CCCCC=CC(C)C)ccc1O
REMARK SMILES IDX 11 1 12 2 13 3 14 4 15 5 16 6 17 7 18 8 10 9 8 10 9 11 7 12
REMARK SMILES IDX 6 14 5 15 4 16 19 17 3 18 20 19 21 20 2 21 1 22 22 23
REMARK H PARENT 7 13 22 24
REMARK Flexibility Score: inf
ROOT
ATOM      1  C   UNL     1     114.367 115.975 112.178  1.00  0.00     0.010 C 
ENDROOT
BRANCH   1   2
ATOM      2  C   UNL     1     114.333 115.136 113.472  1.00  0.00     0.005 C 
BRANCH   2   3
ATOM      3  C   UNL     1     115.402 114.035 113.541  1.00  0.00     0.027 C 
BRANCH   3   4
ATOM      4  C   UNL     1     116.731 114.516 113.023  1.00  0.00    -0.031 C 
ATOM      5  C   UNL     1     117.691 114.955 113.852  1.00  0.00    -0.028 C 
BRANCH   5   6
ATOM      6  C   UNL     1     119.037 115.406 113.342  1.00  0.00     0.005 C 
ATOM      7  C   UNL     1     118.871 116.114 111.994  1.00  0.00     0.012 C 
ATOM      8  C   UNL     1     119.973 114.203 113.213  1.00  0.00     0.012 C 
ENDBRANCH   5   6
ENDBRANCH   3   4
ENDBRANCH   2   3
ENDBRANCH   1   2
BRANCH   1   9
ATOM      9  C   UNL     1     113.610 117.309 112.268  1.00  0.00     0.100 C 
BRANCH   9  10
ATOM     10  C   UNL     1     114.535 118.485 112.145  1.00  0.00     0.220 C 
ATOM     11  O   UNL     1     114.049 119.645 112.053  1.00  0.00    -0.275 OA
ATOM     12  N   UNL     1     115.955 118.288 112.097  1.00  0.00    -0.352 N 
ATOM     13  H   UNL     1     116.336 117.315 112.120  1.00  0.00     0.163 HD
BRANCH  12  14
ATOM     14  C   UNL     1     116.896 119.397 111.967  1.00  0.00     0.151 C 
BRANCH  14  15
ATOM     15  C   UNL     1     117.794 119.461 113.173  1.00  0.00    -0.025 A 
ATOM     16  C   UNL     1     117.298 119.104 114.436  1.00  0.00     0.056 A 
ATOM     17  C   UNL     1     119.118 119.905 113.053  1.00  0.00     0.009 A 
ATOM     18  C   UNL     1     118.120 119.179 115.578  1.00  0.00     0.160 A 
ATOM     19  C   UNL     1     119.938 119.981 114.180  1.00  0.00     0.050 A 
ATOM     20  C   UNL     1     119.449 119.621 115.439  1.00  0.00     0.157 A 
BRANCH  18  21
ATOM     21  O   UNL     1     117.655 118.827 116.855  1.00  0.00    -0.493 OA
ATOM     22  C   UNL     1     117.061 119.736 117.777  1.00  0.00     0.278 C 
ENDBRANCH  18  21
BRANCH  20  23
ATOM     23  O   UNL     1     120.297 119.713 116.542  1.00  0.00    -0.504 OA
ATOM     24  H   UNL     1     120.328 120.535 117.134  1.00  0.00     0.293 HD
ENDBRANCH  20  23
ENDBRANCH  14  15
ENDBRANCH  12  14
ENDBRANCH   9  10
ENDBRANCH   1   9
TORSDOF 10
ENDMDL
MODEL 3
REMARK VINA RESULT:    -3.642      4.348      6.077
REMARK INTER + INTRA:          -7.389
REMARK INTER:                  -6.710
REMARK INTRA:                  -0.678
REMARK UNBOUND:                -1.724
REMARK SMILES COc1cc(CNC(=O)CCCCC=CC(C)C)ccc1O
REMARK SMILES IDX 11 1 12 2 13 3 14 4 15 5 16 6 17 7 18 8 10 9 8 10 9 11 7 12
REMARK SMILES IDX 6 14 5 15 4 16 19 17 3 18 20 19 21 20 2 21 1 22 22 23
REMARK H PARENT 7 13 22 24
REMARK Flexibility Score: inf
ROOT
ATOM      1  C   UNL     1     113.392 119.754 113.694  1.00  0.00     0.010 C 
ENDROOT
BRANCH   1   2
ATOM      2  C   UNL     1     113.635 118.375 113.048  1.00  0.00     0.005 C 
BRANCH   2   3
ATOM      3  C   UNL     1     114.376 117.376 113.949  1.00  0.00     0.027 C 
BRANCH   3   4
ATOM      4  C   UNL     1     114.233 115.962 113.450  1.00  0.00    -0.031 C 
ATOM      5  C   UNL     1     114.321 114.912 114.281  1.00  0.00    -0.028 C 
BRANCH   5   6
ATOM      6  C   UNL     1     114.145 113.496 113.793  1.00  0.00     0.005 C 
ATOM      7  C   UNL     1     114.128 113.472 112.262  1.00  0.00     0.012 C 
ATOM      8  C   UNL     1     112.851 112.909 114.361  1.00  0.00     0.012 C 
ENDBRANCH   5   6
ENDBRANCH   3   4
ENDBRANCH   2   3
ENDBRANCH   1   2
BRANCH   1   9
ATOM      9  C   UNL     1     113.745 119.824 115.187  1.00  0.00     0.100 C 
BRANCH   9  10
ATOM     10  C   UNL     1     112.700 120.559 115.975  1.00  0.00     0.220 C 
ATOM     11  O   UNL     1     111.488 120.238 115.843  1.00  0.00    -0.275 OA
ATOM     12  N   UNL     1     113.074 121.640 116.841  1.00  0.00    -0.352 N 
ATOM     13  H   UNL     1     114.076 121.927 116.895  1.00  0.00     0.163 HD
BRANCH  12  14
ATOM     14  C   UNL     1     112.095 122.394 117.620  1.00  0.00     0.151 C 
BRANCH  14  15
ATOM     15  C   UNL     1     111.578 123.558 116.819  1.00  0.00    -0.025 A 
ATOM     16  C   UNL     1     110.232 123.940 116.927  1.00  0.00     0.056 A 
ATOM     17  C   UNL     1     112.423 124.248 115.939  1.00  0.00     0.009 A 
ATOM     18  C   UNL     1     109.729 125.015 116.167  1.00  0.00     0.160 A 
ATOM     19  C   UNL     1     111.930 125.314 115.184  1.00  0.00     0.050 A 
ATOM     20  C   UNL     1     110.592 125.702 115.293  1.00  0.00     0.157 A 
BRANCH  18  21
ATOM     21  O   UNL     1     108.388 125.424 116.254  1.00  0.00    -0.493 OA
ATOM     22  C   UNL     1     107.275 124.536 116.293  1.00  0.00     0.278 C 
ENDBRANCH  18  21
BRANCH  20  23
ATOM     23  O   UNL     1     110.135 126.770 114.520  1.00  0.00    -0.504 OA
ATOM     24  H   UNL     1     109.625 127.548 114.920  1.00  0.00     0.293 HD
ENDBRANCH  20  23
ENDBRANCH  14  15
ENDBRANCH  12  14
ENDBRANCH   9  10
ENDBRANCH   1   9
TORSDOF 10
ENDMDL
MODEL 4
REMARK VINA RESULT:    -3.612      2.383      3.453
REMARK INTER + INTRA:          -7.342
REMARK INTER:                  -5.018
REMARK INTRA:                  -2.324
REMARK UNBOUND:                -1.724
REMARK SMILES COc1cc(CNC(=O)CCCCC=CC(C)C)ccc1O
REMARK SMILES IDX 11 1 12 2 13 3 14 4 15 5 16 6 17 7 18 8 10 9 8 10 9 11 7 12
REMARK SMILES IDX 6 14 5 15 4 16 19 17 3 18 20 19 21 20 2 21 1 22 22 23
REMARK H PARENT 7 13 22 24
REMARK Flexibility Score: inf
ROOT
ATOM      1  C   UNL     1     119.524 114.082 116.266  1.00  0.00     0.010 C 
ENDROOT
BRANCH   1   2
ATOM      2  C   UNL     1     118.076 113.778 116.704  1.00  0.00     0.005 C 
BRANCH   2   3
ATOM      3  C   UNL     1     117.173 115.016 116.809  1.00  0.00     0.027 C 
BRANCH   3   4
ATOM      4  C   UNL     1     116.117 115.028 115.736  1.00  0.00    -0.031 C 
ATOM      5  C   UNL     1     116.110 114.122 114.747  1.00  0.00    -0.028 C 
BRANCH   5   6
ATOM      6  C   UNL     1     115.036 114.108 113.688  1.00  0.00     0.005 C 
ATOM      7  C   UNL     1     115.674 113.987 112.302  1.00  0.00     0.012 C 
ATOM      8  C   UNL     1     114.191 115.379 113.790  1.00  0.00     0.012 C 
ENDBRANCH   5   6
ENDBRANCH   3   4
ENDBRANCH   2   3
ENDBRANCH   1   2
BRANCH   1   9
ATOM      9  C   UNL     1     119.922 113.456 114.921  1.00  0.00     0.100 C 
BRANCH   9  10
ATOM     10  C   UNL     1     119.466 114.291 113.759  1.00  0.00     0.220 C 
ATOM     11  O   UNL     1     119.215 113.732 112.657  1.00  0.00    -0.275 OA
ATOM     12  N   UNL     1     119.354 115.715 113.891  1.00  0.00    -0.352 N 
ATOM     13  H   UNL     1     119.619 116.166 114.795  1.00  0.00     0.163 HD
BRANCH  12  14
ATOM     14  C   UNL     1     118.926 116.573 112.790  1.00  0.00     0.151 C 
BRANCH  14  15
ATOM     15  C   UNL     1     117.781 117.448 113.226  1.00  0.00    -0.025 A 
ATOM     16  C   UNL     1     117.745 117.952 114.534  1.00  0.00     0.056 A 
ATOM     17  C   UNL     1     116.732 117.739 112.344  1.00  0.00     0.009 A 
ATOM     18  C   UNL     1     116.669 118.755 114.963  1.00  0.00     0.160 A 
ATOM     19  C   UNL     1     115.663 118.534 112.763  1.00  0.00     0.050 A 
ATOM     20  C   UNL     1     115.625 119.043 114.064  1.00  0.00     0.157 A 
BRANCH  18  21
ATOM     21  O   UNL     1     116.603 119.278 116.265  1.00  0.00    -0.493 OA
ATOM     22  C   UNL     1     117.630 120.053 116.876  1.00  0.00     0.278 C 
ENDBRANCH  18  21
BRANCH  20  23
ATOM     23  O   UNL     1     114.540 119.832 114.447  1.00  0.00    -0.504 OA
ATOM     24  H   UNL     1     113.598 119.464 114.504  1.00  0.00     0.293 HD
ENDBRANCH  20  23
ENDBRANCH  14  15
ENDBRANCH  12  14
ENDBRANCH   9  10
ENDBRANCH   1   9
TORSDOF 10
ENDMDL
MODEL 5
REMARK VINA RESULT:    -3.585      5.253      7.758
REMARK INTER + INTRA:          -7.300
REMARK INTER:                  -5.501
REMARK INTRA:                  -1.798
REMARK UNBOUND:                -1.724
REMARK SMILES COc1cc(CNC(=O)CCCCC=CC(C)C)ccc1O
REMARK SMILES IDX 11 1 12 2 13 3 14 4 15 5 16 6 17 7 18 8 10 9 8 10 9 11 7 12
REMARK SMILES IDX 6 14 5 15 4 16 19 17 3 18 20 19 21 20 2 21 1 22 22 23
REMARK H PARENT 7 13 22 24
REMARK Flexibility Score: inf
ROOT
ATOM      1  C   UNL     1     114.130 119.635 117.648  1.00  0.00     0.010 C 
ENDROOT
BRANCH   1   2
ATOM      2  C   UNL     1     114.270 119.463 116.121  1.00  0.00     0.005 C 
BRANCH   2   3
ATOM      3  C   UNL     1     113.012 119.842 115.324  1.00  0.00     0.027 C 
BRANCH   3   4
ATOM      4  C   UNL     1     112.247 120.957 115.985  1.00  0.00    -0.031 C 
ATOM      5  C   UNL     1     111.023 120.762 116.497  1.00  0.00    -0.028 C 
BRANCH   5   6
ATOM      6  C   UNL     1     110.265 121.867 117.191  1.00  0.00     0.005 C 
ATOM      7  C   UNL     1     110.540 121.819 118.696  1.00  0.00     0.012 C 
ATOM      8  C   UNL     1     108.768 121.728 116.906  1.00  0.00     0.012 C 
ENDBRANCH   5   6
ENDBRANCH   3   4
ENDBRANCH   2   3
ENDBRANCH   1   2
BRANCH   1   9
ATOM      9  C   UNL     1     115.155 120.594 118.273  1.00  0.00     0.100 C 
BRANCH   9  10
ATOM     10  C   UNL     1     114.494 121.783 118.906  1.00  0.00     0.220 C 
ATOM     11  O   UNL     1     114.241 121.764 120.142  1.00  0.00    -0.275 OA
ATOM     12  N   UNL     1     114.120 122.914 118.107  1.00  0.00    -0.352 N 
ATOM     13  H   UNL     1     114.288 122.889 117.077  1.00  0.00     0.163 HD
BRANCH  12  14
ATOM     14  C   UNL     1     113.465 124.091 118.673  1.00  0.00     0.151 C 
BRANCH  14  15
ATOM     15  C   UNL     1     112.622 124.770 117.627  1.00  0.00    -0.025 A 
ATOM     16  C   UNL     1     111.542 125.578 118.013  1.00  0.00     0.056 A 
ATOM     17  C   UNL     1     112.888 124.578 116.264  1.00  0.00     0.009 A 
ATOM     18  C   UNL     1     110.731 126.203 117.045  1.00  0.00     0.160 A 
ATOM     19  C   UNL     1     112.089 125.195 115.300  1.00  0.00     0.050 A 
ATOM     20  C   UNL     1     111.015 126.005 115.681  1.00  0.00     0.157 A 
BRANCH  18  21
ATOM     21  O   UNL     1     109.645 127.019 117.398  1.00  0.00    -0.493 OA
ATOM     22  C   UNL     1     108.596 126.629 118.281  1.00  0.00     0.278 C 
ENDBRANCH  18  21
BRANCH  20  23
ATOM     23  O   UNL     1     110.237 126.602 114.688  1.00  0.00    -0.504 OA
ATOM     24  H   UNL     1     110.643 127.155 113.942  1.00  0.00     0.293 HD
ENDBRANCH  20  23
ENDBRANCH  14  15
ENDBRANCH  12  14
ENDBRANCH   9  10
ENDBRANCH   1   9
TORSDOF 10
ENDMDL
MODEL 6
REMARK VINA RESULT:    -3.583      7.956     11.254
REMARK INTER + INTRA:          -7.297
REMARK INTER:                  -5.221
REMARK INTRA:                  -2.076
REMARK UNBOUND:                -1.724
REMARK SMILES COc1cc(CNC(=O)CCCCC=CC(C)C)ccc1O
REMARK SMILES IDX 11 1 12 2 13 3 14 4 15 5 16 6 17 7 18 8 10 9 8 10 9 11 7 12
REMARK SMILES IDX 6 14 5 15 4 16 19 17 3 18 20 19 21 20 2 21 1 22 22 23
REMARK H PARENT 7 13 22 24
REMARK Flexibility Score: inf
ROOT
ATOM      1  C   UNL     1     121.469 124.585 119.716  1.00  0.00     0.010 C 
ENDROOT
BRANCH   1   2
ATOM      2  C   UNL     1     121.483 125.313 118.356  1.00  0.00     0.005 C 
BRANCH   2   3
ATOM      3  C   UNL     1     121.946 124.443 117.177  1.00  0.00     0.027 C 
BRANCH   3   4
ATOM      4  C   UNL     1     121.820 122.975 117.485  1.00  0.00    -0.031 C 
ATOM      5  C   UNL     1     120.930 122.198 116.849  1.00  0.00    -0.028 C 
BRANCH   5   6
ATOM      6  C   UNL     1     120.822 120.720 117.129  1.00  0.00     0.005 C 
ATOM      7  C   UNL     1     119.632 120.133 116.365  1.00  0.00     0.012 C 
ATOM      8  C   UNL     1     120.670 120.486 118.634  1.00  0.00     0.012 C 
ENDBRANCH   5   6
ENDBRANCH   3   4
ENDBRANCH   2   3
ENDBRANCH   1   2
BRANCH   1   9
ATOM      9  C   UNL     1     122.646 124.943 120.636  1.00  0.00     0.100 C 
BRANCH   9  10
ATOM     10  C   UNL     1     123.914 124.261 120.212  1.00  0.00     0.220 C 
ATOM     11  O   UNL     1     124.839 124.944 119.693  1.00  0.00    -0.275 OA
ATOM     12  N   UNL     1     124.058 122.842 120.361  1.00  0.00    -0.352 N 
ATOM     13  H   UNL     1     123.260 122.285 120.742  1.00  0.00     0.163 HD
BRANCH  12  14
ATOM     14  C   UNL     1     125.266 122.129 119.954  1.00  0.00     0.151 C 
BRANCH  14  15
ATOM     15  C   UNL     1     125.087 121.544 118.579  1.00  0.00    -0.025 A 
ATOM     16  C   UNL     1     125.526 122.254 117.452  1.00  0.00     0.056 A 
ATOM     17  C   UNL     1     124.454 120.304 118.410  1.00  0.00     0.009 A 
ATOM     18  C   UNL     1     125.346 121.728 116.157  1.00  0.00     0.160 A 
ATOM     19  C   UNL     1     124.273 119.778 117.130  1.00  0.00     0.050 A 
ATOM     20  C   UNL     1     124.714 120.480 116.005  1.00  0.00     0.157 A 
BRANCH  18  21
ATOM     21  O   UNL     1     125.777 122.413 115.009  1.00  0.00    -0.493 OA
ATOM     22  C   UNL     1     125.874 123.830 114.904  1.00  0.00     0.278 C 
ENDBRANCH  18  21
BRANCH  20  23
ATOM     23  O   UNL     1     124.513 119.923 114.742  1.00  0.00    -0.504 OA
ATOM     24  H   UNL     1     124.006 119.056 114.608  1.00  0.00     0.293 HD
ENDBRANCH  20  23
ENDBRANCH  14  15
ENDBRANCH  12  14
ENDBRANCH   9  10
ENDBRANCH   1   9
TORSDOF 10
ENDMDL
MODEL 7
REMARK VINA RESULT:    -3.582      2.173      3.993
REMARK INTER + INTRA:          -7.294
REMARK INTER:                  -5.647
REMARK INTRA:                  -1.647
REMARK UNBOUND:                -1.724
REMARK SMILES COc1cc(CNC(=O)CCCCC=CC(C)C)ccc1O
REMARK SMILES IDX 11 1 12 2 13 3 14 4 15 5 16 6 17 7 18 8 10 9 8 10 9 11 7 12
REMARK SMILES IDX 6 14 5 15 4 16 19 17 3 18 20 19 21 20 2 21 1 22 22 23
REMARK H PARENT 7 13 22 24
REMARK Flexibility Score: inf
ROOT
ATOM      1  C   UNL     1     118.153 114.374 114.939  1.00  0.00     0.010 C 
ENDROOT
BRANCH   1   2
ATOM      2  C   UNL     1     119.166 115.459 115.358  1.00  0.00     0.005 C 
BRANCH   2   3
ATOM      3  C   UNL     1     118.637 116.448 116.407  1.00  0.00     0.027 C 
BRANCH   3   4
ATOM      4  C   UNL     1     118.638 117.862 115.891  1.00  0.00    -0.031 C 
ATOM      5  C   UNL     1     119.015 118.151 114.637  1.00  0.00    -0.028 C 
BRANCH   5   6
ATOM      6  C   UNL     1     118.987 119.562 114.103  1.00  0.00     0.005 C 
ATOM      7  C   UNL     1     119.159 119.544 112.581  1.00  0.00     0.012 C 
ATOM      8  C   UNL     1     120.090 120.390 114.765  1.00  0.00     0.012 C 
ENDBRANCH   5   6
ENDBRANCH   3   4
ENDBRANCH   2   3
ENDBRANCH   1   2
BRANCH   1   9
ATOM      9  C   UNL     1     118.102 114.107 113.427  1.00  0.00     0.100 C 
BRANCH   9  10
ATOM     10  C   UNL     1     117.862 115.365 112.646  1.00  0.00     0.220 C 
ATOM     11  O   UNL     1     118.786 115.828 111.922  1.00  0.00    -0.275 OA
ATOM     12  N   UNL     1     116.609 116.055 112.750  1.00  0.00    -0.352 N 
ATOM     13  H   UNL     1     115.876 115.687 113.397  1.00  0.00     0.163 HD
BRANCH  12  14
ATOM     14  C   UNL     1     116.330 117.289 112.019  1.00  0.00     0.151 C 
BRANCH  14  15
ATOM     15  C   UNL     1     115.195 118.033 112.669  1.00  0.00    -0.025 A 
ATOM     16  C   UNL     1     115.316 118.478 113.994  1.00  0.00     0.056 A 
ATOM     17  C   UNL     1     114.000 118.259 111.972  1.00  0.00     0.009 A 
ATOM     18  C   UNL     1     114.253 119.158 114.623  1.00  0.00     0.160 A 
ATOM     19  C   UNL     1     112.944 118.932 112.589  1.00  0.00     0.050 A 
ATOM     20  C   UNL     1     113.063 119.382 113.907  1.00  0.00     0.157 A 
BRANCH  18  21
ATOM     21  O   UNL     1     114.344 119.619 115.946  1.00  0.00    -0.493 OA
ATOM     22  C   UNL     1     115.455 119.386 116.807  1.00  0.00     0.278 C 
ENDBRANCH  18  21
BRANCH  20  23
ATOM     23  O   UNL     1     111.985 120.048 114.491  1.00  0.00    -0.504 OA
ATOM     24  H   UNL     1     111.216 119.555 114.926  1.00  0.00     0.293 HD
ENDBRANCH  20  23
ENDBRANCH  14  15
ENDBRANCH  12  14
ENDBRANCH   9  10
ENDBRANCH   1   9
TORSDOF 10
ENDMDL
MODEL 8
REMARK VINA RESULT:    -3.529      6.644     10.032
REMARK INTER + INTRA:          -7.213
REMARK INTER:                  -4.969
REMARK INTRA:                  -2.244
REMARK UNBOUND:                -1.724
REMARK SMILES COc1cc(CNC(=O)CCCCC=CC(C)C)ccc1O
REMARK SMILES IDX 11 1 12 2 13 3 14 4 15 5 16 6 17 7 18 8 10 9 8 10 9 11 7 12
REMARK SMILES IDX 6 14 5 15 4 16 19 17 3 18 20 19 21 20 2 21 1 22 22 23
REMARK H PARENT 7 13 22 24
REMARK Flexibility Score: inf
ROOT
ATOM      1  C   UNL     1     107.168 110.700 115.769  1.00  0.00     0.010 C 
ENDROOT
BRANCH   1   2
ATOM      2  C   UNL     1     107.897 111.742 114.897  1.00  0.00     0.005 C 
BRANCH   2   3
ATOM      3  C   UNL     1     108.896 112.622 115.664  1.00  0.00     0.027 C 
BRANCH   3   4
ATOM      4  C   UNL     1     108.628 112.608 117.145  1.00  0.00    -0.031 C 
ATOM      5  C   UNL     1     109.422 113.259 118.009  1.00  0.00    -0.028 C 
BRANCH   5   6
ATOM      6  C   UNL     1     109.140 113.277 119.490  1.00  0.00     0.005 C 
ATOM      7  C   UNL     1     110.236 114.061 120.218  1.00  0.00     0.012 C 
ATOM      8  C   UNL     1     109.053 111.844 120.019  1.00  0.00     0.012 C 
ENDBRANCH   5   6
ENDBRANCH   3   4
ENDBRANCH   2   3
ENDBRANCH   1   2
BRANCH   1   9
ATOM      9  C   UNL     1     107.722 109.272 115.645  1.00  0.00     0.100 C 
BRANCH   9  10
ATOM     10  C   UNL     1     108.911 109.055 116.535  1.00  0.00     0.220 C 
ATOM     11  O   UNL     1     108.737 108.930 117.778  1.00  0.00    -0.275 OA
ATOM     12  N   UNL     1     110.234 109.026 115.982  1.00  0.00    -0.352 N 
ATOM     13  H   UNL     1     110.362 109.186 114.958  1.00  0.00     0.163 HD
BRANCH  12  14
ATOM     14  C   UNL     1     111.424 108.828 116.807  1.00  0.00     0.151 C 
BRANCH  14  15
ATOM     15  C   UNL     1     112.002 110.157 117.213  1.00  0.00    -0.025 A 
ATOM     16  C   UNL     1     112.398 111.078 116.232  1.00  0.00     0.056 A 
ATOM     17  C   UNL     1     112.177 110.472 118.567  1.00  0.00     0.009 A 
ATOM     18  C   UNL     1     112.961 112.317 116.598  1.00  0.00     0.160 A 
ATOM     19  C   UNL     1     112.733 111.699 118.936  1.00  0.00     0.050 A 
ATOM     20  C   UNL     1     113.125 112.622 117.962  1.00  0.00     0.157 A 
BRANCH  18  21
ATOM     21  O   UNL     1     113.366 113.262 115.641  1.00  0.00    -0.493 OA
ATOM     22  C   UNL     1     113.098 113.163 114.245  1.00  0.00     0.278 C 
ENDBRANCH  18  21
BRANCH  20  23
ATOM     23  O   UNL     1     113.679 113.835 118.368  1.00  0.00    -0.504 OA
ATOM     24  H   UNL     1     114.594 113.895 118.800  1.00  0.00     0.293 HD
ENDBRANCH  20  23
ENDBRANCH  14  15
ENDBRANCH  12  14
ENDBRANCH   9  10
ENDBRANCH   1   9
TORSDOF 10
ENDMDL
MODEL 9
REMARK VINA RESULT:    -3.513      2.637      4.905
REMARK INTER + INTRA:          -7.188
REMARK INTER:                  -5.170
REMARK INTRA:                  -2.018
REMARK UNBOUND:                -1.724
REMARK SMILES COc1cc(CNC(=O)CCCCC=CC(C)C)ccc1O
REMARK SMILES IDX 11 1 12 2 13 3 14 4 15 5 16 6 17 7 18 8 10 9 8 10 9 11 7 12
REMARK SMILES IDX 6 14 5 15 4 16 19 17 3 18 20 19 21 20 2 21 1 22 22 23
REMARK H PARENT 7 13 22 24
REMARK Flexibility Score: inf
ROOT
ATOM      1  C   UNL     1     118.045 118.621 114.194  1.00  0.00     0.010 C 
ENDROOT
BRANCH   1   2
ATOM      2  C   UNL     1     117.788 118.260 115.671  1.00  0.00     0.005 C 
BRANCH   2   3
ATOM      3  C   UNL     1     116.308 118.048 116.023  1.00  0.00     0.027 C 
BRANCH   3   4
ATOM      4  C   UNL     1     115.405 118.393 114.868  1.00  0.00    -0.031 C 
ATOM      5  C   UNL     1     114.554 117.495 114.349  1.00  0.00    -0.028 C 
BRANCH   5   6
ATOM      6  C   UNL     1     113.624 117.845 113.214  1.00  0.00     0.005 C 
ATOM      7  C   UNL     1     114.310 117.563 111.875  1.00  0.00     0.012 C 
ATOM      8  C   UNL     1     113.211 119.315 113.315  1.00  0.00     0.012 C 
ENDBRANCH   5   6
ENDBRANCH   3   4
ENDBRANCH   2   3
ENDBRANCH   1   2
BRANCH   1   9
ATOM      9  C   UNL     1     119.203 117.847 113.545  1.00  0.00     0.100 C 
BRANCH   9  10
ATOM     10  C   UNL     1     118.833 116.420 113.263  1.00  0.00     0.220 C 
ATOM     11  O   UNL     1     119.539 115.492 113.742  1.00  0.00    -0.275 OA
ATOM     12  N   UNL     1     117.708 116.116 112.425  1.00  0.00    -0.352 N 
ATOM     13  H   UNL     1     117.169 116.899 111.993  1.00  0.00     0.163 HD
BRANCH  12  14
ATOM     14  C   UNL     1     117.313 114.746 112.111  1.00  0.00     0.151 C 
BRANCH  14  15
ATOM     15  C   UNL     1     116.079 114.370 112.886  1.00  0.00    -0.025 A 
ATOM     16  C   UNL     1     116.119 114.323 114.287  1.00  0.00     0.056 A 
ATOM     17  C   UNL     1     114.893 114.034 112.218  1.00  0.00     0.009 A 
ATOM     18  C   UNL     1     114.977 113.952 115.026  1.00  0.00     0.160 A 
ATOM     19  C   UNL     1     113.759 113.666 112.944  1.00  0.00     0.050 A 
ATOM     20  C   UNL     1     113.793 113.624 114.341  1.00  0.00     0.157 A 
BRANCH  18  21
ATOM     21  O   UNL     1     114.984 113.898 116.429  1.00  0.00    -0.493 OA
ATOM     22  C   UNL     1     115.339 112.748 117.191  1.00  0.00     0.278 C 
ENDBRANCH  18  21
BRANCH  20  23
ATOM     23  O   UNL     1     112.641 113.249 115.031  1.00  0.00    -0.504 OA
ATOM     24  H   UNL     1     112.324 113.737 115.860  1.00  0.00     0.293 HD
ENDBRANCH  20  23
ENDBRANCH  14  15
ENDBRANCH  12  14
ENDBRANCH   9  10
ENDBRANCH   1   9
TORSDOF 10
ENDMDL
