MODEL 1
REMARK VINA RESULT:    -6.383      0.000      0.000
REMARK INTER + INTRA:          -7.793
REMARK INTER:                  -7.502
REMARK INTRA:                  -0.291
REMARK UNBOUND:                -0.291
REMARK SMILES O=c1c(O)c(-c2ccc(O)cc2)oc2cc(O)cc(O)c12
REMARK SMILES IDX 5 1 3 2 2 3 1 4 21 5 19 6 18 7 16 8 15 9 14 10 13 11 6 12
REMARK SMILES IDX 7 13 8 14 9 15 12 16 11 17 10 18 4 20 20 22 17 24
REMARK H PARENT 10 19 4 21 20 23 17 25
REMARK Flexibility Score: inf
ROOT
ATOM      1  C   UNL     1      48.625 -27.388   5.525  1.00  0.00     0.180 A 
ATOM      2  C   UNL     1      49.703 -28.264   5.300  1.00  0.00     0.208 A 
ATOM      3  C   UNL     1      50.631 -27.952   4.293  1.00  0.00     0.238 A 
ATOM      4  O   UNL     1      51.608 -28.724   4.089  1.00  0.00    -0.285 OA
ATOM      5  C   UNL     1      50.454 -26.788   3.517  1.00  0.00     0.111 A 
ATOM      6  C   UNL     1      51.340 -26.406   2.482  1.00  0.00     0.134 A 
ATOM      7  C   UNL     1      51.090 -25.236   1.750  1.00  0.00     0.093 A 
ATOM      8  C   UNL     1      49.971 -24.444   2.032  1.00  0.00     0.123 A 
ATOM      9  C   UNL     1      49.095 -24.817   3.052  1.00  0.00     0.094 A 
ATOM     10  C   UNL     1      49.328 -25.978   3.795  1.00  0.00     0.146 A 
ATOM     11  O   UNL     1      48.481 -26.307   4.764  1.00  0.00    -0.452 OA
ENDROOT
BRANCH   1  12
ATOM     12  C   UNL     1      47.616 -27.637   6.581  1.00  0.00     0.021 A 
ATOM     13  C   UNL     1      47.845 -27.155   7.881  1.00  0.00     0.016 A 
ATOM     14  C   UNL     1      46.918 -27.398   8.899  1.00  0.00     0.047 A 
ATOM     15  C   UNL     1      45.760 -28.135   8.635  1.00  0.00     0.115 A 
ATOM     16  C   UNL     1      46.460 -28.395   6.326  1.00  0.00     0.016 A 
ATOM     17  C   UNL     1      45.534 -28.636   7.346  1.00  0.00     0.047 A 
BRANCH  15  18
ATOM     18  O   UNL     1      44.844 -28.367   9.658  1.00  0.00    -0.508 OA
ATOM     19  H   UNL     1      44.668 -29.302  10.010  1.00  0.00     0.293 HD
ENDBRANCH  15  18
ENDBRANCH   1  12
BRANCH   2  20
ATOM     20  O   UNL     1      49.830 -29.437   6.048  1.00  0.00    -0.502 OA
ATOM     21  H   UNL     1      49.030 -29.929   6.427  1.00  0.00     0.293 HD
ENDBRANCH   2  20
BRANCH   6  22
ATOM     22  O   UNL     1      52.463 -27.175   2.177  1.00  0.00    -0.507 OA
ATOM     23  H   UNL     1      52.527 -27.708   1.316  1.00  0.00     0.293 HD
ENDBRANCH   6  22
BRANCH   8  24
ATOM     24  O   UNL     1      49.721 -23.282   1.304  1.00  0.00    -0.508 OA
ATOM     25  H   UNL     1      50.420 -22.554   1.214  1.00  0.00     0.293 HD
ENDBRANCH   8  24
TORSDOF 5
ENDMDL
MODEL 2
REMARK VINA RESULT:    -6.124     12.645     14.265
REMARK INTER + INTRA:          -7.490
REMARK INTER:                  -7.257
REMARK INTRA:                  -0.233
REMARK UNBOUND:                -0.291
REMARK SMILES O=c1c(O)c(-c2ccc(O)cc2)oc2cc(O)cc(O)c12
REMARK SMILES IDX 5 1 3 2 2 3 1 4 21 5 19 6 18 7 16 8 15 9 14 10 13 11 6 12
REMARK SMILES IDX 7 13 8 14 9 15 12 16 11 17 10 18 4 20 20 22 17 24
REMARK H PARENT 10 19 4 21 20 23 17 25
REMARK Flexibility Score: inf
ROOT
ATOM      1  C   UNL     1      39.276 -24.263  -4.234  1.00  0.00     0.180 A 
ATOM      2  C   UNL     1      38.364 -23.486  -4.971  1.00  0.00     0.208 A 
ATOM      3  C   UNL     1      38.492 -23.433  -6.369  1.00  0.00     0.238 A 
ATOM      4  O   UNL     1      37.673 -22.749  -7.041  1.00  0.00    -0.285 OA
ATOM      5  C   UNL     1      39.538 -24.137  -7.000  1.00  0.00     0.111 A 
ATOM      6  C   UNL     1      39.739 -24.132  -8.401  1.00  0.00     0.134 A 
ATOM      7  C   UNL     1      40.810 -24.851  -8.952  1.00  0.00     0.093 A 
ATOM      8  C   UNL     1      41.682 -25.573  -8.130  1.00  0.00     0.123 A 
ATOM      9  C   UNL     1      41.487 -25.581  -6.748  1.00  0.00     0.094 A 
ATOM     10  C   UNL     1      40.425 -24.872  -6.179  1.00  0.00     0.146 A 
ATOM     11  O   UNL     1      40.260 -24.901  -4.862  1.00  0.00    -0.452 OA
ENDROOT
BRANCH   1  12
ATOM     12  C   UNL     1      39.195 -24.385  -2.760  1.00  0.00     0.021 A 
ATOM     13  C   UNL     1      40.173 -23.769  -1.961  1.00  0.00     0.016 A 
ATOM     14  C   UNL     1      40.129 -23.890  -0.569  1.00  0.00     0.047 A 
ATOM     15  C   UNL     1      39.118 -24.638   0.041  1.00  0.00     0.115 A 
ATOM     16  C   UNL     1      38.192 -25.154  -2.142  1.00  0.00     0.016 A 
ATOM     17  C   UNL     1      38.151 -25.272  -0.750  1.00  0.00     0.047 A 
BRANCH  15  18
ATOM     18  O   UNL     1      39.085 -24.749   1.429  1.00  0.00    -0.508 OA
ATOM     19  H   UNL     1      39.104 -25.653   1.889  1.00  0.00     0.293 HD
ENDBRANCH  15  18
ENDBRANCH   1  12
BRANCH   2  20
ATOM     20  O   UNL     1      37.365 -22.759  -4.318  1.00  0.00    -0.502 OA
ATOM     21  H   UNL     1      37.557 -21.897  -3.822  1.00  0.00     0.293 HD
ENDBRANCH   2  20
BRANCH   6  22
ATOM     22  O   UNL     1      38.887 -23.421  -9.246  1.00  0.00    -0.507 OA
ATOM     23  H   UNL     1      38.535 -22.502  -9.001  1.00  0.00     0.293 HD
ENDBRANCH   6  22
BRANCH   8  24
ATOM     24  O   UNL     1      42.746 -26.287  -8.677  1.00  0.00    -0.508 OA
ATOM     25  H   UNL     1      43.583 -26.484  -8.141  1.00  0.00     0.293 HD
ENDBRANCH   8  24
TORSDOF 5
ENDMDL
MODEL 3
REMARK VINA RESULT:    -6.019      1.597      3.501
REMARK INTER + INTRA:          -7.365
REMARK INTER:                  -7.071
REMARK INTRA:                  -0.295
REMARK UNBOUND:                -0.291
REMARK SMILES O=c1c(O)c(-c2ccc(O)cc2)oc2cc(O)cc(O)c12
REMARK SMILES IDX 5 1 3 2 2 3 1 4 21 5 19 6 18 7 16 8 15 9 14 10 13 11 6 12
REMARK SMILES IDX 7 13 8 14 9 15 12 16 11 17 10 18 4 20 20 22 17 24
REMARK H PARENT 10 19 4 21 20 23 17 25
REMARK Flexibility Score: inf
ROOT
ATOM      1  C   UNL     1      49.016 -27.953   5.545  1.00  0.00     0.180 A 
ATOM      2  C   UNL     1      49.137 -26.941   4.574  1.00  0.00     0.208 A 
ATOM      3  C   UNL     1      50.208 -26.996   3.667  1.00  0.00     0.238 A 
ATOM      4  O   UNL     1      50.321 -26.101   2.786  1.00  0.00    -0.285 OA
ATOM      5  C   UNL     1      51.146 -28.045   3.759  1.00  0.00     0.111 A 
ATOM      6  C   UNL     1      52.254 -28.170   2.888  1.00  0.00     0.134 A 
ATOM      7  C   UNL     1      53.149 -29.238   3.049  1.00  0.00     0.093 A 
ATOM      8  C   UNL     1      52.957 -30.181   4.066  1.00  0.00     0.123 A 
ATOM      9  C   UNL     1      51.865 -30.061   4.927  1.00  0.00     0.094 A 
ATOM     10  C   UNL     1      50.961 -29.005   4.781  1.00  0.00     0.146 A 
ATOM     11  O   UNL     1      49.928 -28.919   5.611  1.00  0.00    -0.452 OA
ENDROOT
BRANCH   1  12
ATOM     12  C   UNL     1      47.904 -27.976   6.523  1.00  0.00     0.021 A 
ATOM     13  C   UNL     1      48.059 -27.327   7.759  1.00  0.00     0.016 A 
ATOM     14  C   UNL     1      47.031 -27.354   8.708  1.00  0.00     0.047 A 
ATOM     15  C   UNL     1      45.844 -28.041   8.438  1.00  0.00     0.115 A 
ATOM     16  C   UNL     1      46.716 -28.683   6.266  1.00  0.00     0.016 A 
ATOM     17  C   UNL     1      45.690 -28.708   7.216  1.00  0.00     0.047 A 
BRANCH  15  18
ATOM     18  O   UNL     1      44.828 -28.059   9.391  1.00  0.00    -0.508 OA
ATOM     19  H   UNL     1      44.652 -27.263   9.993  1.00  0.00     0.293 HD
ENDBRANCH  15  18
ENDBRANCH   1  12
BRANCH   2  20
ATOM     20  O   UNL     1      48.223 -25.886   4.535  1.00  0.00    -0.502 OA
ATOM     21  H   UNL     1      48.190 -25.224   3.770  1.00  0.00     0.293 HD
ENDBRANCH   2  20
BRANCH   6  22
ATOM     22  O   UNL     1      52.473 -27.246   1.866  1.00  0.00    -0.507 OA
ATOM     23  H   UNL     1      51.820 -26.494   1.677  1.00  0.00     0.293 HD
ENDBRANCH   6  22
BRANCH   8  24
ATOM     24  O   UNL     1      53.846 -31.242   4.227  1.00  0.00    -0.508 OA
ATOM     25  H   UNL     1      54.251 -31.719   3.431  1.00  0.00     0.293 HD
ENDBRANCH   8  24
TORSDOF 5
ENDMDL
MODEL 4
REMARK VINA RESULT:    -5.987      1.609      3.655
REMARK INTER + INTRA:          -7.329
REMARK INTER:                  -7.039
REMARK INTRA:                  -0.290
REMARK UNBOUND:                -0.291
REMARK SMILES O=c1c(O)c(-c2ccc(O)cc2)oc2cc(O)cc(O)c12
REMARK SMILES IDX 5 1 3 2 2 3 1 4 21 5 19 6 18 7 16 8 15 9 14 10 13 11 6 12
REMARK SMILES IDX 7 13 8 14 9 15 12 16 11 17 10 18 4 20 20 22 17 24
REMARK H PARENT 10 19 4 21 20 23 17 25
REMARK Flexibility Score: inf
ROOT
ATOM      1  C   UNL     1      49.048 -27.975   5.566  1.00  0.00     0.180 A 
ATOM      2  C   UNL     1      49.130 -26.976   4.578  1.00  0.00     0.208 A 
ATOM      3  C   UNL     1      50.165 -27.042   3.630  1.00  0.00     0.238 A 
ATOM      4  O   UNL     1      50.242 -26.159   2.734  1.00  0.00    -0.285 OA
ATOM      5  C   UNL     1      51.108 -28.089   3.699  1.00  0.00     0.111 A 
ATOM      6  C   UNL     1      52.181 -28.225   2.787  1.00  0.00     0.134 A 
ATOM      7  C   UNL     1      53.082 -29.290   2.928  1.00  0.00     0.093 A 
ATOM      8  C   UNL     1      52.931 -30.220   3.964  1.00  0.00     0.123 A 
ATOM      9  C   UNL     1      51.874 -30.089   4.865  1.00  0.00     0.094 A 
ATOM     10  C   UNL     1      50.964 -29.036   4.740  1.00  0.00     0.146 A 
ATOM     11  O   UNL     1      49.964 -28.939   5.609  1.00  0.00    -0.452 OA
ENDROOT
BRANCH   1  12
ATOM     12  C   UNL     1      47.975 -27.985   6.587  1.00  0.00     0.021 A 
ATOM     13  C   UNL     1      46.774 -28.663   6.319  1.00  0.00     0.016 A 
ATOM     14  C   UNL     1      45.739 -28.668   7.259  1.00  0.00     0.047 A 
ATOM     15  C   UNL     1      45.885 -27.984   8.470  1.00  0.00     0.115 A 
ATOM     16  C   UNL     1      48.109 -27.283   7.798  1.00  0.00     0.016 A 
ATOM     17  C   UNL     1      47.072 -27.289   8.736  1.00  0.00     0.047 A 
BRANCH  15  18
ATOM     18  O   UNL     1      44.847 -27.998   9.398  1.00  0.00    -0.508 OA
ATOM     19  H   UNL     1      44.660 -27.201   9.997  1.00  0.00     0.293 HD
ENDBRANCH  15  18
ENDBRANCH   1  12
BRANCH   2  20
ATOM     20  O   UNL     1      48.214 -25.922   4.560  1.00  0.00    -0.502 OA
ATOM     21  H   UNL     1      47.342 -25.951   5.074  1.00  0.00     0.293 HD
ENDBRANCH   2  20
BRANCH   6  22
ATOM     22  O   UNL     1      52.358 -27.314   1.745  1.00  0.00    -0.507 OA
ATOM     23  H   UNL     1      52.986 -26.524   1.828  1.00  0.00     0.293 HD
ENDBRANCH   6  22
BRANCH   8  24
ATOM     24  O   UNL     1      53.827 -31.278   4.105  1.00  0.00    -0.508 OA
ATOM     25  H   UNL     1      53.635 -32.055   4.726  1.00  0.00     0.293 HD
ENDBRANCH   8  24
TORSDOF 5
ENDMDL
MODEL 5
REMARK VINA RESULT:    -5.935     11.599     14.091
REMARK INTER + INTRA:          -7.267
REMARK INTER:                  -6.997
REMARK INTRA:                  -0.270
REMARK UNBOUND:                -0.291
REMARK SMILES O=c1c(O)c(-c2ccc(O)cc2)oc2cc(O)cc(O)c12
REMARK SMILES IDX 5 1 3 2 2 3 1 4 21 5 19 6 18 7 16 8 15 9 14 10 13 11 6 12
REMARK SMILES IDX 7 13 8 14 9 15 12 16 11 17 10 18 4 20 20 22 17 24
REMARK H PARENT 10 19 4 21 20 23 17 25
REMARK Flexibility Score: inf
ROOT
ATOM      1  C   UNL     1      52.657 -33.669  -5.301  1.00  0.00     0.180 A 
ATOM      2  C   UNL     1      53.871 -34.257  -5.703  1.00  0.00     0.208 A 
ATOM      3  C   UNL     1      53.837 -35.480  -6.394  1.00  0.00     0.238 A 
ATOM      4  O   UNL     1      54.918 -36.010  -6.769  1.00  0.00    -0.285 OA
ATOM      5  C   UNL     1      52.597 -36.102  -6.649  1.00  0.00     0.111 A 
ATOM      6  C   UNL     1      52.477 -37.334  -7.334  1.00  0.00     0.134 A 
ATOM      7  C   UNL     1      51.207 -37.893  -7.542  1.00  0.00     0.093 A 
ATOM      8  C   UNL     1      50.058 -37.243  -7.077  1.00  0.00     0.123 A 
ATOM      9  C   UNL     1      50.172 -36.027  -6.403  1.00  0.00     0.094 A 
ATOM     10  C   UNL     1      51.428 -35.453  -6.187  1.00  0.00     0.146 A 
ATOM     11  O   UNL     1      51.508 -34.292  -5.547  1.00  0.00    -0.452 OA
ENDROOT
BRANCH   1  12
ATOM     12  C   UNL     1      52.609 -32.373  -4.587  1.00  0.00     0.021 A 
ATOM     13  C   UNL     1      52.352 -32.354  -3.206  1.00  0.00     0.016 A 
ATOM     14  C   UNL     1      52.280 -31.140  -2.516  1.00  0.00     0.047 A 
ATOM     15  C   UNL     1      52.449 -29.932  -3.198  1.00  0.00     0.115 A 
ATOM     16  C   UNL     1      52.759 -31.153  -5.272  1.00  0.00     0.016 A 
ATOM     17  C   UNL     1      52.686 -29.941  -4.578  1.00  0.00     0.047 A 
BRANCH  15  18
ATOM     18  O   UNL     1      52.376 -28.730  -2.497  1.00  0.00    -0.508 OA
ATOM     19  H   UNL     1      53.138 -28.413  -1.908  1.00  0.00     0.293 HD
ENDBRANCH  15  18
ENDBRANCH   1  12
BRANCH   2  20
ATOM     20  O   UNL     1      55.089 -33.646  -5.395  1.00  0.00    -0.502 OA
ATOM     21  H   UNL     1      55.367 -33.439  -4.444  1.00  0.00     0.293 HD
ENDBRANCH   2  20
BRANCH   6  22
ATOM     22  O   UNL     1      53.604 -38.006  -7.808  1.00  0.00    -0.507 OA
ATOM     23  H   UNL     1      53.643 -38.387  -8.746  1.00  0.00     0.293 HD
ENDBRANCH   6  22
BRANCH   8  24
ATOM     24  O   UNL     1      48.796 -37.798  -7.283  1.00  0.00    -0.508 OA
ATOM     25  H   UNL     1      48.072 -37.742  -6.577  1.00  0.00     0.293 HD
ENDBRANCH   8  24
TORSDOF 5
ENDMDL
MODEL 6
REMARK VINA RESULT:    -5.881      1.858      6.758
REMARK INTER + INTRA:          -7.203
REMARK INTER:                  -6.929
REMARK INTRA:                  -0.275
REMARK UNBOUND:                -0.291
REMARK SMILES O=c1c(O)c(-c2ccc(O)cc2)oc2cc(O)cc(O)c12
REMARK SMILES IDX 5 1 3 2 2 3 1 4 21 5 19 6 18 7 16 8 15 9 14 10 13 11 6 12
REMARK SMILES IDX 7 13 8 14 9 15 12 16 11 17 10 18 4 20 20 22 17 24
REMARK H PARENT 10 19 4 21 20 23 17 25
REMARK Flexibility Score: inf
ROOT
ATOM      1  C   UNL     1      49.063 -26.883   5.203  1.00  0.00     0.180 A 
ATOM      2  C   UNL     1      49.715 -26.163   6.222  1.00  0.00     0.208 A 
ATOM      3  C   UNL     1      49.161 -26.162   7.513  1.00  0.00     0.238 A 
ATOM      4  O   UNL     1      49.742 -25.530   8.436  1.00  0.00    -0.285 OA
ATOM      5  C   UNL     1      47.959 -26.858   7.756  1.00  0.00     0.111 A 
ATOM      6  C   UNL     1      47.335 -26.903   9.025  1.00  0.00     0.134 A 
ATOM      7  C   UNL     1      46.135 -27.611   9.185  1.00  0.00     0.093 A 
ATOM      8  C   UNL     1      45.548 -28.274   8.100  1.00  0.00     0.123 A 
ATOM      9  C   UNL     1      46.161 -28.233   6.848  1.00  0.00     0.094 A 
ATOM     10  C   UNL     1      47.359 -27.534   6.668  1.00  0.00     0.146 A 
ATOM     11  O   UNL     1      47.923 -27.517   5.467  1.00  0.00    -0.452 OA
ENDROOT
BRANCH   1  12
ATOM     12  C   UNL     1      49.595 -26.950   3.823  1.00  0.00     0.021 A 
ATOM     13  C   UNL     1      48.999 -26.173   2.815  1.00  0.00     0.016 A 
ATOM     14  C   UNL     1      49.470 -26.236   1.500  1.00  0.00     0.047 A 
ATOM     15  C   UNL     1      50.531 -27.086   1.173  1.00  0.00     0.115 A 
ATOM     16  C   UNL     1      50.649 -27.817   3.484  1.00  0.00     0.016 A 
ATOM     17  C   UNL     1      51.118 -27.879   2.168  1.00  0.00     0.047 A 
BRANCH  15  18
ATOM     18  O   UNL     1      50.992 -27.138  -0.140  1.00  0.00    -0.508 OA
ATOM     19  H   UNL     1      51.140 -28.022  -0.615  1.00  0.00     0.293 HD
ENDBRANCH  15  18
ENDBRANCH   1  12
BRANCH   2  20
ATOM     20  O   UNL     1      50.878 -25.441   5.944  1.00  0.00    -0.502 OA
ATOM     21  H   UNL     1      51.014 -24.946   5.072  1.00  0.00     0.293 HD
ENDBRANCH   2  20
BRANCH   6  22
ATOM     22  O   UNL     1      47.894 -26.252  10.125  1.00  0.00    -0.507 OA
ATOM     23  H   UNL     1      47.420 -26.212  11.020  1.00  0.00     0.293 HD
ENDBRANCH   6  22
BRANCH   8  24
ATOM     24  O   UNL     1      44.356 -28.977   8.258  1.00  0.00    -0.508 OA
ATOM     25  H   UNL     1      43.944 -29.123   9.173  1.00  0.00     0.293 HD
ENDBRANCH   8  24
TORSDOF 5
ENDMDL
MODEL 7
REMARK VINA RESULT:    -5.560     13.191     14.960
REMARK INTER + INTRA:          -6.827
REMARK INTER:                  -6.614
REMARK INTRA:                  -0.213
REMARK UNBOUND:                -0.291
REMARK SMILES O=c1c(O)c(-c2ccc(O)cc2)oc2cc(O)cc(O)c12
REMARK SMILES IDX 5 1 3 2 2 3 1 4 21 5 19 6 18 7 16 8 15 9 14 10 13 11 6 12
REMARK SMILES IDX 7 13 8 14 9 15 12 16 11 17 10 18 4 20 20 22 17 24
REMARK H PARENT 10 19 4 21 20 23 17 25
REMARK Flexibility Score: inf
ROOT
ATOM      1  C   UNL     1      38.669 -22.961  -3.398  1.00  0.00     0.180 A 
ATOM      2  C   UNL     1      38.501 -21.567  -3.494  1.00  0.00     0.208 A 
ATOM      3  C   UNL     1      38.104 -21.015  -4.723  1.00  0.00     0.238 A 
ATOM      4  O   UNL     1      37.940 -19.768  -4.819  1.00  0.00    -0.285 OA
ATOM      5  C   UNL     1      37.903 -21.859  -5.835  1.00  0.00     0.111 A 
ATOM      6  C   UNL     1      37.507 -21.383  -7.107  1.00  0.00     0.134 A 
ATOM      7  C   UNL     1      37.336 -22.287  -8.165  1.00  0.00     0.093 A 
ATOM      8  C   UNL     1      37.555 -23.656  -7.976  1.00  0.00     0.123 A 
ATOM      9  C   UNL     1      37.944 -24.130  -6.723  1.00  0.00     0.094 A 
ATOM     10  C   UNL     1      38.118 -23.246  -5.654  1.00  0.00     0.146 A 
ATOM     11  O   UNL     1      38.484 -23.725  -4.471  1.00  0.00    -0.452 OA
ENDROOT
BRANCH   1  12
ATOM     12  C   UNL     1      39.066 -23.620  -2.132  1.00  0.00     0.021 A 
ATOM     13  C   UNL     1      38.102 -24.316  -1.384  1.00  0.00     0.016 A 
ATOM     14  C   UNL     1      38.449 -24.927  -0.175  1.00  0.00     0.047 A 
ATOM     15  C   UNL     1      39.758 -24.838   0.307  1.00  0.00     0.115 A 
ATOM     16  C   UNL     1      40.376 -23.517  -1.632  1.00  0.00     0.016 A 
ATOM     17  C   UNL     1      40.721 -24.129  -0.423  1.00  0.00     0.047 A 
BRANCH  15  18
ATOM     18  O   UNL     1      40.091 -25.452   1.512  1.00  0.00    -0.508 OA
ATOM     19  H   UNL     1      39.386 -25.887   2.098  1.00  0.00     0.293 HD
ENDBRANCH  15  18
ENDBRANCH   1  12
BRANCH   2  20
ATOM     20  O   UNL     1      38.754 -20.746  -2.392  1.00  0.00    -0.502 OA
ATOM     21  H   UNL     1      39.400 -19.968  -2.431  1.00  0.00     0.293 HD
ENDBRANCH   2  20
BRANCH   6  22
ATOM     22  O   UNL     1      37.283 -20.023  -7.327  1.00  0.00    -0.507 OA
ATOM     23  H   UNL     1      36.349 -19.629  -7.326  1.00  0.00     0.293 HD
ENDBRANCH   6  22
BRANCH   8  24
ATOM     24  O   UNL     1      37.385 -24.554  -9.027  1.00  0.00    -0.508 OA
ATOM     25  H   UNL     1      37.355 -24.242  -9.991  1.00  0.00     0.293 HD
ENDBRANCH   8  24
TORSDOF 5
ENDMDL
MODEL 8
REMARK VINA RESULT:    -5.523     13.898     16.202
REMARK INTER + INTRA:          -6.783
REMARK INTER:                  -6.531
REMARK INTRA:                  -0.252
REMARK UNBOUND:                -0.291
REMARK SMILES O=c1c(O)c(-c2ccc(O)cc2)oc2cc(O)cc(O)c12
REMARK SMILES IDX 5 1 3 2 2 3 1 4 21 5 19 6 18 7 16 8 15 9 14 10 13 11 6 12
REMARK SMILES IDX 7 13 8 14 9 15 12 16 11 17 10 18 4 20 20 22 17 24
REMARK H PARENT 10 19 4 21 20 23 17 25
REMARK Flexibility Score: inf
ROOT
ATOM      1  C   UNL     1      53.116 -34.167  -7.514  1.00  0.00     0.180 A 
ATOM      2  C   UNL     1      52.926 -34.763  -8.776  1.00  0.00     0.208 A 
ATOM      3  C   UNL     1      52.164 -35.939  -8.863  1.00  0.00     0.238 A 
ATOM      4  O   UNL     1      51.978 -36.475  -9.989  1.00  0.00    -0.285 OA
ATOM      5  C   UNL     1      51.625 -36.509  -7.691  1.00  0.00     0.111 A 
ATOM      6  C   UNL     1      50.850 -37.693  -7.693  1.00  0.00     0.134 A 
ATOM      7  C   UNL     1      50.356 -38.202  -6.483  1.00  0.00     0.093 A 
ATOM      8  C   UNL     1      50.623 -37.550  -5.273  1.00  0.00     0.123 A 
ATOM      9  C   UNL     1      51.386 -36.382  -5.267  1.00  0.00     0.094 A 
ATOM     10  C   UNL     1      51.886 -35.858  -6.463  1.00  0.00     0.146 A 
ATOM     11  O   UNL     1      52.604 -34.742  -6.429  1.00  0.00    -0.452 OA
ENDROOT
BRANCH   1  12
ATOM     12  C   UNL     1      53.890 -32.916  -7.343  1.00  0.00     0.021 A 
ATOM     13  C   UNL     1      55.169 -32.970  -6.765  1.00  0.00     0.016 A 
ATOM     14  C   UNL     1      55.909 -31.799  -6.572  1.00  0.00     0.047 A 
ATOM     15  C   UNL     1      55.375 -30.561  -6.942  1.00  0.00     0.115 A 
ATOM     16  C   UNL     1      53.350 -31.666  -7.694  1.00  0.00     0.016 A 
ATOM     17  C   UNL     1      54.092 -30.497  -7.500  1.00  0.00     0.047 A 
BRANCH  15  18
ATOM     18  O   UNL     1      56.123 -29.403  -6.746  1.00  0.00    -0.508 OA
ATOM     19  H   UNL     1      55.978 -28.808  -5.937  1.00  0.00     0.293 HD
ENDBRANCH  15  18
ENDBRANCH   1  12
BRANCH   2  20
ATOM     20  O   UNL     1      53.512 -34.206  -9.915  1.00  0.00    -0.502 OA
ATOM     21  H   UNL     1      53.926 -34.772 -10.645  1.00  0.00     0.293 HD
ENDBRANCH   2  20
BRANCH   6  22
ATOM     22  O   UNL     1      50.568 -38.365  -8.882  1.00  0.00    -0.507 OA
ATOM     23  H   UNL     1      51.265 -38.481  -9.609  1.00  0.00     0.293 HD
ENDBRANCH   6  22
BRANCH   8  24
ATOM     24  O   UNL     1      50.133 -38.056  -4.071  1.00  0.00    -0.508 OA
ATOM     25  H   UNL     1      49.141 -38.066  -3.866  1.00  0.00     0.293 HD
ENDBRANCH   8  24
TORSDOF 5
ENDMDL
MODEL 9
REMARK VINA RESULT:    -5.408      1.750      2.330
REMARK INTER + INTRA:          -6.647
REMARK INTER:                  -6.349
REMARK INTRA:                  -0.298
REMARK UNBOUND:                -0.291
REMARK SMILES O=c1c(O)c(-c2ccc(O)cc2)oc2cc(O)cc(O)c12
REMARK SMILES IDX 5 1 3 2 2 3 1 4 21 5 19 6 18 7 16 8 15 9 14 10 13 11 6 12
REMARK SMILES IDX 7 13 8 14 9 15 12 16 11 17 10 18 4 20 20 22 17 24
REMARK H PARENT 10 19 4 21 20 23 17 25
REMARK Flexibility Score: inf
ROOT
ATOM      1  C   UNL     1      50.261 -27.783   5.557  1.00  0.00     0.180 A 
ATOM      2  C   UNL     1      50.814 -29.039   5.243  1.00  0.00     0.208 A 
ATOM      3  C   UNL     1      51.686 -29.140   4.146  1.00  0.00     0.238 A 
ATOM      4  O   UNL     1      52.197 -30.258   3.862  1.00  0.00    -0.285 OA
ATOM      5  C   UNL     1      51.972 -27.996   3.374  1.00  0.00     0.111 A 
ATOM      6  C   UNL     1      52.835 -28.014   2.253  1.00  0.00     0.134 A 
ATOM      7  C   UNL     1      53.062 -26.834   1.530  1.00  0.00     0.093 A 
ATOM      8  C   UNL     1      52.441 -25.637   1.907  1.00  0.00     0.123 A 
ATOM      9  C   UNL     1      51.589 -25.614   3.011  1.00  0.00     0.094 A 
ATOM     10  C   UNL     1      51.352 -26.780   3.746  1.00  0.00     0.146 A 
ATOM     11  O   UNL     1      50.541 -26.728   4.796  1.00  0.00    -0.452 OA
ENDROOT
BRANCH   1  12
ATOM     12  C   UNL     1      49.349 -27.591   6.708  1.00  0.00     0.021 A 
ATOM     13  C   UNL     1      47.960 -27.664   6.509  1.00  0.00     0.016 A 
ATOM     14  C   UNL     1      47.080 -27.463   7.577  1.00  0.00     0.047 A 
ATOM     15  C   UNL     1      47.575 -27.174   8.851  1.00  0.00     0.115 A 
ATOM     16  C   UNL     1      49.841 -27.280   7.988  1.00  0.00     0.016 A 
ATOM     17  C   UNL     1      48.958 -27.080   9.054  1.00  0.00     0.047 A 
BRANCH  15  18
ATOM     18  O   UNL     1      46.687 -26.978   9.907  1.00  0.00    -0.508 OA
ATOM     19  H   UNL     1      46.400 -27.743  10.508  1.00  0.00     0.293 HD
ENDBRANCH  15  18
ENDBRANCH   1  12
BRANCH   2  20
ATOM     20  O   UNL     1      50.477 -30.168   5.993  1.00  0.00    -0.502 OA
ATOM     21  H   UNL     1      50.992 -31.037   5.928  1.00  0.00     0.293 HD
ENDBRANCH   2  20
BRANCH   6  22
ATOM     22  O   UNL     1      53.468 -29.192   1.853  1.00  0.00    -0.507 OA
ATOM     23  H   UNL     1      53.032 -29.839   1.205  1.00  0.00     0.293 HD
ENDBRANCH   6  22
BRANCH   8  24
ATOM     24  O   UNL     1      52.665 -24.465   1.188  1.00  0.00    -0.508 OA
ATOM     25  H   UNL     1      52.412 -23.558   1.563  1.00  0.00     0.293 HD
ENDBRANCH   8  24
TORSDOF 5
ENDMDL
