MODEL 1
REMARK VINA RESULT:    -5.903      0.000      0.000
REMARK INTER + INTRA:         -10.214
REMARK INTER:                  -9.181
REMARK INTRA:                  -1.033
REMARK UNBOUND:                -1.033
REMARK SMILES C[C@@]12C[C@@]3(O)O[C@@H](O1)[C@]1(COC(=O)c4ccccc4)[C@H]3C[C@@]12O[C@@H]1O[C@@H](CO)[C@H](O)[C@@H](O)[C@@H]1O
REMARK SMILES IDX 1 1 2 2 3 3 4 4 20 5 21 6 22 7 9 8 7 9 8 10 6 11 23 12 24 13
REMARK SMILES IDX 33 14 25 15 31 16 26 17 29 18 34 19 32 21 27 23 28 24 30 26
REMARK SMILES IDX 5 28 10 30 11 31 12 32 13 33 14 34 15 35 19 36 16 37 18 38
REMARK SMILES IDX 17 39
REMARK H PARENT 34 20 32 22 28 25 30 27 5 29
REMARK Flexibility Score: inf
ROOT
ATOM      1  C   UNL     1       0.095  25.143  37.152  1.00  0.00     0.046 C 
ATOM      2  C   UNL     1      -0.657  25.764  35.967  1.00  0.00     0.104 C 
ATOM      3  C   UNL     1       0.324  26.386  34.904  1.00  0.00     0.104 C 
ATOM      4  C   UNL     1      -0.632  27.067  33.868  1.00  0.00     0.175 C 
ATOM      5  C   UNL     1      -1.704  27.947  34.598  1.00  0.00     0.070 C 
ATOM      6  C   UNL     1      -1.315  28.259  36.045  1.00  0.00     0.050 C 
ATOM      7  C   UNL     1      -1.747  26.837  36.391  1.00  0.00     0.115 C 
ATOM      8  C   UNL     1      -2.605  26.830  35.114  1.00  0.00     0.096 C 
ATOM      9  C   UNL     1      -2.189  25.570  34.351  1.00  0.00     0.267 C 
ATOM     10  O   UNL     1      -1.397  24.794  35.248  1.00  0.00    -0.342 OA
ATOM     11  O   UNL     1      -1.375  26.019  33.281  1.00  0.00    -0.320 OA
ENDROOT
BRANCH   7  12
ATOM     12  O   UNL     1      -2.302  26.798  37.702  1.00  0.00    -0.339 OA
BRANCH  12  13
ATOM     13  C   UNL     1      -2.534  25.531  38.310  1.00  0.00     0.282 C 
ATOM     14  C   UNL     1      -2.590  25.741  39.856  1.00  0.00     0.202 C 
ATOM     15  O   UNL     1      -3.683  24.872  37.798  1.00  0.00    -0.341 OA
ATOM     16  C   UNL     1      -3.786  25.038  40.489  1.00  0.00     0.179 C 
ATOM     17  C   UNL     1      -3.988  23.623  38.412  1.00  0.00     0.178 C 
ATOM     18  C   UNL     1      -3.825  23.606  39.951  1.00  0.00     0.177 C 
BRANCH  14  19
ATOM     19  O   UNL     1      -2.626  27.110  40.170  1.00  0.00    -0.385 OA
ATOM     20  H   UNL     1      -3.158  27.555  39.459  1.00  0.00     0.211 HD
ENDBRANCH  14  19
BRANCH  16  21
ATOM     21  O   UNL     1      -3.620  25.013  41.883  1.00  0.00    -0.387 OA
ATOM     22  H   UNL     1      -3.334  24.092  42.135  1.00  0.00     0.211 HD
ENDBRANCH  16  21
BRANCH  17  23
ATOM     23  C   UNL     1      -3.241  22.454  37.735  1.00  0.00     0.191 C 
BRANCH  23  24
ATOM     24  O   UNL     1      -3.095  22.684  36.357  1.00  0.00    -0.394 OA
ATOM     25  H   UNL     1      -3.241  21.810  35.908  1.00  0.00     0.210 HD
ENDBRANCH  23  24
ENDBRANCH  17  23
BRANCH  18  26
ATOM     26  O   UNL     1      -4.901  22.910  40.521  1.00  0.00    -0.387 OA
ATOM     27  H   UNL     1      -4.520  22.272  41.171  1.00  0.00     0.211 HD
ENDBRANCH  18  26
ENDBRANCH  12  13
ENDBRANCH   7  12
BRANCH   4  28
ATOM     28  O   UNL     1       0.083  27.785  32.891  1.00  0.00    -0.365 OA
ATOM     29  H   UNL     1       0.762  27.166  32.540  1.00  0.00     0.214 HD
ENDBRANCH   4  28
BRANCH   8  30
ATOM     30  C   UNL     1      -4.122  27.148  35.067  1.00  0.00     0.249 C 
BRANCH  30  31
ATOM     31  O   UNL     1      -4.685  27.076  33.758  1.00  0.00    -0.461 OA
BRANCH  31  32
ATOM     32  C   UNL     1      -6.067  27.105  33.523  1.00  0.00     0.338 C 
ATOM     33  O   UNL     1      -6.637  26.116  32.983  1.00  0.00    -0.246 OA
BRANCH  32  34
ATOM     34  C   UNL     1      -6.873  28.294  33.901  1.00  0.00     0.060 A 
ATOM     35  C   UNL     1      -8.179  28.145  34.400  1.00  0.00     0.015 A 
ATOM     36  C   UNL     1      -6.352  29.593  33.720  1.00  0.00     0.015 A 
ATOM     37  C   UNL     1      -8.931  29.264  34.779  1.00  0.00     0.001 A 
ATOM     38  C   UNL     1      -7.118  30.719  34.083  1.00  0.00     0.001 A 
ATOM     39  C   UNL     1      -8.405  30.554  34.613  1.00  0.00     0.000 A 
ENDBRANCH  32  34
ENDBRANCH  31  32
ENDBRANCH  30  31
ENDBRANCH   8  30
TORSDOF 12
ENDMDL
MODEL 2
REMARK VINA RESULT:    -5.792      2.758      5.940
REMARK INTER + INTRA:         -10.042
REMARK INTER:                  -8.610
REMARK INTRA:                  -1.432
REMARK UNBOUND:                -1.033
REMARK SMILES C[C@@]12C[C@@]3(O)O[C@@H](O1)[C@]1(COC(=O)c4ccccc4)[C@H]3C[C@@]12O[C@@H]1O[C@@H](CO)[C@H](O)[C@@H](O)[C@@H]1O
REMARK SMILES IDX 1 1 2 2 3 3 4 4 20 5 21 6 22 7 9 8 7 9 8 10 6 11 23 12 24 13
REMARK SMILES IDX 33 14 25 15 31 16 26 17 29 18 34 19 32 21 27 23 28 24 30 26
REMARK SMILES IDX 5 28 10 30 11 31 12 32 13 33 14 34 15 35 19 36 16 37 18 38
REMARK SMILES IDX 17 39
REMARK H PARENT 34 20 32 22 28 25 30 27 5 29
REMARK Flexibility Score: inf
ROOT
ATOM      1  C   UNL     1      -3.248  22.571  38.825  1.00  0.00     0.046 C 
ATOM      2  C   UNL     1      -2.197  23.677  38.994  1.00  0.00     0.104 C 
ATOM      3  C   UNL     1      -1.336  23.480  40.298  1.00  0.00     0.104 C 
ATOM      4  C   UNL     1      -0.436  24.760  40.346  1.00  0.00     0.175 C 
ATOM      5  C   UNL     1      -1.295  26.051  40.127  1.00  0.00     0.070 C 
ATOM      6  C   UNL     1      -2.790  25.799  40.338  1.00  0.00     0.050 C 
ATOM      7  C   UNL     1      -2.800  25.145  38.960  1.00  0.00     0.115 C 
ATOM      8  C   UNL     1      -1.518  25.926  38.623  1.00  0.00     0.096 C 
ATOM      9  C   UNL     1      -0.516  24.876  38.137  1.00  0.00     0.267 C 
ATOM     10  O   UNL     1      -1.254  23.672  37.938  1.00  0.00    -0.342 OA
ATOM     11  O   UNL     1       0.395  24.690  39.207  1.00  0.00    -0.320 OA
ENDROOT
BRANCH   7  12
ATOM     12  O   UNL     1      -4.047  25.379  38.313  1.00  0.00    -0.339 OA
BRANCH  12  13
ATOM     13  C   UNL     1      -4.199  24.988  36.953  1.00  0.00     0.282 C 
ATOM     14  C   UNL     1      -5.603  24.326  36.794  1.00  0.00     0.202 C 
ATOM     15  O   UNL     1      -3.981  26.055  36.042  1.00  0.00    -0.341 OA
ATOM     16  C   UNL     1      -6.358  24.862  35.582  1.00  0.00     0.179 C 
ATOM     17  C   UNL     1      -4.172  25.726  34.668  1.00  0.00     0.178 C 
ATOM     18  C   UNL     1      -5.403  24.831  34.386  1.00  0.00     0.177 C 
BRANCH  14  19
ATOM     19  O   UNL     1      -6.375  24.515  37.953  1.00  0.00    -0.385 OA
ATOM     20  H   UNL     1      -5.823  25.049  38.582  1.00  0.00     0.211 HD
ENDBRANCH  14  19
BRANCH  16  21
ATOM     21  O   UNL     1      -7.462  24.034  35.325  1.00  0.00    -0.387 OA
ATOM     22  H   UNL     1      -7.146  23.281  34.755  1.00  0.00     0.211 HD
ENDBRANCH  16  21
BRANCH  17  23
ATOM     23  C   UNL     1      -2.885  25.162  34.029  1.00  0.00     0.191 C 
BRANCH  23  24
ATOM     24  O   UNL     1      -3.056  24.968  32.648  1.00  0.00    -0.394 OA
ATOM     25  H   UNL     1      -3.453  25.806  32.293  1.00  0.00     0.210 HD
ENDBRANCH  23  24
ENDBRANCH  17  23
BRANCH  18  26
ATOM     26  O   UNL     1      -6.060  25.299  33.238  1.00  0.00    -0.387 OA
ATOM     27  H   UNL     1      -6.010  24.580  32.564  1.00  0.00     0.211 HD
ENDBRANCH  18  26
ENDBRANCH  12  13
ENDBRANCH   7  12
BRANCH   4  28
ATOM     28  O   UNL     1       0.332  24.814  41.525  1.00  0.00    -0.365 OA
ATOM     29  H   UNL     1       0.671  25.736  41.587  1.00  0.00     0.214 HD
ENDBRANCH   4  28
BRANCH   8  30
ATOM     30  C   UNL     1      -1.480  27.269  37.849  1.00  0.00     0.249 C 
BRANCH  30  31
ATOM     31  O   UNL     1      -0.890  27.170  36.554  1.00  0.00    -0.461 OA
BRANCH  31  32
ATOM     32  C   UNL     1      -1.212  28.041  35.503  1.00  0.00     0.338 C 
ATOM     33  O   UNL     1      -2.260  28.743  35.564  1.00  0.00    -0.246 OA
BRANCH  32  34
ATOM     34  C   UNL     1      -0.332  28.148  34.312  1.00  0.00     0.060 A 
ATOM     35  C   UNL     1       0.259  27.001  33.753  1.00  0.00     0.015 A 
ATOM     36  C   UNL     1      -0.040  29.411  33.755  1.00  0.00     0.015 A 
ATOM     37  C   UNL     1       1.070  27.098  32.615  1.00  0.00     0.001 A 
ATOM     38  C   UNL     1       0.793  29.509  32.622  1.00  0.00     0.001 A 
ATOM     39  C   UNL     1       1.346  28.353  32.053  1.00  0.00     0.000 A 
ENDBRANCH  32  34
ENDBRANCH  31  32
ENDBRANCH  30  31
ENDBRANCH   8  30
TORSDOF 12
ENDMDL
MODEL 3
REMARK VINA RESULT:    -5.762      3.363      6.600
REMARK INTER + INTRA:          -9.996
REMARK INTER:                  -8.479
REMARK INTRA:                  -1.517
REMARK UNBOUND:                -1.033
REMARK SMILES C[C@@]12C[C@@]3(O)O[C@@H](O1)[C@]1(COC(=O)c4ccccc4)[C@H]3C[C@@]12O[C@@H]1O[C@@H](CO)[C@H](O)[C@@H](O)[C@@H]1O
REMARK SMILES IDX 1 1 2 2 3 3 4 4 20 5 21 6 22 7 9 8 7 9 8 10 6 11 23 12 24 13
REMARK SMILES IDX 33 14 25 15 31 16 26 17 29 18 34 19 32 21 27 23 28 24 30 26
REMARK SMILES IDX 5 28 10 30 11 31 12 32 13 33 14 34 15 35 19 36 16 37 18 38
REMARK SMILES IDX 17 39
REMARK H PARENT 34 20 32 22 28 25 30 27 5 29
REMARK Flexibility Score: inf
ROOT
ATOM      1  C   UNL     1       0.074  22.961  39.560  1.00  0.00     0.046 C 
ATOM      2  C   UNL     1      -0.913  24.136  39.505  1.00  0.00     0.104 C 
ATOM      3  C   UNL     1      -1.793  24.230  40.808  1.00  0.00     0.104 C 
ATOM      4  C   UNL     1      -2.799  25.388  40.495  1.00  0.00     0.175 C 
ATOM      5  C   UNL     1      -3.453  25.189  39.086  1.00  0.00     0.070 C 
ATOM      6  C   UNL     1      -3.287  23.760  38.563  1.00  0.00     0.050 C 
ATOM      7  C   UNL     1      -1.846  24.131  38.221  1.00  0.00     0.115 C 
ATOM      8  C   UNL     1      -2.268  25.609  38.221  1.00  0.00     0.096 C 
ATOM      9  C   UNL     1      -1.290  26.313  39.165  1.00  0.00     0.267 C 
ATOM     10  O   UNL     1      -0.244  25.381  39.434  1.00  0.00    -0.342 OA
ATOM     11  O   UNL     1      -2.014  26.554  40.360  1.00  0.00    -0.320 OA
ENDROOT
BRANCH   7  12
ATOM     12  O   UNL     1      -1.427  23.440  37.048  1.00  0.00    -0.339 OA
BRANCH  12  13
ATOM     13  C   UNL     1      -0.055  23.501  36.671  1.00  0.00     0.282 C 
ATOM     14  C   UNL     1       0.147  22.572  35.434  1.00  0.00     0.202 C 
ATOM     15  O   UNL     1       0.402  24.826  36.451  1.00  0.00    -0.341 OA
ATOM     16  C   UNL     1       0.945  23.253  34.327  1.00  0.00     0.179 C 
ATOM     17  C   UNL     1       1.756  24.937  36.020  1.00  0.00     0.178 C 
ATOM     18  C   UNL     1       2.183  23.887  34.966  1.00  0.00     0.177 C 
BRANCH  14  19
ATOM     19  O   UNL     1      -1.092  22.144  34.927  1.00  0.00    -0.385 OA
ATOM     20  H   UNL     1      -1.793  22.540  35.508  1.00  0.00     0.211 HD
ENDBRANCH  14  19
BRANCH  16  21
ATOM     21  O   UNL     1       1.342  22.290  33.386  1.00  0.00    -0.387 OA
ATOM     22  H   UNL     1       0.519  21.835  33.056  1.00  0.00     0.211 HD
ENDBRANCH  16  21
BRANCH  17  23
ATOM     23  C   UNL     1       2.734  24.994  37.213  1.00  0.00     0.191 C 
BRANCH  23  24
ATOM     24  O   UNL     1       2.206  25.775  38.255  1.00  0.00    -0.394 OA
ATOM     25  H   UNL     1       2.979  26.073  38.803  1.00  0.00     0.210 HD
ENDBRANCH  23  24
ENDBRANCH  17  23
BRANCH  18  26
ATOM     26  O   UNL     1       2.963  24.512  33.982  1.00  0.00    -0.387 OA
ATOM     27  H   UNL     1       2.590  24.247  33.108  1.00  0.00     0.211 HD
ENDBRANCH  18  26
ENDBRANCH  12  13
ENDBRANCH   7  12
BRANCH   4  28
ATOM     28  O   UNL     1      -3.754  25.542  41.518  1.00  0.00    -0.365 OA
ATOM     29  H   UNL     1      -3.283  25.351  42.361  1.00  0.00     0.214 HD
ENDBRANCH   4  28
BRANCH   8  30
ATOM     30  C   UNL     1      -2.647  26.420  36.955  1.00  0.00     0.249 C 
BRANCH  30  31
ATOM     31  O   UNL     1      -1.690  27.419  36.604  1.00  0.00    -0.461 OA
BRANCH  31  32
ATOM     32  C   UNL     1      -1.824  28.234  35.471  1.00  0.00     0.338 C 
ATOM     33  O   UNL     1      -2.819  29.004  35.360  1.00  0.00    -0.246 OA
BRANCH  32  34
ATOM     34  C   UNL     1      -0.806  28.201  34.391  1.00  0.00     0.060 A 
ATOM     35  C   UNL     1      -0.272  29.394  33.871  1.00  0.00     0.015 A 
ATOM     36  C   UNL     1      -0.394  26.969  33.840  1.00  0.00     0.015 A 
ATOM     37  C   UNL     1       0.706  29.361  32.869  1.00  0.00     0.001 A 
ATOM     38  C   UNL     1       0.575  26.939  32.818  1.00  0.00     0.001 A 
ATOM     39  C   UNL     1       1.126  28.135  32.335  1.00  0.00     0.000 A 
ENDBRANCH  32  34
ENDBRANCH  31  32
ENDBRANCH  30  31
ENDBRANCH   8  30
TORSDOF 12
ENDMDL
MODEL 4
REMARK VINA RESULT:    -5.729      2.206      2.997
REMARK INTER + INTRA:          -9.945
REMARK INTER:                  -8.760
REMARK INTRA:                  -1.185
REMARK UNBOUND:                -1.033
REMARK SMILES C[C@@]12C[C@@]3(O)O[C@@H](O1)[C@]1(COC(=O)c4ccccc4)[C@H]3C[C@@]12O[C@@H]1O[C@@H](CO)[C@H](O)[C@@H](O)[C@@H]1O
REMARK SMILES IDX 1 1 2 2 3 3 4 4 20 5 21 6 22 7 9 8 7 9 8 10 6 11 23 12 24 13
REMARK SMILES IDX 33 14 25 15 31 16 26 17 29 18 34 19 32 21 27 23 28 24 30 26
REMARK SMILES IDX 5 28 10 30 11 31 12 32 13 33 14 34 15 35 19 36 16 37 18 38
REMARK SMILES IDX 17 39
REMARK H PARENT 34 20 32 22 28 25 30 27 5 29
REMARK Flexibility Score: inf
ROOT
ATOM      1  C   UNL     1      -2.187  23.437  35.709  1.00  0.00     0.046 C 
ATOM      2  C   UNL     1      -3.485  23.842  34.998  1.00  0.00     0.104 C 
ATOM      3  C   UNL     1      -3.419  23.570  33.448  1.00  0.00     0.104 C 
ATOM      4  C   UNL     1      -4.764  24.164  32.908  1.00  0.00     0.175 C 
ATOM      5  C   UNL     1      -4.998  25.607  33.471  1.00  0.00     0.070 C 
ATOM      6  C   UNL     1      -3.718  26.227  34.037  1.00  0.00     0.050 C 
ATOM      7  C   UNL     1      -3.922  25.345  35.265  1.00  0.00     0.115 C 
ATOM      8  C   UNL     1      -5.410  25.236  34.892  1.00  0.00     0.096 C 
ATOM      9  C   UNL     1      -5.714  23.737  34.861  1.00  0.00     0.267 C 
ATOM     10  O   UNL     1      -4.591  23.082  35.448  1.00  0.00    -0.342 OA
ATOM     11  O   UNL     1      -5.790  23.387  33.489  1.00  0.00    -0.320 OA
ENDROOT
BRANCH   7  12
ATOM     12  O   UNL     1      -3.459  26.015  36.434  1.00  0.00    -0.339 OA
BRANCH  12  13
ATOM     13  C   UNL     1      -3.352  25.280  37.649  1.00  0.00     0.282 C 
ATOM     14  C   UNL     1      -2.223  25.929  38.508  1.00  0.00     0.202 C 
ATOM     15  O   UNL     1      -4.586  25.173  38.342  1.00  0.00    -0.341 OA
ATOM     16  C   UNL     1      -2.653  26.146  39.955  1.00  0.00     0.179 C 
ATOM     17  C   UNL     1      -4.521  24.491  39.592  1.00  0.00     0.178 C 
ATOM     18  C   UNL     1      -3.284  24.843  40.454  1.00  0.00     0.177 C 
BRANCH  14  19
ATOM     19  O   UNL     1      -1.815  27.153  37.949  1.00  0.00    -0.385 OA
ATOM     20  H   UNL     1      -1.870  27.832  38.672  1.00  0.00     0.211 HD
ENDBRANCH  14  19
BRANCH  16  21
ATOM     21  O   UNL     1      -1.523  26.448  40.731  1.00  0.00    -0.387 OA
ATOM     22  H   UNL     1      -1.839  26.661  41.652  1.00  0.00     0.211 HD
ENDBRANCH  16  21
BRANCH  17  23
ATOM     23  C   UNL     1      -4.694  22.966  39.422  1.00  0.00     0.191 C 
BRANCH  23  24
ATOM     24  O   UNL     1      -5.465  22.674  38.284  1.00  0.00    -0.394 OA
ATOM     25  H   UNL     1      -4.979  21.964  37.789  1.00  0.00     0.210 HD
ENDBRANCH  23  24
ENDBRANCH  17  23
BRANCH  18  26
ATOM     26  O   UNL     1      -3.681  24.986  41.792  1.00  0.00    -0.387 OA
ATOM     27  H   UNL     1      -4.519  25.508  41.789  1.00  0.00     0.211 HD
ENDBRANCH  18  26
ENDBRANCH  12  13
ENDBRANCH   7  12
BRANCH   4  28
ATOM     28  O   UNL     1      -4.831  24.114  31.503  1.00  0.00    -0.365 OA
ATOM     29  H   UNL     1      -4.487  24.978  31.182  1.00  0.00     0.214 HD
ENDBRANCH   4  28
BRANCH   8  30
ATOM     30  C   UNL     1      -6.537  26.116  35.490  1.00  0.00     0.249 C 
BRANCH  30  31
ATOM     31  O   UNL     1      -7.783  26.001  34.804  1.00  0.00    -0.461 OA
BRANCH  31  32
ATOM     32  C   UNL     1      -8.208  26.927  33.840  1.00  0.00     0.338 C 
ATOM     33  O   UNL     1      -8.830  26.532  32.815  1.00  0.00    -0.246 OA
BRANCH  32  34
ATOM     34  C   UNL     1      -7.930  28.376  34.010  1.00  0.00     0.060 A 
ATOM     35  C   UNL     1      -8.807  29.191  34.749  1.00  0.00     0.015 A 
ATOM     36  C   UNL     1      -6.806  28.962  33.392  1.00  0.00     0.015 A 
ATOM     37  C   UNL     1      -8.533  30.553  34.929  1.00  0.00     0.001 A 
ATOM     38  C   UNL     1      -6.543  30.337  33.558  1.00  0.00     0.001 A 
ATOM     39  C   UNL     1      -7.405  31.130  34.328  1.00  0.00     0.000 A 
ENDBRANCH  32  34
ENDBRANCH  31  32
ENDBRANCH  30  31
ENDBRANCH   8  30
TORSDOF 12
ENDMDL
MODEL 5
REMARK VINA RESULT:    -5.687      3.651      5.504
REMARK INTER + INTRA:          -9.879
REMARK INTER:                  -8.290
REMARK INTRA:                  -1.589
REMARK UNBOUND:                -1.033
REMARK SMILES C[C@@]12C[C@@]3(O)O[C@@H](O1)[C@]1(COC(=O)c4ccccc4)[C@H]3C[C@@]12O[C@@H]1O[C@@H](CO)[C@H](O)[C@@H](O)[C@@H]1O
REMARK SMILES IDX 1 1 2 2 3 3 4 4 20 5 21 6 22 7 9 8 7 9 8 10 6 11 23 12 24 13
REMARK SMILES IDX 33 14 25 15 31 16 26 17 29 18 34 19 32 21 27 23 28 24 30 26
REMARK SMILES IDX 5 28 10 30 11 31 12 32 13 33 14 34 15 35 19 36 16 37 18 38
REMARK SMILES IDX 17 39
REMARK H PARENT 34 20 32 22 28 25 30 27 5 29
REMARK Flexibility Score: inf
ROOT
ATOM      1  C   UNL     1       1.905  22.605  39.898  1.00  0.00     0.046 C 
ATOM      2  C   UNL     1       2.424  22.953  38.497  1.00  0.00     0.104 C 
ATOM      3  C   UNL     1       3.937  22.554  38.310  1.00  0.00     0.104 C 
ATOM      4  C   UNL     1       4.294  23.105  36.889  1.00  0.00     0.175 C 
ATOM      5  C   UNL     1       3.821  24.590  36.734  1.00  0.00     0.070 C 
ATOM      6  C   UNL     1       3.526  25.251  38.082  1.00  0.00     0.050 C 
ATOM      7  C   UNL     1       2.212  24.474  38.093  1.00  0.00     0.115 C 
ATOM      8  C   UNL     1       2.326  24.338  36.565  1.00  0.00     0.096 C 
ATOM      9  C   UNL     1       2.184  22.842  36.277  1.00  0.00     0.267 C 
ATOM     10  O   UNL     1       1.737  22.235  37.488  1.00  0.00    -0.342 OA
ATOM     11  O   UNL     1       3.491  22.381  35.981  1.00  0.00    -0.320 OA
ENDROOT
BRANCH   7  12
ATOM     12  O   UNL     1       1.195  25.237  38.734  1.00  0.00    -0.339 OA
BRANCH  12  13
ATOM     13  C   UNL     1      -0.158  24.806  38.624  1.00  0.00     0.282 C 
ATOM     14  C   UNL     1      -0.814  24.911  40.036  1.00  0.00     0.202 C 
ATOM     15  O   UNL     1      -0.882  25.502  37.622  1.00  0.00    -0.341 OA
ATOM     16  C   UNL     1      -2.176  25.594  39.987  1.00  0.00     0.179 C 
ATOM     17  C   UNL     1      -2.256  25.143  37.508  1.00  0.00     0.178 C 
ATOM     18  C   UNL     1      -2.984  24.946  38.860  1.00  0.00     0.177 C 
BRANCH  14  19
ATOM     19  O   UNL     1       0.028  25.601  40.925  1.00  0.00    -0.385 OA
ATOM     20  H   UNL     1       0.961  25.379  40.668  1.00  0.00     0.211 HD
ENDBRANCH  14  19
BRANCH  16  21
ATOM     21  O   UNL     1      -2.835  25.396  41.212  1.00  0.00    -0.387 OA
ATOM     22  H   UNL     1      -3.434  24.607  41.106  1.00  0.00     0.211 HD
ENDBRANCH  16  21
BRANCH  17  23
ATOM     23  C   UNL     1      -2.458  23.940  36.560  1.00  0.00     0.191 C 
BRANCH  23  24
ATOM     24  O   UNL     1      -3.196  24.317  35.425  1.00  0.00    -0.394 OA
ATOM     25  H   UNL     1      -2.589  24.869  34.865  1.00  0.00     0.210 HD
ENDBRANCH  23  24
ENDBRANCH  17  23
BRANCH  18  26
ATOM     26  O   UNL     1      -4.257  25.530  38.787  1.00  0.00    -0.387 OA
ATOM     27  H   UNL     1      -4.142  26.495  38.963  1.00  0.00     0.211 HD
ENDBRANCH  18  26
ENDBRANCH  12  13
ENDBRANCH   7  12
BRANCH   4  28
ATOM     28  O   UNL     1       5.660  22.939  36.592  1.00  0.00    -0.365 OA
ATOM     29  H   UNL     1       5.713  22.791  35.621  1.00  0.00     0.214 HD
ENDBRANCH   4  28
BRANCH   8  30
ATOM     30  C   UNL     1       1.624  25.268  35.542  1.00  0.00     0.249 C 
BRANCH  30  31
ATOM     31  O   UNL     1       0.606  24.620  34.780  1.00  0.00    -0.461 OA
BRANCH  31  32
ATOM     32  C   UNL     1      -0.225  25.308  33.884  1.00  0.00     0.338 C 
ATOM     33  O   UNL     1      -1.115  24.683  33.242  1.00  0.00    -0.246 OA
BRANCH  32  34
ATOM     34  C   UNL     1      -0.070  26.771  33.679  1.00  0.00     0.060 A 
ATOM     35  C   UNL     1      -0.848  27.684  34.413  1.00  0.00     0.015 A 
ATOM     36  C   UNL     1       0.831  27.261  32.710  1.00  0.00     0.015 A 
ATOM     37  C   UNL     1      -0.685  29.064  34.236  1.00  0.00     0.001 A 
ATOM     38  C   UNL     1       0.979  28.649  32.520  1.00  0.00     0.001 A 
ATOM     39  C   UNL     1       0.223  29.549  33.284  1.00  0.00     0.000 A 
ENDBRANCH  32  34
ENDBRANCH  31  32
ENDBRANCH  30  31
ENDBRANCH   8  30
TORSDOF 12
ENDMDL
MODEL 6
REMARK VINA RESULT:    -5.630      2.588      5.390
REMARK INTER + INTRA:          -9.791
REMARK INTER:                  -8.538
REMARK INTRA:                  -1.252
REMARK UNBOUND:                -1.033
REMARK SMILES C[C@@]12C[C@@]3(O)O[C@@H](O1)[C@]1(COC(=O)c4ccccc4)[C@H]3C[C@@]12O[C@@H]1O[C@@H](CO)[C@H](O)[C@@H](O)[C@@H]1O
REMARK SMILES IDX 1 1 2 2 3 3 4 4 20 5 21 6 22 7 9 8 7 9 8 10 6 11 23 12 24 13
REMARK SMILES IDX 33 14 25 15 31 16 26 17 29 18 34 19 32 21 27 23 28 24 30 26
REMARK SMILES IDX 5 28 10 30 11 31 12 32 13 33 14 34 15 35 19 36 16 37 18 38
REMARK SMILES IDX 17 39
REMARK H PARENT 34 20 32 22 28 25 30 27 5 29
REMARK Flexibility Score: inf
ROOT
ATOM      1  C   UNL     1      -6.632  25.253  36.704  1.00  0.00     0.046 C 
ATOM      2  C   UNL     1      -5.701  25.006  35.510  1.00  0.00     0.104 C 
ATOM      3  C   UNL     1      -6.490  24.515  34.237  1.00  0.00     0.104 C 
ATOM      4  C   UNL     1      -5.362  24.202  33.198  1.00  0.00     0.175 C 
ATOM      5  C   UNL     1      -4.238  23.324  33.846  1.00  0.00     0.070 C 
ATOM      6  C   UNL     1      -4.697  22.656  35.144  1.00  0.00     0.050 C 
ATOM      7  C   UNL     1      -4.506  24.010  35.823  1.00  0.00     0.115 C 
ATOM      8  C   UNL     1      -3.555  24.404  34.680  1.00  0.00     0.096 C 
ATOM      9  C   UNL     1      -4.084  25.738  34.151  1.00  0.00     0.267 C 
ATOM     10  O   UNL     1      -5.054  26.194  35.093  1.00  0.00    -0.342 OA
ATOM     11  O   UNL     1      -4.733  25.438  32.927  1.00  0.00    -0.320 OA
ENDROOT
BRANCH   7  12
ATOM     12  O   UNL     1      -4.075  23.828  37.168  1.00  0.00    -0.339 OA
BRANCH  12  13
ATOM     13  C   UNL     1      -3.320  24.862  37.791  1.00  0.00     0.282 C 
ATOM     14  C   UNL     1      -3.950  25.144  39.190  1.00  0.00     0.202 C 
ATOM     15  O   UNL     1      -1.932  24.574  37.856  1.00  0.00    -0.341 OA
ATOM     16  C   UNL     1      -2.898  25.214  40.292  1.00  0.00     0.179 C 
ATOM     17  C   UNL     1      -1.139  25.556  38.518  1.00  0.00     0.178 C 
ATOM     18  C   UNL     1      -1.775  26.133  39.806  1.00  0.00     0.177 C 
BRANCH  14  19
ATOM     19  O   UNL     1      -4.905  24.163  39.511  1.00  0.00    -0.385 OA
ATOM     20  H   UNL     1      -5.488  24.548  40.217  1.00  0.00     0.211 HD
ENDBRANCH  14  19
BRANCH  16  21
ATOM     21  O   UNL     1      -3.480  25.754  41.450  1.00  0.00    -0.387 OA
ATOM     22  H   UNL     1      -2.775  25.785  42.154  1.00  0.00     0.211 HD
ENDBRANCH  16  21
BRANCH  17  23
ATOM     23  C   UNL     1      -0.677  26.668  37.551  1.00  0.00     0.191 C 
BRANCH  23  24
ATOM     24  O   UNL     1      -0.754  27.929  38.165  1.00  0.00    -0.394 OA
ATOM     25  H   UNL     1       0.024  27.992  38.778  1.00  0.00     0.210 HD
ENDBRANCH  23  24
ENDBRANCH  17  23
BRANCH  18  26
ATOM     26  O   UNL     1      -0.787  26.246  40.796  1.00  0.00    -0.387 OA
ATOM     27  H   UNL     1      -1.050  25.646  41.535  1.00  0.00     0.211 HD
ENDBRANCH  18  26
ENDBRANCH  12  13
ENDBRANCH   7  12
BRANCH   4  28
ATOM     28  O   UNL     1      -5.880  23.634  32.019  1.00  0.00    -0.365 OA
ATOM     29  H   UNL     1      -6.859  23.641  32.120  1.00  0.00     0.214 HD
ENDBRANCH   4  28
BRANCH   8  30
ATOM     30  C   UNL     1      -2.010  24.294  34.740  1.00  0.00     0.249 C 
BRANCH  30  31
ATOM     31  O   UNL     1      -1.346  24.909  33.636  1.00  0.00    -0.461 OA
BRANCH  31  32
ATOM     32  C   UNL     1      -0.096  25.534  33.754  1.00  0.00     0.338 C 
ATOM     33  O   UNL     1       0.933  24.845  34.006  1.00  0.00    -0.246 OA
BRANCH  32  34
ATOM     34  C   UNL     1       0.034  27.004  33.587  1.00  0.00     0.060 A 
ATOM     35  C   UNL     1      -0.822  27.881  34.277  1.00  0.00     0.015 A 
ATOM     36  C   UNL     1       0.990  27.536  32.697  1.00  0.00     0.015 A 
ATOM     37  C   UNL     1      -0.685  29.268  34.138  1.00  0.00     0.001 A 
ATOM     38  C   UNL     1       1.113  28.932  32.543  1.00  0.00     0.001 A 
ATOM     39  C   UNL     1       0.277  29.796  33.265  1.00  0.00     0.000 A 
ENDBRANCH  32  34
ENDBRANCH  31  32
ENDBRANCH  30  31
ENDBRANCH   8  30
TORSDOF 12
ENDMDL
MODEL 7
REMARK VINA RESULT:    -5.627      6.313      9.089
REMARK INTER + INTRA:          -9.785
REMARK INTER:                  -8.055
REMARK INTRA:                  -1.730
REMARK UNBOUND:                -1.033
REMARK SMILES C[C@@]12C[C@@]3(O)O[C@@H](O1)[C@]1(COC(=O)c4ccccc4)[C@H]3C[C@@]12O[C@@H]1O[C@@H](CO)[C@H](O)[C@@H](O)[C@@H]1O
REMARK SMILES IDX 1 1 2 2 3 3 4 4 20 5 21 6 22 7 9 8 7 9 8 10 6 11 23 12 24 13
REMARK SMILES IDX 33 14 25 15 31 16 26 17 29 18 34 19 32 21 27 23 28 24 30 26
REMARK SMILES IDX 5 28 10 30 11 31 12 32 13 33 14 34 15 35 19 36 16 37 18 38
REMARK SMILES IDX 17 39
REMARK H PARENT 34 20 32 22 28 25 30 27 5 29
REMARK Flexibility Score: inf
ROOT
ATOM      1  C   UNL     1       5.176  25.596  30.312  1.00  0.00     0.046 C 
ATOM      2  C   UNL     1       4.424  24.803  29.235  1.00  0.00     0.104 C 
ATOM      3  C   UNL     1       5.405  24.136  28.199  1.00  0.00     0.104 C 
ATOM      4  C   UNL     1       4.448  23.501  27.135  1.00  0.00     0.175 C 
ATOM      5  C   UNL     1       3.363  24.535  26.678  1.00  0.00     0.070 C 
ATOM      6  C   UNL     1       3.741  25.973  27.038  1.00  0.00     0.050 C 
ATOM      7  C   UNL     1       3.321  25.648  28.469  1.00  0.00     0.115 C 
ATOM      8  C   UNL     1       2.470  24.493  27.914  1.00  0.00     0.096 C 
ATOM      9  C   UNL     1       2.903  23.254  28.701  1.00  0.00     0.267 C 
ATOM     10  O   UNL     1       3.699  23.721  29.789  1.00  0.00    -0.342 OA
ATOM     11  O   UNL     1       3.719  22.503  27.819  1.00  0.00    -0.320 OA
ENDROOT
BRANCH   7  12
ATOM     12  O   UNL     1       2.760  26.801  29.090  1.00  0.00    -0.339 OA
BRANCH  12  13
ATOM     13  C   UNL     1       2.487  26.763  30.487  1.00  0.00     0.282 C 
ATOM     14  C   UNL     1       2.406  28.233  31.003  1.00  0.00     0.202 C 
ATOM     15  O   UNL     1       1.336  25.997  30.806  1.00  0.00    -0.341 OA
ATOM     16  C   UNL     1       1.182  28.466  31.883  1.00  0.00     0.179 C 
ATOM     17  C   UNL     1       0.990  25.971  32.189  1.00  0.00     0.178 C 
ATOM     18  C   UNL     1       1.123  27.334  32.911  1.00  0.00     0.177 C 
BRANCH  14  19
ATOM     19  O   UNL     1       2.393  29.137  29.927  1.00  0.00    -0.385 OA
ATOM     20  H   UNL     1       3.269  29.051  29.468  1.00  0.00     0.211 HD
ENDBRANCH  14  19
BRANCH  16  21
ATOM     21  O   UNL     1       1.320  29.697  32.546  1.00  0.00    -0.387 OA
ATOM     22  H   UNL     1       0.895  30.394  31.975  1.00  0.00     0.211 HD
ENDBRANCH  16  21
BRANCH  17  23
ATOM     23  C   UNL     1       1.725  24.841  32.942  1.00  0.00     0.191 C 
BRANCH  23  24
ATOM     24  O   UNL     1       1.901  23.720  32.114  1.00  0.00    -0.394 OA
ATOM     25  H   UNL     1       1.869  24.053  31.179  1.00  0.00     0.210 HD
ENDBRANCH  23  24
ENDBRANCH  17  23
BRANCH  18  26
ATOM     26  O   UNL     1       0.020  27.515  33.759  1.00  0.00    -0.387 OA
ATOM     27  H   UNL     1      -0.458  26.652  33.797  1.00  0.00     0.211 HD
ENDBRANCH  18  26
ENDBRANCH  12  13
ENDBRANCH   7  12
BRANCH   4  28
ATOM     28  O   UNL     1       5.160  22.950  26.053  1.00  0.00    -0.365 OA
ATOM     29  H   UNL     1       6.098  23.221  26.178  1.00  0.00     0.214 HD
ENDBRANCH   4  28
BRANCH   8  30
ATOM     30  C   UNL     1       0.951  24.578  27.619  1.00  0.00     0.249 C 
BRANCH  30  31
ATOM     31  O   UNL     1       0.214  23.436  28.056  1.00  0.00    -0.461 OA
BRANCH  31  32
ATOM     32  C   UNL     1      -0.636  23.462  29.170  1.00  0.00     0.338 C 
ATOM     33  O   UNL     1      -0.199  23.123  30.306  1.00  0.00    -0.246 OA
BRANCH  32  34
ATOM     34  C   UNL     1      -2.053  23.883  29.031  1.00  0.00     0.060 A 
ATOM     35  C   UNL     1      -2.400  25.246  29.037  1.00  0.00     0.015 A 
ATOM     36  C   UNL     1      -3.076  22.916  28.936  1.00  0.00     0.015 A 
ATOM     37  C   UNL     1      -3.734  25.644  28.881  1.00  0.00     0.001 A 
ATOM     38  C   UNL     1      -4.420  23.318  28.801  1.00  0.00     0.001 A 
ATOM     39  C   UNL     1      -4.747  24.680  28.771  1.00  0.00     0.000 A 
ENDBRANCH  32  34
ENDBRANCH  31  32
ENDBRANCH  30  31
ENDBRANCH   8  30
TORSDOF 12
ENDMDL
MODEL 8
REMARK VINA RESULT:    -5.569      3.135      8.132
REMARK INTER + INTRA:          -9.695
REMARK INTER:                  -8.166
REMARK INTRA:                  -1.529
REMARK UNBOUND:                -1.033
REMARK SMILES C[C@@]12C[C@@]3(O)O[C@@H](O1)[C@]1(COC(=O)c4ccccc4)[C@H]3C[C@@]12O[C@@H]1O[C@@H](CO)[C@H](O)[C@@H](O)[C@@H]1O
REMARK SMILES IDX 1 1 2 2 3 3 4 4 20 5 21 6 22 7 9 8 7 9 8 10 6 11 23 12 24 13
REMARK SMILES IDX 33 14 25 15 31 16 26 17 29 18 34 19 32 21 27 23 28 24 30 26
REMARK SMILES IDX 5 28 10 30 11 31 12 32 13 33 14 34 15 35 19 36 16 37 18 38
REMARK SMILES IDX 17 39
REMARK H PARENT 34 20 32 22 28 25 30 27 5 29
REMARK Flexibility Score: inf
ROOT
ATOM      1  C   UNL     1      -4.355  25.487  37.042  1.00  0.00     0.046 C 
ATOM      2  C   UNL     1      -3.602  24.798  38.187  1.00  0.00     0.104 C 
ATOM      3  C   UNL     1      -4.577  24.294  39.317  1.00  0.00     0.104 C 
ATOM      4  C   UNL     1      -3.613  23.753  40.426  1.00  0.00     0.175 C 
ATOM      5  C   UNL     1      -2.482  24.792  40.733  1.00  0.00     0.070 C 
ATOM      6  C   UNL     1      -2.820  26.192  40.215  1.00  0.00     0.050 C 
ATOM      7  C   UNL     1      -2.450  25.686  38.824  1.00  0.00     0.115 C 
ATOM      8  C   UNL     1      -1.625  24.573  39.491  1.00  0.00     0.096 C 
ATOM      9  C   UNL     1      -2.120  23.267  38.865  1.00  0.00     0.267 C 
ATOM     10  O   UNL     1      -2.929  23.633  37.748  1.00  0.00    -0.342 OA
ATOM     11  O   UNL     1      -2.937  22.655  39.848  1.00  0.00    -0.320 OA
ENDROOT
BRANCH   7  12
ATOM     12  O   UNL     1      -1.867  26.737  38.058  1.00  0.00    -0.339 OA
BRANCH  12  13
ATOM     13  C   UNL     1      -1.783  26.590  36.644  1.00  0.00     0.282 C 
ATOM     14  C   UNL     1      -1.829  28.013  36.007  1.00  0.00     0.202 C 
ATOM     15  O   UNL     1      -0.656  25.833  36.231  1.00  0.00    -0.341 OA
ATOM     16  C   UNL     1      -0.745  28.207  34.953  1.00  0.00     0.179 C 
ATOM     17  C   UNL     1      -0.498  25.701  34.821  1.00  0.00     0.178 C 
ATOM     18  C   UNL     1      -0.780  26.995  34.019  1.00  0.00     0.177 C 
BRANCH  14  19
ATOM     19  O   UNL     1      -1.707  29.004  36.997  1.00  0.00    -0.385 OA
ATOM     20  H   UNL     1      -0.764  29.313  36.980  1.00  0.00     0.211 HD
ENDBRANCH  14  19
BRANCH  16  21
ATOM     21  O   UNL     1      -1.018  29.373  34.221  1.00  0.00    -0.387 OA
ATOM     22  H   UNL     1      -0.917  29.152  33.254  1.00  0.00     0.211 HD
ENDBRANCH  16  21
BRANCH  17  23
ATOM     23  C   UNL     1      -1.283  24.492  34.267  1.00  0.00     0.191 C 
BRANCH  23  24
ATOM     24  O   UNL     1      -1.427  23.497  35.248  1.00  0.00    -0.394 OA
ATOM     25  H   UNL     1      -2.401  23.413  35.424  1.00  0.00     0.210 HD
ENDBRANCH  23  24
ENDBRANCH  17  23
BRANCH  18  26
ATOM     26  O   UNL     1       0.191  27.135  33.016  1.00  0.00    -0.387 OA
ATOM     27  H   UNL     1       0.663  26.271  32.949  1.00  0.00     0.211 HD
ENDBRANCH  18  26
ENDBRANCH  12  13
ENDBRANCH   7  12
BRANCH   4  28
ATOM     28  O   UNL     1      -4.314  23.359  41.581  1.00  0.00    -0.365 OA
ATOM     29  H   UNL     1      -5.237  23.677  41.462  1.00  0.00     0.214 HD
ENDBRANCH   4  28
BRANCH   8  30
ATOM     30  C   UNL     1      -0.096  24.636  39.739  1.00  0.00     0.249 C 
BRANCH  30  31
ATOM     31  O   UNL     1       0.600  23.453  39.348  1.00  0.00    -0.461 OA
BRANCH  31  32
ATOM     32  C   UNL     1       1.286  23.343  38.130  1.00  0.00     0.338 C 
ATOM     33  O   UNL     1       0.689  22.906  37.107  1.00  0.00    -0.246 OA
BRANCH  32  34
ATOM     34  C   UNL     1       2.715  23.736  38.028  1.00  0.00     0.060 A 
ATOM     35  C   UNL     1       3.073  25.055  37.698  1.00  0.00     0.015 A 
ATOM     36  C   UNL     1       3.731  22.776  38.217  1.00  0.00     0.015 A 
ATOM     37  C   UNL     1       4.421  25.431  37.625  1.00  0.00     0.001 A 
ATOM     38  C   UNL     1       5.086  23.151  38.122  1.00  0.00     0.001 A 
ATOM     39  C   UNL     1       5.429  24.478  37.829  1.00  0.00     0.000 A 
ENDBRANCH  32  34
ENDBRANCH  31  32
ENDBRANCH  30  31
ENDBRANCH   8  30
TORSDOF 12
ENDMDL
MODEL 9
REMARK VINA RESULT:    -5.561      3.360      7.655
REMARK INTER + INTRA:          -9.683
REMARK INTER:                  -8.057
REMARK INTRA:                  -1.627
REMARK UNBOUND:                -1.033
REMARK SMILES C[C@@]12C[C@@]3(O)O[C@@H](O1)[C@]1(COC(=O)c4ccccc4)[C@H]3C[C@@]12O[C@@H]1O[C@@H](CO)[C@H](O)[C@@H](O)[C@@H]1O
REMARK SMILES IDX 1 1 2 2 3 3 4 4 20 5 21 6 22 7 9 8 7 9 8 10 6 11 23 12 24 13
REMARK SMILES IDX 33 14 25 15 31 16 26 17 29 18 34 19 32 21 27 23 28 24 30 26
REMARK SMILES IDX 5 28 10 30 11 31 12 32 13 33 14 34 15 35 19 36 16 37 18 38
REMARK SMILES IDX 17 39
REMARK H PARENT 34 20 32 22 28 25 30 27 5 29
REMARK Flexibility Score: inf
ROOT
ATOM      1  C   UNL     1      -1.300  25.577  31.958  1.00  0.00     0.046 C 
ATOM      2  C   UNL     1      -1.497  25.373  33.467  1.00  0.00     0.104 C 
ATOM      3  C   UNL     1      -2.981  24.979  33.821  1.00  0.00     0.104 C 
ATOM      4  C   UNL     1      -2.994  24.949  35.386  1.00  0.00     0.175 C 
ATOM      5  C   UNL     1      -2.335  26.245  35.971  1.00  0.00     0.070 C 
ATOM      6  C   UNL     1      -2.233  27.366  34.934  1.00  0.00     0.050 C 
ATOM      7  C   UNL     1      -1.042  26.613  34.347  1.00  0.00     0.115 C 
ATOM      8  C   UNL     1      -0.874  25.902  35.700  1.00  0.00     0.096 C 
ATOM      9  C   UNL     1      -0.848  24.407  35.375  1.00  0.00     0.267 C 
ATOM     10  O   UNL     1      -0.715  24.301  33.959  1.00  0.00    -0.342 OA
ATOM     11  O   UNL     1      -2.117  23.907  35.760  1.00  0.00    -0.320 OA
ENDROOT
BRANCH   7  12
ATOM     12  O   UNL     1      -0.087  27.533  33.826  1.00  0.00    -0.339 OA
BRANCH  12  13
ATOM     13  C   UNL     1       0.805  27.092  32.808  1.00  0.00     0.282 C 
ATOM     14  C   UNL     1       1.248  28.340  31.981  1.00  0.00     0.202 C 
ATOM     15  O   UNL     1       1.900  26.345  33.315  1.00  0.00    -0.341 OA
ATOM     16  C   UNL     1       2.756  28.378  31.761  1.00  0.00     0.179 C 
ATOM     17  C   UNL     1       2.850  25.925  32.339  1.00  0.00     0.178 C 
ATOM     18  C   UNL     1       3.192  26.994  31.273  1.00  0.00     0.177 C 
BRANCH  14  19
ATOM     19  O   UNL     1       0.833  29.526  32.611  1.00  0.00    -0.385 OA
ATOM     20  H   UNL     1       0.046  29.860  32.107  1.00  0.00     0.211 HD
ENDBRANCH  14  19
BRANCH  16  21
ATOM     21  O   UNL     1       3.054  29.338  30.781  1.00  0.00    -0.387 OA
ATOM     22  H   UNL     1       2.190  29.705  30.447  1.00  0.00     0.211 HD
ENDBRANCH  16  21
BRANCH  17  23
ATOM     23  C   UNL     1       2.459  24.574  31.702  1.00  0.00     0.191 C 
BRANCH  23  24
ATOM     24  O   UNL     1       1.846  23.735  32.647  1.00  0.00    -0.394 OA
ATOM     25  H   UNL     1       2.477  23.661  33.410  1.00  0.00     0.210 HD
ENDBRANCH  23  24
ENDBRANCH  17  23
BRANCH  18  26
ATOM     26  O   UNL     1       4.575  26.983  31.037  1.00  0.00    -0.387 OA
ATOM     27  H   UNL     1       4.764  27.713  30.400  1.00  0.00     0.211 HD
ENDBRANCH  18  26
ENDBRANCH  12  13
ENDBRANCH   7  12
BRANCH   4  28
ATOM     28  O   UNL     1      -4.288  24.723  35.893  1.00  0.00    -0.365 OA
ATOM     29  H   UNL     1      -4.788  24.277  35.174  1.00  0.00     0.214 HD
ENDBRANCH   4  28
BRANCH   8  30
ATOM     30  C   UNL     1       0.111  26.343  36.813  1.00  0.00     0.249 C 
BRANCH  30  31
ATOM     31  O   UNL     1       0.681  25.256  37.541  1.00  0.00    -0.461 OA
BRANCH  31  32
ATOM     32  C   UNL     1       0.354  24.982  38.877  1.00  0.00     0.338 C 
ATOM     33  O   UNL     1       1.245  24.577  39.675  1.00  0.00    -0.246 OA
BRANCH  32  34
ATOM     34  C   UNL     1      -1.036  25.162  39.367  1.00  0.00     0.060 A 
ATOM     35  C   UNL     1      -1.387  26.290  40.130  1.00  0.00     0.015 A 
ATOM     36  C   UNL     1      -2.013  24.176  39.111  1.00  0.00     0.015 A 
ATOM     37  C   UNL     1      -2.704  26.470  40.572  1.00  0.00     0.001 A 
ATOM     38  C   UNL     1      -3.332  24.350  39.574  1.00  0.00     0.001 A 
ATOM     39  C   UNL     1      -3.677  25.497  40.302  1.00  0.00     0.000 A 
ENDBRANCH  32  34
ENDBRANCH  31  32
ENDBRANCH  30  31
ENDBRANCH   8  30
TORSDOF 12
ENDMDL
