MODEL 1
REMARK VINA RESULT:    -3.048      0.000      0.000
REMARK INTER + INTRA:          -3.941
REMARK INTER:                  -3.583
REMARK INTRA:                  -0.358
REMARK UNBOUND:                -0.358
REMARK SMILES [NH3+][C@H](CO)C(=O)[O-]
REMARK SMILES IDX 3 1 2 2 1 3 5 7 6 8 7 9 4 10
REMARK H PARENT 1 4 1 5 1 6 4 11
REMARK Flexibility Score: inf
ROOT
ATOM      1  C   UNL     1     157.064 157.352 141.699  1.00  0.00     0.227 C 
ENDROOT
BRANCH   1   2
ATOM      2  C   UNL     1     157.093 156.562 143.020  1.00  0.00     0.253 C 
BRANCH   2   3
ATOM      3  N   UNL     1     157.829 157.290 144.061  1.00  0.00    -0.348 N 
ATOM      4  H   UNL     1     158.840 157.024 144.036  1.00  0.00     0.345 HD
ATOM      5  H   UNL     1     157.742 158.323 143.923  1.00  0.00     0.345 HD
ATOM      6  H   UNL     1     157.453 157.037 145.004  1.00  0.00     0.345 HD
ENDBRANCH   2   3
BRANCH   2   7
ATOM      7  C   UNL     1     155.689 156.270 143.477  1.00  0.00     0.102 C 
ATOM      8  O   UNL     1     155.020 155.350 142.935  1.00  0.00    -0.544 OA
ATOM      9  O   UNL     1     155.129 157.005 144.514  1.00  0.00    -0.544 OA
ENDBRANCH   2   7
ENDBRANCH   1   2
BRANCH   1  10
ATOM     10  O   UNL     1     155.764 157.802 141.422  1.00  0.00    -0.390 OA
ATOM     11  H   UNL     1     155.831 158.770 141.220  1.00  0.00     0.210 HD
ENDBRANCH   1  10
TORSDOF 4
ENDMDL
MODEL 2
REMARK VINA RESULT:    -2.849     11.020     11.598
REMARK INTER + INTRA:          -3.707
REMARK INTER:                  -3.474
REMARK INTRA:                  -0.232
REMARK UNBOUND:                -0.358
REMARK SMILES [NH3+][C@H](CO)C(=O)[O-]
REMARK SMILES IDX 3 1 2 2 1 3 5 7 6 8 7 9 4 10
REMARK H PARENT 1 4 1 5 1 6 4 11
REMARK Flexibility Score: inf
ROOT
ATOM      1  C   UNL     1     153.463 149.084 136.998  1.00  0.00     0.227 C 
ENDROOT
BRANCH   1   2
ATOM      2  C   UNL     1     151.925 149.111 136.930  1.00  0.00     0.253 C 
BRANCH   2   3
ATOM      3  N   UNL     1     151.442 150.319 136.248  1.00  0.00    -0.348 N 
ATOM      4  H   UNL     1     151.872 150.390 135.298  1.00  0.00     0.345 HD
ATOM      5  H   UNL     1     150.400 150.300 136.154  1.00  0.00     0.345 HD
ATOM      6  H   UNL     1     151.721 151.168 136.791  1.00  0.00     0.345 HD
ENDBRANCH   2   3
BRANCH   2   7
ATOM      7  C   UNL     1     151.418 147.877 136.232  1.00  0.00     0.102 C 
ATOM      8  O   UNL     1     150.948 146.916 136.897  1.00  0.00    -0.544 OA
ATOM      9  O   UNL     1     151.452 147.800 134.845  1.00  0.00    -0.544 OA
ENDBRANCH   2   7
ENDBRANCH   1   2
BRANCH   1  10
ATOM     10  O   UNL     1     154.014 149.100 135.707  1.00  0.00    -0.390 OA
ATOM     11  H   UNL     1     153.770 149.971 135.300  1.00  0.00     0.210 HD
ENDBRANCH   1  10
TORSDOF 4
ENDMDL
MODEL 3
REMARK VINA RESULT:    -2.820      1.330      2.770
REMARK INTER + INTRA:          -3.672
REMARK INTER:                  -3.491
REMARK INTRA:                  -0.181
REMARK UNBOUND:                -0.358
REMARK SMILES [NH3+][C@H](CO)C(=O)[O-]
REMARK SMILES IDX 3 1 2 2 1 3 5 7 6 8 7 9 4 10
REMARK H PARENT 1 4 1 5 1 6 4 11
REMARK Flexibility Score: inf
ROOT
ATOM      1  C   UNL     1     155.272 156.231 143.751  1.00  0.00     0.227 C 
ENDROOT
BRANCH   1   2
ATOM      2  C   UNL     1     156.674 156.575 143.215  1.00  0.00     0.253 C 
BRANCH   2   3
ATOM      3  N   UNL     1     157.498 155.370 143.062  1.00  0.00    -0.348 N 
ATOM      4  H   UNL     1     156.915 154.516 143.221  1.00  0.00     0.345 HD
ATOM      5  H   UNL     1     157.917 155.326 142.105  1.00  0.00     0.345 HD
ATOM      6  H   UNL     1     158.265 155.371 143.773  1.00  0.00     0.345 HD
ENDBRANCH   2   3
BRANCH   2   7
ATOM      7  C   UNL     1     156.560 157.304 141.903  1.00  0.00     0.102 C 
ATOM      8  O   UNL     1     157.591 157.729 141.318  1.00  0.00    -0.544 OA
ATOM      9  O   UNL     1     155.313 157.495 141.321  1.00  0.00    -0.544 OA
ENDBRANCH   2   7
ENDBRANCH   1   2
BRANCH   1  10
ATOM     10  O   UNL     1     154.721 157.328 144.432  1.00  0.00    -0.390 OA
ATOM     11  H   UNL     1     154.257 156.968 145.231  1.00  0.00     0.210 HD
ENDBRANCH   1  10
TORSDOF 4
ENDMDL
MODEL 4
REMARK VINA RESULT:    -2.649     10.716     11.119
REMARK INTER + INTRA:          -3.472
REMARK INTER:                  -3.466
REMARK INTRA:                  -0.006
REMARK UNBOUND:                -0.358
REMARK SMILES [NH3+][C@H](CO)C(=O)[O-]
REMARK SMILES IDX 3 1 2 2 1 3 5 7 6 8 7 9 4 10
REMARK H PARENT 1 4 1 5 1 6 4 11
REMARK Flexibility Score: inf
ROOT
ATOM      1  C   UNL     1     154.470 148.724 134.705  1.00  0.00     0.227 C 
ENDROOT
BRANCH   1   2
ATOM      2  C   UNL     1     153.746 148.709 136.064  1.00  0.00     0.253 C 
BRANCH   2   3
ATOM      3  N   UNL     1     154.208 149.804 136.926  1.00  0.00    -0.348 N 
ATOM      4  H   UNL     1     155.072 149.515 137.439  1.00  0.00     0.345 HD
ATOM      5  H   UNL     1     154.414 150.660 136.361  1.00  0.00     0.345 HD
ATOM      6  H   UNL     1     153.474 150.031 137.636  1.00  0.00     0.345 HD
ENDBRANCH   2   3
BRANCH   2   7
ATOM      7  C   UNL     1     152.258 148.796 135.856  1.00  0.00     0.102 C 
ATOM      8  O   UNL     1     151.666 147.962 135.121  1.00  0.00    -0.544 OA
ATOM      9  O   UNL     1     151.525 149.792 136.491  1.00  0.00    -0.544 OA
ENDBRANCH   2   7
ENDBRANCH   1   2
BRANCH   1  10
ATOM     10  O   UNL     1     155.571 149.593 134.743  1.00  0.00    -0.390 OA
ATOM     11  H   UNL     1     155.209 150.515 134.795  1.00  0.00     0.210 HD
ENDBRANCH   1  10
TORSDOF 4
ENDMDL
MODEL 5
REMARK VINA RESULT:    -2.564     10.696     11.080
REMARK INTER + INTRA:          -3.372
REMARK INTER:                  -3.231
REMARK INTRA:                  -0.142
REMARK UNBOUND:                -0.358
REMARK SMILES [NH3+][C@H](CO)C(=O)[O-]
REMARK SMILES IDX 3 1 2 2 1 3 5 7 6 8 7 9 4 10
REMARK H PARENT 1 4 1 5 1 6 4 11
REMARK Flexibility Score: inf
ROOT
ATOM      1  C   UNL     1     153.276 148.766 136.875  1.00  0.00     0.227 C 
ENDROOT
BRANCH   1   2
ATOM      2  C   UNL     1     152.112 148.943 135.882  1.00  0.00     0.253 C 
BRANCH   2   3
ATOM      3  N   UNL     1     151.393 147.681 135.671  1.00  0.00    -0.348 N 
ATOM      4  H   UNL     1     151.345 147.143 136.567  1.00  0.00     0.345 HD
ATOM      5  H   UNL     1     150.422 147.860 135.326  1.00  0.00     0.345 HD
ATOM      6  H   UNL     1     151.903 147.094 134.971  1.00  0.00     0.345 HD
ENDBRANCH   2   3
BRANCH   2   7
ATOM      7  C   UNL     1     151.170 150.008 136.377  1.00  0.00     0.102 C 
ATOM      8  O   UNL     1     151.017 150.201 137.612  1.00  0.00    -0.544 OA
ATOM      9  O   UNL     1     150.475 150.797 135.468  1.00  0.00    -0.544 OA
ENDBRANCH   2   7
ENDBRANCH   1   2
BRANCH   1  10
ATOM     10  O   UNL     1     154.159 149.854 136.799  1.00  0.00    -0.390 OA
ATOM     11  H   UNL     1     154.507 150.007 137.715  1.00  0.00     0.210 HD
ENDBRANCH   1  10
TORSDOF 4
ENDMDL
MODEL 6
REMARK VINA RESULT:    -2.560     10.641     11.259
REMARK INTER + INTRA:          -3.367
REMARK INTER:                  -3.139
REMARK INTRA:                  -0.228
REMARK UNBOUND:                -0.358
REMARK SMILES [NH3+][C@H](CO)C(=O)[O-]
REMARK SMILES IDX 3 1 2 2 1 3 5 7 6 8 7 9 4 10
REMARK H PARENT 1 4 1 5 1 6 4 11
REMARK Flexibility Score: inf
ROOT
ATOM      1  C   UNL     1     151.324 147.797 136.405  1.00  0.00     0.227 C 
ENDROOT
BRANCH   1   2
ATOM      2  C   UNL     1     151.842 149.105 137.030  1.00  0.00     0.253 C 
BRANCH   2   3
ATOM      3  N   UNL     1     153.147 149.483 136.474  1.00  0.00    -0.348 N 
ATOM      4  H   UNL     1     153.015 150.049 135.604  1.00  0.00     0.345 HD
ATOM      5  H   UNL     1     153.699 150.040 137.166  1.00  0.00     0.345 HD
ATOM      6  H   UNL     1     153.687 148.624 136.218  1.00  0.00     0.345 HD
ENDBRANCH   2   3
BRANCH   2   7
ATOM      7  C   UNL     1     150.842 150.209 136.818  1.00  0.00     0.102 C 
ATOM      8  O   UNL     1     150.230 150.713 137.797  1.00  0.00    -0.544 OA
ATOM      9  O   UNL     1     150.601 150.692 135.537  1.00  0.00    -0.544 OA
ENDBRANCH   2   7
ENDBRANCH   1   2
BRANCH   1  10
ATOM     10  O   UNL     1     151.364 147.871 135.003  1.00  0.00    -0.390 OA
ATOM     11  H   UNL     1     150.512 147.489 134.670  1.00  0.00     0.210 HD
ENDBRANCH   1  10
TORSDOF 4
ENDMDL
MODEL 7
REMARK VINA RESULT:    -2.531     10.962     11.448
REMARK INTER + INTRA:          -3.333
REMARK INTER:                  -2.962
REMARK INTRA:                  -0.371
REMARK UNBOUND:                -0.358
REMARK SMILES [NH3+][C@H](CO)C(=O)[O-]
REMARK SMILES IDX 3 1 2 2 1 3 5 7 6 8 7 9 4 10
REMARK H PARENT 1 4 1 5 1 6 4 11
REMARK Flexibility Score: inf
ROOT
ATOM      1  C   UNL     1     150.641 149.595 136.698  1.00  0.00     0.227 C 
ENDROOT
BRANCH   1   2
ATOM      2  C   UNL     1     151.564 148.366 136.630  1.00  0.00     0.253 C 
BRANCH   2   3
ATOM      3  N   UNL     1     151.154 147.448 135.560  1.00  0.00    -0.348 N 
ATOM      4  H   UNL     1     151.802 147.539 134.743  1.00  0.00     0.345 HD
ATOM      5  H   UNL     1     151.163 146.458 135.897  1.00  0.00     0.345 HD
ATOM      6  H   UNL     1     150.190 147.691 135.234  1.00  0.00     0.345 HD
ENDBRANCH   2   3
BRANCH   2   7
ATOM      7  C   UNL     1     152.990 148.803 136.429  1.00  0.00     0.102 C 
ATOM      8  O   UNL     1     153.667 149.239 137.398  1.00  0.00    -0.544 OA
ATOM      9  O   UNL     1     153.574 148.710 135.172  1.00  0.00    -0.544 OA
ENDBRANCH   2   7
ENDBRANCH   1   2
BRANCH   1  10
ATOM     10  O   UNL     1     151.287 150.727 136.175  1.00  0.00    -0.390 OA
ATOM     11  H   UNL     1     152.203 150.735 136.553  1.00  0.00     0.210 HD
ENDBRANCH   1  10
TORSDOF 4
ENDMDL
MODEL 8
REMARK VINA RESULT:    -2.514     15.756     16.365
REMARK INTER + INTRA:          -3.313
REMARK INTER:                  -2.911
REMARK INTRA:                  -0.402
REMARK UNBOUND:                -0.358
REMARK SMILES [NH3+][C@H](CO)C(=O)[O-]
REMARK SMILES IDX 3 1 2 2 1 3 5 7 6 8 7 9 4 10
REMARK H PARENT 1 4 1 5 1 6 4 11
REMARK Flexibility Score: inf
ROOT
ATOM      1  C   UNL     1     149.208 154.439 129.112  1.00  0.00     0.227 C 
ENDROOT
BRANCH   1   2
ATOM      2  C   UNL     1     147.699 154.213 128.909  1.00  0.00     0.253 C 
BRANCH   2   3
ATOM      3  N   UNL     1     147.246 152.994 129.592  1.00  0.00    -0.348 N 
ATOM      4  H   UNL     1     147.006 153.209 130.587  1.00  0.00     0.345 HD
ATOM      5  H   UNL     1     146.405 152.593 129.116  1.00  0.00     0.345 HD
ATOM      6  H   UNL     1     148.011 152.281 129.592  1.00  0.00     0.345 HD
ENDBRANCH   2   3
BRANCH   2   7
ATOM      7  C   UNL     1     146.927 155.408 129.402  1.00  0.00     0.102 C 
ATOM      8  O   UNL     1     146.534 155.465 130.597  1.00  0.00    -0.544 OA
ATOM      9  O   UNL     1     146.661 156.465 128.541  1.00  0.00    -0.544 OA
ENDBRANCH   2   7
ENDBRANCH   1   2
BRANCH   1  10
ATOM     10  O   UNL     1     149.461 155.767 129.490  1.00  0.00    -0.390 OA
ATOM     11  H   UNL     1     149.306 156.329 128.688  1.00  0.00     0.210 HD
ENDBRANCH   1  10
TORSDOF 4
ENDMDL
MODEL 9
REMARK VINA RESULT:    -2.454     16.159     16.574
REMARK INTER + INTRA:          -3.243
REMARK INTER:                  -3.056
REMARK INTRA:                  -0.187
REMARK UNBOUND:                -0.358
REMARK SMILES [NH3+][C@H](CO)C(=O)[O-]
REMARK SMILES IDX 3 1 2 2 1 3 5 7 6 8 7 9 4 10
REMARK H PARENT 1 4 1 5 1 6 4 11
REMARK Flexibility Score: inf
ROOT
ATOM      1  C   UNL     1     146.054 155.168 129.989  1.00  0.00     0.227 C 
ENDROOT
BRANCH   1   2
ATOM      2  C   UNL     1     146.999 154.048 129.515  1.00  0.00     0.253 C 
BRANCH   2   3
ATOM      3  N   UNL     1     146.432 153.321 128.372  1.00  0.00    -0.348 N 
ATOM      4  H   UNL     1     145.655 152.699 128.694  1.00  0.00     0.345 HD
ATOM      5  H   UNL     1     146.065 153.986 127.654  1.00  0.00     0.345 HD
ATOM      6  H   UNL     1     147.167 152.717 127.936  1.00  0.00     0.345 HD
ENDBRANCH   2   3
BRANCH   2   7
ATOM      7  C   UNL     1     148.342 154.625 129.156  1.00  0.00     0.102 C 
ATOM      8  O   UNL     1     148.514 155.872 129.126  1.00  0.00    -0.544 OA
ATOM      9  O   UNL     1     149.407 153.779 128.873  1.00  0.00    -0.544 OA
ENDBRANCH   2   7
ENDBRANCH   1   2
BRANCH   1  10
ATOM     10  O   UNL     1     146.625 155.875 131.059  1.00  0.00    -0.390 OA
ATOM     11  H   UNL     1     146.690 155.243 131.820  1.00  0.00     0.210 HD
ENDBRANCH   1  10
TORSDOF 4
ENDMDL
