MODEL 1
REMARK VINA RESULT:    -7.185      0.000      0.000
REMARK INTER + INTRA:         -14.614
REMARK INTER:                 -12.436
REMARK INTRA:                  -2.178
REMARK UNBOUND:                -2.178
REMARK SMILES OC[C@@H]1O[C@@H](O[C@@H]2[C@H](O)[C@H](O)[C@@H](O[C@@H]3[C@H](O)[C@@H](O)[C@H](O)O[C@@H]3CO)O[C@H]2CO)[C@H](O)[C@H](O)[C@@H]1O
REMARK SMILES IDX 7 1 26 2 25 3 12 4 10 5 8 6 6 7 5 8 3 9 33 10 4 11 31 12
REMARK SMILES IDX 29 13 2 14 1 15 34 17 32 19 30 21 27 23 28 24 9 26 11 28
REMARK SMILES IDX 13 30 14 31 22 32 15 33 21 34 17 35 19 36 23 37 24 38 16 40
REMARK SMILES IDX 18 42 20 44
REMARK H PARENT 1 16 34 18 32 20 30 22 28 25 9 27 11 29 24 39 16 41 18 43
REMARK H PARENT 20 45
REMARK Flexibility Score: inf
ROOT
ATOM      1  C   UNL     1       8.232   1.536  14.765  1.00  0.00     0.184 C 
ATOM      2  C   UNL     1       7.666   3.005  14.685  1.00  0.00     0.178 C 
ATOM      3  O   UNL     1       7.577   3.636  15.968  1.00  0.00    -0.341 OA
ATOM      4  C   UNL     1       6.744   2.892  16.843  1.00  0.00     0.282 C 
ATOM      5  C   UNL     1       7.321   1.456  17.117  1.00  0.00     0.202 C 
ATOM      6  C   UNL     1       8.572   1.223  16.248  1.00  0.00     0.180 C 
ENDROOT
BRANCH   1   7
ATOM      7  O   UNL     1       7.241   0.627  14.317  1.00  0.00    -0.341 OA
BRANCH   7   8
ATOM      8  C   UNL     1       6.263   1.213  13.455  1.00  0.00     0.282 C 
ATOM      9  C   UNL     1       4.905  -0.678  13.774  1.00  0.00     0.178 C 
ATOM     10  C   UNL     1       5.197  -1.248  12.359  1.00  0.00     0.177 C 
ATOM     11  O   UNL     1       4.971   0.746  13.810  1.00  0.00    -0.341 OA
ATOM     12  C   UNL     1       6.514  -0.671  11.817  1.00  0.00     0.179 C 
ATOM     13  C   UNL     1       6.536   0.867  11.986  1.00  0.00     0.202 C 
BRANCH   9  14
ATOM     14  C   UNL     1       3.532  -1.131  14.313  1.00  0.00     0.191 C 
BRANCH  14  15
ATOM     15  O   UNL     1       3.118  -2.323  13.704  1.00  0.00    -0.394 OA
ATOM     16  H   UNL     1       2.152  -2.210  13.533  1.00  0.00     0.210 HD
ENDBRANCH  14  15
ENDBRANCH   9  14
BRANCH  10  17
ATOM     17  O   UNL     1       4.145  -0.976  11.467  1.00  0.00    -0.387 OA
ATOM     18  H   UNL     1       4.345  -0.102  11.036  1.00  0.00     0.211 HD
ENDBRANCH  10  17
BRANCH  12  19
ATOM     19  O   UNL     1       6.685  -1.025  10.470  1.00  0.00    -0.387 OA
ATOM     20  H   UNL     1       6.292  -1.940  10.343  1.00  0.00     0.211 HD
ENDBRANCH  12  19
BRANCH  13  21
ATOM     21  O   UNL     1       5.556   1.466  11.182  1.00  0.00    -0.385 OA
ATOM     22  H   UNL     1       4.688   1.299  11.633  1.00  0.00     0.211 HD
ENDBRANCH  13  21
ENDBRANCH   7   8
ENDBRANCH   1   7
BRANCH   2  23
ATOM     23  C   UNL     1       8.474   3.910  13.709  1.00  0.00     0.191 C 
BRANCH  23  24
ATOM     24  O   UNL     1       7.727   5.039  13.337  1.00  0.00    -0.394 OA
ATOM     25  H   UNL     1       7.420   4.892  12.409  1.00  0.00     0.210 HD
ENDBRANCH  23  24
ENDBRANCH   2  23
BRANCH   6  26
ATOM     26  O   UNL     1       9.062  -0.083  16.427  1.00  0.00    -0.387 OA
ATOM     27  H   UNL     1       8.304  -0.699  16.207  1.00  0.00     0.211 HD
ENDBRANCH   6  26
BRANCH   5  28
ATOM     28  O   UNL     1       6.366   0.454  16.822  1.00  0.00    -0.385 OA
ATOM     29  H   UNL     1       6.442   0.221  15.865  1.00  0.00     0.211 HD
ENDBRANCH   5  28
BRANCH   4  30
ATOM     30  O   UNL     1       6.369   3.693  17.963  1.00  0.00    -0.341 OA
BRANCH  30  31
ATOM     31  C   UNL     1       7.327   4.289  18.850  1.00  0.00     0.184 C 
ATOM     32  C   UNL     1       7.434   5.844  18.763  1.00  0.00     0.178 C 
ATOM     33  C   UNL     1       7.631   3.692  20.269  1.00  0.00     0.180 C 
ATOM     34  O   UNL     1       7.960   6.457  19.932  1.00  0.00    -0.342 OA
ATOM     35  C   UNL     1       7.236   4.602  21.462  1.00  0.00     0.201 C 
ATOM     36  C   UNL     1       7.289   6.130  21.148  1.00  0.00     0.279 C 
BRANCH  32  37
ATOM     37  C   UNL     1       6.215   6.608  18.201  1.00  0.00     0.191 C 
BRANCH  37  38
ATOM     38  O   UNL     1       5.029   5.984  18.587  1.00  0.00    -0.394 OA
ATOM     39  H   UNL     1       5.288   5.133  19.033  1.00  0.00     0.210 HD
ENDBRANCH  37  38
ENDBRANCH  32  37
BRANCH  33  40
ATOM     40  O   UNL     1       7.068   2.414  20.398  1.00  0.00    -0.387 OA
ATOM     41  H   UNL     1       6.849   2.091  19.490  1.00  0.00     0.211 HD
ENDBRANCH  33  40
BRANCH  35  42
ATOM     42  O   UNL     1       8.092   4.293  22.547  1.00  0.00    -0.385 OA
ATOM     43  H   UNL     1       7.859   3.382  22.884  1.00  0.00     0.211 HD
ENDBRANCH  35  42
BRANCH  36  44
ATOM     44  O   UNL     1       6.006   6.703  21.168  1.00  0.00    -0.366 OA
ATOM     45  H   UNL     1       6.125   7.682  21.037  1.00  0.00     0.213 HD
ENDBRANCH  36  44
ENDBRANCH  30  31
ENDBRANCH   4  30
TORSDOF 18
ENDMDL
MODEL 2
REMARK VINA RESULT:    -6.761     12.320     16.450
REMARK INTER + INTRA:         -13.879
REMARK INTER:                 -11.316
REMARK INTRA:                  -2.564
REMARK UNBOUND:                -2.178
REMARK SMILES OC[C@@H]1O[C@@H](O[C@@H]2[C@H](O)[C@H](O)[C@@H](O[C@@H]3[C@H](O)[C@@H](O)[C@H](O)O[C@@H]3CO)O[C@H]2CO)[C@H](O)[C@H](O)[C@@H]1O
REMARK SMILES IDX 7 1 26 2 25 3 12 4 10 5 8 6 6 7 5 8 3 9 33 10 4 11 31 12
REMARK SMILES IDX 29 13 2 14 1 15 34 17 32 19 30 21 27 23 28 24 9 26 11 28
REMARK SMILES IDX 13 30 14 31 22 32 15 33 21 34 17 35 19 36 23 37 24 38 16 40
REMARK SMILES IDX 18 42 20 44
REMARK H PARENT 1 16 34 18 32 20 30 22 28 25 9 27 11 29 24 39 16 41 18 43
REMARK H PARENT 20 45
REMARK Flexibility Score: inf
ROOT
ATOM      1  C   UNL     1      18.486  -2.094  20.620  1.00  0.00     0.184 C 
ATOM      2  C   UNL     1      19.596  -3.151  20.251  1.00  0.00     0.178 C 
ATOM      3  O   UNL     1      19.431  -3.691  18.934  1.00  0.00    -0.341 OA
ATOM      4  C   UNL     1      18.165  -4.318  18.797  1.00  0.00     0.282 C 
ATOM      5  C   UNL     1      16.985  -3.297  18.987  1.00  0.00     0.202 C 
ATOM      6  C   UNL     1      17.547  -1.922  19.395  1.00  0.00     0.180 C 
ENDROOT
BRANCH   1   7
ATOM      7  O   UNL     1      17.729  -2.574  21.718  1.00  0.00    -0.341 OA
BRANCH   7   8
ATOM      8  C   UNL     1      17.919  -1.832  22.925  1.00  0.00     0.282 C 
ATOM      9  C   UNL     1      18.849  -3.751  23.913  1.00  0.00     0.178 C 
ATOM     10  C   UNL     1      17.592  -4.032  24.781  1.00  0.00     0.177 C 
ATOM     11  O   UNL     1      19.022  -2.361  23.643  1.00  0.00    -0.341 OA
ATOM     12  C   UNL     1      16.357  -3.358  24.161  1.00  0.00     0.179 C 
ATOM     13  C   UNL     1      16.670  -1.883  23.812  1.00  0.00     0.202 C 
BRANCH   9  14
ATOM     14  C   UNL     1      20.137  -4.302  24.557  1.00  0.00     0.191 C 
BRANCH  14  15
ATOM     15  O   UNL     1      21.138  -3.322  24.604  1.00  0.00    -0.394 OA
ATOM     16  H   UNL     1      20.860  -2.631  23.957  1.00  0.00     0.210 HD
ENDBRANCH  14  15
ENDBRANCH   9  14
BRANCH  10  17
ATOM     17  O   UNL     1      17.770  -3.592  26.104  1.00  0.00    -0.387 OA
ATOM     18  H   UNL     1      16.888  -3.263  26.425  1.00  0.00     0.211 HD
ENDBRANCH  10  17
BRANCH  12  19
ATOM     19  O   UNL     1      15.264  -3.441  25.036  1.00  0.00    -0.387 OA
ATOM     20  H   UNL     1      15.610  -3.317  25.970  1.00  0.00     0.211 HD
ENDBRANCH  12  19
BRANCH  13  21
ATOM     21  O   UNL     1      16.903  -1.140  24.978  1.00  0.00    -0.385 OA
ATOM     22  H   UNL     1      16.743  -0.190  24.738  1.00  0.00     0.211 HD
ENDBRANCH  13  21
ENDBRANCH   7   8
ENDBRANCH   1   7
BRANCH   2  23
ATOM     23  C   UNL     1      21.040  -2.591  20.412  1.00  0.00     0.191 C 
BRANCH  23  24
ATOM     24  O   UNL     1      21.371  -2.440  21.768  1.00  0.00    -0.394 OA
ATOM     25  H   UNL     1      20.526  -2.294  22.259  1.00  0.00     0.210 HD
ENDBRANCH  23  24
ENDBRANCH   2  23
BRANCH   6  26
ATOM     26  O   UNL     1      16.502  -1.013  19.637  1.00  0.00    -0.387 OA
ATOM     27  H   UNL     1      15.853  -1.125  18.882  1.00  0.00     0.211 HD
ENDBRANCH   6  26
BRANCH   5  28
ATOM     28  O   UNL     1      16.082  -3.736  19.983  1.00  0.00    -0.385 OA
ATOM     29  H   UNL     1      16.508  -4.467  20.493  1.00  0.00     0.211 HD
ENDBRANCH   5  28
BRANCH   4  30
ATOM     30  O   UNL     1      18.154  -5.156  17.642  1.00  0.00    -0.341 OA
BRANCH  30  31
ATOM     31  C   UNL     1      18.598  -6.520  17.665  1.00  0.00     0.184 C 
ATOM     32  C   UNL     1      17.558  -7.564  17.150  1.00  0.00     0.178 C 
ATOM     33  C   UNL     1      20.097  -6.912  17.413  1.00  0.00     0.180 C 
ATOM     34  O   UNL     1      18.134  -8.782  16.696  1.00  0.00    -0.342 OA
ATOM     35  C   UNL     1      20.351  -7.747  16.130  1.00  0.00     0.201 C 
ATOM     36  C   UNL     1      19.148  -8.645  15.702  1.00  0.00     0.279 C 
BRANCH  32  37
ATOM     37  C   UNL     1      16.450  -7.054  16.205  1.00  0.00     0.191 C 
BRANCH  37  38
ATOM     38  O   UNL     1      16.935  -6.029  15.393  1.00  0.00    -0.394 OA
ATOM     39  H   UNL     1      16.200  -5.365  15.305  1.00  0.00     0.210 HD
ENDBRANCH  37  38
ENDBRANCH  32  37
BRANCH  33  40
ATOM     40  O   UNL     1      20.917  -5.774  17.448  1.00  0.00    -0.387 OA
ATOM     41  H   UNL     1      20.332  -4.982  17.370  1.00  0.00     0.211 HD
ENDBRANCH  33  40
BRANCH  35  42
ATOM     42  O   UNL     1      21.504  -8.539  16.346  1.00  0.00    -0.385 OA
ATOM     43  H   UNL     1      21.246  -9.327  16.903  1.00  0.00     0.211 HD
ENDBRANCH  35  42
BRANCH  36  44
ATOM     44  O   UNL     1      18.588  -8.209  14.489  1.00  0.00    -0.366 OA
ATOM     45  H   UNL     1      17.609  -8.377  14.546  1.00  0.00     0.213 HD
ENDBRANCH  36  44
ENDBRANCH  30  31
ENDBRANCH   4  30
TORSDOF 18
ENDMDL
MODEL 3
REMARK VINA RESULT:    -6.730      1.902      8.739
REMARK INTER + INTRA:         -13.825
REMARK INTER:                 -11.769
REMARK INTRA:                  -2.056
REMARK UNBOUND:                -2.178
REMARK SMILES OC[C@@H]1O[C@@H](O[C@@H]2[C@H](O)[C@H](O)[C@@H](O[C@@H]3[C@H](O)[C@@H](O)[C@H](O)O[C@@H]3CO)O[C@H]2CO)[C@H](O)[C@H](O)[C@@H]1O
REMARK SMILES IDX 7 1 26 2 25 3 12 4 10 5 8 6 6 7 5 8 3 9 33 10 4 11 31 12
REMARK SMILES IDX 29 13 2 14 1 15 34 17 32 19 30 21 27 23 28 24 9 26 11 28
REMARK SMILES IDX 13 30 14 31 22 32 15 33 21 34 17 35 19 36 23 37 24 38 16 40
REMARK SMILES IDX 18 42 20 44
REMARK H PARENT 1 16 34 18 32 20 30 22 28 25 9 27 11 29 24 39 16 41 18 43
REMARK H PARENT 20 45
REMARK Flexibility Score: inf
ROOT
ATOM      1  C   UNL     1       6.676   1.372  16.781  1.00  0.00     0.184 C 
ATOM      2  C   UNL     1       5.459   1.220  15.790  1.00  0.00     0.178 C 
ATOM      3  O   UNL     1       5.840   0.670  14.524  1.00  0.00    -0.341 OA
ATOM      4  C   UNL     1       6.821   1.479  13.893  1.00  0.00     0.282 C 
ATOM      5  C   UNL     1       8.145   1.555  14.737  1.00  0.00     0.202 C 
ATOM      6  C   UNL     1       7.949   0.824  16.080  1.00  0.00     0.180 C 
ENDROOT
BRANCH   1   7
ATOM      7  O   UNL     1       6.868   2.744  17.080  1.00  0.00    -0.341 OA
BRANCH   7   8
ATOM      8  C   UNL     1       6.156   3.192  18.236  1.00  0.00     0.282 C 
ATOM      9  C   UNL     1       6.990   5.357  17.864  1.00  0.00     0.178 C 
ATOM     10  C   UNL     1       8.004   5.275  19.037  1.00  0.00     0.177 C 
ATOM     11  O   UNL     1       5.827   4.564  18.094  1.00  0.00    -0.341 OA
ATOM     12  C   UNL     1       8.306   3.806  19.375  1.00  0.00     0.179 C 
ATOM     13  C   UNL     1       6.990   3.004  19.510  1.00  0.00     0.202 C 
BRANCH   9  14
ATOM     14  C   UNL     1       6.558   6.808  17.567  1.00  0.00     0.191 C 
BRANCH  14  15
ATOM     15  O   UNL     1       5.336   7.108  18.185  1.00  0.00    -0.394 OA
ATOM     16  H   UNL     1       4.805   7.582  17.502  1.00  0.00     0.210 HD
ENDBRANCH  14  15
ENDBRANCH   9  14
BRANCH  10  17
ATOM     17  O   UNL     1       7.526   5.945  20.178  1.00  0.00    -0.387 OA
ATOM     18  H   UNL     1       7.105   6.790  19.866  1.00  0.00     0.211 HD
ENDBRANCH  10  17
BRANCH  12  19
ATOM     19  O   UNL     1       9.063   3.722  20.553  1.00  0.00    -0.387 OA
ATOM     20  H   UNL     1       9.888   3.186  20.349  1.00  0.00     0.211 HD
ENDBRANCH  12  19
BRANCH  13  21
ATOM     21  O   UNL     1       6.251   3.452  20.614  1.00  0.00    -0.385 OA
ATOM     22  H   UNL     1       5.916   4.355  20.376  1.00  0.00     0.211 HD
ENDBRANCH  13  21
ENDBRANCH   7   8
ENDBRANCH   1   7
BRANCH   2  23
ATOM     23  C   UNL     1       4.290   0.388  16.394  1.00  0.00     0.191 C 
BRANCH  23  24
ATOM     24  O   UNL     1       3.737   1.036  17.510  1.00  0.00    -0.394 OA
ATOM     25  H   UNL     1       4.490   1.385  18.047  1.00  0.00     0.210 HD
ENDBRANCH  23  24
ENDBRANCH   2  23
BRANCH   6  26
ATOM     26  O   UNL     1       9.100   0.941  16.878  1.00  0.00    -0.387 OA
ATOM     27  H   UNL     1       9.713   0.200  16.597  1.00  0.00     0.211 HD
ENDBRANCH   6  26
BRANCH   5  28
ATOM     28  O   UNL     1       8.512   2.896  14.996  1.00  0.00    -0.385 OA
ATOM     29  H   UNL     1       9.099   2.912  15.790  1.00  0.00     0.211 HD
ENDBRANCH   5  28
BRANCH   4  30
ATOM     30  O   UNL     1       6.920   1.141  12.510  1.00  0.00    -0.341 OA
BRANCH  30  31
ATOM     31  C   UNL     1       8.032   0.417  11.964  1.00  0.00     0.184 C 
ATOM     32  C   UNL     1       7.812  -1.121  11.810  1.00  0.00     0.178 C 
ATOM     33  C   UNL     1       8.993   1.048  10.896  1.00  0.00     0.180 C 
ATOM     34  O   UNL     1       8.650  -1.735  10.840  1.00  0.00    -0.342 OA
ATOM     35  C   UNL     1       8.964   0.367   9.502  1.00  0.00     0.201 C 
ATOM     36  C   UNL     1       8.607  -1.151   9.538  1.00  0.00     0.279 C 
BRANCH  32  37
ATOM     37  C   UNL     1       6.354  -1.622  11.723  1.00  0.00     0.191 C 
BRANCH  37  38
ATOM     38  O   UNL     1       5.555  -0.686  11.066  1.00  0.00    -0.394 OA
ATOM     39  H   UNL     1       6.140  -0.230  10.402  1.00  0.00     0.210 HD
ENDBRANCH  37  38
ENDBRANCH  32  37
BRANCH  33  40
ATOM     40  O   UNL     1       8.773   2.430  10.790  1.00  0.00    -0.387 OA
ATOM     41  H   UNL     1       9.579   2.829  10.380  1.00  0.00     0.211 HD
ENDBRANCH  33  40
BRANCH  35  42
ATOM     42  O   UNL     1      10.229   0.560   8.896  1.00  0.00    -0.385 OA
ATOM     43  H   UNL     1      10.802  -0.233   9.101  1.00  0.00     0.211 HD
ENDBRANCH  35  42
BRANCH  36  44
ATOM     44  O   UNL     1       7.364  -1.401   8.932  1.00  0.00    -0.366 OA
ATOM     45  H   UNL     1       6.700  -1.509   9.667  1.00  0.00     0.213 HD
ENDBRANCH  36  44
ENDBRANCH  30  31
ENDBRANCH   4  30
TORSDOF 18
ENDMDL
MODEL 4
REMARK VINA RESULT:    -6.729      4.428      6.984
REMARK INTER + INTRA:         -13.824
REMARK INTER:                 -12.022
REMARK INTRA:                  -1.802
REMARK UNBOUND:                -2.178
REMARK SMILES OC[C@@H]1O[C@@H](O[C@@H]2[C@H](O)[C@H](O)[C@@H](O[C@@H]3[C@H](O)[C@@H](O)[C@H](O)O[C@@H]3CO)O[C@H]2CO)[C@H](O)[C@H](O)[C@@H]1O
REMARK SMILES IDX 7 1 26 2 25 3 12 4 10 5 8 6 6 7 5 8 3 9 33 10 4 11 31 12
REMARK SMILES IDX 29 13 2 14 1 15 34 17 32 19 30 21 27 23 28 24 9 26 11 28
REMARK SMILES IDX 13 30 14 31 22 32 15 33 21 34 17 35 19 36 23 37 24 38 16 40
REMARK SMILES IDX 18 42 20 44
REMARK H PARENT 1 16 34 18 32 20 30 22 28 25 9 27 11 29 24 39 16 41 18 43
REMARK H PARENT 20 45
REMARK Flexibility Score: inf
ROOT
ATOM      1  C   UNL     1      10.457   5.180  11.376  1.00  0.00     0.184 C 
ATOM      2  C   UNL     1       9.379   4.166  11.918  1.00  0.00     0.178 C 
ATOM      3  O   UNL     1       8.429   4.783  12.794  1.00  0.00    -0.341 OA
ATOM      4  C   UNL     1       9.076   5.374  13.911  1.00  0.00     0.282 C 
ATOM      5  C   UNL     1      10.057   6.522  13.474  1.00  0.00     0.202 C 
ATOM      6  C   UNL     1      10.129   6.590  11.937  1.00  0.00     0.180 C 
ENDROOT
BRANCH   1   7
ATOM      7  O   UNL     1      11.741   4.789  11.833  1.00  0.00    -0.341 OA
BRANCH   7   8
ATOM      8  C   UNL     1      11.999   3.388  11.711  1.00  0.00     0.282 C 
ATOM      9  C   UNL     1      14.210   3.774  12.404  1.00  0.00     0.178 C 
ATOM     10  C   UNL     1      14.795   3.579  10.979  1.00  0.00     0.177 C 
ATOM     11  O   UNL     1      13.024   3.009  12.613  1.00  0.00    -0.341 OA
ATOM     12  C   UNL     1      13.705   3.815   9.922  1.00  0.00     0.179 C 
ATOM     13  C   UNL     1      12.426   3.024  10.283  1.00  0.00     0.202 C 
BRANCH   9  14
ATOM     14  C   UNL     1      15.232   3.427  13.507  1.00  0.00     0.191 C 
BRANCH  14  15
ATOM     15  O   UNL     1      16.538   3.737  13.102  1.00  0.00    -0.394 OA
ATOM     16  H   UNL     1      16.534   3.655  12.118  1.00  0.00     0.210 HD
ENDBRANCH  14  15
ENDBRANCH   9  14
BRANCH  10  17
ATOM     17  O   UNL     1      15.353   2.297  10.822  1.00  0.00    -0.387 OA
ATOM     18  H   UNL     1      14.822   1.831  10.122  1.00  0.00     0.211 HD
ENDBRANCH  10  17
BRANCH  12  19
ATOM     19  O   UNL     1      14.172   3.451   8.649  1.00  0.00    -0.387 OA
ATOM     20  H   UNL     1      13.938   2.486   8.503  1.00  0.00     0.211 HD
ENDBRANCH  12  19
BRANCH  13  21
ATOM     21  O   UNL     1      12.663   1.644  10.212  1.00  0.00    -0.385 OA
ATOM     22  H   UNL     1      11.911   1.261   9.689  1.00  0.00     0.211 HD
ENDBRANCH  13  21
ENDBRANCH   7   8
ENDBRANCH   1   7
BRANCH   2  23
ATOM     23  C   UNL     1       8.632   3.413  10.779  1.00  0.00     0.191 C 
BRANCH  23  24
ATOM     24  O   UNL     1       8.861   4.027   9.537  1.00  0.00    -0.394 OA
ATOM     25  H   UNL     1       9.127   4.962   9.720  1.00  0.00     0.210 HD
ENDBRANCH  23  24
ENDBRANCH   2  23
BRANCH   6  26
ATOM     26  O   UNL     1      11.055   7.566  11.528  1.00  0.00    -0.387 OA
ATOM     27  H   UNL     1      10.776   7.849  10.609  1.00  0.00     0.211 HD
ENDBRANCH   6  26
BRANCH   5  28
ATOM     28  O   UNL     1      11.359   6.305  13.984  1.00  0.00    -0.385 OA
ATOM     29  H   UNL     1      11.291   5.726  14.781  1.00  0.00     0.211 HD
ENDBRANCH   5  28
BRANCH   4  30
ATOM     30  O   UNL     1       8.125   5.653  14.938  1.00  0.00    -0.341 OA
BRANCH  30  31
ATOM     31  C   UNL     1       8.117   4.965  16.197  1.00  0.00     0.184 C 
ATOM     32  C   UNL     1       7.988   5.883  17.454  1.00  0.00     0.178 C 
ATOM     33  C   UNL     1       7.482   3.539  16.363  1.00  0.00     0.180 C 
ATOM     34  O   UNL     1       7.476   5.225  18.605  1.00  0.00    -0.342 OA
ATOM     35  C   UNL     1       6.240   3.478  17.291  1.00  0.00     0.201 C 
ATOM     36  C   UNL     1       6.230   4.554  18.421  1.00  0.00     0.279 C 
BRANCH  32  37
ATOM     37  C   UNL     1       7.360   7.278  17.251  1.00  0.00     0.191 C 
BRANCH  37  38
ATOM     38  O   UNL     1       8.327   8.191  16.827  1.00  0.00    -0.394 OA
ATOM     39  H   UNL     1       7.978   9.096  17.047  1.00  0.00     0.210 HD
ENDBRANCH  37  38
ENDBRANCH  32  37
BRANCH  33  40
ATOM     40  O   UNL     1       7.207   2.973  15.110  1.00  0.00    -0.387 OA
ATOM     41  H   UNL     1       6.264   2.676  15.117  1.00  0.00     0.211 HD
ENDBRANCH  33  40
BRANCH  35  42
ATOM     42  O   UNL     1       6.178   2.178  17.850  1.00  0.00    -0.385 OA
ATOM     43  H   UNL     1       6.128   1.515  17.104  1.00  0.00     0.211 HD
ENDBRANCH  35  42
BRANCH  36  44
ATOM     44  O   UNL     1       5.196   5.487  18.232  1.00  0.00    -0.366 OA
ATOM     45  H   UNL     1       5.609   6.391  18.286  1.00  0.00     0.213 HD
ENDBRANCH  36  44
ENDBRANCH  30  31
ENDBRANCH   4  30
TORSDOF 18
ENDMDL
MODEL 5
REMARK VINA RESULT:    -6.708     11.448     15.728
REMARK INTER + INTRA:         -13.788
REMARK INTER:                 -11.487
REMARK INTRA:                  -2.301
REMARK UNBOUND:                -2.178
REMARK SMILES OC[C@@H]1O[C@@H](O[C@@H]2[C@H](O)[C@H](O)[C@@H](O[C@@H]3[C@H](O)[C@@H](O)[C@H](O)O[C@@H]3CO)O[C@H]2CO)[C@H](O)[C@H](O)[C@@H]1O
REMARK SMILES IDX 7 1 26 2 25 3 12 4 10 5 8 6 6 7 5 8 3 9 33 10 4 11 31 12
REMARK SMILES IDX 29 13 2 14 1 15 34 17 32 19 30 21 27 23 28 24 9 26 11 28
REMARK SMILES IDX 13 30 14 31 22 32 15 33 21 34 17 35 19 36 23 37 24 38 16 40
REMARK SMILES IDX 18 42 20 44
REMARK H PARENT 1 16 34 18 32 20 30 22 28 25 9 27 11 29 24 39 16 41 18 43
REMARK H PARENT 20 45
REMARK Flexibility Score: inf
ROOT
ATOM      1  C   UNL     1      19.508  -2.900  23.069  1.00  0.00     0.184 C 
ATOM      2  C   UNL     1      17.960  -3.167  23.213  1.00  0.00     0.178 C 
ATOM      3  O   UNL     1      17.428  -3.944  22.133  1.00  0.00    -0.341 OA
ATOM      4  C   UNL     1      17.648  -3.299  20.888  1.00  0.00     0.282 C 
ATOM      5  C   UNL     1      19.180  -3.137  20.578  1.00  0.00     0.202 C 
ATOM      6  C   UNL     1      20.010  -3.616  21.785  1.00  0.00     0.180 C 
ENDROOT
BRANCH   1   7
ATOM      7  O   UNL     1      19.732  -1.507  22.939  1.00  0.00    -0.341 OA
BRANCH   7   8
ATOM      8  C   UNL     1      18.651  -0.698  23.408  1.00  0.00     0.282 C 
ATOM      9  C   UNL     1      19.298   0.979  21.894  1.00  0.00     0.178 C 
ATOM     10  C   UNL     1      19.903   1.883  23.002  1.00  0.00     0.177 C 
ATOM     11  O   UNL     1      18.223   0.175  22.376  1.00  0.00    -0.341 OA
ATOM     12  C   UNL     1      20.257   1.041  24.239  1.00  0.00     0.179 C 
ATOM     13  C   UNL     1      19.068   0.133  24.629  1.00  0.00     0.202 C 
BRANCH   9  14
ATOM     14  C   UNL     1      18.811   1.793  20.678  1.00  0.00     0.191 C 
BRANCH  14  15
ATOM     15  O   UNL     1      19.251   1.221  19.477  1.00  0.00    -0.394 OA
ATOM     16  H   UNL     1      19.779   0.429  19.741  1.00  0.00     0.210 HD
ENDBRANCH  14  15
ENDBRANCH   9  14
BRANCH  10  17
ATOM     17  O   UNL     1      19.022   2.920  23.359  1.00  0.00    -0.387 OA
ATOM     18  H   UNL     1      18.912   3.498  22.557  1.00  0.00     0.211 HD
ENDBRANCH  10  17
BRANCH  12  19
ATOM     19  O   UNL     1      20.619   1.874  25.309  1.00  0.00    -0.387 OA
ATOM     20  H   UNL     1      21.109   1.312  25.981  1.00  0.00     0.211 HD
ENDBRANCH  12  19
BRANCH  13  21
ATOM     21  O   UNL     1      17.977   0.904  25.055  1.00  0.00    -0.385 OA
ATOM     22  H   UNL     1      18.126   1.085  26.019  1.00  0.00     0.211 HD
ENDBRANCH  13  21
ENDBRANCH   7   8
ENDBRANCH   1   7
BRANCH   2  23
ATOM     23  C   UNL     1      17.588  -3.831  24.572  1.00  0.00     0.191 C 
BRANCH  23  24
ATOM     24  O   UNL     1      18.603  -3.637  25.521  1.00  0.00    -0.394 OA
ATOM     25  H   UNL     1      18.241  -3.917  26.396  1.00  0.00     0.210 HD
ENDBRANCH  23  24
ENDBRANCH   2  23
BRANCH   6  26
ATOM     26  O   UNL     1      21.381  -3.413  21.553  1.00  0.00    -0.387 OA
ATOM     27  H   UNL     1      21.512  -2.421  21.491  1.00  0.00     0.211 HD
ENDBRANCH   6  26
BRANCH   5  28
ATOM     28  O   UNL     1      19.508  -1.788  20.304  1.00  0.00    -0.385 OA
ATOM     29  H   UNL     1      19.827  -1.367  21.139  1.00  0.00     0.211 HD
ENDBRANCH   5  28
BRANCH   4  30
ATOM     30  O   UNL     1      16.813  -3.874  19.884  1.00  0.00    -0.341 OA
BRANCH  30  31
ATOM     31  C   UNL     1      17.248  -4.076  18.532  1.00  0.00     0.184 C 
ATOM     32  C   UNL     1      17.667  -5.538  18.181  1.00  0.00     0.178 C 
ATOM     33  C   UNL     1      16.641  -3.265  17.332  1.00  0.00     0.180 C 
ATOM     34  O   UNL     1      17.599  -5.847  16.795  1.00  0.00    -0.342 OA
ATOM     35  C   UNL     1      15.851  -4.112  16.300  1.00  0.00     0.201 C 
ATOM     36  C   UNL     1      16.340  -5.589  16.174  1.00  0.00     0.279 C 
BRANCH  32  37
ATOM     37  C   UNL     1      17.094  -6.670  19.060  1.00  0.00     0.191 C 
BRANCH  37  38
ATOM     38  O   UNL     1      15.804  -6.351  19.485  1.00  0.00    -0.394 OA
ATOM     39  H   UNL     1      15.862  -5.456  19.916  1.00  0.00     0.210 HD
ENDBRANCH  37  38
ENDBRANCH  32  37
BRANCH  33  40
ATOM     40  O   UNL     1      15.872  -2.190  17.802  1.00  0.00    -0.387 OA
ATOM     41  H   UNL     1      15.934  -2.188  18.788  1.00  0.00     0.211 HD
ENDBRANCH  33  40
BRANCH  35  42
ATOM     42  O   UNL     1      15.931  -3.459  15.047  1.00  0.00    -0.385 OA
ATOM     43  H   UNL     1      15.351  -2.646  15.077  1.00  0.00     0.211 HD
ENDBRANCH  35  42
BRANCH  36  44
ATOM     44  O   UNL     1      15.371  -6.493  16.641  1.00  0.00    -0.366 OA
ATOM     45  H   UNL     1      15.173  -7.117  15.891  1.00  0.00     0.213 HD
ENDBRANCH  36  44
ENDBRANCH  30  31
ENDBRANCH   4  30
TORSDOF 18
ENDMDL
MODEL 6
REMARK VINA RESULT:    -6.683      2.098      4.353
REMARK INTER + INTRA:         -13.745
REMARK INTER:                 -11.920
REMARK INTRA:                  -1.825
REMARK UNBOUND:                -2.178
REMARK SMILES OC[C@@H]1O[C@@H](O[C@@H]2[C@H](O)[C@H](O)[C@@H](O[C@@H]3[C@H](O)[C@@H](O)[C@H](O)O[C@@H]3CO)O[C@H]2CO)[C@H](O)[C@H](O)[C@@H]1O
REMARK SMILES IDX 7 1 26 2 25 3 12 4 10 5 8 6 6 7 5 8 3 9 33 10 4 11 31 12
REMARK SMILES IDX 29 13 2 14 1 15 34 17 32 19 30 21 27 23 28 24 9 26 11 28
REMARK SMILES IDX 13 30 14 31 22 32 15 33 21 34 17 35 19 36 23 37 24 38 16 40
REMARK SMILES IDX 18 42 20 44
REMARK H PARENT 1 16 34 18 32 20 30 22 28 25 9 27 11 29 24 39 16 41 18 43
REMARK H PARENT 20 45
REMARK Flexibility Score: inf
ROOT
ATOM      1  C   UNL     1       7.236  -0.500  14.447  1.00  0.00     0.184 C 
ATOM      2  C   UNL     1       8.573  -0.231  15.240  1.00  0.00     0.178 C 
ATOM      3  O   UNL     1       8.454   0.845  16.177  1.00  0.00    -0.341 OA
ATOM      4  C   UNL     1       8.082   2.049  15.524  1.00  0.00     0.282 C 
ATOM      5  C   UNL     1       6.673   1.928  14.838  1.00  0.00     0.202 C 
ATOM      6  C   UNL     1       6.153   0.483  14.967  1.00  0.00     0.180 C 
ENDROOT
BRANCH   1   7
ATOM      7  O   UNL     1       7.454  -0.260  13.067  1.00  0.00    -0.341 OA
BRANCH   7   8
ATOM      8  C   UNL     1       8.481  -1.070  12.491  1.00  0.00     0.282 C 
ATOM      9  C   UNL     1       8.190   0.072  10.458  1.00  0.00     0.178 C 
ATOM     10  C   UNL     1       7.454  -1.117   9.782  1.00  0.00     0.177 C 
ATOM     11  O   UNL     1       9.124  -0.358  11.446  1.00  0.00    -0.341 OA
ATOM     12  C   UNL     1       6.851  -2.043  10.850  1.00  0.00     0.179 C 
ATOM     13  C   UNL     1       7.908  -2.377  11.930  1.00  0.00     0.202 C 
BRANCH   9  14
ATOM     14  C   UNL     1       8.919   0.966   9.434  1.00  0.00     0.191 C 
BRANCH  14  15
ATOM     15  O   UNL     1       8.206   1.038   8.229  1.00  0.00    -0.394 OA
ATOM     16  H   UNL     1       7.737   1.907   8.253  1.00  0.00     0.210 HD
ENDBRANCH  14  15
ENDBRANCH   9  14
BRANCH  10  17
ATOM     17  O   UNL     1       8.315  -1.844   8.941  1.00  0.00    -0.387 OA
ATOM     18  H   UNL     1       9.208  -1.857   9.377  1.00  0.00     0.211 HD
ENDBRANCH  10  17
BRANCH  12  19
ATOM     19  O   UNL     1       6.358  -3.216  10.258  1.00  0.00    -0.387 OA
ATOM     20  H   UNL     1       6.404  -3.947  10.944  1.00  0.00     0.211 HD
ENDBRANCH  12  19
BRANCH  13  21
ATOM     21  O   UNL     1       8.950  -3.139  11.381  1.00  0.00    -0.385 OA
ATOM     22  H   UNL     1       9.677  -3.139  12.056  1.00  0.00     0.211 HD
ENDBRANCH  13  21
ENDBRANCH   7   8
ENDBRANCH   1   7
BRANCH   2  23
ATOM     23  C   UNL     1       9.111  -1.501  15.962  1.00  0.00     0.191 C 
BRANCH  23  24
ATOM     24  O   UNL     1       8.129  -2.502  16.016  1.00  0.00    -0.394 OA
ATOM     25  H   UNL     1       7.940  -2.775  15.085  1.00  0.00     0.210 HD
ENDBRANCH  23  24
ENDBRANCH   2  23
BRANCH   6  26
ATOM     26  O   UNL     1       4.925   0.339  14.298  1.00  0.00    -0.387 OA
ATOM     27  H   UNL     1       5.007   0.858  13.445  1.00  0.00     0.211 HD
ENDBRANCH   6  26
BRANCH   5  28
ATOM     28  O   UNL     1       6.739   2.270  13.467  1.00  0.00    -0.385 OA
ATOM     29  H   UNL     1       6.128   3.029  13.304  1.00  0.00     0.211 HD
ENDBRANCH   5  28
BRANCH   4  30
ATOM     30  O   UNL     1       8.323   3.166  16.379  1.00  0.00    -0.341 OA
BRANCH  30  31
ATOM     31  C   UNL     1       7.368   4.220  16.571  1.00  0.00     0.184 C 
ATOM     32  C   UNL     1       6.485   4.088  17.852  1.00  0.00     0.178 C 
ATOM     33  C   UNL     1       7.656   5.696  16.126  1.00  0.00     0.180 C 
ATOM     34  O   UNL     1       5.936   5.317  18.309  1.00  0.00    -0.342 OA
ATOM     35  C   UNL     1       7.745   6.726  17.284  1.00  0.00     0.201 C 
ATOM     36  C   UNL     1       6.882   6.362  18.532  1.00  0.00     0.279 C 
BRANCH  32  37
ATOM     37  C   UNL     1       7.038   3.229  19.010  1.00  0.00     0.191 C 
BRANCH  37  38
ATOM     38  O   UNL     1       6.241   3.372  20.146  1.00  0.00    -0.394 OA
ATOM     39  H   UNL     1       6.515   2.652  20.776  1.00  0.00     0.210 HD
ENDBRANCH  37  38
ENDBRANCH  32  37
BRANCH  33  40
ATOM     40  O   UNL     1       8.796   5.752  15.310  1.00  0.00    -0.387 OA
ATOM     41  H   UNL     1       8.950   6.700  15.077  1.00  0.00     0.211 HD
ENDBRANCH  33  40
BRANCH  35  42
ATOM     42  O   UNL     1       7.364   7.990  16.774  1.00  0.00    -0.385 OA
ATOM     43  H   UNL     1       7.527   7.995  15.788  1.00  0.00     0.211 HD
ENDBRANCH  35  42
BRANCH  36  44
ATOM     44  O   UNL     1       7.687   6.063  19.644  1.00  0.00    -0.366 OA
ATOM     45  H   UNL     1       8.271   6.854  19.800  1.00  0.00     0.213 HD
ENDBRANCH  36  44
ENDBRANCH  30  31
ENDBRANCH   4  30
TORSDOF 18
ENDMDL
MODEL 7
REMARK VINA RESULT:    -6.574      1.798      3.142
REMARK INTER + INTRA:         -13.555
REMARK INTER:                 -11.826
REMARK INTRA:                  -1.730
REMARK UNBOUND:                -2.178
REMARK SMILES OC[C@@H]1O[C@@H](O[C@@H]2[C@H](O)[C@H](O)[C@@H](O[C@@H]3[C@H](O)[C@@H](O)[C@H](O)O[C@@H]3CO)O[C@H]2CO)[C@H](O)[C@H](O)[C@@H]1O
REMARK SMILES IDX 7 1 26 2 25 3 12 4 10 5 8 6 6 7 5 8 3 9 33 10 4 11 31 12
REMARK SMILES IDX 29 13 2 14 1 15 34 17 32 19 30 21 27 23 28 24 9 26 11 28
REMARK SMILES IDX 13 30 14 31 22 32 15 33 21 34 17 35 19 36 23 37 24 38 16 40
REMARK SMILES IDX 18 42 20 44
REMARK H PARENT 1 16 34 18 32 20 30 22 28 25 9 27 11 29 24 39 16 41 18 43
REMARK H PARENT 20 45
REMARK Flexibility Score: inf
ROOT
ATOM      1  C   UNL     1       7.516   0.178  15.918  1.00  0.00     0.184 C 
ATOM      2  C   UNL     1       8.489   0.998  16.850  1.00  0.00     0.178 C 
ATOM      3  O   UNL     1       7.802   1.666  17.915  1.00  0.00    -0.341 OA
ATOM      4  C   UNL     1       6.824   2.560  17.408  1.00  0.00     0.282 C 
ATOM      5  C   UNL     1       5.710   1.804  16.595  1.00  0.00     0.202 C 
ATOM      6  C   UNL     1       6.074   0.311  16.477  1.00  0.00     0.180 C 
ENDROOT
BRANCH   1   7
ATOM      7  O   UNL     1       7.556   0.719  14.608  1.00  0.00    -0.341 OA
BRANCH   7   8
ATOM      8  C   UNL     1       8.410   0.006  13.711  1.00  0.00     0.282 C 
ATOM      9  C   UNL     1       7.595   1.327  11.946  1.00  0.00     0.178 C 
ATOM     10  C   UNL     1       6.725   0.181  11.361  1.00  0.00     0.177 C 
ATOM     11  O   UNL     1       8.756   0.838  12.616  1.00  0.00    -0.341 OA
ATOM     12  C   UNL     1       6.426  -0.865  12.446  1.00  0.00     0.179 C 
ATOM     13  C   UNL     1       7.728  -1.262  13.182  1.00  0.00     0.202 C 
BRANCH   9  14
ATOM     14  C   UNL     1       8.027   2.341  10.867  1.00  0.00     0.191 C 
BRANCH  14  15
ATOM     15  O   UNL     1       6.992   2.578   9.953  1.00  0.00    -0.394 OA
ATOM     16  H   UNL     1       6.345   3.152  10.430  1.00  0.00     0.210 HD
ENDBRANCH  14  15
ENDBRANCH   9  14
BRANCH  10  17
ATOM     17  O   UNL     1       7.350  -0.429  10.259  1.00  0.00    -0.387 OA
ATOM     18  H   UNL     1       6.933  -0.050   9.439  1.00  0.00     0.211 HD
ENDBRANCH  10  17
BRANCH  12  19
ATOM     19  O   UNL     1       5.811  -1.993  11.881  1.00  0.00    -0.387 OA
ATOM     20  H   UNL     1       5.396  -2.520  12.628  1.00  0.00     0.211 HD
ENDBRANCH  12  19
BRANCH  13  21
ATOM     21  O   UNL     1       8.603  -1.928  12.312  1.00  0.00    -0.385 OA
ATOM     22  H   UNL     1       8.108  -2.717  11.973  1.00  0.00     0.211 HD
ENDBRANCH  13  21
ENDBRANCH   7   8
ENDBRANCH   1   7
BRANCH   2  23
ATOM     23  C   UNL     1       9.643   0.129  17.431  1.00  0.00     0.191 C 
BRANCH  23  24
ATOM     24  O   UNL     1       9.245  -0.504  18.619  1.00  0.00    -0.394 OA
ATOM     25  H   UNL     1       9.968  -0.368  19.278  1.00  0.00     0.210 HD
ENDBRANCH  23  24
ENDBRANCH   2  23
BRANCH   6  26
ATOM     26  O   UNL     1       5.125  -0.368  15.693  1.00  0.00    -0.387 OA
ATOM     27  H   UNL     1       4.792  -1.129  16.254  1.00  0.00     0.211 HD
ENDBRANCH   6  26
BRANCH   5  28
ATOM     28  O   UNL     1       5.567   2.344  15.296  1.00  0.00    -0.385 OA
ATOM     29  H   UNL     1       5.866   3.286  15.313  1.00  0.00     0.211 HD
ENDBRANCH   5  28
BRANCH   4  30
ATOM     30  O   UNL     1       6.415   3.471  18.427  1.00  0.00    -0.341 OA
BRANCH  30  31
ATOM     31  C   UNL     1       7.344   4.255  19.189  1.00  0.00     0.184 C 
ATOM     32  C   UNL     1       7.266   5.795  18.948  1.00  0.00     0.178 C 
ATOM     33  C   UNL     1       7.793   3.842  20.635  1.00  0.00     0.180 C 
ATOM     34  O   UNL     1       7.781   6.578  20.017  1.00  0.00    -0.342 OA
ATOM     35  C   UNL     1       7.361   4.819  21.760  1.00  0.00     0.201 C 
ATOM     36  C   UNL     1       7.220   6.304  21.300  1.00  0.00     0.279 C 
BRANCH  32  37
ATOM     37  C   UNL     1       5.939   6.360  18.398  1.00  0.00     0.191 C 
BRANCH  37  38
ATOM     38  O   UNL     1       6.175   7.504  17.636  1.00  0.00    -0.394 OA
ATOM     39  H   UNL     1       6.742   8.103  18.192  1.00  0.00     0.210 HD
ENDBRANCH  37  38
ENDBRANCH  32  37
BRANCH  33  40
ATOM     40  O   UNL     1       7.389   2.529  20.921  1.00  0.00    -0.387 OA
ATOM     41  H   UNL     1       7.799   2.273  21.783  1.00  0.00     0.211 HD
ENDBRANCH  33  40
BRANCH  35  42
ATOM     42  O   UNL     1       8.305   4.718  22.811  1.00  0.00    -0.385 OA
ATOM     43  H   UNL     1       7.885   4.218  23.566  1.00  0.00     0.211 HD
ENDBRANCH  35  42
BRANCH  36  44
ATOM     44  O   UNL     1       5.882   6.731  21.349  1.00  0.00    -0.366 OA
ATOM     45  H   UNL     1       5.791   7.473  20.691  1.00  0.00     0.213 HD
ENDBRANCH  36  44
ENDBRANCH  30  31
ENDBRANCH   4  30
TORSDOF 18
ENDMDL
MODEL 8
REMARK VINA RESULT:    -6.492     12.176     14.446
REMARK INTER + INTRA:         -13.415
REMARK INTER:                 -11.159
REMARK INTRA:                  -2.256
REMARK UNBOUND:                -2.178
REMARK SMILES OC[C@@H]1O[C@@H](O[C@@H]2[C@H](O)[C@H](O)[C@@H](O[C@@H]3[C@H](O)[C@@H](O)[C@H](O)O[C@@H]3CO)O[C@H]2CO)[C@H](O)[C@H](O)[C@@H]1O
REMARK SMILES IDX 7 1 26 2 25 3 12 4 10 5 8 6 6 7 5 8 3 9 33 10 4 11 31 12
REMARK SMILES IDX 29 13 2 14 1 15 34 17 32 19 30 21 27 23 28 24 9 26 11 28
REMARK SMILES IDX 13 30 14 31 22 32 15 33 21 34 17 35 19 36 23 37 24 38 16 40
REMARK SMILES IDX 18 42 20 44
REMARK H PARENT 1 16 34 18 32 20 30 22 28 25 9 27 11 29 24 39 16 41 18 43
REMARK H PARENT 20 45
REMARK Flexibility Score: inf
ROOT
ATOM      1  C   UNL     1      20.611  -4.284  19.177  1.00  0.00     0.184 C 
ATOM      2  C   UNL     1      19.882  -2.909  19.428  1.00  0.00     0.178 C 
ATOM      3  O   UNL     1      20.248  -2.307  20.675  1.00  0.00    -0.341 OA
ATOM      4  C   UNL     1      19.947  -3.167  21.763  1.00  0.00     0.282 C 
ATOM      5  C   UNL     1      20.762  -4.510  21.686  1.00  0.00     0.202 C 
ATOM      6  C   UNL     1      21.565  -4.557  20.372  1.00  0.00     0.180 C 
ENDROOT
BRANCH   1   7
ATOM      7  O   UNL     1      19.647  -5.320  19.110  1.00  0.00    -0.341 OA
BRANCH   7   8
ATOM      8  C   UNL     1      19.399  -5.798  17.786  1.00  0.00     0.282 C 
ATOM      9  C   UNL     1      17.201  -4.982  17.944  1.00  0.00     0.178 C 
ATOM     10  C   UNL     1      16.583  -6.397  18.119  1.00  0.00     0.177 C 
ATOM     11  O   UNL     1      18.398  -5.005  17.170  1.00  0.00    -0.341 OA
ATOM     12  C   UNL     1      17.646  -7.378  18.639  1.00  0.00     0.179 C 
ATOM     13  C   UNL     1      18.940  -7.262  17.800  1.00  0.00     0.202 C 
BRANCH   9  14
ATOM     14  C   UNL     1      16.209  -3.988  17.307  1.00  0.00     0.191 C 
BRANCH  14  15
ATOM     15  O   UNL     1      16.461  -3.829  15.937  1.00  0.00    -0.394 OA
ATOM     16  H   UNL     1      15.952  -3.028  15.667  1.00  0.00     0.210 HD
ENDBRANCH  14  15
ENDBRANCH   9  14
BRANCH  10  17
ATOM     17  O   UNL     1      16.034  -6.871  16.914  1.00  0.00    -0.387 OA
ATOM     18  H   UNL     1      15.692  -7.788  17.090  1.00  0.00     0.211 HD
ENDBRANCH  10  17
BRANCH  12  19
ATOM     19  O   UNL     1      17.152  -8.691  18.613  1.00  0.00    -0.387 OA
ATOM     20  H   UNL     1      17.817  -9.257  18.117  1.00  0.00     0.211 HD
ENDBRANCH  12  19
BRANCH  13  21
ATOM     21  O   UNL     1      18.715  -7.687  16.483  1.00  0.00    -0.385 OA
ATOM     22  H   UNL     1      19.486  -7.362  15.951  1.00  0.00     0.211 HD
ENDBRANCH  13  21
ENDBRANCH   7   8
ENDBRANCH   1   7
BRANCH   2  23
ATOM     23  C   UNL     1      20.098  -1.891  18.270  1.00  0.00     0.191 C 
BRANCH  23  24
ATOM     24  O   UNL     1      20.090  -2.540  17.025  1.00  0.00    -0.394 OA
ATOM     25  H   UNL     1      20.875  -2.213  16.521  1.00  0.00     0.210 HD
ENDBRANCH  23  24
ENDBRANCH   2  23
BRANCH   6  26
ATOM     26  O   UNL     1      22.245  -5.782  20.253  1.00  0.00    -0.387 OA
ATOM     27  H   UNL     1      22.705  -5.761  19.363  1.00  0.00     0.211 HD
ENDBRANCH   6  26
BRANCH   5  28
ATOM     28  O   UNL     1      19.904  -5.634  21.738  1.00  0.00    -0.385 OA
ATOM     29  H   UNL     1      18.991  -5.342  21.498  1.00  0.00     0.211 HD
ENDBRANCH   5  28
BRANCH   4  30
ATOM     30  O   UNL     1      19.966  -2.436  22.988  1.00  0.00    -0.341 OA
BRANCH  30  31
ATOM     31  C   UNL     1      18.830  -2.346  23.859  1.00  0.00     0.184 C 
ATOM     32  C   UNL     1      17.785  -1.251  23.476  1.00  0.00     0.178 C 
ATOM     33  C   UNL     1      18.222  -3.608  24.567  1.00  0.00     0.180 C 
ATOM     34  O   UNL     1      16.479  -1.489  23.985  1.00  0.00    -0.342 OA
ATOM     35  C   UNL     1      16.781  -3.978  24.127  1.00  0.00     0.201 C 
ATOM     36  C   UNL     1      15.921  -2.762  23.662  1.00  0.00     0.279 C 
BRANCH  32  37
ATOM     37  C   UNL     1      17.761  -0.777  22.007  1.00  0.00     0.191 C 
BRANCH  37  38
ATOM     38  O   UNL     1      18.827   0.088  21.757  1.00  0.00    -0.394 OA
ATOM     39  H   UNL     1      18.615   0.560  20.907  1.00  0.00     0.210 HD
ENDBRANCH  37  38
ENDBRANCH  32  37
BRANCH  33  40
ATOM     40  O   UNL     1      19.087  -4.706  24.446  1.00  0.00    -0.387 OA
ATOM     41  H   UNL     1      19.432  -4.914  25.348  1.00  0.00     0.211 HD
ENDBRANCH  33  40
BRANCH  35  42
ATOM     42  O   UNL     1      16.152  -4.641  25.208  1.00  0.00    -0.385 OA
ATOM     43  H   UNL     1      16.535  -4.289  26.061  1.00  0.00     0.211 HD
ENDBRANCH  35  42
BRANCH  36  44
ATOM     44  O   UNL     1      15.629  -2.833  22.289  1.00  0.00    -0.366 OA
ATOM     45  H   UNL     1      14.790  -2.318  22.144  1.00  0.00     0.213 HD
ENDBRANCH  36  44
ENDBRANCH  30  31
ENDBRANCH   4  30
TORSDOF 18
ENDMDL
MODEL 9
REMARK VINA RESULT:    -6.427     12.913     16.306
REMARK INTER + INTRA:         -13.301
REMARK INTER:                 -11.354
REMARK INTRA:                  -1.947
REMARK UNBOUND:                -2.178
REMARK SMILES OC[C@@H]1O[C@@H](O[C@@H]2[C@H](O)[C@H](O)[C@@H](O[C@@H]3[C@H](O)[C@@H](O)[C@H](O)O[C@@H]3CO)O[C@H]2CO)[C@H](O)[C@H](O)[C@@H]1O
REMARK SMILES IDX 7 1 26 2 25 3 12 4 10 5 8 6 6 7 5 8 3 9 33 10 4 11 31 12
REMARK SMILES IDX 29 13 2 14 1 15 34 17 32 19 30 21 27 23 28 24 9 26 11 28
REMARK SMILES IDX 13 30 14 31 22 32 15 33 21 34 17 35 19 36 23 37 24 38 16 40
REMARK SMILES IDX 18 42 20 44
REMARK H PARENT 1 16 34 18 32 20 30 22 28 25 9 27 11 29 24 39 16 41 18 43
REMARK H PARENT 20 45
REMARK Flexibility Score: inf
ROOT
ATOM      1  C   UNL     1      19.276  -2.575  23.911  1.00  0.00     0.184 C 
ATOM      2  C   UNL     1      18.216  -3.298  22.994  1.00  0.00     0.178 C 
ATOM      3  O   UNL     1      18.749  -4.452  22.334  1.00  0.00    -0.341 OA
ATOM      4  C   UNL     1      19.864  -4.106  21.527  1.00  0.00     0.282 C 
ATOM      5  C   UNL     1      21.047  -3.526  22.385  1.00  0.00     0.202 C 
ATOM      6  C   UNL     1      20.602  -3.380  23.853  1.00  0.00     0.180 C 
ENDROOT
BRANCH   1   7
ATOM      7  O   UNL     1      19.508  -1.267  23.417  1.00  0.00    -0.341 OA
BRANCH   7   8
ATOM      8  C   UNL     1      18.389  -0.388  23.554  1.00  0.00     0.282 C 
ATOM      9  C   UNL     1      18.777   0.385  21.369  1.00  0.00     0.178 C 
ATOM     10  C   UNL     1      19.367   1.740  21.848  1.00  0.00     0.177 C 
ATOM     11  O   UNL     1      17.815  -0.141  22.281  1.00  0.00    -0.341 OA
ATOM     12  C   UNL     1      19.878   1.615  23.292  1.00  0.00     0.179 C 
ATOM     13  C   UNL     1      18.805   0.947  24.185  1.00  0.00     0.202 C 
BRANCH   9  14
ATOM     14  C   UNL     1      18.138   0.489  19.969  1.00  0.00     0.191 C 
BRANCH  14  15
ATOM     15  O   UNL     1      18.991   1.144  19.071  1.00  0.00    -0.394 OA
ATOM     16  H   UNL     1      19.894   1.067  19.462  1.00  0.00     0.210 HD
ENDBRANCH  14  15
ENDBRANCH   9  14
BRANCH  10  17
ATOM     17  O   UNL     1      18.418   2.775  21.757  1.00  0.00    -0.387 OA
ATOM     18  H   UNL     1      18.593   3.399  22.511  1.00  0.00     0.211 HD
ENDBRANCH  10  17
BRANCH  12  19
ATOM     19  O   UNL     1      20.229   2.877  23.796  1.00  0.00    -0.387 OA
ATOM     20  H   UNL     1      19.813   3.570  23.201  1.00  0.00     0.211 HD
ENDBRANCH  12  19
BRANCH  13  21
ATOM     21  O   UNL     1      17.678   1.772  24.303  1.00  0.00    -0.385 OA
ATOM     22  H   UNL     1      16.961   1.338  23.772  1.00  0.00     0.211 HD
ENDBRANCH  13  21
ENDBRANCH   7   8
ENDBRANCH   1   7
BRANCH   2  23
ATOM     23  C   UNL     1      16.918  -3.684  23.762  1.00  0.00     0.191 C 
BRANCH  23  24
ATOM     24  O   UNL     1      15.776  -3.309  23.037  1.00  0.00    -0.394 OA
ATOM     25  H   UNL     1      15.787  -3.819  22.190  1.00  0.00     0.210 HD
ENDBRANCH  23  24
ENDBRANCH   2  23
BRANCH   6  26
ATOM     26  O   UNL     1      21.624  -2.797  24.623  1.00  0.00    -0.387 OA
ATOM     27  H   UNL     1      21.272  -1.910  24.929  1.00  0.00     0.211 HD
ENDBRANCH   6  26
BRANCH   5  28
ATOM     28  O   UNL     1      21.456  -2.260  21.904  1.00  0.00    -0.385 OA
ATOM     29  H   UNL     1      21.650  -2.339  20.938  1.00  0.00     0.211 HD
ENDBRANCH   5  28
BRANCH   4  30
ATOM     30  O   UNL     1      20.151  -5.160  20.608  1.00  0.00    -0.341 OA
BRANCH  30  31
ATOM     31  C   UNL     1      20.539  -4.922  19.248  1.00  0.00     0.184 C 
ATOM     32  C   UNL     1      19.391  -4.442  18.305  1.00  0.00     0.178 C 
ATOM     33  C   UNL     1      21.963  -4.381  18.870  1.00  0.00     0.180 C 
ATOM     34  O   UNL     1      19.840  -3.737  17.155  1.00  0.00    -0.342 OA
ATOM     35  C   UNL     1      21.980  -2.971  18.224  1.00  0.00     0.201 C 
ATOM     36  C   UNL     1      20.691  -2.622  17.416  1.00  0.00     0.279 C 
BRANCH  32  37
ATOM     37  C   UNL     1      18.169  -3.767  18.963  1.00  0.00     0.191 C 
BRANCH  37  38
ATOM     38  O   UNL     1      17.337  -4.725  19.543  1.00  0.00    -0.394 OA
ATOM     39  H   UNL     1      17.074  -5.350  18.814  1.00  0.00     0.210 HD
ENDBRANCH  37  38
ENDBRANCH  32  37
BRANCH  33  40
ATOM     40  O   UNL     1      22.823  -4.442  19.977  1.00  0.00    -0.387 OA
ATOM     41  H   UNL     1      23.635  -3.925  19.752  1.00  0.00     0.211 HD
ENDBRANCH  33  40
BRANCH  35  42
ATOM     42  O   UNL     1      23.120  -2.888  17.389  1.00  0.00    -0.385 OA
ATOM     43  H   UNL     1      23.729  -2.186  17.755  1.00  0.00     0.211 HD
ENDBRANCH  35  42
BRANCH  36  44
ATOM     44  O   UNL     1      19.965  -1.586  18.030  1.00  0.00    -0.366 OA
ATOM     45  H   UNL     1      20.549  -1.205  18.739  1.00  0.00     0.213 HD
ENDBRANCH  36  44
ENDBRANCH  30  31
ENDBRANCH   4  30
TORSDOF 18
ENDMDL
