MODEL 1
REMARK VINA RESULT:    -4.419      0.000      0.000
REMARK INTER + INTRA:          -5.632
REMARK INTER:                  -6.227
REMARK INTRA:                   0.595
REMARK UNBOUND:                 0.595
REMARK SMILES CC1=CCC(=C(C)C)C(=O)CC(C)=CCC1
REMARK SMILES IDX 12 1 14 2 13 3 15 4 16 5 2 6 1 7 3 8 11 10 9 11 10 12 5 13
REMARK SMILES IDX 6 14 7 15 8 16 4 17
REMARK H PARENT
REMARK Flexibility Score: 60.00
ROOT
ATOM      1  C   UNL     1      16.504  25.242   5.102  1.00  0.00    -0.070 C 
ATOM      2  C   UNL     1      17.484  24.930   4.221  1.00  0.00    -0.027 C 
ATOM      3  C   UNL     1      15.248  25.881   4.566  1.00  0.00     0.039 C 
ENDROOT
BRANCH   2   4
ATOM      4  C   UNL     1      18.823  24.328   4.585  1.00  0.00     0.032 C 
BRANCH   4   5
ATOM      5  C   UNL     1      19.989  25.184   4.069  1.00  0.00     0.034 C 
BRANCH   5   6
ATOM      6  C   UNL     1      20.033  26.582   4.670  1.00  0.00    -0.077 C 
ATOM      7  C   UNL     1      20.117  27.768   3.744  1.00  0.00     0.039 C 
ATOM      8  C   UNL     1      20.015  26.820   6.001  1.00  0.00    -0.023 CG0
ATOM      9  G   UNL     1      19.848  25.772   7.077  1.00  0.00     0.000 G0
ENDBRANCH   5   6
ENDBRANCH   4   5
ENDBRANCH   2   4
BRANCH   1  10
ATOM     10  C   UNL     1      16.615  24.976   6.591  1.00  0.00     0.111 C 
BRANCH  10  11
ATOM     11  C   UNL     1      17.296  26.117   7.293  1.00  0.00     0.163 C 
ATOM     12  O   UNL     1      16.746  27.251   7.308  1.00  0.00    -0.294 OA
BRANCH  11  13
ATOM     13  C   UNL     1      18.618  25.943   7.947  1.00  0.00    -0.002 C 
ATOM     14  C   UNL     1      18.715  25.930   9.305  1.00  0.00    -0.069 C 
ATOM     15  C   UNL     1      20.044  25.712   9.991  1.00  0.00     0.039 C 
ATOM     16  C   UNL     1      17.505  26.172  10.178  1.00  0.00     0.039 C 
BRANCH  13  17
ATOM     17  C   UNL     1      19.859  25.764   7.081  1.00  0.00     0.066 CG0
ATOM     18  G   UNL     1      20.006  26.820   6.009  1.00  0.00     0.000 G0
ENDBRANCH  13  17
ENDBRANCH  11  13
ENDBRANCH  10  11
ENDBRANCH   1  10
TORSDOF 0
ENDMDL
MODEL 2
REMARK VINA RESULT:    -4.144      1.550      4.271
REMARK INTER + INTRA:          -5.245
REMARK INTER:                  -5.740
REMARK INTRA:                   0.495
REMARK UNBOUND:                 0.595
REMARK SMILES CC1=CCC(=C(C)C)C(=O)CC(C)=CCC1
REMARK SMILES IDX 12 1 14 2 13 3 15 4 16 5 2 6 1 7 3 8 11 10 9 11 10 12 5 13
REMARK SMILES IDX 6 14 7 15 8 16 4 17
REMARK H PARENT
REMARK Flexibility Score: 60.00
ROOT
ATOM      1  C   UNL     1      15.764  24.866   6.972  1.00  0.00    -0.070 C 
ATOM      2  C   UNL     1      16.013  25.568   8.103  1.00  0.00    -0.027 C 
ATOM      3  C   UNL     1      15.109  23.515   7.106  1.00  0.00     0.039 C 
ENDROOT
BRANCH   2   4
ATOM      4  C   UNL     1      16.702  26.912   8.159  1.00  0.00     0.032 C 
BRANCH   4   5
ATOM      5  C   UNL     1      17.966  26.866   9.030  1.00  0.00     0.034 C 
BRANCH   5   6
ATOM      6  C   UNL     1      18.991  25.841   8.563  1.00  0.00    -0.077 C 
ATOM      7  C   UNL     1      19.417  24.754   9.516  1.00  0.00     0.039 C 
ATOM      8  C   UNL     1      19.556  25.860   7.334  1.00  0.00    -0.023 CG0
ATOM      9  G   UNL     1      19.196  26.815   6.219  1.00  0.00     0.000 G0
ENDBRANCH   5   6
ENDBRANCH   4   5
ENDBRANCH   2   4
BRANCH   1  10
ATOM     10  C   UNL     1      16.116  25.377   5.587  1.00  0.00     0.111 C 
BRANCH  10  11
ATOM     11  C   UNL     1      17.546  25.068   5.244  1.00  0.00     0.163 C 
ATOM     12  O   UNL     1      17.917  23.866   5.170  1.00  0.00    -0.294 OA
BRANCH  11  13
ATOM     13  C   UNL     1      18.537  26.150   5.017  1.00  0.00    -0.002 C 
ATOM     14  C   UNL     1      18.842  26.546   3.751  1.00  0.00    -0.069 C 
ATOM     15  C   UNL     1      19.817  27.673   3.499  1.00  0.00     0.039 C 
ATOM     16  C   UNL     1      18.250  25.848   2.549  1.00  0.00     0.039 C 
BRANCH  13  17
ATOM     17  C   UNL     1      19.195  26.819   6.217  1.00  0.00     0.066 CG0
ATOM     18  G   UNL     1      19.571  25.854   7.318  1.00  0.00     0.000 G0
ENDBRANCH  13  17
ENDBRANCH  11  13
ENDBRANCH  10  11
ENDBRANCH   1  10
TORSDOF 0
ENDMDL
MODEL 3
REMARK VINA RESULT:    -3.615      1.655      4.255
REMARK INTER + INTRA:          -4.500
REMARK INTER:                  -5.974
REMARK INTRA:                   1.475
REMARK UNBOUND:                 0.595
REMARK SMILES CC1=CCC(=C(C)C)C(=O)CC(C)=CCC1
REMARK SMILES IDX 12 1 14 2 13 3 15 4 16 5 2 6 1 7 3 8 11 10 9 11 10 12 5 13
REMARK SMILES IDX 6 14 7 15 8 16 4 17
REMARK H PARENT
REMARK Flexibility Score: 60.00
ROOT
ATOM      1  C   UNL     1      17.125  25.583   4.399  1.00  0.00    -0.070 C 
ATOM      2  C   UNL     1      16.213  26.040   5.290  1.00  0.00    -0.027 C 
ATOM      3  C   UNL     1      17.091  26.146   3.001  1.00  0.00     0.039 C 
ENDROOT
BRANCH   2   4
ATOM      4  C   UNL     1      16.072  25.556   6.716  1.00  0.00     0.032 C 
BRANCH   4   5
ATOM      5  C   UNL     1      16.725  26.526   7.711  1.00  0.00     0.034 C 
BRANCH   5   6
ATOM      6  C   UNL     1      18.165  26.171   8.053  1.00  0.00    -0.077 C 
ATOM      7  C   UNL     1      18.439  25.371   9.301  1.00  0.00     0.039 C 
ATOM      8  C   UNL     1      19.224  26.549   7.301  1.00  0.00    -0.023 CG0
ATOM      9  G   UNL     1      19.144  27.277   5.979  1.00  0.00     0.000 G0
ENDBRANCH   5   6
ENDBRANCH   4   5
ENDBRANCH   2   4
BRANCH   1  10
ATOM     10  C   UNL     1      18.168  24.537   4.745  1.00  0.00     0.111 C 
BRANCH  10  11
ATOM     11  C   UNL     1      19.557  25.099   4.622  1.00  0.00     0.163 C 
ATOM     12  O   UNL     1      20.516  24.323   4.363  1.00  0.00    -0.294 OA
BRANCH  11  13
ATOM     13  C   UNL     1      19.827  26.545   4.825  1.00  0.00    -0.002 C 
ATOM     14  C   UNL     1      20.662  27.211   3.981  1.00  0.00    -0.069 C 
ATOM     15  C   UNL     1      20.917  28.692   4.144  1.00  0.00     0.039 C 
ATOM     16  C   UNL     1      21.398  26.489   2.876  1.00  0.00     0.039 C 
BRANCH  13  17
ATOM     17  C   UNL     1      19.144  27.274   5.975  1.00  0.00     0.066 CG0
ATOM     18  G   UNL     1      19.252  26.551   7.298  1.00  0.00     0.000 G0
ENDBRANCH  13  17
ENDBRANCH  11  13
ENDBRANCH  10  11
ENDBRANCH   1  10
TORSDOF 0
ENDMDL
MODEL 4
REMARK VINA RESULT:    -3.555      1.660      4.520
REMARK INTER + INTRA:          -4.415
REMARK INTER:                  -4.952
REMARK INTRA:                   0.537
REMARK UNBOUND:                 0.595
REMARK SMILES CC1=CCC(=C(C)C)C(=O)CC(C)=CCC1
REMARK SMILES IDX 12 1 14 2 13 3 15 4 16 5 2 6 1 7 3 8 11 10 9 11 10 12 5 13
REMARK SMILES IDX 6 14 7 15 8 16 4 17
REMARK H PARENT
REMARK Flexibility Score: 60.00
ROOT
ATOM      1  C   UNL     1      17.934  26.338   8.305  1.00  0.00    -0.070 C 
ATOM      2  C   UNL     1      16.879  25.489   8.337  1.00  0.00    -0.027 C 
ATOM      3  C   UNL     1      18.806  26.431   9.530  1.00  0.00     0.039 C 
ENDROOT
BRANCH   2   4
ATOM      4  C   UNL     1      15.877  25.303   7.221  1.00  0.00     0.032 C 
BRANCH   4   5
ATOM      5  C   UNL     1      16.519  24.659   5.984  1.00  0.00     0.034 C 
BRANCH   5   6
ATOM      6  C   UNL     1      16.282  25.438   4.697  1.00  0.00    -0.077 C 
ATOM      7  C   UNL     1      14.875  25.853   4.350  1.00  0.00     0.039 C 
ATOM      8  C   UNL     1      17.269  25.769   3.834  1.00  0.00    -0.023 CG0
ATOM      9  G   UNL     1      18.743  25.515   4.050  1.00  0.00     0.000 G0
ENDBRANCH   5   6
ENDBRANCH   4   5
ENDBRANCH   2   4
BRANCH   1  10
ATOM     10  C   UNL     1      18.271  27.192   7.097  1.00  0.00     0.111 C 
BRANCH  10  11
ATOM     11  C   UNL     1      19.419  26.606   6.325  1.00  0.00     0.163 C 
ATOM     12  O   UNL     1      20.389  26.098   6.950  1.00  0.00    -0.294 OA
BRANCH  11  13
ATOM     13  C   UNL     1      19.449  26.638   4.840  1.00  0.00    -0.002 C 
ATOM     14  C   UNL     1      20.101  27.640   4.189  1.00  0.00    -0.069 C 
ATOM     15  C   UNL     1      20.179  27.668   2.680  1.00  0.00     0.039 C 
ATOM     16  C   UNL     1      20.735  28.783   4.947  1.00  0.00     0.039 C 
BRANCH  13  17
ATOM     17  C   UNL     1      18.757  25.528   4.059  1.00  0.00     0.066 CG0
ATOM     18  G   UNL     1      17.285  25.780   3.825  1.00  0.00     0.000 G0
ENDBRANCH  13  17
ENDBRANCH  11  13
ENDBRANCH  10  11
ENDBRANCH   1  10
TORSDOF 0
ENDMDL
MODEL 5
REMARK VINA RESULT:    -3.287      1.288      2.267
REMARK INTER + INTRA:          -4.037
REMARK INTER:                  -5.058
REMARK INTRA:                   1.021
REMARK UNBOUND:                 0.595
REMARK SMILES CC1=CCC(=C(C)C)C(=O)CC(C)=CCC1
REMARK SMILES IDX 12 1 14 2 13 3 15 4 16 5 2 6 1 7 3 8 11 10 9 11 10 12 5 13
REMARK SMILES IDX 6 14 7 15 8 16 4 17
REMARK H PARENT
REMARK Flexibility Score: 60.00
ROOT
ATOM      1  C   UNL     1      18.805  24.106   4.503  1.00  0.00    -0.070 C 
ATOM      2  C   UNL     1      20.125  24.064   4.199  1.00  0.00    -0.027 C 
ATOM      3  C   UNL     1      18.254  23.037   5.411  1.00  0.00     0.039 C 
ENDROOT
BRANCH   2   4
ATOM      4  C   UNL     1      20.835  25.024   3.271  1.00  0.00     0.032 C 
BRANCH   4   5
ATOM      5  C   UNL     1      21.444  26.207   4.038  1.00  0.00     0.034 C 
BRANCH   5   6
ATOM      6  C   UNL     1      20.537  27.427   4.098  1.00  0.00    -0.077 C 
ATOM      7  C   UNL     1      20.580  28.421   2.965  1.00  0.00     0.039 C 
ATOM      8  C   UNL     1      19.697  27.681   5.128  1.00  0.00    -0.023 CG0
ATOM      9  G   UNL     1      19.453  26.765   6.306  1.00  0.00     0.000 G0
ENDBRANCH   5   6
ENDBRANCH   4   5
ENDBRANCH   2   4
BRANCH   1  10
ATOM     10  C   UNL     1      17.868  25.175   3.972  1.00  0.00     0.111 C 
BRANCH  10  11
ATOM     11  C   UNL     1      17.296  25.996   5.093  1.00  0.00     0.163 C 
ATOM     12  O   UNL     1      16.172  26.546   4.943  1.00  0.00    -0.294 OA
BRANCH  11  13
ATOM     13  C   UNL     1      18.039  26.195   6.363  1.00  0.00    -0.002 C 
ATOM     14  C   UNL     1      17.472  25.849   7.550  1.00  0.00    -0.069 C 
ATOM     15  C   UNL     1      18.227  26.004   8.851  1.00  0.00     0.039 C 
ATOM     16  C   UNL     1      16.052  25.335   7.620  1.00  0.00     0.039 C 
BRANCH  13  17
ATOM     17  C   UNL     1      19.447  26.775   6.316  1.00  0.00     0.066 CG0
ATOM     18  G   UNL     1      19.693  27.672   5.125  1.00  0.00     0.000 G0
ENDBRANCH  13  17
ENDBRANCH  11  13
ENDBRANCH  10  11
ENDBRANCH   1  10
TORSDOF 0
ENDMDL
MODEL 6
REMARK VINA RESULT:    -3.239     18.704     21.075
REMARK INTER + INTRA:          -3.969
REMARK INTER:                  -5.602
REMARK INTRA:                   1.633
REMARK UNBOUND:                 0.595
REMARK SMILES CC1=CCC(=C(C)C)C(=O)CC(C)=CCC1
REMARK SMILES IDX 12 1 14 2 13 3 15 4 16 5 2 6 1 7 3 8 11 10 9 11 10 12 5 13
REMARK SMILES IDX 6 14 7 15 8 16 4 17
REMARK H PARENT
REMARK Flexibility Score: 60.00
ROOT
ATOM      1  C   UNL     1      34.180  15.701  -4.319  1.00  0.00    -0.070 C 
ATOM      2  C   UNL     1      34.642  15.355  -5.544  1.00  0.00    -0.027 C 
ATOM      3  C   UNL     1      35.123  15.591  -3.149  1.00  0.00     0.039 C 
ENDROOT
BRANCH   2   4
ATOM      4  C   UNL     1      33.824  15.360  -6.816  1.00  0.00     0.032 C 
BRANCH   4   5
ATOM      5  C   UNL     1      33.089  14.027  -7.023  1.00  0.00     0.034 C 
BRANCH   5   6
ATOM      6  C   UNL     1      31.592  14.110  -6.761  1.00  0.00    -0.077 C 
ATOM      7  C   UNL     1      30.845  12.848  -6.413  1.00  0.00     0.039 C 
ATOM      8  C   UNL     1      30.885  15.261  -6.839  1.00  0.00    -0.023 CG0
ATOM      9  G   UNL     1      31.468  16.633  -7.090  1.00  0.00     0.000 G0
ENDBRANCH   5   6
ENDBRANCH   4   5
ENDBRANCH   2   4
BRANCH   1  10
ATOM     10  C   UNL     1      32.764  16.191  -4.078  1.00  0.00     0.111 C 
BRANCH  10  11
ATOM     11  C   UNL     1      32.494  17.459  -4.837  1.00  0.00     0.163 C 
ATOM     12  O   UNL     1      33.191  18.482  -4.598  1.00  0.00    -0.294 OA
BRANCH  11  13
ATOM     13  C   UNL     1      31.406  17.541  -5.844  1.00  0.00    -0.002 C 
ATOM     14  C   UNL     1      30.377  18.415  -5.671  1.00  0.00    -0.069 C 
ATOM     15  C   UNL     1      29.281  18.544  -6.704  1.00  0.00     0.039 C 
ATOM     16  C   UNL     1      30.269  19.260  -4.423  1.00  0.00     0.039 C 
BRANCH  13  17
ATOM     17  C   UNL     1      31.465  16.648  -7.076  1.00  0.00     0.066 CG0
ATOM     18  G   UNL     1      30.881  15.271  -6.855  1.00  0.00     0.000 G0
ENDBRANCH  13  17
ENDBRANCH  11  13
ENDBRANCH  10  11
ENDBRANCH   1  10
TORSDOF 0
ENDMDL
MODEL 7
REMARK VINA RESULT:    -3.081      1.726      3.581
REMARK INTER + INTRA:          -3.746
REMARK INTER:                  -5.665
REMARK INTRA:                   1.919
REMARK UNBOUND:                 0.595
REMARK SMILES CC1=CCC(=C(C)C)C(=O)CC(C)=CCC1
REMARK SMILES IDX 12 1 14 2 13 3 15 4 16 5 2 6 1 7 3 8 11 10 9 11 10 12 5 13
REMARK SMILES IDX 6 14 7 15 8 16 4 17
REMARK H PARENT
REMARK Flexibility Score: 60.00
ROOT
ATOM      1  C   UNL     1      19.413  25.599   4.198  1.00  0.00    -0.070 C 
ATOM      2  C   UNL     1      18.230  25.822   3.577  1.00  0.00    -0.027 C 
ATOM      3  C   UNL     1      20.679  25.940   3.454  1.00  0.00     0.039 C 
ENDROOT
BRANCH   2   4
ATOM      4  C   UNL     1      16.870  25.498   4.152  1.00  0.00     0.032 C 
BRANCH   4   5
ATOM      5  C   UNL     1      16.965  24.460   5.280  1.00  0.00     0.034 C 
BRANCH   5   6
ATOM      6  C   UNL     1      16.000  24.718   6.429  1.00  0.00    -0.077 C 
ATOM      7  C   UNL     1      14.892  23.729   6.683  1.00  0.00     0.039 C 
ATOM      8  C   UNL     1      16.073  25.804   7.233  1.00  0.00    -0.023 CG0
ATOM      9  G   UNL     1      17.158  26.856   7.188  1.00  0.00     0.000 G0
ENDBRANCH   5   6
ENDBRANCH   4   5
ENDBRANCH   2   4
BRANCH   1  10
ATOM     10  C   UNL     1      19.516  25.026   5.599  1.00  0.00     0.111 C 
BRANCH  10  11
ATOM     11  C   UNL     1      19.596  26.120   6.626  1.00  0.00     0.163 C 
ATOM     12  O   UNL     1      20.600  26.883   6.639  1.00  0.00    -0.294 OA
BRANCH  11  13
ATOM     13  C   UNL     1      18.531  26.305   7.644  1.00  0.00    -0.002 C 
ATOM     14  C   UNL     1      18.772  26.008   8.950  1.00  0.00    -0.069 C 
ATOM     15  C   UNL     1      17.715  26.228  10.008  1.00  0.00     0.039 C 
ATOM     16  C   UNL     1      20.089  25.408   9.386  1.00  0.00     0.039 C 
BRANCH  13  17
ATOM     17  C   UNL     1      17.174  26.846   7.210  1.00  0.00     0.066 CG0
ATOM     18  G   UNL     1      16.075  25.808   7.227  1.00  0.00     0.000 G0
ENDBRANCH  13  17
ENDBRANCH  11  13
ENDBRANCH  10  11
ENDBRANCH   1  10
TORSDOF 0
ENDMDL
MODEL 8
REMARK VINA RESULT:    -2.930      1.589      4.002
REMARK INTER + INTRA:          -3.534
REMARK INTER:                  -5.728
REMARK INTRA:                   2.194
REMARK UNBOUND:                 0.595
REMARK SMILES CC1=CCC(=C(C)C)C(=O)CC(C)=CCC1
REMARK SMILES IDX 12 1 14 2 13 3 15 4 16 5 2 6 1 7 3 8 11 10 9 11 10 12 5 13
REMARK SMILES IDX 6 14 7 15 8 16 4 17
REMARK H PARENT
REMARK Flexibility Score: 60.00
ROOT
ATOM      1  C   UNL     1      18.501  26.434   9.629  1.00  0.00    -0.070 C 
ATOM      2  C   UNL     1      19.474  25.712   9.023  1.00  0.00    -0.027 C 
ATOM      3  C   UNL     1      18.654  26.736  11.097  1.00  0.00     0.039 C 
ENDROOT
BRANCH   2   4
ATOM      4  C   UNL     1      19.462  25.279   7.574  1.00  0.00     0.032 C 
BRANCH   4   5
ATOM      5  C   UNL     1      19.931  26.406   6.642  1.00  0.00     0.034 C 
BRANCH   5   6
ATOM      6  C   UNL     1      19.358  26.313   5.235  1.00  0.00    -0.077 C 
ATOM      7  C   UNL     1      20.237  25.793   4.126  1.00  0.00     0.039 C 
ATOM      8  C   UNL     1      18.097  26.687   4.918  1.00  0.00    -0.023 CG0
ATOM      9  G   UNL     1      17.047  27.149   5.902  1.00  0.00     0.000 G0
ENDBRANCH   5   6
ENDBRANCH   4   5
ENDBRANCH   2   4
BRANCH   1  10
ATOM     10  C   UNL     1      17.274  26.945   8.898  1.00  0.00     0.111 C 
BRANCH  10  11
ATOM     11  C   UNL     1      16.624  25.849   8.102  1.00  0.00     0.163 C 
ATOM     12  O   UNL     1      16.320  24.768   8.674  1.00  0.00    -0.294 OA
BRANCH  11  13
ATOM     13  C   UNL     1      16.356  26.003   6.649  1.00  0.00    -0.002 C 
ATOM     14  C   UNL     1      15.507  25.149   6.014  1.00  0.00    -0.069 C 
ATOM     15  C   UNL     1      15.189  25.314   4.546  1.00  0.00     0.039 C 
ATOM     16  C   UNL     1      14.884  23.980   6.742  1.00  0.00     0.039 C 
BRANCH  13  17
ATOM     17  C   UNL     1      17.029  27.137   5.885  1.00  0.00     0.066 CG0
ATOM     18  G   UNL     1      18.100  26.668   4.927  1.00  0.00     0.000 G0
ENDBRANCH  13  17
ENDBRANCH  11  13
ENDBRANCH  10  11
ENDBRANCH   1  10
TORSDOF 0
ENDMDL
MODEL 9
REMARK VINA RESULT:    -2.679      1.892      4.610
REMARK INTER + INTRA:          -3.180
REMARK INTER:                  -4.356
REMARK INTRA:                   1.176
REMARK UNBOUND:                 0.595
REMARK SMILES CC1=CCC(=C(C)C)C(=O)CC(C)=CCC1
REMARK SMILES IDX 12 1 14 2 13 3 15 4 16 5 2 6 1 7 3 8 11 10 9 11 10 12 5 13
REMARK SMILES IDX 6 14 7 15 8 16 4 17
REMARK H PARENT
REMARK Flexibility Score: 60.00
ROOT
ATOM      1  C   UNL     1      19.769  26.487   5.606  1.00  0.00    -0.070 C 
ATOM      2  C   UNL     1      19.884  26.474   6.956  1.00  0.00    -0.027 C 
ATOM      3  C   UNL     1      19.744  27.823   4.910  1.00  0.00     0.039 C 
ENDROOT
BRANCH   2   4
ATOM      4  C   UNL     1      19.880  25.232   7.818  1.00  0.00     0.032 C 
BRANCH   4   5
ATOM      5  C   UNL     1      18.840  25.328   8.944  1.00  0.00     0.034 C 
BRANCH   5   6
ATOM      6  C   UNL     1      17.716  26.313   8.655  1.00  0.00    -0.077 C 
ATOM      7  C   UNL     1      17.711  27.639   9.373  1.00  0.00     0.039 C 
ATOM      8  C   UNL     1      16.705  26.058   7.793  1.00  0.00    -0.023 CG0
ATOM      9  G   UNL     1      16.586  24.828   6.923  1.00  0.00     0.000 G0
ENDBRANCH   5   6
ENDBRANCH   4   5
ENDBRANCH   2   4
BRANCH   1  10
ATOM     10  C   UNL     1      19.666  25.222   4.774  1.00  0.00     0.111 C 
BRANCH  10  11
ATOM     11  C   UNL     1      18.483  24.396   5.192  1.00  0.00     0.163 C 
ATOM     12  O   UNL     1      18.595  23.142   5.250  1.00  0.00    -0.294 OA
BRANCH  11  13
ATOM     13  C   UNL     1      17.176  25.024   5.512  1.00  0.00    -0.002 C 
ATOM     14  C   UNL     1      16.515  25.750   4.570  1.00  0.00    -0.069 C 
ATOM     15  C   UNL     1      15.165  26.363   4.861  1.00  0.00     0.039 C 
ATOM     16  C   UNL     1      17.125  26.008   3.211  1.00  0.00     0.039 C 
BRANCH  13  17
ATOM     17  C   UNL     1      16.578  24.830   6.900  1.00  0.00     0.066 CG0
ATOM     18  G   UNL     1      16.699  26.048   7.787  1.00  0.00     0.000 G0
ENDBRANCH  13  17
ENDBRANCH  11  13
ENDBRANCH  10  11
ENDBRANCH   1  10
TORSDOF 0
ENDMDL
