MODEL 1
REMARK VINA RESULT:    -3.444      0.000      0.000
REMARK INTER + INTRA:          -3.444
REMARK INTER:                  -3.444
REMARK INTRA:                   0.000
REMARK UNBOUND:                 0.000
REMARK SMILES CC(=O)[O-]
REMARK SMILES IDX 1 1 2 2 3 3 4 4
REMARK H PARENT
REMARK Flexibility Score: inf
ROOT
ATOM      1  C   UNL     1     -18.509  34.004 -13.175  1.00  0.00     0.063 C 
ATOM      2  C   UNL     1     -17.877  33.529 -11.910  1.00  0.00     0.038 C 
ATOM      3  O   UNL     1     -17.231  32.448 -11.895  1.00  0.00    -0.550 OA
ATOM      4  O   UNL     1     -17.954  34.303 -10.760  1.00  0.00    -0.550 OA
ENDROOT
TORSDOF 0
ENDMDL
MODEL 2
REMARK VINA RESULT:    -3.429      0.114      1.622
REMARK INTER + INTRA:          -3.429
REMARK INTER:                  -3.429
REMARK INTRA:                   0.000
REMARK UNBOUND:                 0.000
REMARK SMILES CC(=O)[O-]
REMARK SMILES IDX 1 1 2 2 3 3 4 4
REMARK H PARENT
REMARK Flexibility Score: inf
ROOT
ATOM      1  C   UNL     1     -18.537  34.103 -13.212  1.00  0.00     0.063 C 
ATOM      2  C   UNL     1     -17.900  33.650 -11.941  1.00  0.00     0.038 C 
ATOM      3  O   UNL     1     -18.011  34.345 -10.898  1.00  0.00    -0.550 OA
ATOM      4  O   UNL     1     -17.230  32.435 -11.893  1.00  0.00    -0.550 OA
ENDROOT
TORSDOF 0
ENDMDL
MODEL 3
REMARK VINA RESULT:    -3.427     12.173     12.556
REMARK INTER + INTRA:          -3.427
REMARK INTER:                  -3.427
REMARK INTRA:                   0.000
REMARK UNBOUND:                 0.000
REMARK SMILES CC(=O)[O-]
REMARK SMILES IDX 1 1 2 2 3 3 4 4
REMARK H PARENT
REMARK Flexibility Score: inf
ROOT
ATOM      1  C   UNL     1     -22.626  24.970  -2.762  1.00  0.00     0.063 C 
ATOM      2  C   UNL     1     -22.983  25.605  -4.064  1.00  0.00     0.038 C 
ATOM      3  O   UNL     1     -23.308  26.820  -4.105  1.00  0.00    -0.550 OA
ATOM      4  O   UNL     1     -22.905  24.871  -5.240  1.00  0.00    -0.550 OA
ENDROOT
TORSDOF 0
ENDMDL
MODEL 4
REMARK VINA RESULT:    -3.393      1.329      1.925
REMARK INTER + INTRA:          -3.393
REMARK INTER:                  -3.393
REMARK INTRA:                   0.000
REMARK UNBOUND:                 0.000
REMARK SMILES CC(=O)[O-]
REMARK SMILES IDX 1 1 2 2 3 3 4 4
REMARK H PARENT
REMARK Flexibility Score: inf
ROOT
ATOM      1  C   UNL     1     -15.722  33.647 -10.759  1.00  0.00     0.063 C 
ATOM      2  C   UNL     1     -17.117  33.469 -11.258  1.00  0.00     0.038 C 
ATOM      3  O   UNL     1     -17.403  32.488 -11.994  1.00  0.00    -0.550 OA
ATOM      4  O   UNL     1     -18.113  34.354 -10.869  1.00  0.00    -0.550 OA
ENDROOT
TORSDOF 0
ENDMDL
MODEL 5
REMARK VINA RESULT:    -3.359     17.374     17.847
REMARK INTER + INTRA:          -3.359
REMARK INTER:                  -3.359
REMARK INTRA:                   0.000
REMARK UNBOUND:                 0.000
REMARK SMILES CC(=O)[O-]
REMARK SMILES IDX 1 1 2 2 3 3 4 4
REMARK H PARENT
REMARK Flexibility Score: inf
ROOT
ATOM      1  C   UNL     1     -21.673  28.901   3.548  1.00  0.00     0.063 C 
ATOM      2  C   UNL     1     -22.325  27.796   4.309  1.00  0.00     0.038 C 
ATOM      3  O   UNL     1     -23.319  28.037   5.044  1.00  0.00    -0.550 OA
ATOM      4  O   UNL     1     -21.872  26.491   4.166  1.00  0.00    -0.550 OA
ENDROOT
TORSDOF 0
ENDMDL
MODEL 6
REMARK VINA RESULT:    -3.332      1.343      2.495
REMARK INTER + INTRA:          -3.332
REMARK INTER:                  -3.332
REMARK INTRA:                   0.000
REMARK UNBOUND:                 0.000
REMARK SMILES CC(=O)[O-]
REMARK SMILES IDX 1 1 2 2 3 3 4 4
REMARK H PARENT
REMARK Flexibility Score: inf
ROOT
ATOM      1  C   UNL     1     -15.715  33.612 -10.859  1.00  0.00     0.063 C 
ATOM      2  C   UNL     1     -17.158  33.444 -11.198  1.00  0.00     0.038 C 
ATOM      3  O   UNL     1     -18.008  34.262 -10.759  1.00  0.00    -0.550 OA
ATOM      4  O   UNL     1     -17.560  32.416 -12.040  1.00  0.00    -0.550 OA
ENDROOT
TORSDOF 0
ENDMDL
MODEL 7
REMARK VINA RESULT:    -3.175      1.763      2.011
REMARK INTER + INTRA:          -3.175
REMARK INTER:                  -3.175
REMARK INTRA:                   0.000
REMARK UNBOUND:                 0.000
REMARK SMILES CC(=O)[O-]
REMARK SMILES IDX 1 1 2 2 3 3 4 4
REMARK H PARENT
REMARK Flexibility Score: inf
ROOT
ATOM      1  C   UNL     1     -17.796  33.591 -10.474  1.00  0.00     0.063 C 
ATOM      2  C   UNL     1     -17.185  33.249 -11.792  1.00  0.00     0.038 C 
ATOM      3  O   UNL     1     -15.977  32.902 -11.856  1.00  0.00    -0.550 OA
ATOM      4  O   UNL     1     -17.962  33.262 -12.943  1.00  0.00    -0.550 OA
ENDROOT
TORSDOF 0
ENDMDL
MODEL 8
REMARK VINA RESULT:    -3.078      2.194      2.307
REMARK INTER + INTRA:          -3.078
REMARK INTER:                  -3.078
REMARK INTRA:                   0.000
REMARK UNBOUND:                 0.000
REMARK SMILES CC(=O)[O-]
REMARK SMILES IDX 1 1 2 2 3 3 4 4
REMARK H PARENT
REMARK Flexibility Score: inf
ROOT
ATOM      1  C   UNL     1     -17.651  33.555 -10.595  1.00  0.00     0.063 C 
ATOM      2  C   UNL     1     -16.195  33.530 -10.920  1.00  0.00     0.038 C 
ATOM      3  O   UNL     1     -15.791  32.947 -11.961  1.00  0.00    -0.550 OA
ATOM      4  O   UNL     1     -15.288  34.194 -10.106  1.00  0.00    -0.550 OA
ENDROOT
TORSDOF 0
ENDMDL
MODEL 9
REMARK VINA RESULT:    -3.010     12.150     12.424
REMARK INTER + INTRA:          -3.010
REMARK INTER:                  -3.010
REMARK INTRA:                   0.000
REMARK UNBOUND:                 0.000
REMARK SMILES CC(=O)[O-]
REMARK SMILES IDX 1 1 2 2 3 3 4 4
REMARK H PARENT
REMARK Flexibility Score: inf
ROOT
ATOM      1  C   UNL     1     -22.148  25.073  -5.174  1.00  0.00     0.063 C 
ATOM      2  C   UNL     1     -22.813  25.609  -3.951  1.00  0.00     0.038 C 
ATOM      3  O   UNL     1     -23.416  26.713  -3.993  1.00  0.00    -0.550 OA
ATOM      4  O   UNL     1     -22.814  24.867  -2.778  1.00  0.00    -0.550 OA
ENDROOT
TORSDOF 0
ENDMDL
