MODEL 1
REMARK VINA RESULT:    -3.426      0.000      0.000
REMARK INTER + INTRA:          -4.652
REMARK INTER:                  -4.428
REMARK INTRA:                  -0.224
REMARK UNBOUND:                -0.224
REMARK SMILES C=CC(=O)CCCCC
REMARK SMILES IDX 6 1 7 2 8 3 9 4 5 5 3 6 4 7 2 8 1 9
REMARK H PARENT
REMARK Flexibility Score: inf
ROOT
ATOM      1  C   UNL     1      32.798  71.181 106.544  1.00  0.00     0.008 C 
ENDROOT
BRANCH   1   2
ATOM      2  C   UNL     1      31.523  72.033 106.641  1.00  0.00     0.000 C 
BRANCH   2   3
ATOM      3  C   UNL     1      30.270  71.151 106.617  1.00  0.00    -0.003 C 
ATOM      4  C   UNL     1      30.512  69.832 107.346  1.00  0.00     0.004 C 
ENDBRANCH   2   3
ENDBRANCH   1   2
BRANCH   1   5
ATOM      5  C   UNL     1      33.932  71.911 105.814  1.00  0.00     0.080 C 
BRANCH   5   6
ATOM      6  C   UNL     1      35.109  72.160 106.715  1.00  0.00     0.155 C 
ATOM      7  O   UNL     1      36.274  72.084 106.241  1.00  0.00    -0.295 OA
BRANCH   6   8
ATOM      8  C   UNL     1      34.897  72.518 108.132  1.00  0.00     0.039 C 
ATOM      9  C   UNL     1      35.788  73.217 108.833  1.00  0.00     0.012 C 
ENDBRANCH   6   8
ENDBRANCH   5   6
ENDBRANCH   1   5
TORSDOF 5
ENDMDL
MODEL 2
REMARK VINA RESULT:    -3.404      2.042      4.820
REMARK INTER + INTRA:          -4.623
REMARK INTER:                  -4.423
REMARK INTRA:                  -0.200
REMARK UNBOUND:                -0.224
REMARK SMILES C=CC(=O)CCCCC
REMARK SMILES IDX 6 1 7 2 8 3 9 4 5 5 3 6 4 7 2 8 1 9
REMARK H PARENT
REMARK Flexibility Score: inf
ROOT
ATOM      1  C   UNL     1      33.294  71.235 106.712  1.00  0.00     0.008 C 
ENDROOT
BRANCH   1   2
ATOM      2  C   UNL     1      34.430  72.198 106.335  1.00  0.00     0.000 C 
BRANCH   2   3
ATOM      3  C   UNL     1      35.557  72.151 107.373  1.00  0.00    -0.003 C 
ATOM      4  C   UNL     1      35.207  72.986 108.602  1.00  0.00     0.004 C 
ENDBRANCH   2   3
ENDBRANCH   1   2
BRANCH   1   5
ATOM      5  C   UNL     1      31.917  71.910 106.659  1.00  0.00     0.080 C 
BRANCH   5   6
ATOM      6  C   UNL     1      30.869  70.997 106.089  1.00  0.00     0.155 C 
ATOM      7  O   UNL     1      30.796  70.848 104.839  1.00  0.00    -0.295 OA
BRANCH   6   8
ATOM      8  C   UNL     1      29.956  70.262 106.986  1.00  0.00     0.039 C 
ATOM      9  C   UNL     1      30.305  69.126 107.588  1.00  0.00     0.012 C 
ENDBRANCH   6   8
ENDBRANCH   5   6
ENDBRANCH   1   5
TORSDOF 5
ENDMDL
MODEL 3
REMARK VINA RESULT:    -3.363      2.290      4.444
REMARK INTER + INTRA:          -4.570
REMARK INTER:                  -4.064
REMARK INTRA:                  -0.506
REMARK UNBOUND:                -0.224
REMARK SMILES C=CC(=O)CCCCC
REMARK SMILES IDX 6 1 7 2 8 3 9 4 5 5 3 6 4 7 2 8 1 9
REMARK H PARENT
REMARK Flexibility Score: inf
ROOT
ATOM      1  C   UNL     1      33.125  71.968 106.094  1.00  0.00     0.008 C 
ENDROOT
BRANCH   1   2
ATOM      2  C   UNL     1      34.157  71.875 107.229  1.00  0.00     0.000 C 
BRANCH   2   3
ATOM      3  C   UNL     1      34.572  70.420 107.475  1.00  0.00    -0.003 C 
ATOM      4  C   UNL     1      34.328  69.561 106.237  1.00  0.00     0.004 C 
ENDBRANCH   2   3
ENDBRANCH   1   2
BRANCH   1   5
ATOM      5  C   UNL     1      31.688  72.071 106.621  1.00  0.00     0.080 C 
BRANCH   5   6
ATOM      6  C   UNL     1      30.822  70.959 106.102  1.00  0.00     0.155 C 
ATOM      7  O   UNL     1      30.710  70.795 104.857  1.00  0.00    -0.295 OA
BRANCH   6   8
ATOM      8  C   UNL     1      30.134  70.051 107.042  1.00  0.00     0.039 C 
ATOM      9  C   UNL     1      30.774  69.088 107.703  1.00  0.00     0.012 C 
ENDBRANCH   6   8
ENDBRANCH   5   6
ENDBRANCH   1   5
TORSDOF 5
ENDMDL
MODEL 4
REMARK VINA RESULT:    -3.333      2.785      4.976
REMARK INTER + INTRA:          -4.532
REMARK INTER:                  -4.045
REMARK INTRA:                  -0.487
REMARK UNBOUND:                -0.224
REMARK SMILES C=CC(=O)CCCCC
REMARK SMILES IDX 6 1 7 2 8 3 9 4 5 5 3 6 4 7 2 8 1 9
REMARK H PARENT
REMARK Flexibility Score: inf
ROOT
ATOM      1  C   UNL     1      31.652  72.002 106.439  1.00  0.00     0.008 C 
ENDROOT
BRANCH   1   2
ATOM      2  C   UNL     1      33.041  71.467 106.821  1.00  0.00     0.000 C 
BRANCH   2   3
ATOM      3  C   UNL     1      34.135  72.129 105.977  1.00  0.00    -0.003 C 
ATOM      4  C   UNL     1      34.761  71.131 105.006  1.00  0.00     0.004 C 
ENDBRANCH   2   3
ENDBRANCH   1   2
BRANCH   1   5
ATOM      5  C   UNL     1      30.554  70.944 106.604  1.00  0.00     0.080 C 
BRANCH   5   6
ATOM      6  C   UNL     1      30.761  69.774 105.684  1.00  0.00     0.155 C 
ATOM      7  O   UNL     1      30.652  68.605 106.142  1.00  0.00    -0.295 OA
BRANCH   6   8
ATOM      8  C   UNL     1      31.059  69.996 104.255  1.00  0.00     0.039 C 
ATOM      9  C   UNL     1      31.929  69.247 103.581  1.00  0.00     0.012 C 
ENDBRANCH   6   8
ENDBRANCH   5   6
ENDBRANCH   1   5
TORSDOF 5
ENDMDL
MODEL 5
REMARK VINA RESULT:    -3.304      2.688      4.521
REMARK INTER + INTRA:          -4.493
REMARK INTER:                  -3.947
REMARK INTRA:                  -0.546
REMARK UNBOUND:                -0.224
REMARK SMILES C=CC(=O)CCCCC
REMARK SMILES IDX 6 1 7 2 8 3 9 4 5 5 3 6 4 7 2 8 1 9
REMARK H PARENT
REMARK Flexibility Score: inf
ROOT
ATOM      1  C   UNL     1      31.529  71.913 106.122  1.00  0.00     0.008 C 
ENDROOT
BRANCH   1   2
ATOM      2  C   UNL     1      32.892  71.869 106.828  1.00  0.00     0.000 C 
BRANCH   2   3
ATOM      3  C   UNL     1      34.036  71.806 105.809  1.00  0.00    -0.003 C 
ATOM      4  C   UNL     1      34.027  70.480 105.053  1.00  0.00     0.004 C 
ENDBRANCH   2   3
ENDBRANCH   1   2
BRANCH   1   5
ATOM      5  C   UNL     1      30.466  71.084 106.855  1.00  0.00     0.080 C 
BRANCH   5   6
ATOM      6  C   UNL     1      30.708  69.609 106.709  1.00  0.00     0.155 C 
ATOM      7  O   UNL     1      30.645  69.085 105.563  1.00  0.00    -0.295 OA
BRANCH   6   8
ATOM      8  C   UNL     1      31.044  68.790 107.890  1.00  0.00     0.039 C 
ATOM      9  C   UNL     1      32.274  68.328 108.113  1.00  0.00     0.012 C 
ENDBRANCH   6   8
ENDBRANCH   5   6
ENDBRANCH   1   5
TORSDOF 5
ENDMDL
MODEL 6
REMARK VINA RESULT:    -3.279      1.747      2.978
REMARK INTER + INTRA:          -4.461
REMARK INTER:                  -4.004
REMARK INTRA:                  -0.458
REMARK UNBOUND:                -0.224
REMARK SMILES C=CC(=O)CCCCC
REMARK SMILES IDX 6 1 7 2 8 3 9 4 5 5 3 6 4 7 2 8 1 9
REMARK H PARENT
REMARK Flexibility Score: inf
ROOT
ATOM      1  C   UNL     1      32.761  71.512 106.807  1.00  0.00     0.008 C 
ENDROOT
BRANCH   1   2
ATOM      2  C   UNL     1      31.426  72.021 106.243  1.00  0.00     0.000 C 
BRANCH   2   3
ATOM      3  C   UNL     1      30.249  71.221 106.812  1.00  0.00    -0.003 C 
ATOM      4  C   UNL     1      30.674  69.801 107.177  1.00  0.00     0.004 C 
ENDBRANCH   2   3
ENDBRANCH   1   2
BRANCH   1   5
ATOM      5  C   UNL     1      33.961  71.971 105.969  1.00  0.00     0.080 C 
BRANCH   5   6
ATOM      6  C   UNL     1      34.372  70.931 104.965  1.00  0.00     0.155 C 
ATOM      7  O   UNL     1      35.297  71.194 104.149  1.00  0.00    -0.295 OA
BRANCH   6   8
ATOM      8  C   UNL     1      33.719  69.607 104.957  1.00  0.00     0.039 C 
ATOM      9  C   UNL     1      32.980  69.180 103.934  1.00  0.00     0.012 C 
ENDBRANCH   6   8
ENDBRANCH   5   6
ENDBRANCH   1   5
TORSDOF 5
ENDMDL
MODEL 7
REMARK VINA RESULT:    -3.266      2.990      5.071
REMARK INTER + INTRA:          -4.444
REMARK INTER:                  -3.845
REMARK INTRA:                  -0.599
REMARK UNBOUND:                -0.224
REMARK SMILES C=CC(=O)CCCCC
REMARK SMILES IDX 6 1 7 2 8 3 9 4 5 5 3 6 4 7 2 8 1 9
REMARK H PARENT
REMARK Flexibility Score: inf
ROOT
ATOM      1  C   UNL     1      30.743  69.743 107.378  1.00  0.00     0.008 C 
ENDROOT
BRANCH   1   2
ATOM      2  C   UNL     1      30.178  71.079 106.872  1.00  0.00     0.000 C 
BRANCH   2   3
ATOM      3  C   UNL     1      31.302  71.998 106.380  1.00  0.00    -0.003 C 
ATOM      4  C   UNL     1      32.673  71.429 106.734  1.00  0.00     0.004 C 
ENDBRANCH   2   3
ENDBRANCH   1   2
BRANCH   1   5
ATOM      5  C   UNL     1      30.105  68.538 106.676  1.00  0.00     0.080 C 
BRANCH   5   6
ATOM      6  C   UNL     1      30.979  68.004 105.577  1.00  0.00     0.155 C 
ATOM      7  O   UNL     1      31.779  67.062 105.830  1.00  0.00    -0.295 OA
BRANCH   6   8
ATOM      8  C   UNL     1      30.878  68.556 104.212  1.00  0.00     0.039 C 
ATOM      9  C   UNL     1      31.799  69.370 103.700  1.00  0.00     0.012 C 
ENDBRANCH   6   8
ENDBRANCH   5   6
ENDBRANCH   1   5
TORSDOF 5
ENDMDL
MODEL 8
REMARK VINA RESULT:    -3.228      1.990      2.776
REMARK INTER + INTRA:          -4.395
REMARK INTER:                  -3.993
REMARK INTRA:                  -0.403
REMARK UNBOUND:                -0.224
REMARK SMILES C=CC(=O)CCCCC
REMARK SMILES IDX 6 1 7 2 8 3 9 4 5 5 3 6 4 7 2 8 1 9
REMARK H PARENT
REMARK Flexibility Score: inf
ROOT
ATOM      1  C   UNL     1      30.704  71.141 105.973  1.00  0.00     0.008 C 
ENDROOT
BRANCH   1   2
ATOM      2  C   UNL     1      29.886  70.426 107.059  1.00  0.00     0.000 C 
BRANCH   2   3
ATOM      3  C   UNL     1      30.168  68.920 107.056  1.00  0.00    -0.003 C 
ATOM      4  C   UNL     1      31.372  68.583 107.932  1.00  0.00     0.004 C 
ENDBRANCH   2   3
ENDBRANCH   1   2
BRANCH   1   5
ATOM      5  C   UNL     1      31.645  72.203 106.557  1.00  0.00     0.080 C 
BRANCH   5   6
ATOM      6  C   UNL     1      33.085  71.783 106.468  1.00  0.00     0.155 C 
ATOM      7  O   UNL     1      33.916  72.253 107.292  1.00  0.00    -0.295 OA
BRANCH   6   8
ATOM      8  C   UNL     1      33.514  70.809 105.444  1.00  0.00     0.039 C 
ATOM      9  C   UNL     1      34.712  70.860 104.866  1.00  0.00     0.012 C 
ENDBRANCH   6   8
ENDBRANCH   5   6
ENDBRANCH   1   5
TORSDOF 5
ENDMDL
MODEL 9
REMARK VINA RESULT:    -3.224     12.702     14.323
REMARK INTER + INTRA:          -4.391
REMARK INTER:                  -3.978
REMARK INTRA:                  -0.413
REMARK UNBOUND:                -0.224
REMARK SMILES C=CC(=O)CCCCC
REMARK SMILES IDX 6 1 7 2 8 3 9 4 5 5 3 6 4 7 2 8 1 9
REMARK H PARENT
REMARK Flexibility Score: inf
ROOT
ATOM      1  C   UNL     1      29.468  59.704  98.474  1.00  0.00     0.008 C 
ENDROOT
BRANCH   1   2
ATOM      2  C   UNL     1      28.889  59.068  99.746  1.00  0.00     0.000 C 
BRANCH   2   3
ATOM      3  C   UNL     1      29.149  59.953 100.970  1.00  0.00    -0.003 C 
ATOM      4  C   UNL     1      28.193  59.611 102.110  1.00  0.00     0.004 C 
ENDBRANCH   2   3
ENDBRANCH   1   2
BRANCH   1   5
ATOM      5  C   UNL     1      28.443  60.579  97.741  1.00  0.00     0.080 C 
BRANCH   5   6
ATOM      6  C   UNL     1      28.843  62.028  97.740  1.00  0.00     0.155 C 
ATOM      7  O   UNL     1      28.025  62.892  97.324  1.00  0.00    -0.295 OA
BRANCH   6   8
ATOM      8  C   UNL     1      30.168  62.433  98.249  1.00  0.00     0.039 C 
ATOM      9  C   UNL     1      30.316  63.312  99.239  1.00  0.00     0.012 C 
ENDBRANCH   6   8
ENDBRANCH   5   6
ENDBRANCH   1   5
TORSDOF 5
ENDMDL
