MODEL 1
REMARK VINA RESULT:    -4.816      0.000      0.000
REMARK INTER + INTRA:         -17.169
REMARK INTER:                 -12.700
REMARK INTRA:                  -4.469
REMARK UNBOUND:                -4.469
REMARK SMILES CCCCCCCCCCCCCCCCCCCCCCCCCCCCCC(=O)[O-]
REMARK SMILES IDX 16 1 17 2 18 3 19 4 20 5 21 6 22 7 23 8 24 9 25 10 26 11
REMARK SMILES IDX 27 12 28 13 29 14 30 15 31 16 32 17 15 18 14 19 13 20 12 21
REMARK SMILES IDX 11 22 10 23 9 24 8 25 7 26 6 27 5 28 4 29 3 30 2 31 1 32
REMARK H PARENT
REMARK Flexibility Score: inf
ROOT
ATOM      1  C   UNL     1      -5.120   7.523  15.237  1.00  0.00     0.000 C 
ENDROOT
BRANCH   1   2
ATOM      2  C   UNL     1      -5.918   7.906  16.495  1.00  0.00     0.000 C 
BRANCH   2   3
ATOM      3  C   UNL     1      -6.045   6.741  17.490  1.00  0.00     0.000 C 
BRANCH   3   4
ATOM      4  C   UNL     1      -5.029   5.616  17.232  1.00  0.00     0.000 C 
BRANCH   4   5
ATOM      5  C   UNL     1      -5.673   4.249  16.925  1.00  0.00     0.000 C 
BRANCH   5   6
ATOM      6  C   UNL     1      -4.640   3.212  16.456  1.00  0.00     0.000 C 
BRANCH   6   7
ATOM      7  C   UNL     1      -3.412   3.847  15.781  1.00  0.00     0.000 C 
BRANCH   7   8
ATOM      8  C   UNL     1      -2.066   3.420  16.405  1.00  0.00     0.000 C 
BRANCH   8   9
ATOM      9  C   UNL     1      -0.931   4.401  16.075  1.00  0.00     0.000 C 
BRANCH   9  10
ATOM     10  C   UNL     1      -0.391   5.070  17.346  1.00  0.00     0.000 C 
BRANCH  10  11
ATOM     11  C   UNL     1       0.368   6.359  17.006  1.00  0.00     0.000 C 
BRANCH  11  12
ATOM     12  C   UNL     1       0.791   7.153  18.253  1.00  0.00     0.000 C 
BRANCH  12  13
ATOM     13  C   UNL     1       0.009   6.772  19.531  1.00  0.00     0.006 C 
BRANCH  13  14
ATOM     14  C   UNL     1       0.291   7.705  20.717  1.00  0.00     0.053 C 
BRANCH  14  15
ATOM     15  C   UNL     1       0.355   6.957  22.017  1.00  0.00     0.041 C 
ATOM     16  O   UNL     1       1.470   6.671  22.528  1.00  0.00    -0.550 OA
ATOM     17  O   UNL     1      -0.817   6.587  22.667  1.00  0.00    -0.550 OA
ENDBRANCH  14  15
ENDBRANCH  13  14
ENDBRANCH  12  13
ENDBRANCH  11  12
ENDBRANCH  10  11
ENDBRANCH   9  10
ENDBRANCH   8   9
ENDBRANCH   7   8
ENDBRANCH   6   7
ENDBRANCH   5   6
ENDBRANCH   4   5
ENDBRANCH   3   4
ENDBRANCH   2   3
ENDBRANCH   1   2
BRANCH   1  18
ATOM     18  C   UNL     1      -4.846   8.735  14.328  1.00  0.00     0.000 C 
BRANCH  18  19
ATOM     19  C   UNL     1      -5.754   9.932  14.643  1.00  0.00     0.000 C 
BRANCH  19  20
ATOM     20  C   UNL     1      -6.691  10.291  13.479  1.00  0.00     0.000 C 
BRANCH  20  21
ATOM     21  C   UNL     1      -7.422   9.067  12.896  1.00  0.00     0.000 C 
BRANCH  21  22
ATOM     22  C   UNL     1      -8.876   8.911  13.389  1.00  0.00     0.000 C 
BRANCH  22  23
ATOM     23  C   UNL     1      -8.998   7.892  14.536  1.00  0.00     0.000 C 
BRANCH  23  24
ATOM     24  C   UNL     1      -9.116   6.440  14.039  1.00  0.00    -0.000 C 
BRANCH  24  25
ATOM     25  C   UNL     1      -8.100   5.455  14.652  1.00  0.00    -0.000 C 
BRANCH  25  26
ATOM     26  C   UNL     1      -7.396   4.522  13.647  1.00  0.00    -0.000 C 
BRANCH  26  27
ATOM     27  C   UNL     1      -6.382   5.211  12.715  1.00  0.00    -0.000 C 
BRANCH  27  28
ATOM     28  C   UNL     1      -6.911   5.396  11.287  1.00  0.00    -0.000 C 
BRANCH  28  29
ATOM     29  C   UNL     1      -6.162   6.532  10.573  1.00  0.00    -0.000 C 
BRANCH  29  30
ATOM     30  C   UNL     1      -4.785   6.816  11.193  1.00  0.00    -0.000 C 
BRANCH  30  31
ATOM     31  C   UNL     1      -3.780   7.361  10.168  1.00  0.00    -0.003 C 
ATOM     32  C   UNL     1      -3.190   8.691  10.628  1.00  0.00     0.004 C 
ENDBRANCH  30  31
ENDBRANCH  29  30
ENDBRANCH  28  29
ENDBRANCH  27  28
ENDBRANCH  26  27
ENDBRANCH  25  26
ENDBRANCH  24  25
ENDBRANCH  23  24
ENDBRANCH  22  23
ENDBRANCH  21  22
ENDBRANCH  20  21
ENDBRANCH  19  20
ENDBRANCH  18  19
ENDBRANCH   1  18
TORSDOF 28
ENDMDL
MODEL 2
REMARK VINA RESULT:    -4.789      1.311      2.329
REMARK INTER + INTRA:         -17.097
REMARK INTER:                 -11.978
REMARK INTRA:                  -5.119
REMARK UNBOUND:                -4.469
REMARK SMILES CCCCCCCCCCCCCCCCCCCCCCCCCCCCCC(=O)[O-]
REMARK SMILES IDX 16 1 17 2 18 3 19 4 20 5 21 6 22 7 23 8 24 9 25 10 26 11
REMARK SMILES IDX 27 12 28 13 29 14 30 15 31 16 32 17 15 18 14 19 13 20 12 21
REMARK SMILES IDX 11 22 10 23 9 24 8 25 7 26 6 27 5 28 4 29 3 30 2 31 1 32
REMARK H PARENT
REMARK Flexibility Score: inf
ROOT
ATOM      1  C   UNL     1      -5.520   9.983  15.445  1.00  0.00     0.000 C 
ENDROOT
BRANCH   1   2
ATOM      2  C   UNL     1      -5.444   8.511  15.888  1.00  0.00     0.000 C 
BRANCH   2   3
ATOM      3  C   UNL     1      -6.261   8.235  17.161  1.00  0.00     0.000 C 
BRANCH   3   4
ATOM      4  C   UNL     1      -6.175   6.771  17.625  1.00  0.00     0.000 C 
BRANCH   4   5
ATOM      5  C   UNL     1      -5.224   5.902  16.778  1.00  0.00     0.000 C 
BRANCH   5   6
ATOM      6  C   UNL     1      -5.516   4.400  16.932  1.00  0.00     0.000 C 
BRANCH   6   7
ATOM      7  C   UNL     1      -4.597   3.516  16.072  1.00  0.00     0.000 C 
BRANCH   7   8
ATOM      8  C   UNL     1      -3.606   2.663  16.892  1.00  0.00     0.000 C 
BRANCH   8   9
ATOM      9  C   UNL     1      -2.141   2.976  16.549  1.00  0.00     0.000 C 
BRANCH   9  10
ATOM     10  C   UNL     1      -2.042   4.177  15.600  1.00  0.00     0.000 C 
BRANCH  10  11
ATOM     11  C   UNL     1      -1.499   5.411  16.333  1.00  0.00     0.000 C 
BRANCH  11  12
ATOM     12  C   UNL     1      -0.386   5.072  17.337  1.00  0.00     0.000 C 
BRANCH  12  13
ATOM     13  C   UNL     1       0.258   6.313  17.998  1.00  0.00     0.006 C 
BRANCH  13  14
ATOM     14  C   UNL     1      -0.184   6.526  19.453  1.00  0.00     0.053 C 
BRANCH  14  15
ATOM     15  C   UNL     1       0.621   7.594  20.133  1.00  0.00     0.041 C 
ATOM     16  O   UNL     1       0.568   8.783  19.722  1.00  0.00    -0.550 OA
ATOM     17  O   UNL     1       1.418   7.277  21.228  1.00  0.00    -0.550 OA
ENDBRANCH  14  15
ENDBRANCH  13  14
ENDBRANCH  12  13
ENDBRANCH  11  12
ENDBRANCH  10  11
ENDBRANCH   9  10
ENDBRANCH   8   9
ENDBRANCH   7   8
ENDBRANCH   6   7
ENDBRANCH   5   6
ENDBRANCH   4   5
ENDBRANCH   3   4
ENDBRANCH   2   3
ENDBRANCH   1   2
BRANCH   1  18
ATOM     18  C   UNL     1      -6.483  10.187  14.263  1.00  0.00     0.000 C 
BRANCH  18  19
ATOM     19  C   UNL     1      -6.909   8.866  13.607  1.00  0.00     0.000 C 
BRANCH  19  20
ATOM     20  C   UNL     1      -8.288   8.952  12.935  1.00  0.00     0.000 C 
BRANCH  20  21
ATOM     21  C   UNL     1      -9.337   8.036  13.594  1.00  0.00     0.000 C 
BRANCH  21  22
ATOM     22  C   UNL     1      -8.812   7.262  14.822  1.00  0.00     0.000 C 
BRANCH  22  23
ATOM     23  C   UNL     1      -8.685   5.752  14.550  1.00  0.00     0.000 C 
BRANCH  23  24
ATOM     24  C   UNL     1      -7.337   5.371  13.910  1.00  0.00    -0.000 C 
BRANCH  24  25
ATOM     25  C   UNL     1      -7.424   4.880  12.450  1.00  0.00    -0.000 C 
BRANCH  25  26
ATOM     26  C   UNL     1      -6.659   5.736  11.420  1.00  0.00    -0.000 C 
BRANCH  26  27
ATOM     27  C   UNL     1      -5.215   6.096  11.814  1.00  0.00    -0.000 C 
BRANCH  27  28
ATOM     28  C   UNL     1      -4.594   7.163  10.904  1.00  0.00    -0.000 C 
BRANCH  28  29
ATOM     29  C   UNL     1      -3.818   8.198  11.732  1.00  0.00    -0.000 C 
BRANCH  29  30
ATOM     30  C   UNL     1      -3.415   7.668  13.117  1.00  0.00    -0.000 C 
BRANCH  30  31
ATOM     31  C   UNL     1      -2.124   8.315  13.641  1.00  0.00    -0.003 C 
ATOM     32  C   UNL     1      -2.209   9.838  13.587  1.00  0.00     0.004 C 
ENDBRANCH  30  31
ENDBRANCH  29  30
ENDBRANCH  28  29
ENDBRANCH  27  28
ENDBRANCH  26  27
ENDBRANCH  25  26
ENDBRANCH  24  25
ENDBRANCH  23  24
ENDBRANCH  22  23
ENDBRANCH  21  22
ENDBRANCH  20  21
ENDBRANCH  19  20
ENDBRANCH  18  19
ENDBRANCH   1  18
TORSDOF 28
ENDMDL
MODEL 3
REMARK VINA RESULT:    -4.697      3.483      8.564
REMARK INTER + INTRA:         -16.854
REMARK INTER:                 -13.112
REMARK INTRA:                  -3.742
REMARK UNBOUND:                -4.469
REMARK SMILES CCCCCCCCCCCCCCCCCCCCCCCCCCCCCC(=O)[O-]
REMARK SMILES IDX 16 1 17 2 18 3 19 4 20 5 21 6 22 7 23 8 24 9 25 10 26 11
REMARK SMILES IDX 27 12 28 13 29 14 30 15 31 16 32 17 15 18 14 19 13 20 12 21
REMARK SMILES IDX 11 22 10 23 9 24 8 25 7 26 6 27 5 28 4 29 3 30 2 31 1 32
REMARK H PARENT
REMARK Flexibility Score: inf
ROOT
ATOM      1  C   UNL     1       1.117   9.395  16.244  1.00  0.00     0.000 C 
ENDROOT
BRANCH   1   2
ATOM      2  C   UNL     1       1.102  10.839  15.714  1.00  0.00     0.000 C 
BRANCH   2   3
ATOM      3  C   UNL     1      -0.028  11.084  14.701  1.00  0.00     0.000 C 
BRANCH   3   4
ATOM      4  C   UNL     1      -0.375   9.835  13.873  1.00  0.00     0.000 C 
BRANCH   4   5
ATOM      5  C   UNL     1      -0.396  10.079  12.351  1.00  0.00     0.000 C 
BRANCH   5   6
ATOM      6  C   UNL     1      -1.683   9.554  11.696  1.00  0.00     0.000 C 
BRANCH   6   7
ATOM      7  C   UNL     1      -2.644   8.893  12.700  1.00  0.00     0.000 C 
BRANCH   7   8
ATOM      8  C   UNL     1      -4.053   8.625  12.131  1.00  0.00     0.000 C 
BRANCH   8   9
ATOM      9  C   UNL     1      -4.182   7.218  11.527  1.00  0.00     0.000 C 
BRANCH   9  10
ATOM     10  C   UNL     1      -5.623   6.702  11.633  1.00  0.00     0.000 C 
BRANCH  10  11
ATOM     11  C   UNL     1      -5.648   5.237  12.089  1.00  0.00     0.000 C 
BRANCH  11  12
ATOM     12  C   UNL     1      -7.032   4.784  12.581  1.00  0.00     0.000 C 
BRANCH  12  13
ATOM     13  C   UNL     1      -8.007   5.951  12.862  1.00  0.00     0.006 C 
BRANCH  13  14
ATOM     14  C   UNL     1      -9.026   5.638  13.968  1.00  0.00     0.053 C 
BRANCH  14  15
ATOM     15  C   UNL     1      -9.170   6.774  14.937  1.00  0.00     0.041 C 
ATOM     16  O   UNL     1      -9.482   6.548  16.136  1.00  0.00    -0.550 OA
ATOM     17  O   UNL     1      -8.947   8.082  14.518  1.00  0.00    -0.550 OA
ENDBRANCH  14  15
ENDBRANCH  13  14
ENDBRANCH  12  13
ENDBRANCH  11  12
ENDBRANCH  10  11
ENDBRANCH   9  10
ENDBRANCH   8   9
ENDBRANCH   7   8
ENDBRANCH   6   7
ENDBRANCH   5   6
ENDBRANCH   4   5
ENDBRANCH   3   4
ENDBRANCH   2   3
ENDBRANCH   1   2
BRANCH   1  18
ATOM     18  C   UNL     1       2.392   9.082  17.048  1.00  0.00     0.000 C 
BRANCH  18  19
ATOM     19  C   UNL     1       2.178   9.179  18.565  1.00  0.00     0.000 C 
BRANCH  19  20
ATOM     20  C   UNL     1       0.747   8.816  18.989  1.00  0.00     0.000 C 
BRANCH  20  21
ATOM     21  C   UNL     1       0.694   7.642  19.985  1.00  0.00     0.000 C 
BRANCH  21  22
ATOM     22  C   UNL     1       0.009   6.376  19.428  1.00  0.00     0.000 C 
BRANCH  22  23
ATOM     23  C   UNL     1       0.253   6.196  17.919  1.00  0.00     0.000 C 
BRANCH  23  24
ATOM     24  C   UNL     1      -0.476   4.971  17.336  1.00  0.00    -0.000 C 
BRANCH  24  25
ATOM     25  C   UNL     1      -1.406   5.271  16.144  1.00  0.00    -0.000 C 
BRANCH  25  26
ATOM     26  C   UNL     1      -1.979   4.033  15.425  1.00  0.00    -0.000 C 
BRANCH  26  27
ATOM     27  C   UNL     1      -2.550   2.946  16.352  1.00  0.00    -0.000 C 
BRANCH  27  28
ATOM     28  C   UNL     1      -4.031   3.163  16.688  1.00  0.00    -0.000 C 
BRANCH  28  29
ATOM     29  C   UNL     1      -4.735   3.941  15.566  1.00  0.00    -0.000 C 
BRANCH  29  30
ATOM     30  C   UNL     1      -6.032   4.618  16.037  1.00  0.00    -0.000 C 
BRANCH  30  31
ATOM     31  C   UNL     1      -5.825   6.095  16.403  1.00  0.00    -0.003 C 
ATOM     32  C   UNL     1      -4.903   6.787  15.402  1.00  0.00     0.004 C 
ENDBRANCH  30  31
ENDBRANCH  29  30
ENDBRANCH  28  29
ENDBRANCH  27  28
ENDBRANCH  26  27
ENDBRANCH  25  26
ENDBRANCH  24  25
ENDBRANCH  23  24
ENDBRANCH  22  23
ENDBRANCH  21  22
ENDBRANCH  20  21
ENDBRANCH  19  20
ENDBRANCH  18  19
ENDBRANCH   1  18
TORSDOF 28
ENDMDL
MODEL 4
REMARK VINA RESULT:    -4.628      1.209      2.337
REMARK INTER + INTRA:         -16.674
REMARK INTER:                 -12.164
REMARK INTRA:                  -4.510
REMARK UNBOUND:                -4.469
REMARK SMILES CCCCCCCCCCCCCCCCCCCCCCCCCCCCCC(=O)[O-]
REMARK SMILES IDX 16 1 17 2 18 3 19 4 20 5 21 6 22 7 23 8 24 9 25 10 26 11
REMARK SMILES IDX 27 12 28 13 29 14 30 15 31 16 32 17 15 18 14 19 13 20 12 21
REMARK SMILES IDX 11 22 10 23 9 24 8 25 7 26 6 27 5 28 4 29 3 30 2 31 1 32
REMARK H PARENT
REMARK Flexibility Score: inf
ROOT
ATOM      1  C   UNL     1      -5.130   8.066  15.382  1.00  0.00     0.000 C 
ENDROOT
BRANCH   1   2
ATOM      2  C   UNL     1      -5.995   8.166  16.651  1.00  0.00     0.000 C 
BRANCH   2   3
ATOM      3  C   UNL     1      -5.933   6.892  17.509  1.00  0.00     0.000 C 
BRANCH   3   4
ATOM      4  C   UNL     1      -4.912   5.866  16.989  1.00  0.00     0.000 C 
BRANCH   4   5
ATOM      5  C   UNL     1      -5.475   4.436  16.855  1.00  0.00     0.000 C 
BRANCH   5   6
ATOM      6  C   UNL     1      -4.709   3.605  15.812  1.00  0.00     0.000 C 
BRANCH   6   7
ATOM      7  C   UNL     1      -3.235   4.024  15.673  1.00  0.00     0.000 C 
BRANCH   7   8
ATOM      8  C   UNL     1      -2.244   3.046  16.339  1.00  0.00     0.000 C 
BRANCH   8   9
ATOM      9  C   UNL     1      -1.032   3.766  16.949  1.00  0.00     0.000 C 
BRANCH   9  10
ATOM     10  C   UNL     1      -0.994   5.239  16.524  1.00  0.00     0.000 C 
BRANCH  10  11
ATOM     11  C   UNL     1       0.106   5.999  17.277  1.00  0.00     0.000 C 
BRANCH  11  12
ATOM     12  C   UNL     1       0.124   5.691  18.783  1.00  0.00     0.000 C 
BRANCH  12  13
ATOM     13  C   UNL     1      -0.220   6.908  19.673  1.00  0.00     0.006 C 
BRANCH  13  14
ATOM     14  C   UNL     1       0.894   7.270  20.666  1.00  0.00     0.053 C 
BRANCH  14  15
ATOM     15  C   UNL     1       0.542   6.878  22.071  1.00  0.00     0.041 C 
ATOM     16  O   UNL     1      -0.660   6.880  22.446  1.00  0.00    -0.550 OA
ATOM     17  O   UNL     1       1.541   6.500  22.962  1.00  0.00    -0.550 OA
ENDBRANCH  14  15
ENDBRANCH  13  14
ENDBRANCH  12  13
ENDBRANCH  11  12
ENDBRANCH  10  11
ENDBRANCH   9  10
ENDBRANCH   8   9
ENDBRANCH   7   8
ENDBRANCH   6   7
ENDBRANCH   5   6
ENDBRANCH   4   5
ENDBRANCH   3   4
ENDBRANCH   2   3
ENDBRANCH   1   2
BRANCH   1  18
ATOM     18  C   UNL     1      -4.770   9.449  14.812  1.00  0.00     0.000 C 
BRANCH  18  19
ATOM     19  C   UNL     1      -6.004  10.265  14.404  1.00  0.00     0.000 C 
BRANCH  19  20
ATOM     20  C   UNL     1      -5.989  10.668  12.921  1.00  0.00     0.000 C 
BRANCH  20  21
ATOM     21  C   UNL     1      -5.721   9.479  11.978  1.00  0.00     0.000 C 
BRANCH  21  22
ATOM     22  C   UNL     1      -6.865   9.198  10.981  1.00  0.00     0.000 C 
BRANCH  22  23
ATOM     23  C   UNL     1      -8.197   9.829  11.426  1.00  0.00     0.000 C 
BRANCH  23  24
ATOM     24  C   UNL     1      -9.222   8.787  11.909  1.00  0.00    -0.000 C 
BRANCH  24  25
ATOM     25  C   UNL     1      -9.708   8.973  13.361  1.00  0.00    -0.000 C 
BRANCH  25  26
ATOM     26  C   UNL     1      -9.280   7.867  14.346  1.00  0.00    -0.000 C 
BRANCH  26  27
ATOM     27  C   UNL     1      -8.044   7.055  13.920  1.00  0.00    -0.000 C 
BRANCH  27  28
ATOM     28  C   UNL     1      -8.220   5.544  14.121  1.00  0.00    -0.000 C 
BRANCH  28  29
ATOM     29  C   UNL     1      -7.126   4.766  13.374  1.00  0.00    -0.000 C 
BRANCH  29  30
ATOM     30  C   UNL     1      -6.629   5.498  12.118  1.00  0.00    -0.000 C 
BRANCH  30  31
ATOM     31  C   UNL     1      -7.180   4.883  10.822  1.00  0.00    -0.003 C 
ATOM     32  C   UNL     1      -8.051   5.882  10.065  1.00  0.00     0.004 C 
ENDBRANCH  30  31
ENDBRANCH  29  30
ENDBRANCH  28  29
ENDBRANCH  27  28
ENDBRANCH  26  27
ENDBRANCH  25  26
ENDBRANCH  24  25
ENDBRANCH  23  24
ENDBRANCH  22  23
ENDBRANCH  21  22
ENDBRANCH  20  21
ENDBRANCH  19  20
ENDBRANCH  18  19
ENDBRANCH   1  18
TORSDOF 28
ENDMDL
MODEL 5
REMARK VINA RESULT:    -4.625      2.707      8.054
REMARK INTER + INTRA:         -16.664
REMARK INTER:                 -12.662
REMARK INTRA:                  -4.001
REMARK UNBOUND:                -4.469
REMARK SMILES CCCCCCCCCCCCCCCCCCCCCCCCCCCCCC(=O)[O-]
REMARK SMILES IDX 16 1 17 2 18 3 19 4 20 5 21 6 22 7 23 8 24 9 25 10 26 11
REMARK SMILES IDX 27 12 28 13 29 14 30 15 31 16 32 17 15 18 14 19 13 20 12 21
REMARK SMILES IDX 11 22 10 23 9 24 8 25 7 26 6 27 5 28 4 29 3 30 2 31 1 32
REMARK H PARENT
REMARK Flexibility Score: inf
ROOT
ATOM      1  C   UNL     1      -0.992   4.223  16.643  1.00  0.00     0.000 C 
ENDROOT
BRANCH   1   2
ATOM      2  C   UNL     1      -2.010   4.413  15.506  1.00  0.00     0.000 C 
BRANCH   2   3
ATOM      3  C   UNL     1      -3.388   4.864  16.016  1.00  0.00     0.000 C 
BRANCH   3   4
ATOM      4  C   UNL     1      -4.316   5.353  14.891  1.00  0.00     0.000 C 
BRANCH   4   5
ATOM      5  C   UNL     1      -5.176   4.239  14.261  1.00  0.00     0.000 C 
BRANCH   5   6
ATOM      6  C   UNL     1      -6.255   4.799  13.320  1.00  0.00     0.000 C 
BRANCH   6   7
ATOM      7  C   UNL     1      -5.676   5.676  12.196  1.00  0.00     0.000 C 
BRANCH   7   8
ATOM      8  C   UNL     1      -6.748   6.289  11.269  1.00  0.00     0.000 C 
BRANCH   8   9
ATOM      9  C   UNL     1      -7.957   6.827  12.049  1.00  0.00     0.000 C 
BRANCH   9  10
ATOM     10  C   UNL     1      -7.687   8.240  12.582  1.00  0.00     0.000 C 
BRANCH  10  11
ATOM     11  C   UNL     1      -8.245   8.407  14.001  1.00  0.00     0.000 C 
BRANCH  11  12
ATOM     12  C   UNL     1      -8.945   7.141  14.523  1.00  0.00     0.000 C 
BRANCH  12  13
ATOM     13  C   UNL     1      -8.469   6.700  15.927  1.00  0.00     0.006 C 
BRANCH  13  14
ATOM     14  C   UNL     1      -7.050   7.179  16.267  1.00  0.00     0.053 C 
BRANCH  14  15
ATOM     15  C   UNL     1      -6.743   7.033  17.728  1.00  0.00     0.041 C 
ATOM     16  O   UNL     1      -7.287   7.798  18.568  1.00  0.00    -0.550 OA
ATOM     17  O   UNL     1      -5.866   6.045  18.163  1.00  0.00    -0.550 OA
ENDBRANCH  14  15
ENDBRANCH  13  14
ENDBRANCH  12  13
ENDBRANCH  11  12
ENDBRANCH  10  11
ENDBRANCH   9  10
ENDBRANCH   8   9
ENDBRANCH   7   8
ENDBRANCH   6   7
ENDBRANCH   5   6
ENDBRANCH   4   5
ENDBRANCH   3   4
ENDBRANCH   2   3
ENDBRANCH   1   2
BRANCH   1  18
ATOM     18  C   UNL     1      -0.244   5.525  16.980  1.00  0.00     0.000 C 
BRANCH  18  19
ATOM     19  C   UNL     1       0.261   5.563  18.429  1.00  0.00     0.000 C 
BRANCH  19  20
ATOM     20  C   UNL     1      -0.327   6.732  19.235  1.00  0.00     0.000 C 
BRANCH  20  21
ATOM     21  C   UNL     1       0.679   7.345  20.228  1.00  0.00     0.000 C 
BRANCH  21  22
ATOM     22  C   UNL     1       1.352   8.638  19.722  1.00  0.00     0.000 C 
BRANCH  22  23
ATOM     23  C   UNL     1       0.933   8.992  18.284  1.00  0.00     0.000 C 
BRANCH  23  24
ATOM     24  C   UNL     1       2.122   9.031  17.306  1.00  0.00    -0.000 C 
BRANCH  24  25
ATOM     25  C   UNL     1       2.238  10.322  16.471  1.00  0.00    -0.000 C 
BRANCH  25  26
ATOM     26  C   UNL     1       0.951  10.752  15.739  1.00  0.00    -0.000 C 
BRANCH  26  27
ATOM     27  C   UNL     1       0.455   9.772  14.660  1.00  0.00    -0.000 C 
BRANCH  27  28
ATOM     28  C   UNL     1      -0.988  10.049  14.217  1.00  0.00    -0.000 C 
BRANCH  28  29
ATOM     29  C   UNL     1      -1.371   9.155  13.028  1.00  0.00    -0.000 C 
BRANCH  29  30
ATOM     30  C   UNL     1      -2.523   8.191  13.358  1.00  0.00    -0.000 C 
BRANCH  30  31
ATOM     31  C   UNL     1      -3.903   8.815  13.099  1.00  0.00    -0.003 C 
ATOM     32  C   UNL     1      -4.642   9.080  14.408  1.00  0.00     0.004 C 
ENDBRANCH  30  31
ENDBRANCH  29  30
ENDBRANCH  28  29
ENDBRANCH  27  28
ENDBRANCH  26  27
ENDBRANCH  25  26
ENDBRANCH  24  25
ENDBRANCH  23  24
ENDBRANCH  22  23
ENDBRANCH  21  22
ENDBRANCH  20  21
ENDBRANCH  19  20
ENDBRANCH  18  19
ENDBRANCH   1  18
TORSDOF 28
ENDMDL
MODEL 6
REMARK VINA RESULT:    -4.614      1.543      3.513
REMARK INTER + INTRA:         -16.637
REMARK INTER:                 -13.025
REMARK INTRA:                  -3.612
REMARK UNBOUND:                -4.469
REMARK SMILES CCCCCCCCCCCCCCCCCCCCCCCCCCCCCC(=O)[O-]
REMARK SMILES IDX 16 1 17 2 18 3 19 4 20 5 21 6 22 7 23 8 24 9 25 10 26 11
REMARK SMILES IDX 27 12 28 13 29 14 30 15 31 16 32 17 15 18 14 19 13 20 12 21
REMARK SMILES IDX 11 22 10 23 9 24 8 25 7 26 6 27 5 28 4 29 3 30 2 31 1 32
REMARK H PARENT
REMARK Flexibility Score: inf
ROOT
ATOM      1  C   UNL     1      -5.160   4.639  16.582  1.00  0.00     0.000 C 
ENDROOT
BRANCH   1   2
ATOM      2  C   UNL     1      -4.191   3.521  16.163  1.00  0.00     0.000 C 
BRANCH   2   3
ATOM      3  C   UNL     1      -2.896   4.066  15.538  1.00  0.00     0.000 C 
BRANCH   3   4
ATOM      4  C   UNL     1      -1.627   3.439  16.140  1.00  0.00     0.000 C 
BRANCH   4   5
ATOM      5  C   UNL     1      -0.935   4.322  17.198  1.00  0.00     0.000 C 
BRANCH   5   6
ATOM      6  C   UNL     1      -0.523   5.691  16.633  1.00  0.00     0.000 C 
BRANCH   6   7
ATOM      7  C   UNL     1       0.613   6.355  17.430  1.00  0.00     0.000 C 
BRANCH   7   8
ATOM      8  C   UNL     1       1.543   7.239  16.572  1.00  0.00     0.000 C 
BRANCH   8   9
ATOM      9  C   UNL     1       1.632   8.679  17.099  1.00  0.00     0.000 C 
BRANCH   9  10
ATOM     10  C   UNL     1       1.002   8.796  18.493  1.00  0.00     0.000 C 
BRANCH  10  11
ATOM     11  C   UNL     1       2.078   9.026  19.562  1.00  0.00     0.000 C 
BRANCH  11  12
ATOM     12  C   UNL     1       1.780   8.297  20.882  1.00  0.00     0.000 C 
BRANCH  12  13
ATOM     13  C   UNL     1       0.984   6.983  20.703  1.00  0.00     0.006 C 
BRANCH  13  14
ATOM     14  C   UNL     1      -0.406   7.021  21.356  1.00  0.00     0.053 C 
BRANCH  14  15
ATOM     15  C   UNL     1      -0.349   6.679  22.816  1.00  0.00     0.041 C 
ATOM     16  O   UNL     1      -1.388   6.754  23.524  1.00  0.00    -0.550 OA
ATOM     17  O   UNL     1       0.848   6.266  23.391  1.00  0.00    -0.550 OA
ENDBRANCH  14  15
ENDBRANCH  13  14
ENDBRANCH  12  13
ENDBRANCH  11  12
ENDBRANCH  10  11
ENDBRANCH   9  10
ENDBRANCH   8   9
ENDBRANCH   7   8
ENDBRANCH   6   7
ENDBRANCH   5   6
ENDBRANCH   4   5
ENDBRANCH   3   4
ENDBRANCH   2   3
ENDBRANCH   1   2
BRANCH   1  18
ATOM     18  C   UNL     1      -4.523   6.036  16.472  1.00  0.00     0.000 C 
BRANCH  18  19
ATOM     19  C   UNL     1      -5.544   7.130  16.128  1.00  0.00     0.000 C 
BRANCH  19  20
ATOM     20  C   UNL     1      -6.783   7.094  17.035  1.00  0.00     0.000 C 
BRANCH  20  21
ATOM     21  C   UNL     1      -8.086   6.814  16.263  1.00  0.00     0.000 C 
BRANCH  21  22
ATOM     22  C   UNL     1      -7.891   6.646  14.741  1.00  0.00     0.000 C 
BRANCH  22  23
ATOM     23  C   UNL     1      -8.345   5.262  14.244  1.00  0.00     0.000 C 
BRANCH  23  24
ATOM     24  C   UNL     1      -7.549   4.775  13.019  1.00  0.00    -0.000 C 
BRANCH  24  25
ATOM     25  C   UNL     1      -6.017   4.788  13.189  1.00  0.00    -0.000 C 
BRANCH  25  26
ATOM     26  C   UNL     1      -5.236   5.521  12.080  1.00  0.00    -0.000 C 
BRANCH  26  27
ATOM     27  C   UNL     1      -6.032   6.601  11.326  1.00  0.00    -0.000 C 
BRANCH  27  28
ATOM     28  C   UNL     1      -5.284   7.155  10.106  1.00  0.00    -0.000 C 
BRANCH  28  29
ATOM     29  C   UNL     1      -3.848   7.547  10.481  1.00  0.00    -0.000 C 
BRANCH  29  30
ATOM     30  C   UNL     1      -3.791   8.552  11.643  1.00  0.00    -0.000 C 
BRANCH  30  31
ATOM     31  C   UNL     1      -2.458   8.495  12.404  1.00  0.00    -0.003 C 
ATOM     32  C   UNL     1      -2.639   7.872  13.786  1.00  0.00     0.004 C 
ENDBRANCH  30  31
ENDBRANCH  29  30
ENDBRANCH  28  29
ENDBRANCH  27  28
ENDBRANCH  26  27
ENDBRANCH  25  26
ENDBRANCH  24  25
ENDBRANCH  23  24
ENDBRANCH  22  23
ENDBRANCH  21  22
ENDBRANCH  20  21
ENDBRANCH  19  20
ENDBRANCH  18  19
ENDBRANCH   1  18
TORSDOF 28
ENDMDL
MODEL 7
REMARK VINA RESULT:    -4.590      2.818      8.451
REMARK INTER + INTRA:         -16.573
REMARK INTER:                 -13.046
REMARK INTRA:                  -3.527
REMARK UNBOUND:                -4.469
REMARK SMILES CCCCCCCCCCCCCCCCCCCCCCCCCCCCCC(=O)[O-]
REMARK SMILES IDX 16 1 17 2 18 3 19 4 20 5 21 6 22 7 23 8 24 9 25 10 26 11
REMARK SMILES IDX 27 12 28 13 29 14 30 15 31 16 32 17 15 18 14 19 13 20 12 21
REMARK SMILES IDX 11 22 10 23 9 24 8 25 7 26 6 27 5 28 4 29 3 30 2 31 1 32
REMARK H PARENT
REMARK Flexibility Score: inf
ROOT
ATOM      1  C   UNL     1      -6.006   8.474  15.212  1.00  0.00     0.000 C 
ENDROOT
BRANCH   1   2
ATOM      2  C   UNL     1      -6.118   7.719  16.548  1.00  0.00     0.000 C 
BRANCH   2   3
ATOM      3  C   UNL     1      -7.377   6.839  16.624  1.00  0.00     0.000 C 
BRANCH   3   4
ATOM      4  C   UNL     1      -8.535   7.370  15.762  1.00  0.00     0.000 C 
BRANCH   4   5
ATOM      5  C   UNL     1      -8.939   6.429  14.609  1.00  0.00     0.000 C 
BRANCH   5   6
ATOM      6  C   UNL     1      -9.638   7.180  13.464  1.00  0.00     0.000 C 
BRANCH   6   7
ATOM      7  C   UNL     1      -9.293   6.616  12.075  1.00  0.00     0.000 C 
BRANCH   7   8
ATOM      8  C   UNL     1      -8.494   7.593  11.186  1.00  0.00     0.000 C 
BRANCH   8   9
ATOM      9  C   UNL     1      -7.141   7.974  11.805  1.00  0.00     0.000 C 
BRANCH   9  10
ATOM     10  C   UNL     1      -5.990   7.226  11.120  1.00  0.00     0.000 C 
BRANCH  10  11
ATOM     11  C   UNL     1      -5.273   6.299  12.111  1.00  0.00     0.000 C 
BRANCH  11  12
ATOM     12  C   UNL     1      -6.108   5.066  12.493  1.00  0.00     0.000 C 
BRANCH  12  13
ATOM     13  C   UNL     1      -5.837   4.548  13.924  1.00  0.00     0.006 C 
BRANCH  13  14
ATOM     14  C   UNL     1      -4.496   5.027  14.500  1.00  0.00     0.053 C 
BRANCH  14  15
ATOM     15  C   UNL     1      -4.170   4.352  15.800  1.00  0.00     0.041 C 
ATOM     16  O   UNL     1      -5.055   3.697  16.412  1.00  0.00    -0.550 OA
ATOM     17  O   UNL     1      -2.886   4.436  16.328  1.00  0.00    -0.550 OA
ENDBRANCH  14  15
ENDBRANCH  13  14
ENDBRANCH  12  13
ENDBRANCH  11  12
ENDBRANCH  10  11
ENDBRANCH   9  10
ENDBRANCH   8   9
ENDBRANCH   7   8
ENDBRANCH   6   7
ENDBRANCH   5   6
ENDBRANCH   4   5
ENDBRANCH   3   4
ENDBRANCH   2   3
ENDBRANCH   1   2
BRANCH   1  18
ATOM     18  C   UNL     1      -4.858   9.500  15.217  1.00  0.00     0.000 C 
BRANCH  18  19
ATOM     19  C   UNL     1      -3.913   9.341  14.017  1.00  0.00     0.000 C 
BRANCH  19  20
ATOM     20  C   UNL     1      -2.766  10.364  14.023  1.00  0.00     0.000 C 
BRANCH  20  21
ATOM     21  C   UNL     1      -1.413   9.751  13.617  1.00  0.00     0.000 C 
BRANCH  21  22
ATOM     22  C   UNL     1      -0.193  10.621  13.988  1.00  0.00     0.000 C 
BRANCH  22  23
ATOM     23  C   UNL     1       0.052  10.666  15.507  1.00  0.00     0.000 C 
BRANCH  23  24
ATOM     24  C   UNL     1       1.527  10.921  15.868  1.00  0.00    -0.000 C 
BRANCH  24  25
ATOM     25  C   UNL     1       2.189   9.823  16.725  1.00  0.00    -0.000 C 
BRANCH  25  26
ATOM     26  C   UNL     1       1.294   8.610  17.051  1.00  0.00    -0.000 C 
BRANCH  26  27
ATOM     27  C   UNL     1       1.128   8.305  18.550  1.00  0.00    -0.000 C 
BRANCH  27  28
ATOM     28  C   UNL     1       0.376   6.994  18.816  1.00  0.00    -0.000 C 
BRANCH  28  29
ATOM     29  C   UNL     1      -0.032   6.892  20.293  1.00  0.00    -0.000 C 
BRANCH  29  30
ATOM     30  C   UNL     1       1.119   7.238  21.252  1.00  0.00    -0.000 C 
BRANCH  30  31
ATOM     31  C   UNL     1       0.921   6.634  22.650  1.00  0.00    -0.003 C 
ATOM     32  C   UNL     1      -0.529   6.770  23.109  1.00  0.00     0.004 C 
ENDBRANCH  30  31
ENDBRANCH  29  30
ENDBRANCH  28  29
ENDBRANCH  27  28
ENDBRANCH  26  27
ENDBRANCH  25  26
ENDBRANCH  24  25
ENDBRANCH  23  24
ENDBRANCH  22  23
ENDBRANCH  21  22
ENDBRANCH  20  21
ENDBRANCH  19  20
ENDBRANCH  18  19
ENDBRANCH   1  18
TORSDOF 28
ENDMDL
MODEL 8
REMARK VINA RESULT:    -4.524      2.755      7.082
REMARK INTER + INTRA:         -16.398
REMARK INTER:                 -13.217
REMARK INTRA:                  -3.181
REMARK UNBOUND:                -4.469
REMARK SMILES CCCCCCCCCCCCCCCCCCCCCCCCCCCCCC(=O)[O-]
REMARK SMILES IDX 16 1 17 2 18 3 19 4 20 5 21 6 22 7 23 8 24 9 25 10 26 11
REMARK SMILES IDX 27 12 28 13 29 14 30 15 31 16 32 17 15 18 14 19 13 20 12 21
REMARK SMILES IDX 11 22 10 23 9 24 8 25 7 26 6 27 5 28 4 29 3 30 2 31 1 32
REMARK H PARENT
REMARK Flexibility Score: inf
ROOT
ATOM      1  C   UNL     1       0.764   7.304  20.017  1.00  0.00     0.000 C 
ENDROOT
BRANCH   1   2
ATOM      2  C   UNL     1      -0.383   6.609  19.263  1.00  0.00     0.000 C 
BRANCH   2   3
ATOM      3  C   UNL     1       0.110   5.461  18.367  1.00  0.00     0.000 C 
BRANCH   3   4
ATOM      4  C   UNL     1      -0.618   5.401  17.013  1.00  0.00     0.000 C 
BRANCH   4   5
ATOM      5  C   UNL     1      -1.115   3.991  16.633  1.00  0.00     0.000 C 
BRANCH   5   6
ATOM      6  C   UNL     1      -2.276   4.037  15.626  1.00  0.00     0.000 C 
BRANCH   6   7
ATOM      7  C   UNL     1      -2.669   5.469  15.225  1.00  0.00     0.000 C 
BRANCH   7   8
ATOM      8  C   UNL     1      -4.148   5.615  14.806  1.00  0.00     0.000 C 
BRANCH   8   9
ATOM      9  C   UNL     1      -4.644   4.418  13.981  1.00  0.00     0.000 C 
BRANCH   9  10
ATOM     10  C   UNL     1      -6.069   4.656  13.464  1.00  0.00     0.000 C 
BRANCH  10  11
ATOM     11  C   UNL     1      -7.074   4.678  14.623  1.00  0.00     0.000 C 
BRANCH  11  12
ATOM     12  C   UNL     1      -8.093   5.825  14.513  1.00  0.00     0.000 C 
BRANCH  12  13
ATOM     13  C   UNL     1      -8.307   6.598  15.834  1.00  0.00     0.006 C 
BRANCH  13  14
ATOM     14  C   UNL     1      -7.066   7.379  16.290  1.00  0.00     0.053 C 
BRANCH  14  15
ATOM     15  C   UNL     1      -6.632   6.986  17.672  1.00  0.00     0.041 C 
ATOM     16  O   UNL     1      -7.173   7.514  18.679  1.00  0.00    -0.550 OA
ATOM     17  O   UNL     1      -5.639   6.028  17.846  1.00  0.00    -0.550 OA
ENDBRANCH  14  15
ENDBRANCH  13  14
ENDBRANCH  12  13
ENDBRANCH  11  12
ENDBRANCH  10  11
ENDBRANCH   9  10
ENDBRANCH   8   9
ENDBRANCH   7   8
ENDBRANCH   6   7
ENDBRANCH   5   6
ENDBRANCH   4   5
ENDBRANCH   3   4
ENDBRANCH   2   3
ENDBRANCH   1   2
BRANCH   1  18
ATOM     18  C   UNL     1       1.180   8.629  19.353  1.00  0.00     0.000 C 
BRANCH  18  19
ATOM     19  C   UNL     1       1.127   8.569  17.820  1.00  0.00     0.000 C 
BRANCH  19  20
ATOM     20  C   UNL     1       2.316   9.279  17.155  1.00  0.00     0.000 C 
BRANCH  20  21
ATOM     21  C   UNL     1       1.884  10.381  16.170  1.00  0.00     0.000 C 
BRANCH  21  22
ATOM     22  C   UNL     1       0.372  10.387  15.858  1.00  0.00     0.000 C 
BRANCH  22  23
ATOM     23  C   UNL     1       0.075  10.839  14.417  1.00  0.00     0.000 C 
BRANCH  23  24
ATOM     24  C   UNL     1      -0.491   9.708  13.539  1.00  0.00    -0.000 C 
BRANCH  24  25
ATOM     25  C   UNL     1      -0.292   9.897  12.021  1.00  0.00    -0.000 C 
BRANCH  25  26
ATOM     26  C   UNL     1      -1.581   9.856  11.176  1.00  0.00    -0.000 C 
BRANCH  26  27
ATOM     27  C   UNL     1      -2.647   8.857  11.659  1.00  0.00    -0.000 C 
BRANCH  27  28
ATOM     28  C   UNL     1      -3.480   8.267  10.513  1.00  0.00    -0.000 C 
BRANCH  28  29
ATOM     29  C   UNL     1      -4.224   7.006  10.975  1.00  0.00    -0.000 C 
BRANCH  29  30
ATOM     30  C   UNL     1      -5.736   7.078  10.709  1.00  0.00    -0.000 C 
BRANCH  30  31
ATOM     31  C   UNL     1      -6.380   8.333  11.316  1.00  0.00    -0.003 C 
ATOM     32  C   UNL     1      -6.192   8.373  12.830  1.00  0.00     0.004 C 
ENDBRANCH  30  31
ENDBRANCH  29  30
ENDBRANCH  28  29
ENDBRANCH  27  28
ENDBRANCH  26  27
ENDBRANCH  25  26
ENDBRANCH  24  25
ENDBRANCH  23  24
ENDBRANCH  22  23
ENDBRANCH  21  22
ENDBRANCH  20  21
ENDBRANCH  19  20
ENDBRANCH  18  19
ENDBRANCH   1  18
TORSDOF 28
ENDMDL
MODEL 9
REMARK VINA RESULT:    -4.523      2.886      7.304
REMARK INTER + INTRA:         -16.395
REMARK INTER:                 -12.343
REMARK INTRA:                  -4.051
REMARK UNBOUND:                -4.469
REMARK SMILES CCCCCCCCCCCCCCCCCCCCCCCCCCCCCC(=O)[O-]
REMARK SMILES IDX 16 1 17 2 18 3 19 4 20 5 21 6 22 7 23 8 24 9 25 10 26 11
REMARK SMILES IDX 27 12 28 13 29 14 30 15 31 16 32 17 15 18 14 19 13 20 12 21
REMARK SMILES IDX 11 22 10 23 9 24 8 25 7 26 6 27 5 28 4 29 3 30 2 31 1 32
REMARK H PARENT
REMARK Flexibility Score: inf
ROOT
ATOM      1  C   UNL     1       1.927   8.875  18.156  1.00  0.00     0.000 C 
ENDROOT
BRANCH   1   2
ATOM      2  C   UNL     1       1.553   8.950  16.666  1.00  0.00     0.000 C 
BRANCH   2   3
ATOM      3  C   UNL     1       1.728  10.362  16.084  1.00  0.00     0.000 C 
BRANCH   3   4
ATOM      4  C   UNL     1       0.458  10.891  15.396  1.00  0.00     0.000 C 
BRANCH   4   5
ATOM      5  C   UNL     1      -0.218   9.868  14.460  1.00  0.00     0.000 C 
BRANCH   5   6
ATOM      6  C   UNL     1      -1.380  10.486  13.665  1.00  0.00     0.000 C 
BRANCH   6   7
ATOM      7  C   UNL     1      -1.311  10.178  12.160  1.00  0.00     0.000 C 
BRANCH   7   8
ATOM      8  C   UNL     1      -2.693  10.100  11.476  1.00  0.00     0.000 C 
BRANCH   8   9
ATOM      9  C   UNL     1      -3.017   8.684  10.973  1.00  0.00     0.000 C 
BRANCH   9  10
ATOM     10  C   UNL     1      -3.642   7.833  12.086  1.00  0.00     0.000 C 
BRANCH  10  11
ATOM     11  C   UNL     1      -4.573   8.679  12.965  1.00  0.00     0.000 C 
BRANCH  11  12
ATOM     12  C   UNL     1      -4.537   8.269  14.446  1.00  0.00     0.000 C 
BRANCH  12  13
ATOM     13  C   UNL     1      -5.935   8.022  15.059  1.00  0.00     0.006 C 
BRANCH  13  14
ATOM     14  C   UNL     1      -5.995   8.298  16.569  1.00  0.00     0.053 C 
BRANCH  14  15
ATOM     15  C   UNL     1      -7.064   7.492  17.245  1.00  0.00     0.041 C 
ATOM     16  O   UNL     1      -8.037   7.047  16.580  1.00  0.00    -0.550 OA
ATOM     17  O   UNL     1      -6.981   7.224  18.607  1.00  0.00    -0.550 OA
ENDBRANCH  14  15
ENDBRANCH  13  14
ENDBRANCH  12  13
ENDBRANCH  11  12
ENDBRANCH  10  11
ENDBRANCH   9  10
ENDBRANCH   8   9
ENDBRANCH   7   8
ENDBRANCH   6   7
ENDBRANCH   5   6
ENDBRANCH   4   5
ENDBRANCH   3   4
ENDBRANCH   2   3
ENDBRANCH   1   2
BRANCH   1  18
ATOM     18  C   UNL     1       0.708   8.583  19.049  1.00  0.00     0.000 C 
BRANCH  18  19
ATOM     19  C   UNL     1       0.724   7.163  19.632  1.00  0.00     0.000 C 
BRANCH  19  20
ATOM     20  C   UNL     1      -0.366   6.261  19.033  1.00  0.00     0.000 C 
BRANCH  20  21
ATOM     21  C   UNL     1      -0.000   5.722  17.638  1.00  0.00     0.000 C 
BRANCH  21  22
ATOM     22  C   UNL     1      -0.744   4.427  17.249  1.00  0.00     0.000 C 
BRANCH  22  23
ATOM     23  C   UNL     1      -1.188   4.427  15.775  1.00  0.00     0.000 C 
BRANCH  23  24
ATOM     24  C   UNL     1      -2.194   5.546  15.453  1.00  0.00    -0.000 C 
BRANCH  24  25
ATOM     25  C   UNL     1      -3.638   5.282  15.926  1.00  0.00    -0.000 C 
BRANCH  25  26
ATOM     26  C   UNL     1      -4.324   4.052  15.299  1.00  0.00    -0.000 C 
BRANCH  26  27
ATOM     27  C   UNL     1      -5.292   4.362  14.144  1.00  0.00    -0.000 C 
BRANCH  27  28
ATOM     28  C   UNL     1      -6.745   4.530  14.608  1.00  0.00    -0.000 C 
BRANCH  28  29
ATOM     29  C   UNL     1      -7.659   4.869  13.421  1.00  0.00    -0.000 C 
BRANCH  29  30
ATOM     30  C   UNL     1      -6.884   5.043  12.106  1.00  0.00    -0.000 C 
BRANCH  30  31
ATOM     31  C   UNL     1      -7.110   6.422  11.468  1.00  0.00    -0.003 C 
ATOM     32  C   UNL     1      -6.420   6.520  10.110  1.00  0.00     0.004 C 
ENDBRANCH  30  31
ENDBRANCH  29  30
ENDBRANCH  28  29
ENDBRANCH  27  28
ENDBRANCH  26  27
ENDBRANCH  25  26
ENDBRANCH  24  25
ENDBRANCH  23  24
ENDBRANCH  22  23
ENDBRANCH  21  22
ENDBRANCH  20  21
ENDBRANCH  19  20
ENDBRANCH  18  19
ENDBRANCH   1  18
TORSDOF 28
ENDMDL
