MODEL 1
REMARK VINA RESULT:    -2.934      0.000      0.000
REMARK INTER + INTRA:          -5.238
REMARK INTER:                  -4.220
REMARK INTRA:                  -1.018
REMARK UNBOUND:                -1.018
REMARK SMILES O=C(CO)[C@H](O)[C@H](O)[C@@H](O)CO
REMARK SMILES IDX 7 1 9 2 11 3 12 4 10 6 5 8 2 9 1 10 3 11 4 12 6 14 8 16
REMARK H PARENT 12 5 10 7 4 13 6 15 8 17
REMARK Flexibility Score: inf
ROOT
ATOM      1  C   UNL     1      45.637  26.873  -5.146  1.00  0.00     0.181 C 
ENDROOT
BRANCH   1   2
ATOM      2  C   UNL     1      46.901  27.583  -4.594  1.00  0.00     0.171 C 
BRANCH   2   3
ATOM      3  C   UNL     1      46.889  27.668  -3.058  1.00  0.00     0.190 C 
BRANCH   3   4
ATOM      4  O   UNL     1      46.002  28.663  -2.621  1.00  0.00    -0.394 OA
ATOM      5  H   UNL     1      45.721  28.419  -1.701  1.00  0.00     0.210 HD
ENDBRANCH   3   4
ENDBRANCH   2   3
BRANCH   2   6
ATOM      6  O   UNL     1      46.986  28.881  -5.125  1.00  0.00    -0.388 OA
ATOM      7  H   UNL     1      46.985  28.790  -6.113  1.00  0.00     0.211 HD
ENDBRANCH   2   6
ENDBRANCH   1   2
BRANCH   1   8
ATOM      8  C   UNL     1      44.815  27.781  -6.098  1.00  0.00     0.214 C 
BRANCH   8   9
ATOM      9  C   UNL     1      43.729  28.553  -5.380  1.00  0.00     0.189 C 
ATOM     10  O   UNL     1      44.045  29.394  -4.551  1.00  0.00    -0.294 OA
BRANCH   9  11
ATOM     11  C   UNL     1      42.268  28.295  -5.636  1.00  0.00     0.234 C 
BRANCH  11  12
ATOM     12  O   UNL     1      41.588  29.506  -5.824  1.00  0.00    -0.388 OA
ATOM     13  H   UNL     1      41.055  29.665  -5.001  1.00  0.00     0.211 HD
ENDBRANCH  11  12
ENDBRANCH   9  11
ENDBRANCH   8   9
BRANCH   8  14
ATOM     14  O   UNL     1      44.231  27.007  -7.115  1.00  0.00    -0.382 OA
ATOM     15  H   UNL     1      44.400  26.055  -6.889  1.00  0.00     0.211 HD
ENDBRANCH   8  14
ENDBRANCH   1   8
BRANCH   1  16
ATOM     16  O   UNL     1      44.825  26.422  -4.090  1.00  0.00    -0.387 OA
ATOM     17  H   UNL     1      44.375  27.219  -3.705  1.00  0.00     0.211 HD
ENDBRANCH   1  16
TORSDOF 10
ENDMDL
MODEL 2
REMARK VINA RESULT:    -2.921      1.330      4.206
REMARK INTER + INTRA:          -5.219
REMARK INTER:                  -4.719
REMARK INTRA:                  -0.500
REMARK UNBOUND:                -1.018
REMARK SMILES O=C(CO)[C@H](O)[C@H](O)[C@@H](O)CO
REMARK SMILES IDX 7 1 9 2 11 3 12 4 10 6 5 8 2 9 1 10 3 11 4 12 6 14 8 16
REMARK H PARENT 12 5 10 7 4 13 6 15 8 17
REMARK Flexibility Score: inf
ROOT
ATOM      1  C   UNL     1      44.620  27.702  -4.762  1.00  0.00     0.181 C 
ENDROOT
BRANCH   1   2
ATOM      2  C   UNL     1      44.201  28.030  -6.219  1.00  0.00     0.171 C 
BRANCH   2   3
ATOM      3  C   UNL     1      42.804  28.671  -6.286  1.00  0.00     0.190 C 
BRANCH   3   4
ATOM      4  O   UNL     1      41.977  28.171  -5.269  1.00  0.00    -0.394 OA
ATOM      5  H   UNL     1      41.349  27.529  -5.694  1.00  0.00     0.210 HD
ENDBRANCH   3   4
ENDBRANCH   2   3
BRANCH   2   6
ATOM      6  O   UNL     1      44.203  26.854  -6.989  1.00  0.00    -0.388 OA
ATOM      7  H   UNL     1      44.643  27.074  -7.851  1.00  0.00     0.211 HD
ENDBRANCH   2   6
ENDBRANCH   1   2
BRANCH   1   8
ATOM      8  C   UNL     1      46.038  28.227  -4.420  1.00  0.00     0.214 C 
BRANCH   8   9
ATOM      9  C   UNL     1      46.528  27.760  -3.067  1.00  0.00     0.189 C 
ATOM     10  O   UNL     1      47.115  26.691  -2.982  1.00  0.00    -0.294 OA
BRANCH   9  11
ATOM     11  C   UNL     1      46.285  28.559  -1.814  1.00  0.00     0.234 C 
BRANCH  11  12
ATOM     12  O   UNL     1      45.905  27.711  -0.765  1.00  0.00    -0.388 OA
ATOM     13  H   UNL     1      45.203  28.189  -0.250  1.00  0.00     0.211 HD
ENDBRANCH  11  12
ENDBRANCH   9  11
ENDBRANCH   8   9
BRANCH   8  14
ATOM     14  O   UNL     1      46.052  29.632  -4.453  1.00  0.00    -0.382 OA
ATOM     15  H   UNL     1      46.260  29.899  -5.386  1.00  0.00     0.211 HD
ENDBRANCH   8  14
ENDBRANCH   1   8
BRANCH   1  16
ATOM     16  O   UNL     1      44.551  26.317  -4.530  1.00  0.00    -0.387 OA
ATOM     17  H   UNL     1      44.795  25.864  -5.379  1.00  0.00     0.211 HD
ENDBRANCH   1  16
TORSDOF 10
ENDMDL
MODEL 3
REMARK VINA RESULT:    -2.899      7.097      8.385
REMARK INTER + INTRA:          -5.188
REMARK INTER:                  -4.044
REMARK INTRA:                  -1.144
REMARK UNBOUND:                -1.018
REMARK SMILES O=C(CO)[C@H](O)[C@H](O)[C@@H](O)CO
REMARK SMILES IDX 7 1 9 2 11 3 12 4 10 6 5 8 2 9 1 10 3 11 4 12 6 14 8 16
REMARK H PARENT 12 5 10 7 4 13 6 15 8 17
REMARK Flexibility Score: inf
ROOT
ATOM      1  C   UNL     1      46.560  27.865   3.067  1.00  0.00     0.181 C 
ENDROOT
BRANCH   1   2
ATOM      2  C   UNL     1      46.982  26.913   4.217  1.00  0.00     0.171 C 
BRANCH   2   3
ATOM      3  C   UNL     1      46.699  25.439   3.877  1.00  0.00     0.190 C 
BRANCH   3   4
ATOM      4  O   UNL     1      45.328  25.232   3.662  1.00  0.00    -0.394 OA
ATOM      5  H   UNL     1      44.855  26.035   4.004  1.00  0.00     0.210 HD
ENDBRANCH   3   4
ENDBRANCH   2   3
BRANCH   2   6
ATOM      6  O   UNL     1      46.292  27.254   5.393  1.00  0.00    -0.388 OA
ATOM      7  H   UNL     1      45.349  26.971   5.267  1.00  0.00     0.211 HD
ENDBRANCH   2   6
ENDBRANCH   1   2
BRANCH   1   8
ATOM      8  C   UNL     1      45.249  28.630   3.381  1.00  0.00     0.214 C 
BRANCH   8   9
ATOM      9  C   UNL     1      44.298  28.673   2.205  1.00  0.00     0.189 C 
ATOM     10  O   UNL     1      44.455  29.526   1.343  1.00  0.00    -0.294 OA
BRANCH   9  11
ATOM     11  C   UNL     1      43.143  27.715   2.080  1.00  0.00     0.234 C 
BRANCH  11  12
ATOM     12  O   UNL     1      43.564  26.528   1.465  1.00  0.00    -0.388 OA
ATOM     13  H   UNL     1      43.748  25.878   2.193  1.00  0.00     0.211 HD
ENDBRANCH  11  12
ENDBRANCH   9  11
ENDBRANCH   8   9
BRANCH   8  14
ATOM     14  O   UNL     1      45.543  29.944   3.782  1.00  0.00    -0.382 OA
ATOM     15  H   UNL     1      45.777  30.452   2.962  1.00  0.00     0.211 HD
ENDBRANCH   8  14
ENDBRANCH   1   8
BRANCH   1  16
ATOM     16  O   UNL     1      46.426  27.152   1.862  1.00  0.00    -0.387 OA
ATOM     17  H   UNL     1      46.279  27.819   1.141  1.00  0.00     0.211 HD
ENDBRANCH   1  16
TORSDOF 10
ENDMDL
MODEL 4
REMARK VINA RESULT:    -2.801      7.282      9.164
REMARK INTER + INTRA:          -5.046
REMARK INTER:                  -4.141
REMARK INTRA:                  -0.906
REMARK UNBOUND:                -1.018
REMARK SMILES O=C(CO)[C@H](O)[C@H](O)[C@@H](O)CO
REMARK SMILES IDX 7 1 9 2 11 3 12 4 10 6 5 8 2 9 1 10 3 11 4 12 6 14 8 16
REMARK H PARENT 12 5 10 7 4 13 6 15 8 17
REMARK Flexibility Score: inf
ROOT
ATOM      1  C   UNL     1      44.079  27.539   2.624  1.00  0.00     0.181 C 
ENDROOT
BRANCH   1   2
ATOM      2  C   UNL     1      43.658  29.030   2.532  1.00  0.00     0.171 C 
BRANCH   2   3
ATOM      3  C   UNL     1      42.129  29.195   2.496  1.00  0.00     0.190 C 
BRANCH   3   4
ATOM      4  O   UNL     1      41.491  27.949   2.575  1.00  0.00    -0.394 OA
ATOM      5  H   UNL     1      40.683  27.998   2.000  1.00  0.00     0.210 HD
ENDBRANCH   3   4
ENDBRANCH   2   3
BRANCH   2   6
ATOM      6  O   UNL     1      44.210  29.608   1.376  1.00  0.00    -0.388 OA
ATOM      7  H   UNL     1      43.700  29.251   0.603  1.00  0.00     0.211 HD
ENDBRANCH   2   6
ENDBRANCH   1   2
BRANCH   1   8
ATOM      8  C   UNL     1      45.578  27.367   2.976  1.00  0.00     0.214 C 
BRANCH   8   9
ATOM      9  C   UNL     1      45.842  26.159   3.849  1.00  0.00     0.189 C 
ATOM     10  O   UNL     1      45.226  25.124   3.636  1.00  0.00    -0.294 OA
BRANCH   9  11
ATOM     11  C   UNL     1      46.820  26.203   4.994  1.00  0.00     0.234 C 
BRANCH  11  12
ATOM     12  O   UNL     1      46.241  26.840   6.099  1.00  0.00    -0.388 OA
ATOM     13  H   UNL     1      46.967  27.345   6.551  1.00  0.00     0.211 HD
ENDBRANCH  11  12
ENDBRANCH   9  11
ENDBRANCH   8   9
BRANCH   8  14
ATOM     14  O   UNL     1      46.055  28.517   3.629  1.00  0.00    -0.382 OA
ATOM     15  H   UNL     1      46.700  28.953   3.014  1.00  0.00     0.211 HD
ENDBRANCH   8  14
ENDBRANCH   1   8
BRANCH   1  16
ATOM     16  O   UNL     1      43.786  26.870   1.422  1.00  0.00    -0.387 OA
ATOM     17  H   UNL     1      42.843  27.078   1.193  1.00  0.00     0.211 HD
ENDBRANCH   1  16
TORSDOF 10
ENDMDL
MODEL 5
REMARK VINA RESULT:    -2.757      7.289      8.516
REMARK INTER + INTRA:          -4.984
REMARK INTER:                  -4.027
REMARK INTRA:                  -0.957
REMARK UNBOUND:                -1.018
REMARK SMILES O=C(CO)[C@H](O)[C@H](O)[C@@H](O)CO
REMARK SMILES IDX 7 1 9 2 11 3 12 4 10 6 5 8 2 9 1 10 3 11 4 12 6 14 8 16
REMARK H PARENT 12 5 10 7 4 13 6 15 8 17
REMARK Flexibility Score: inf
ROOT
ATOM      1  C   UNL     1      45.743  27.075   3.134  1.00  0.00     0.181 C 
ENDROOT
BRANCH   1   2
ATOM      2  C   UNL     1      46.755  27.528   4.220  1.00  0.00     0.171 C 
BRANCH   2   3
ATOM      3  C   UNL     1      47.017  26.424   5.259  1.00  0.00     0.190 C 
BRANCH   3   4
ATOM      4  O   UNL     1      46.079  26.488   6.300  1.00  0.00    -0.394 OA
ATOM      5  H   UNL     1      45.733  27.418   6.324  1.00  0.00     0.210 HD
ENDBRANCH   3   4
ENDBRANCH   2   3
BRANCH   2   6
ATOM      6  O   UNL     1      46.266  28.670   4.876  1.00  0.00    -0.388 OA
ATOM      7  H   UNL     1      46.987  28.988   5.480  1.00  0.00     0.211 HD
ENDBRANCH   2   6
ENDBRANCH   1   2
BRANCH   1   8
ATOM      8  C   UNL     1      44.593  28.095   2.933  1.00  0.00     0.214 C 
BRANCH   8   9
ATOM      9  C   UNL     1      43.420  27.515   2.172  1.00  0.00     0.189 C 
ATOM     10  O   UNL     1      43.627  26.669   1.313  1.00  0.00    -0.294 OA
BRANCH   9  11
ATOM     11  C   UNL     1      42.007  27.973   2.419  1.00  0.00     0.234 C 
BRANCH  11  12
ATOM     12  O   UNL     1      41.969  29.366   2.563  1.00  0.00    -0.388 OA
ATOM     13  H   UNL     1      41.774  29.741   1.664  1.00  0.00     0.211 HD
ENDBRANCH  11  12
ENDBRANCH   9  11
ENDBRANCH   8   9
BRANCH   8  14
ATOM     14  O   UNL     1      45.068  29.228   2.251  1.00  0.00    -0.382 OA
ATOM     15  H   UNL     1      45.277  29.913   2.937  1.00  0.00     0.211 HD
ENDBRANCH   8  14
ENDBRANCH   1   8
BRANCH   1  16
ATOM     16  O   UNL     1      45.217  25.810   3.449  1.00  0.00    -0.387 OA
ATOM     17  H   UNL     1      44.498  25.619   2.791  1.00  0.00     0.211 HD
ENDBRANCH   1  16
TORSDOF 10
ENDMDL
MODEL 6
REMARK VINA RESULT:    -2.717      6.621      9.208
REMARK INTER + INTRA:          -4.926
REMARK INTER:                  -3.865
REMARK INTRA:                  -1.062
REMARK UNBOUND:                -1.018
REMARK SMILES O=C(CO)[C@H](O)[C@H](O)[C@@H](O)CO
REMARK SMILES IDX 7 1 9 2 11 3 12 4 10 6 5 8 2 9 1 10 3 11 4 12 6 14 8 16
REMARK H PARENT 12 5 10 7 4 13 6 15 8 17
REMARK Flexibility Score: inf
ROOT
ATOM      1  C   UNL     1      44.826  27.588   3.137  1.00  0.00     0.181 C 
ENDROOT
BRANCH   1   2
ATOM      2  C   UNL     1      44.486  28.632   2.040  1.00  0.00     0.171 C 
BRANCH   2   3
ATOM      3  C   UNL     1      45.418  28.512   0.822  1.00  0.00     0.190 C 
BRANCH   3   4
ATOM      4  O   UNL     1      45.201  27.303   0.145  1.00  0.00    -0.394 OA
ATOM      5  H   UNL     1      44.460  27.458  -0.497  1.00  0.00     0.210 HD
ENDBRANCH   3   4
ENDBRANCH   2   3
BRANCH   2   6
ATOM      6  O   UNL     1      44.588  29.929   2.571  1.00  0.00    -0.388 OA
ATOM      7  H   UNL     1      45.359  29.925   3.196  1.00  0.00     0.211 HD
ENDBRANCH   2   6
ENDBRANCH   1   2
BRANCH   1   8
ATOM      8  C   UNL     1      46.346  27.512   3.431  1.00  0.00     0.214 C 
BRANCH   8   9
ATOM      9  C   UNL     1      46.749  26.223   4.115  1.00  0.00     0.189 C 
ATOM     10  O   UNL     1      46.743  25.182   3.475  1.00  0.00    -0.294 OA
BRANCH   9  11
ATOM     11  C   UNL     1      47.125  26.181   5.573  1.00  0.00     0.234 C 
BRANCH  11  12
ATOM     12  O   UNL     1      46.072  26.669   6.358  1.00  0.00    -0.388 OA
ATOM     13  H   UNL     1      46.235  27.640   6.484  1.00  0.00     0.211 HD
ENDBRANCH  11  12
ENDBRANCH   9  11
ENDBRANCH   8   9
BRANCH   8  14
ATOM     14  O   UNL     1      46.736  28.598   4.233  1.00  0.00    -0.382 OA
ATOM     15  H   UNL     1      46.641  29.416   3.679  1.00  0.00     0.211 HD
ENDBRANCH   8  14
ENDBRANCH   1   8
BRANCH   1  16
ATOM     16  O   UNL     1      44.341  26.319   2.776  1.00  0.00    -0.387 OA
ATOM     17  H   UNL     1      44.768  26.076   1.912  1.00  0.00     0.211 HD
ENDBRANCH   1  16
TORSDOF 10
ENDMDL
MODEL 7
REMARK VINA RESULT:    -2.698      5.576      8.001
REMARK INTER + INTRA:          -4.898
REMARK INTER:                  -3.688
REMARK INTRA:                  -1.210
REMARK UNBOUND:                -1.018
REMARK SMILES O=C(CO)[C@H](O)[C@H](O)[C@@H](O)CO
REMARK SMILES IDX 7 1 9 2 11 3 12 4 10 6 5 8 2 9 1 10 3 11 4 12 6 14 8 16
REMARK H PARENT 12 5 10 7 4 13 6 15 8 17
REMARK Flexibility Score: inf
ROOT
ATOM      1  C   UNL     1      45.657  27.789   1.330  1.00  0.00     0.181 C 
ENDROOT
BRANCH   1   2
ATOM      2  C   UNL     1      45.628  29.232   0.760  1.00  0.00     0.171 C 
BRANCH   2   3
ATOM      3  C   UNL     1      46.104  29.282  -0.702  1.00  0.00     0.190 C 
BRANCH   3   4
ATOM      4  O   UNL     1      46.318  27.989  -1.202  1.00  0.00    -0.394 OA
ATOM      5  H   UNL     1      45.508  27.739  -1.719  1.00  0.00     0.210 HD
ENDBRANCH   3   4
ENDBRANCH   2   3
BRANCH   2   6
ATOM      6  O   UNL     1      46.448  30.066   1.539  1.00  0.00    -0.388 OA
ATOM      7  H   UNL     1      47.383  29.903   1.250  1.00  0.00     0.211 HD
ENDBRANCH   2   6
ENDBRANCH   1   2
BRANCH   1   8
ATOM      8  C   UNL     1      44.831  27.650   2.634  1.00  0.00     0.214 C 
BRANCH   8   9
ATOM      9  C   UNL     1      45.697  27.552   3.871  1.00  0.00     0.189 C 
ATOM     10  O   UNL     1      46.281  28.550   4.270  1.00  0.00    -0.294 OA
BRANCH   9  11
ATOM     11  C   UNL     1      45.888  26.253   4.608  1.00  0.00     0.234 C 
BRANCH  11  12
ATOM     12  O   UNL     1      46.270  25.243   3.715  1.00  0.00    -0.388 OA
ATOM     13  H   UNL     1      46.040  25.564   2.804  1.00  0.00     0.211 HD
ENDBRANCH  11  12
ENDBRANCH   9  11
ENDBRANCH   8   9
BRANCH   8  14
ATOM     14  O   UNL     1      44.005  26.515   2.562  1.00  0.00    -0.382 OA
ATOM     15  H   UNL     1      43.091  26.805   2.821  1.00  0.00     0.211 HD
ENDBRANCH   8  14
ENDBRANCH   1   8
BRANCH   1  16
ATOM     16  O   UNL     1      46.982  27.374   1.552  1.00  0.00    -0.387 OA
ATOM     17  H   UNL     1      47.469  28.145   1.944  1.00  0.00     0.211 HD
ENDBRANCH   1  16
TORSDOF 10
ENDMDL
MODEL 8
REMARK VINA RESULT:    -2.661      7.411      9.845
REMARK INTER + INTRA:          -4.846
REMARK INTER:                  -3.951
REMARK INTRA:                  -0.895
REMARK UNBOUND:                -1.018
REMARK SMILES O=C(CO)[C@H](O)[C@H](O)[C@@H](O)CO
REMARK SMILES IDX 7 1 9 2 11 3 12 4 10 6 5 8 2 9 1 10 3 11 4 12 6 14 8 16
REMARK H PARENT 12 5 10 7 4 13 6 15 8 17
REMARK Flexibility Score: inf
ROOT
ATOM      1  C   UNL     1      45.268  27.010   3.715  1.00  0.00     0.181 C 
ENDROOT
BRANCH   1   2
ATOM      2  C   UNL     1      44.988  27.781   2.398  1.00  0.00     0.171 C 
BRANCH   2   3
ATOM      3  C   UNL     1      43.542  27.581   1.911  1.00  0.00     0.190 C 
BRANCH   3   4
ATOM      4  O   UNL     1      43.437  26.424   1.124  1.00  0.00    -0.394 OA
ATOM      5  H   UNL     1      42.895  25.771   1.639  1.00  0.00     0.210 HD
ENDBRANCH   3   4
ENDBRANCH   2   3
BRANCH   2   6
ATOM      6  O   UNL     1      45.874  27.347   1.397  1.00  0.00    -0.388 OA
ATOM      7  H   UNL     1      45.805  27.996   0.650  1.00  0.00     0.211 HD
ENDBRANCH   2   6
ENDBRANCH   1   2
BRANCH   1   8
ATOM      8  C   UNL     1      46.612  27.423   4.369  1.00  0.00     0.214 C 
BRANCH   8   9
ATOM      9  C   UNL     1      46.561  27.400   5.882  1.00  0.00     0.189 C 
ATOM     10  O   UNL     1      46.154  26.397   6.449  1.00  0.00    -0.294 OA
BRANCH   9  11
ATOM     11  C   UNL     1      46.968  28.591   6.709  1.00  0.00     0.234 C 
BRANCH  11  12
ATOM     12  O   UNL     1      45.971  29.574   6.664  1.00  0.00    -0.388 OA
ATOM     13  H   UNL     1      46.128  30.104   5.839  1.00  0.00     0.211 HD
ENDBRANCH  11  12
ENDBRANCH   9  11
ENDBRANCH   8   9
BRANCH   8  14
ATOM     14  O   UNL     1      46.979  28.711   3.942  1.00  0.00    -0.382 OA
ATOM     15  H   UNL     1      47.969  28.758   3.980  1.00  0.00     0.211 HD
ENDBRANCH   8  14
ENDBRANCH   1   8
BRANCH   1  16
ATOM     16  O   UNL     1      45.250  25.623   3.487  1.00  0.00    -0.387 OA
ATOM     17  H   UNL     1      46.184  25.345   3.293  1.00  0.00     0.211 HD
ENDBRANCH   1  16
TORSDOF 10
ENDMDL
MODEL 9
REMARK VINA RESULT:    -2.496      7.007      9.433
REMARK INTER + INTRA:          -4.608
REMARK INTER:                  -3.826
REMARK INTRA:                  -0.782
REMARK UNBOUND:                -1.018
REMARK SMILES O=C(CO)[C@H](O)[C@H](O)[C@@H](O)CO
REMARK SMILES IDX 7 1 9 2 11 3 12 4 10 6 5 8 2 9 1 10 3 11 4 12 6 14 8 16
REMARK H PARENT 12 5 10 7 4 13 6 15 8 17
REMARK Flexibility Score: inf
ROOT
ATOM      1  C   UNL     1      45.406  28.465   2.763  1.00  0.00     0.181 C 
ENDROOT
BRANCH   1   2
ATOM      2  C   UNL     1      44.503  28.121   1.550  1.00  0.00     0.171 C 
BRANCH   2   3
ATOM      3  C   UNL     1      43.222  27.384   1.976  1.00  0.00     0.190 C 
BRANCH   3   4
ATOM      4  O   UNL     1      42.272  28.286   2.478  1.00  0.00    -0.394 OA
ATOM      5  H   UNL     1      42.741  28.872   3.127  1.00  0.00     0.210 HD
ENDBRANCH   3   4
ENDBRANCH   2   3
BRANCH   2   6
ATOM      6  O   UNL     1      45.215  27.317   0.642  1.00  0.00    -0.388 OA
ATOM      7  H   UNL     1      45.390  26.453   1.097  1.00  0.00     0.211 HD
ENDBRANCH   2   6
ENDBRANCH   1   2
BRANCH   1   8
ATOM      8  C   UNL     1      45.635  27.249   3.697  1.00  0.00     0.214 C 
BRANCH   8   9
ATOM      9  C   UNL     1      46.415  27.604   4.944  1.00  0.00     0.189 C 
ATOM     10  O   UNL     1      47.125  28.600   4.940  1.00  0.00    -0.294 OA
BRANCH   9  11
ATOM     11  C   UNL     1      46.367  26.748   6.182  1.00  0.00     0.234 C 
BRANCH  11  12
ATOM     12  O   UNL     1      46.045  27.531   7.299  1.00  0.00    -0.388 OA
ATOM     13  H   UNL     1      46.609  28.347   7.249  1.00  0.00     0.211 HD
ENDBRANCH  11  12
ENDBRANCH   9  11
ENDBRANCH   8   9
BRANCH   8  14
ATOM     14  O   UNL     1      46.315  26.232   3.004  1.00  0.00    -0.382 OA
ATOM     15  H   UNL     1      46.324  26.490   2.046  1.00  0.00     0.211 HD
ENDBRANCH   8  14
ENDBRANCH   1   8
BRANCH   1  16
ATOM     16  O   UNL     1      44.862  29.537   3.493  1.00  0.00    -0.387 OA
ATOM     17  H   UNL     1      44.417  30.140   2.841  1.00  0.00     0.211 HD
ENDBRANCH   1  16
TORSDOF 10
ENDMDL
