MODEL 1
REMARK VINA RESULT:    -3.589      0.000      0.000
REMARK INTER + INTRA:          -4.898
REMARK INTER:                  -4.638
REMARK INTRA:                  -0.260
REMARK UNBOUND:                -0.260
REMARK SMILES CCCCCCC(=O)[O-]
REMARK SMILES IDX 5 1 6 2 7 3 8 4 9 5 4 6 3 7 2 8 1 9
REMARK H PARENT
REMARK Flexibility Score: inf
ROOT
ATOM      1  C   UNL     1     174.183 174.035 151.239  1.00  0.00     0.006 C 
ENDROOT
BRANCH   1   2
ATOM      2  C   UNL     1     175.450 174.286 152.068  1.00  0.00     0.053 C 
BRANCH   2   3
ATOM      3  C   UNL     1     175.293 173.816 153.481  1.00  0.00     0.041 C 
ATOM      4  O   UNL     1     174.762 174.567 154.342  1.00  0.00    -0.550 OA
ATOM      5  O   UNL     1     175.763 172.563 153.855  1.00  0.00    -0.550 OA
ENDBRANCH   2   3
ENDBRANCH   1   2
BRANCH   1   6
ATOM      6  C   UNL     1     174.461 173.182 149.993  1.00  0.00     0.000 C 
BRANCH   6   7
ATOM      7  C   UNL     1     173.838 171.786 150.134  1.00  0.00    -0.000 C 
BRANCH   7   8
ATOM      8  C   UNL     1     174.735 170.815 150.917  1.00  0.00    -0.003 C 
ATOM      9  C   UNL     1     175.758 170.107 150.028  1.00  0.00     0.004 C 
ENDBRANCH   7   8
ENDBRANCH   6   7
ENDBRANCH   1   6
TORSDOF 5
ENDMDL
MODEL 2
REMARK VINA RESULT:    -3.572      1.959      3.821
REMARK INTER + INTRA:          -4.877
REMARK INTER:                  -4.466
REMARK INTRA:                  -0.411
REMARK UNBOUND:                -0.260
REMARK SMILES CCCCCCC(=O)[O-]
REMARK SMILES IDX 5 1 6 2 7 3 8 4 9 5 4 6 3 7 2 8 1 9
REMARK H PARENT
REMARK Flexibility Score: inf
ROOT
ATOM      1  C   UNL     1     173.402 172.302 150.511  1.00  0.00     0.006 C 
ENDROOT
BRANCH   1   2
ATOM      2  C   UNL     1     173.797 170.871 150.124  1.00  0.00     0.053 C 
BRANCH   2   3
ATOM      3  C   UNL     1     175.132 170.491 150.686  1.00  0.00     0.041 C 
ATOM      4  O   UNL     1     175.370 170.647 151.912  1.00  0.00    -0.550 OA
ATOM      5  O   UNL     1     176.125 169.996 149.849  1.00  0.00    -0.550 OA
ENDBRANCH   2   3
ENDBRANCH   1   2
BRANCH   1   6
ATOM      6  C   UNL     1     174.198 173.357 149.728  1.00  0.00     0.000 C 
BRANCH   6   7
ATOM      7  C   UNL     1     175.028 174.233 150.677  1.00  0.00    -0.000 C 
BRANCH   7   8
ATOM      8  C   UNL     1     174.547 174.147 152.134  1.00  0.00    -0.003 C 
ATOM      9  C   UNL     1     175.700 174.060 153.134  1.00  0.00     0.004 C 
ENDBRANCH   7   8
ENDBRANCH   6   7
ENDBRANCH   1   6
TORSDOF 5
ENDMDL
MODEL 3
REMARK VINA RESULT:    -3.536      0.595      1.370
REMARK INTER + INTRA:          -4.829
REMARK INTER:                  -4.506
REMARK INTRA:                  -0.323
REMARK UNBOUND:                -0.260
REMARK SMILES CCCCCCC(=O)[O-]
REMARK SMILES IDX 5 1 6 2 7 3 8 4 9 5 4 6 3 7 2 8 1 9
REMARK H PARENT
REMARK Flexibility Score: inf
ROOT
ATOM      1  C   UNL     1     173.571 174.170 151.734  1.00  0.00     0.006 C 
ENDROOT
BRANCH   1   2
ATOM      2  C   UNL     1     175.043 174.232 152.163  1.00  0.00     0.053 C 
BRANCH   2   3
ATOM      3  C   UNL     1     175.229 173.778 153.578  1.00  0.00     0.041 C 
ATOM      4  O   UNL     1     175.828 172.698 153.823  1.00  0.00    -0.550 OA
ATOM      5  O   UNL     1     174.712 174.532 154.625  1.00  0.00    -0.550 OA
ENDBRANCH   2   3
ENDBRANCH   1   2
BRANCH   1   6
ATOM      6  C   UNL     1     173.411 173.771 150.259  1.00  0.00     0.000 C 
BRANCH   6   7
ATOM      7  C   UNL     1     174.475 172.742 149.850  1.00  0.00    -0.000 C 
BRANCH   7   8
ATOM      8  C   UNL     1     174.047 171.298 150.154  1.00  0.00    -0.003 C 
ATOM      9  C   UNL     1     175.112 170.515 150.922  1.00  0.00     0.004 C 
ENDBRANCH   7   8
ENDBRANCH   6   7
ENDBRANCH   1   6
TORSDOF 5
ENDMDL
MODEL 4
REMARK VINA RESULT:    -3.519      1.651      3.015
REMARK INTER + INTRA:          -4.807
REMARK INTER:                  -4.455
REMARK INTRA:                  -0.352
REMARK UNBOUND:                -0.260
REMARK SMILES CCCCCCC(=O)[O-]
REMARK SMILES IDX 5 1 6 2 7 3 8 4 9 5 4 6 3 7 2 8 1 9
REMARK H PARENT
REMARK Flexibility Score: inf
ROOT
ATOM      1  C   UNL     1     174.675 173.179 150.338  1.00  0.00     0.006 C 
ENDROOT
BRANCH   1   2
ATOM      2  C   UNL     1     175.151 174.236 151.344  1.00  0.00     0.053 C 
BRANCH   2   3
ATOM      3  C   UNL     1     175.163 173.706 152.744  1.00  0.00     0.041 C 
ATOM      4  O   UNL     1     175.292 172.470 152.953  1.00  0.00    -0.550 OA
ATOM      5  O   UNL     1     174.997 174.572 153.818  1.00  0.00    -0.550 OA
ENDBRANCH   2   3
ENDBRANCH   1   2
BRANCH   1   6
ATOM      6  C   UNL     1     173.279 173.495 149.780  1.00  0.00     0.000 C 
BRANCH   6   7
ATOM      7  C   UNL     1     172.204 172.650 150.479  1.00  0.00    -0.000 C 
BRANCH   7   8
ATOM      8  C   UNL     1     171.291 173.489 151.386  1.00  0.00    -0.003 C 
ATOM      9  C   UNL     1     171.514 174.993 151.222  1.00  0.00     0.004 C 
ENDBRANCH   7   8
ENDBRANCH   6   7
ENDBRANCH   1   6
TORSDOF 5
ENDMDL
MODEL 5
REMARK VINA RESULT:    -3.504      1.839      3.833
REMARK INTER + INTRA:          -4.788
REMARK INTER:                  -4.441
REMARK INTRA:                  -0.347
REMARK UNBOUND:                -0.260
REMARK SMILES CCCCCCC(=O)[O-]
REMARK SMILES IDX 5 1 6 2 7 3 8 4 9 5 4 6 3 7 2 8 1 9
REMARK H PARENT
REMARK Flexibility Score: inf
ROOT
ATOM      1  C   UNL     1     173.829 172.065 150.240  1.00  0.00     0.006 C 
ENDROOT
BRANCH   1   2
ATOM      2  C   UNL     1     175.000 171.082 150.108  1.00  0.00     0.053 C 
BRANCH   2   3
ATOM      3  C   UNL     1     175.108 170.183 151.301  1.00  0.00     0.041 C 
ATOM      4  O   UNL     1     175.168 168.934 151.149  1.00  0.00    -0.550 OA
ATOM      5  O   UNL     1     175.108 170.721 152.582  1.00  0.00    -0.550 OA
ENDBRANCH   2   3
ENDBRANCH   1   2
BRANCH   1   6
ATOM      6  C   UNL     1     174.179 173.462 149.706  1.00  0.00     0.000 C 
BRANCH   6   7
ATOM      7  C   UNL     1     175.083 174.215 150.692  1.00  0.00    -0.000 C 
BRANCH   7   8
ATOM      8  C   UNL     1     174.533 174.201 152.127  1.00  0.00    -0.003 C 
ATOM      9  C   UNL     1     175.638 174.164 153.183  1.00  0.00     0.004 C 
ENDBRANCH   7   8
ENDBRANCH   6   7
ENDBRANCH   1   6
TORSDOF 5
ENDMDL
MODEL 6
REMARK VINA RESULT:    -3.320      2.264      2.768
REMARK INTER + INTRA:          -4.551
REMARK INTER:                  -4.315
REMARK INTRA:                  -0.235
REMARK UNBOUND:                -0.260
REMARK SMILES CCCCCCC(=O)[O-]
REMARK SMILES IDX 5 1 6 2 7 3 8 4 9 5 4 6 3 7 2 8 1 9
REMARK H PARENT
REMARK Flexibility Score: inf
ROOT
ATOM      1  C   UNL     1     173.609 173.512 149.735  1.00  0.00     0.006 C 
ENDROOT
BRANCH   1   2
ATOM      2  C   UNL     1     172.279 173.391 150.491  1.00  0.00     0.053 C 
BRANCH   2   3
ATOM      3  C   UNL     1     172.102 174.497 151.485  1.00  0.00     0.041 C 
ATOM      4  O   UNL     1     171.310 175.446 151.242  1.00  0.00    -0.550 OA
ATOM      5  O   UNL     1     172.836 174.498 152.665  1.00  0.00    -0.550 OA
ENDBRANCH   2   3
ENDBRANCH   1   2
BRANCH   1   6
ATOM      6  C   UNL     1     174.625 172.446 150.172  1.00  0.00     0.000 C 
BRANCH   6   7
ATOM      7  C   UNL     1     173.913 171.195 150.705  1.00  0.00    -0.000 C 
BRANCH   7   8
ATOM      8  C   UNL     1     174.860 169.995 150.854  1.00  0.00    -0.003 C 
ATOM      9  C   UNL     1     176.014 170.023 149.851  1.00  0.00     0.004 C 
ENDBRANCH   7   8
ENDBRANCH   6   7
ENDBRANCH   1   6
TORSDOF 5
ENDMDL
MODEL 7
REMARK VINA RESULT:    -3.317      2.831      4.221
REMARK INTER + INTRA:          -4.547
REMARK INTER:                  -4.308
REMARK INTRA:                  -0.239
REMARK UNBOUND:                -0.260
REMARK SMILES CCCCCCC(=O)[O-]
REMARK SMILES IDX 5 1 6 2 7 3 8 4 9 5 4 6 3 7 2 8 1 9
REMARK H PARENT
REMARK Flexibility Score: inf
ROOT
ATOM      1  C   UNL     1     174.847 171.374 150.105  1.00  0.00     0.006 C 
ENDROOT
BRANCH   1   2
ATOM      2  C   UNL     1     174.883 170.747 151.505  1.00  0.00     0.053 C 
BRANCH   2   3
ATOM      3  C   UNL     1     175.288 169.306 151.459  1.00  0.00     0.041 C 
ATOM      4  O   UNL     1     176.002 168.820 152.375  1.00  0.00    -0.550 OA
ATOM      5  O   UNL     1     174.906 168.509 150.387  1.00  0.00    -0.550 OA
ENDBRANCH   2   3
ENDBRANCH   1   2
BRANCH   1   6
ATOM      6  C   UNL     1     174.618 172.892 150.152  1.00  0.00     0.000 C 
BRANCH   6   7
ATOM      7  C   UNL     1     173.163 173.238 149.805  1.00  0.00    -0.000 C 
BRANCH   7   8
ATOM      8  C   UNL     1     172.517 174.176 150.836  1.00  0.00    -0.003 C 
ATOM      9  C   UNL     1     173.183 174.094 152.210  1.00  0.00     0.004 C 
ENDBRANCH   7   8
ENDBRANCH   6   7
ENDBRANCH   1   6
TORSDOF 5
ENDMDL
MODEL 8
REMARK VINA RESULT:    -3.311     11.521     13.144
REMARK INTER + INTRA:          -4.540
REMARK INTER:                  -4.201
REMARK INTRA:                  -0.338
REMARK UNBOUND:                -0.260
REMARK SMILES CCCCCCC(=O)[O-]
REMARK SMILES IDX 5 1 6 2 7 3 8 4 9 5 4 6 3 7 2 8 1 9
REMARK H PARENT
REMARK Flexibility Score: inf
ROOT
ATOM      1  C   UNL     1     175.020 159.638 150.058  1.00  0.00     0.006 C 
ENDROOT
BRANCH   1   2
ATOM      2  C   UNL     1     173.537 159.642 150.451  1.00  0.00     0.053 C 
BRANCH   2   3
ATOM      3  C   UNL     1     173.249 158.661 151.545  1.00  0.00     0.041 C 
ATOM      4  O   UNL     1     173.750 158.823 152.689  1.00  0.00    -0.550 OA
ATOM      5  O   UNL     1     172.454 157.550 151.293  1.00  0.00    -0.550 OA
ENDBRANCH   2   3
ENDBRANCH   1   2
BRANCH   1   6
ATOM      6  C   UNL     1     175.526 161.039 149.684  1.00  0.00     0.000 C 
BRANCH   6   7
ATOM      7  C   UNL     1     174.952 162.102 150.631  1.00  0.00    -0.000 C 
BRANCH   7   8
ATOM      8  C   UNL     1     175.949 162.522 151.722  1.00  0.00    -0.003 C 
ATOM      9  C   UNL     1     175.696 161.820 153.057  1.00  0.00     0.004 C 
ENDBRANCH   7   8
ENDBRANCH   6   7
ENDBRANCH   1   6
TORSDOF 5
ENDMDL
MODEL 9
REMARK VINA RESULT:    -3.291      1.536      2.431
REMARK INTER + INTRA:          -4.514
REMARK INTER:                  -4.102
REMARK INTRA:                  -0.412
REMARK UNBOUND:                -0.260
REMARK SMILES CCCCCCC(=O)[O-]
REMARK SMILES IDX 5 1 6 2 7 3 8 4 9 5 4 6 3 7 2 8 1 9
REMARK H PARENT
REMARK Flexibility Score: inf
ROOT
ATOM      1  C   UNL     1     174.168 171.694 152.555  1.00  0.00     0.006 C 
ENDROOT
BRANCH   1   2
ATOM      2  C   UNL     1     175.028 172.664 153.375  1.00  0.00     0.053 C 
BRANCH   2   3
ATOM      3  C   UNL     1     174.258 173.880 153.786  1.00  0.00     0.041 C 
ATOM      4  O   UNL     1     173.227 174.222 153.148  1.00  0.00    -0.550 OA
ATOM      5  O   UNL     1     174.696 174.655 154.853  1.00  0.00    -0.550 OA
ENDBRANCH   2   3
ENDBRANCH   1   2
BRANCH   1   6
ATOM      6  C   UNL     1     174.642 171.583 151.099  1.00  0.00     0.000 C 
BRANCH   6   7
ATOM      7  C   UNL     1     173.542 172.033 150.128  1.00  0.00    -0.000 C 
BRANCH   7   8
ATOM      8  C   UNL     1     173.655 173.519 149.755  1.00  0.00    -0.003 C 
ATOM      9  C   UNL     1     175.078 174.059 149.900  1.00  0.00     0.004 C 
ENDBRANCH   7   8
ENDBRANCH   6   7
ENDBRANCH   1   6
TORSDOF 5
ENDMDL
