MODEL 1
REMARK VINA RESULT:    -4.168      0.000      0.000
REMARK INTER + INTRA:          -5.315
REMARK INTER:                  -5.874
REMARK INTRA:                   0.559
REMARK UNBOUND:                 0.559
REMARK SMILES CC1=CCC(=C(C)C)C(=O)CC(C)=CCC1
REMARK SMILES IDX 12 1 14 2 13 3 15 4 16 5 2 6 1 7 3 8 11 10 9 11 10 12 5 13
REMARK SMILES IDX 6 14 7 15 8 16 4 17
REMARK H PARENT
REMARK Flexibility Score: 60.00
ROOT
ATOM      1  C   UNL     1     212.708 204.993 217.498  1.00  0.00    -0.070 C 
ATOM      2  C   UNL     1     212.544 206.260 217.052  1.00  0.00    -0.027 C 
ATOM      3  C   UNL     1     211.751 204.501 218.556  1.00  0.00     0.039 C 
ENDROOT
BRANCH   2   4
ATOM      4  C   UNL     1     213.443 206.989 216.081  1.00  0.00     0.032 C 
BRANCH   4   5
ATOM      5  C   UNL     1     213.055 206.738 214.611  1.00  0.00     0.034 C 
BRANCH   5   6
ATOM      6  C   UNL     1     214.151 206.028 213.843  1.00  0.00    -0.077 C 
ATOM      7  C   UNL     1     215.366 206.820 213.432  1.00  0.00     0.039 C 
ATOM      8  C   UNL     1     214.116 204.714 213.526  1.00  0.00    -0.023 CG0
ATOM      9  G   UNL     1     213.008 203.751 213.880  1.00  0.00     0.000 G0
ENDBRANCH   5   6
ENDBRANCH   4   5
ENDBRANCH   2   4
BRANCH   1  10
ATOM     10  C   UNL     1     213.831 204.075 217.043  1.00  0.00     0.111 C 
BRANCH  10  11
ATOM     11  C   UNL     1     213.300 202.882 216.288  1.00  0.00     0.163 C 
ATOM     12  O   UNL     1     212.570 202.062 216.909  1.00  0.00    -0.294 OA
BRANCH  11  13
ATOM     13  C   UNL     1     213.573 202.682 214.831  1.00  0.00    -0.002 C 
ATOM     14  C   UNL     1     214.338 201.642 214.378  1.00  0.00    -0.069 C 
ATOM     15  C   UNL     1     214.577 201.425 212.899  1.00  0.00     0.039 C 
ATOM     16  C   UNL     1     215.011 200.681 215.331  1.00  0.00     0.039 C 
BRANCH  13  17
ATOM     17  C   UNL     1     213.025 203.727 213.876  1.00  0.00     0.066 CG0
ATOM     18  G   UNL     1     214.108 204.718 213.523  1.00  0.00     0.000 G0
ENDBRANCH  13  17
ENDBRANCH  11  13
ENDBRANCH  10  11
ENDBRANCH   1  10
TORSDOF 0
ENDMDL
MODEL 2
REMARK VINA RESULT:    -4.129     14.173     15.819
REMARK INTER + INTRA:          -5.260
REMARK INTER:                  -5.948
REMARK INTRA:                   0.688
REMARK UNBOUND:                 0.559
REMARK SMILES CC1=CCC(=C(C)C)C(=O)CC(C)=CCC1
REMARK SMILES IDX 12 1 14 2 13 3 15 4 16 5 2 6 1 7 3 8 11 10 9 11 10 12 5 13
REMARK SMILES IDX 6 14 7 15 8 16 4 17
REMARK H PARENT
REMARK Flexibility Score: 60.00
ROOT
ATOM      1  C   UNL     1     199.589 207.697 217.516  1.00  0.00    -0.070 C 
ATOM      2  C   UNL     1     199.563 206.546 216.803  1.00  0.00    -0.027 C 
ATOM      3  C   UNL     1     200.694 207.860 218.530  1.00  0.00     0.039 C 
ENDROOT
BRANCH   2   4
ATOM      4  C   UNL     1     198.496 206.128 215.819  1.00  0.00     0.032 C 
BRANCH   4   5
ATOM      5  C   UNL     1     199.038 205.985 214.384  1.00  0.00     0.034 C 
BRANCH   5   6
ATOM      6  C   UNL     1     199.977 207.114 214.011  1.00  0.00    -0.077 C 
ATOM      7  C   UNL     1     201.413 206.779 213.699  1.00  0.00     0.039 C 
ATOM      8  C   UNL     1     199.595 208.408 213.917  1.00  0.00    -0.023 CG0
ATOM      9  G   UNL     1     198.201 208.936 214.154  1.00  0.00     0.000 G0
ENDBRANCH   5   6
ENDBRANCH   4   5
ENDBRANCH   2   4
BRANCH   1  10
ATOM     10  C   UNL     1     198.538 208.788 217.397  1.00  0.00     0.111 C 
BRANCH  10  11
ATOM     11  C   UNL     1     198.963 209.864 216.430  1.00  0.00     0.163 C 
ATOM     12  O   UNL     1     199.983 210.549 216.714  1.00  0.00    -0.294 OA
BRANCH  11  13
ATOM     13  C   UNL     1     198.245 210.097 215.138  1.00  0.00    -0.002 C 
ATOM     14  C   UNL     1     197.598 211.273 214.876  1.00  0.00    -0.069 C 
ATOM     15  C   UNL     1     196.907 211.515 213.551  1.00  0.00     0.039 C 
ATOM     16  C   UNL     1     197.512 212.376 215.907  1.00  0.00     0.039 C 
BRANCH  13  17
ATOM     17  C   UNL     1     198.200 208.940 214.156  1.00  0.00     0.066 CG0
ATOM     18  G   UNL     1     199.596 208.423 213.908  1.00  0.00     0.000 G0
ENDBRANCH  13  17
ENDBRANCH  11  13
ENDBRANCH  10  11
ENDBRANCH   1  10
TORSDOF 0
ENDMDL
MODEL 3
REMARK VINA RESULT:    -3.909     13.838     15.128
REMARK INTER + INTRA:          -4.950
REMARK INTER:                  -5.561
REMARK INTRA:                   0.611
REMARK UNBOUND:                 0.559
REMARK SMILES CC1=CCC(=C(C)C)C(=O)CC(C)=CCC1
REMARK SMILES IDX 12 1 14 2 13 3 15 4 16 5 2 6 1 7 3 8 11 10 9 11 10 12 5 13
REMARK SMILES IDX 6 14 7 15 8 16 4 17
REMARK H PARENT
REMARK Flexibility Score: 60.00
ROOT
ATOM      1  C   UNL     1     197.901 209.493 216.839  1.00  0.00    -0.070 C 
ATOM      2  C   UNL     1     197.484 210.371 215.897  1.00  0.00    -0.027 C 
ATOM      3  C   UNL     1     196.872 208.552 217.414  1.00  0.00     0.039 C 
ENDROOT
BRANCH   2   4
ATOM      4  C   UNL     1     198.312 211.466 215.266  1.00  0.00     0.032 C 
BRANCH   4   5
ATOM      5  C   UNL     1     199.600 210.931 214.611  1.00  0.00     0.034 C 
BRANCH   5   6
ATOM      6  C   UNL     1     199.314 209.864 213.574  1.00  0.00    -0.077 C 
ATOM      7  C   UNL     1     198.448 210.226 212.394  1.00  0.00     0.039 C 
ATOM      8  C   UNL     1     199.812 208.608 213.631  1.00  0.00    -0.023 CG0
ATOM      9  G   UNL     1     200.722 208.068 214.707  1.00  0.00     0.000 G0
ENDBRANCH   5   6
ENDBRANCH   4   5
ENDBRANCH   2   4
BRANCH   1  10
ATOM     10  C   UNL     1     199.319 209.450 217.386  1.00  0.00     0.111 C 
BRANCH  10  11
ATOM     11  C   UNL     1     199.960 208.103 217.161  1.00  0.00     0.163 C 
ATOM     12  O   UNL     1     200.492 207.526 218.148  1.00  0.00    -0.294 OA
BRANCH  11  13
ATOM     13  C   UNL     1     199.932 207.426 215.828  1.00  0.00    -0.002 C 
ATOM     14  C   UNL     1     199.268 206.245 215.634  1.00  0.00    -0.069 C 
ATOM     15  C   UNL     1     199.213 205.587 214.272  1.00  0.00     0.039 C 
ATOM     16  C   UNL     1     198.587 205.524 216.774  1.00  0.00     0.039 C 
BRANCH  13  17
ATOM     17  C   UNL     1     200.737 208.066 214.711  1.00  0.00     0.066 CG0
ATOM     18  G   UNL     1     199.807 208.606 213.653  1.00  0.00     0.000 G0
ENDBRANCH  13  17
ENDBRANCH  11  13
ENDBRANCH  10  11
ENDBRANCH   1  10
TORSDOF 0
ENDMDL
MODEL 4
REMARK VINA RESULT:    -3.810      1.515      3.842
REMARK INTER + INTRA:          -4.811
REMARK INTER:                  -5.694
REMARK INTRA:                   0.883
REMARK UNBOUND:                 0.559
REMARK SMILES CC1=CCC(=C(C)C)C(=O)CC(C)=CCC1
REMARK SMILES IDX 12 1 14 2 13 3 15 4 16 5 2 6 1 7 3 8 11 10 9 11 10 12 5 13
REMARK SMILES IDX 6 14 7 15 8 16 4 17
REMARK H PARENT
REMARK Flexibility Score: 60.00
ROOT
ATOM      1  C   UNL     1     212.768 204.524 217.685  1.00  0.00    -0.070 C 
ATOM      2  C   UNL     1     213.732 203.586 217.840  1.00  0.00    -0.027 C 
ATOM      3  C   UNL     1     211.615 204.500 218.658  1.00  0.00     0.039 C 
ENDROOT
BRANCH   2   4
ATOM      4  C   UNL     1     214.913 203.359 216.925  1.00  0.00     0.032 C 
BRANCH   4   5
ATOM      5  C   UNL     1     214.893 201.966 216.268  1.00  0.00     0.034 C 
BRANCH   5   6
ATOM      6  C   UNL     1     213.590 201.692 215.545  1.00  0.00    -0.077 C 
ATOM      7  C   UNL     1     212.701 200.589 216.061  1.00  0.00     0.039 C 
ATOM      8  C   UNL     1     213.163 202.400 214.475  1.00  0.00    -0.023 CG0
ATOM      9  G   UNL     1     213.889 203.559 213.836  1.00  0.00     0.000 G0
ENDBRANCH   5   6
ENDBRANCH   4   5
ENDBRANCH   2   4
BRANCH   1  10
ATOM     10  C   UNL     1     212.753 205.543 216.558  1.00  0.00     0.111 C 
BRANCH  10  11
ATOM     11  C   UNL     1     212.266 204.935 215.267  1.00  0.00     0.163 C 
ATOM     12  O   UNL     1     211.074 204.524 215.216  1.00  0.00    -0.294 OA
BRANCH  11  13
ATOM     13  C   UNL     1     213.133 204.858 214.051  1.00  0.00    -0.002 C 
ATOM     14  C   UNL     1     213.201 205.885 213.149  1.00  0.00    -0.069 C 
ATOM     15  C   UNL     1     214.111 205.814 211.941  1.00  0.00     0.039 C 
ATOM     16  C   UNL     1     212.347 207.124 213.294  1.00  0.00     0.039 C 
BRANCH  13  17
ATOM     17  C   UNL     1     213.882 203.558 213.818  1.00  0.00     0.066 CG0
ATOM     18  G   UNL     1     213.149 202.418 214.483  1.00  0.00     0.000 G0
ENDBRANCH  13  17
ENDBRANCH  11  13
ENDBRANCH  10  11
ENDBRANCH   1  10
TORSDOF 0
ENDMDL
MODEL 5
REMARK VINA RESULT:    -3.802     14.451     15.761
REMARK INTER + INTRA:          -4.800
REMARK INTER:                  -5.291
REMARK INTRA:                   0.492
REMARK UNBOUND:                 0.559
REMARK SMILES CC1=CCC(=C(C)C)C(=O)CC(C)=CCC1
REMARK SMILES IDX 12 1 14 2 13 3 15 4 16 5 2 6 1 7 3 8 11 10 9 11 10 12 5 13
REMARK SMILES IDX 6 14 7 15 8 16 4 17
REMARK H PARENT
REMARK Flexibility Score: 60.00
ROOT
ATOM      1  C   UNL     1     198.717 211.557 215.574  1.00  0.00    -0.070 C 
ATOM      2  C   UNL     1     198.794 211.640 214.225  1.00  0.00    -0.027 C 
ATOM      3  C   UNL     1     198.154 212.747 216.311  1.00  0.00     0.039 C 
ENDROOT
BRANCH   2   4
ATOM      4  C   UNL     1     199.416 210.619 213.301  1.00  0.00     0.032 C 
BRANCH   4   5
ATOM      5  C   UNL     1     198.470 209.441 212.998  1.00  0.00     0.034 C 
BRANCH   5   6
ATOM      6  C   UNL     1     199.189 208.107 213.034  1.00  0.00    -0.077 C 
ATOM      7  C   UNL     1     200.287 207.858 212.032  1.00  0.00     0.039 C 
ATOM      8  C   UNL     1     198.919 207.133 213.932  1.00  0.00    -0.023 CG0
ATOM      9  G   UNL     1     197.887 207.207 215.030  1.00  0.00     0.000 G0
ENDBRANCH   5   6
ENDBRANCH   4   5
ENDBRANCH   2   4
BRANCH   1  10
ATOM     10  C   UNL     1     199.221 210.370 216.378  1.00  0.00     0.111 C 
BRANCH  10  11
ATOM     11  C   UNL     1     198.168 209.297 216.502  1.00  0.00     0.163 C 
ATOM     12  O   UNL     1     196.984 209.652 216.750  1.00  0.00    -0.294 OA
BRANCH  11  13
ATOM     13  C   UNL     1     198.483 207.850 216.288  1.00  0.00    -0.002 C 
ATOM     14  C   UNL     1     199.321 207.165 217.125  1.00  0.00    -0.069 C 
ATOM     15  C   UNL     1     199.603 205.691 216.924  1.00  0.00     0.039 C 
ATOM     16  C   UNL     1     200.031 207.850 218.270  1.00  0.00     0.039 C 
BRANCH  13  17
ATOM     17  C   UNL     1     197.893 207.189 215.056  1.00  0.00     0.066 CG0
ATOM     18  G   UNL     1     198.919 207.157 213.949  1.00  0.00     0.000 G0
ENDBRANCH  13  17
ENDBRANCH  11  13
ENDBRANCH  10  11
ENDBRANCH   1  10
TORSDOF 0
ENDMDL
MODEL 6
REMARK VINA RESULT:    -3.551     13.947     15.406
REMARK INTER + INTRA:          -4.445
REMARK INTER:                  -5.409
REMARK INTRA:                   0.964
REMARK UNBOUND:                 0.559
REMARK SMILES CC1=CCC(=C(C)C)C(=O)CC(C)=CCC1
REMARK SMILES IDX 12 1 14 2 13 3 15 4 16 5 2 6 1 7 3 8 11 10 9 11 10 12 5 13
REMARK SMILES IDX 6 14 7 15 8 16 4 17
REMARK H PARENT
REMARK Flexibility Score: 60.00
ROOT
ATOM      1  C   UNL     1     198.329 207.561 217.129  1.00  0.00    -0.070 C 
ATOM      2  C   UNL     1     198.193 206.314 216.619  1.00  0.00    -0.027 C 
ATOM      3  C   UNL     1     197.068 208.357 217.362  1.00  0.00     0.039 C 
ENDROOT
BRANCH   2   4
ATOM      4  C   UNL     1     199.314 205.388 216.211  1.00  0.00     0.032 C 
BRANCH   4   5
ATOM      5  C   UNL     1     199.467 205.283 214.681  1.00  0.00     0.034 C 
BRANCH   5   6
ATOM      6  C   UNL     1     198.447 206.128 213.945  1.00  0.00    -0.077 C 
ATOM      7  C   UNL     1     197.070 205.556 213.723  1.00  0.00     0.039 C 
ATOM      8  C   UNL     1     198.692 207.380 213.496  1.00  0.00    -0.023 CG0
ATOM      9  G   UNL     1     199.989 208.135 213.653  1.00  0.00     0.000 G0
ENDBRANCH   5   6
ENDBRANCH   4   5
ENDBRANCH   2   4
BRANCH   1  10
ATOM     10  C   UNL     1     199.671 208.216 217.414  1.00  0.00     0.111 C 
BRANCH  10  11
ATOM     11  C   UNL     1     200.499 208.351 216.161  1.00  0.00     0.163 C 
ATOM     12  O   UNL     1     201.667 207.875 216.166  1.00  0.00    -0.294 OA
BRANCH  11  13
ATOM     13  C   UNL     1     199.955 208.979 214.916  1.00  0.00    -0.002 C 
ATOM     14  C   UNL     1     199.397 210.228 214.926  1.00  0.00    -0.069 C 
ATOM     15  C   UNL     1     198.885 210.872 213.655  1.00  0.00     0.039 C 
ATOM     16  C   UNL     1     199.233 211.012 216.207  1.00  0.00     0.039 C 
BRANCH  13  17
ATOM     17  C   UNL     1     199.980 208.139 213.652  1.00  0.00     0.066 CG0
ATOM     18  G   UNL     1     198.671 207.404 213.498  1.00  0.00     0.000 G0
ENDBRANCH  13  17
ENDBRANCH  11  13
ENDBRANCH  10  11
ENDBRANCH   1  10
TORSDOF 0
ENDMDL
MODEL 7
REMARK VINA RESULT:    -3.511     13.772     14.890
REMARK INTER + INTRA:          -4.389
REMARK INTER:                  -4.749
REMARK INTRA:                   0.360
REMARK UNBOUND:                 0.559
REMARK SMILES CC1=CCC(=C(C)C)C(=O)CC(C)=CCC1
REMARK SMILES IDX 12 1 14 2 13 3 15 4 16 5 2 6 1 7 3 8 11 10 9 11 10 12 5 13
REMARK SMILES IDX 6 14 7 15 8 16 4 17
REMARK H PARENT
REMARK Flexibility Score: 60.00
ROOT
ATOM      1  C   UNL     1     200.171 208.461 217.483  1.00  0.00    -0.070 C 
ATOM      2  C   UNL     1     199.601 209.690 217.496  1.00  0.00    -0.027 C 
ATOM      3  C   UNL     1     200.371 207.775 218.811  1.00  0.00     0.039 C 
ENDROOT
BRANCH   2   4
ATOM      4  C   UNL     1     199.404 210.596 216.305  1.00  0.00     0.032 C 
BRANCH   4   5
ATOM      5  C   UNL     1     198.152 210.231 215.484  1.00  0.00     0.034 C 
BRANCH   5   6
ATOM      6  C   UNL     1     198.477 209.983 214.025  1.00  0.00    -0.077 C 
ATOM      7  C   UNL     1     198.944 211.146 213.187  1.00  0.00     0.039 C 
ATOM      8  C   UNL     1     198.398 208.769 213.434  1.00  0.00    -0.023 CG0
ATOM      9  G   UNL     1     197.988 207.483 214.111  1.00  0.00     0.000 G0
ENDBRANCH   5   6
ENDBRANCH   4   5
ENDBRANCH   2   4
BRANCH   1  10
ATOM     10  C   UNL     1     200.672 207.776 216.222  1.00  0.00     0.111 C 
BRANCH  10  11
ATOM     11  C   UNL     1     199.740 206.675 215.782  1.00  0.00     0.163 C 
ATOM     12  O   UNL     1     199.395 205.813 216.635  1.00  0.00    -0.294 OA
BRANCH  11  13
ATOM     13  C   UNL     1     199.186 206.613 214.394  1.00  0.00    -0.002 C 
ATOM     14  C   UNL     1     199.780 205.865 213.414  1.00  0.00    -0.069 C 
ATOM     15  C   UNL     1     199.191 205.778 212.023  1.00  0.00     0.039 C 
ATOM     16  C   UNL     1     201.071 205.118 213.661  1.00  0.00     0.039 C 
BRANCH  13  17
ATOM     17  C   UNL     1     197.975 207.478 214.095  1.00  0.00     0.066 CG0
ATOM     18  G   UNL     1     198.412 208.761 213.432  1.00  0.00     0.000 G0
ENDBRANCH  13  17
ENDBRANCH  11  13
ENDBRANCH  10  11
ENDBRANCH   1  10
TORSDOF 0
ENDMDL
MODEL 8
REMARK VINA RESULT:    -3.352      2.067      4.275
REMARK INTER + INTRA:          -4.165
REMARK INTER:                  -4.912
REMARK INTRA:                   0.747
REMARK UNBOUND:                 0.559
REMARK SMILES CC1=CCC(=C(C)C)C(=O)CC(C)=CCC1
REMARK SMILES IDX 12 1 14 2 13 3 15 4 16 5 2 6 1 7 3 8 11 10 9 11 10 12 5 13
REMARK SMILES IDX 6 14 7 15 8 16 4 17
REMARK H PARENT
REMARK Flexibility Score: 60.00
ROOT
ATOM      1  C   UNL     1     213.872 206.247 215.973  1.00  0.00    -0.070 C 
ATOM      2  C   UNL     1     213.752 205.460 217.069  1.00  0.00    -0.027 C 
ATOM      3  C   UNL     1     213.299 207.641 216.054  1.00  0.00     0.039 C 
ENDROOT
BRANCH   2   4
ATOM      4  C   UNL     1     214.156 204.009 217.175  1.00  0.00     0.032 C 
BRANCH   4   5
ATOM      5  C   UNL     1     212.952 203.075 217.407  1.00  0.00     0.034 C 
BRANCH   5   6
ATOM      6  C   UNL     1     212.604 202.274 216.169  1.00  0.00    -0.077 C 
ATOM      7  C   UNL     1     213.029 200.829 216.108  1.00  0.00     0.039 C 
ATOM      8  C   UNL     1     211.908 202.773 215.122  1.00  0.00    -0.023 CG0
ATOM      9  G   UNL     1     211.366 204.178 215.012  1.00  0.00     0.000 G0
ENDBRANCH   5   6
ENDBRANCH   4   5
ENDBRANCH   2   4
BRANCH   1  10
ATOM     10  C   UNL     1     214.488 205.784 214.663  1.00  0.00     0.111 C 
BRANCH  10  11
ATOM     11  C   UNL     1     213.575 204.835 213.927  1.00  0.00     0.163 C 
ATOM     12  O   UNL     1     214.098 203.872 213.303  1.00  0.00    -0.294 OA
BRANCH  11  13
ATOM     13  C   UNL     1     212.087 204.979 213.964  1.00  0.00    -0.002 C 
ATOM     14  C   UNL     1     211.427 205.846 213.138  1.00  0.00    -0.069 C 
ATOM     15  C   UNL     1     209.917 205.957 213.155  1.00  0.00     0.039 C 
ATOM     16  C   UNL     1     212.172 206.760 212.192  1.00  0.00     0.039 C 
BRANCH  13  17
ATOM     17  C   UNL     1     211.342 204.174 215.014  1.00  0.00     0.066 CG0
ATOM     18  G   UNL     1     211.918 202.781 215.097  1.00  0.00     0.000 G0
ENDBRANCH  13  17
ENDBRANCH  11  13
ENDBRANCH  10  11
ENDBRANCH   1  10
TORSDOF 0
ENDMDL
MODEL 9
REMARK VINA RESULT:    -3.245     11.820     13.163
REMARK INTER + INTRA:          -4.013
REMARK INTER:                  -5.218
REMARK INTRA:                   1.205
REMARK UNBOUND:                 0.559
REMARK SMILES CC1=CCC(=C(C)C)C(=O)CC(C)=CCC1
REMARK SMILES IDX 12 1 14 2 13 3 15 4 16 5 2 6 1 7 3 8 11 10 9 11 10 12 5 13
REMARK SMILES IDX 6 14 7 15 8 16 4 17
REMARK H PARENT
REMARK Flexibility Score: 60.00
ROOT
ATOM      1  C   UNL     1     203.656 196.473 214.330  1.00  0.00    -0.070 C 
ATOM      2  C   UNL     1     202.625 195.986 215.059  1.00  0.00    -0.027 C 
ATOM      3  C   UNL     1     205.024 196.460 214.966  1.00  0.00     0.039 C 
ENDROOT
BRANCH   2   4
ATOM      4  C   UNL     1     201.167 195.998 214.665  1.00  0.00     0.032 C 
BRANCH   4   5
ATOM      5  C   UNL     1     200.449 197.292 215.094  1.00  0.00     0.034 C 
BRANCH   5   6
ATOM      6  C   UNL     1     200.211 198.228 213.925  1.00  0.00    -0.077 C 
ATOM      7  C   UNL     1     198.944 198.067 213.125  1.00  0.00     0.039 C 
ATOM      8  C   UNL     1     201.061 199.219 213.573  1.00  0.00    -0.023 CG0
ATOM      9  G   UNL     1     202.356 199.561 214.268  1.00  0.00     0.000 G0
ENDBRANCH   5   6
ENDBRANCH   4   5
ENDBRANCH   2   4
BRANCH   1  10
ATOM     10  C   UNL     1     203.498 197.085 212.947  1.00  0.00     0.111 C 
BRANCH  10  11
ATOM     11  C   UNL     1     204.177 198.428 212.854  1.00  0.00     0.163 C 
ATOM     12  O   UNL     1     205.338 198.475 212.363  1.00  0.00    -0.294 OA
BRANCH  11  13
ATOM     13  C   UNL     1     203.495 199.691 213.276  1.00  0.00    -0.002 C 
ATOM     14  C   UNL     1     203.914 200.917 212.836  1.00  0.00    -0.069 C 
ATOM     15  C   UNL     1     203.194 202.187 213.237  1.00  0.00     0.039 C 
ATOM     16  C   UNL     1     205.134 201.068 211.957  1.00  0.00     0.039 C 
BRANCH  13  17
ATOM     17  C   UNL     1     202.361 199.562 214.277  1.00  0.00     0.066 CG0
ATOM     18  G   UNL     1     201.080 199.214 213.559  1.00  0.00     0.000 G0
ENDBRANCH  13  17
ENDBRANCH  11  13
ENDBRANCH  10  11
ENDBRANCH   1  10
TORSDOF 0
ENDMDL
