MODEL 1
REMARK VINA RESULT:    -4.777      0.000      0.000
REMARK INTER + INTRA:         -10.821
REMARK INTER:                  -8.687
REMARK INTRA:                  -2.134
REMARK UNBOUND:                -2.134
REMARK SMILES CCCCCCCCCCCCCCCC(=O)[O-]
REMARK SMILES IDX 9 1 10 2 11 3 12 4 13 5 14 6 15 7 16 8 17 9 18 10 8 11 7 12
REMARK SMILES IDX 6 13 5 14 4 15 3 16 2 17 1 18
REMARK H PARENT
REMARK Flexibility Score: inf
ROOT
ATOM      1  C   UNL     1    -105.035 -86.750  37.749  1.00  0.00     0.000 C 
ENDROOT
BRANCH   1   2
ATOM      2  C   UNL     1    -103.777 -86.615  38.616  1.00  0.00     0.000 C 
BRANCH   2   3
ATOM      3  C   UNL     1    -103.984 -85.584  39.733  1.00  0.00     0.000 C 
BRANCH   3   4
ATOM      4  C   UNL     1    -105.248 -84.748  39.482  1.00  0.00     0.000 C 
BRANCH   4   5
ATOM      5  C   UNL     1    -104.985 -83.236  39.564  1.00  0.00     0.000 C 
BRANCH   5   6
ATOM      6  C   UNL     1    -103.491 -82.903  39.729  1.00  0.00     0.006 C 
BRANCH   6   7
ATOM      7  C   UNL     1    -103.273 -81.523  40.365  1.00  0.00     0.053 C 
BRANCH   7   8
ATOM      8  C   UNL     1    -103.664 -80.414  39.438  1.00  0.00     0.041 C 
ATOM      9  O   UNL     1    -104.658 -79.687  39.701  1.00  0.00    -0.550 OA
ATOM     10  O   UNL     1    -102.946 -80.202  38.268  1.00  0.00    -0.550 OA
ENDBRANCH   7   8
ENDBRANCH   6   7
ENDBRANCH   5   6
ENDBRANCH   4   5
ENDBRANCH   3   4
ENDBRANCH   2   3
ENDBRANCH   1   2
BRANCH   1  11
ATOM     11  C   UNL     1    -104.735 -87.538  36.465  1.00  0.00     0.000 C 
BRANCH  11  12
ATOM     12  C   UNL     1    -105.911 -87.529  35.475  1.00  0.00    -0.000 C 
BRANCH  12  13
ATOM     13  C   UNL     1    -105.944 -86.258  34.609  1.00  0.00    -0.000 C 
BRANCH  13  14
ATOM     14  C   UNL     1    -104.552 -85.857  34.095  1.00  0.00    -0.000 C 
BRANCH  14  15
ATOM     15  C   UNL     1    -104.294 -84.343  34.198  1.00  0.00    -0.000 C 
BRANCH  15  16
ATOM     16  C   UNL     1    -104.444 -83.814  35.632  1.00  0.00    -0.000 C 
BRANCH  16  17
ATOM     17  C   UNL     1    -103.101 -83.406  36.255  1.00  0.00    -0.003 C 
ATOM     18  C   UNL     1    -102.057 -84.504  36.078  1.00  0.00     0.004 C 
ENDBRANCH  16  17
ENDBRANCH  15  16
ENDBRANCH  14  15
ENDBRANCH  13  14
ENDBRANCH  12  13
ENDBRANCH  11  12
ENDBRANCH   1  11
TORSDOF 14
ENDMDL
MODEL 2
REMARK VINA RESULT:    -4.758      3.339      5.717
REMARK INTER + INTRA:         -10.786
REMARK INTER:                  -8.686
REMARK INTRA:                  -2.100
REMARK UNBOUND:                -2.134
REMARK SMILES CCCCCCCCCCCCCCCC(=O)[O-]
REMARK SMILES IDX 9 1 10 2 11 3 12 4 13 5 14 6 15 7 16 8 17 9 18 10 8 11 7 12
REMARK SMILES IDX 6 13 5 14 4 15 3 16 2 17 1 18
REMARK H PARENT
REMARK Flexibility Score: inf
ROOT
ATOM      1  C   UNL     1    -105.088 -86.480  37.319  1.00  0.00     0.000 C 
ENDROOT
BRANCH   1   2
ATOM      2  C   UNL     1    -105.466 -87.665  36.423  1.00  0.00     0.000 C 
BRANCH   2   3
ATOM      3  C   UNL     1    -105.844 -87.193  35.013  1.00  0.00     0.000 C 
BRANCH   3   4
ATOM      4  C   UNL     1    -104.963 -86.014  34.574  1.00  0.00     0.000 C 
BRANCH   4   5
ATOM      5  C   UNL     1    -105.783 -84.823  34.053  1.00  0.00     0.000 C 
BRANCH   5   6
ATOM      6  C   UNL     1    -104.984 -83.930  33.087  1.00  0.00     0.006 C 
BRANCH   6   7
ATOM      7  C   UNL     1    -103.631 -84.550  32.713  1.00  0.00     0.053 C 
BRANCH   7   8
ATOM      8  C   UNL     1    -103.274 -84.286  31.282  1.00  0.00     0.041 C 
ATOM      9  O   UNL     1    -104.178 -84.162  30.415  1.00  0.00    -0.550 OA
ATOM     10  O   UNL     1    -101.940 -84.206  30.903  1.00  0.00    -0.550 OA
ENDBRANCH   7   8
ENDBRANCH   6   7
ENDBRANCH   5   6
ENDBRANCH   4   5
ENDBRANCH   3   4
ENDBRANCH   2   3
ENDBRANCH   1   2
BRANCH   1  11
ATOM     11  C   UNL     1    -104.068 -86.901  38.386  1.00  0.00     0.000 C 
BRANCH  11  12
ATOM     12  C   UNL     1    -103.936 -85.874  39.522  1.00  0.00    -0.000 C 
BRANCH  12  13
ATOM     13  C   UNL     1    -105.164 -84.954  39.632  1.00  0.00    -0.000 C 
BRANCH  13  14
ATOM     14  C   UNL     1    -104.787 -83.464  39.637  1.00  0.00    -0.000 C 
BRANCH  14  15
ATOM     15  C   UNL     1    -104.782 -82.848  38.226  1.00  0.00    -0.000 C 
BRANCH  15  16
ATOM     16  C   UNL     1    -103.363 -82.658  37.669  1.00  0.00    -0.000 C 
BRANCH  16  17
ATOM     17  C   UNL     1    -103.176 -83.310  36.291  1.00  0.00    -0.003 C 
ATOM     18  C   UNL     1    -102.140 -84.428  36.348  1.00  0.00     0.004 C 
ENDBRANCH  16  17
ENDBRANCH  15  16
ENDBRANCH  14  15
ENDBRANCH  13  14
ENDBRANCH  12  13
ENDBRANCH  11  12
ENDBRANCH   1  11
TORSDOF 14
ENDMDL
MODEL 3
REMARK VINA RESULT:    -4.691      1.060      1.579
REMARK INTER + INTRA:         -10.664
REMARK INTER:                  -8.711
REMARK INTRA:                  -1.953
REMARK UNBOUND:                -2.134
REMARK SMILES CCCCCCCCCCCCCCCC(=O)[O-]
REMARK SMILES IDX 9 1 10 2 11 3 12 4 13 5 14 6 15 7 16 8 17 9 18 10 8 11 7 12
REMARK SMILES IDX 6 13 5 14 4 15 3 16 2 17 1 18
REMARK H PARENT
REMARK Flexibility Score: inf
ROOT
ATOM      1  C   UNL     1    -105.109 -85.591  38.031  1.00  0.00     0.000 C 
ENDROOT
BRANCH   1   2
ATOM      2  C   UNL     1    -104.633 -85.514  39.486  1.00  0.00     0.000 C 
BRANCH   2   3
ATOM      3  C   UNL     1    -103.101 -85.550  39.569  1.00  0.00     0.000 C 
BRANCH   3   4
ATOM      4  C   UNL     1    -102.496 -84.206  39.138  1.00  0.00     0.000 C 
BRANCH   4   5
ATOM      5  C   UNL     1    -102.310 -83.235  40.314  1.00  0.00     0.000 C 
BRANCH   5   6
ATOM      6  C   UNL     1    -102.888 -81.838  40.027  1.00  0.00     0.006 C 
BRANCH   6   7
ATOM      7  C   UNL     1    -104.405 -81.875  39.797  1.00  0.00     0.053 C 
BRANCH   7   8
ATOM      8  C   UNL     1    -104.881 -80.685  39.023  1.00  0.00     0.041 C 
ATOM      9  O   UNL     1    -104.178 -79.642  38.966  1.00  0.00    -0.550 OA
ATOM     10  O   UNL     1    -106.116 -80.718  38.389  1.00  0.00    -0.550 OA
ENDBRANCH   7   8
ENDBRANCH   6   7
ENDBRANCH   5   6
ENDBRANCH   4   5
ENDBRANCH   3   4
ENDBRANCH   2   3
ENDBRANCH   1   2
BRANCH   1  11
ATOM     11  C   UNL     1    -105.088 -87.040  37.522  1.00  0.00     0.000 C 
BRANCH  11  12
ATOM     12  C   UNL     1    -104.701 -87.143  36.038  1.00  0.00    -0.000 C 
BRANCH  12  13
ATOM     13  C   UNL     1    -105.916 -87.022  35.101  1.00  0.00    -0.000 C 
BRANCH  13  14
ATOM     14  C   UNL     1    -105.932 -85.694  34.325  1.00  0.00    -0.000 C 
BRANCH  14  15
ATOM     15  C   UNL     1    -104.553 -85.011  34.287  1.00  0.00    -0.000 C 
BRANCH  15  16
ATOM     16  C   UNL     1    -104.569 -83.614  34.925  1.00  0.00    -0.000 C 
BRANCH  16  17
ATOM     17  C   UNL     1    -103.296 -83.318  35.733  1.00  0.00    -0.003 C 
ATOM     18  C   UNL     1    -102.210 -84.351  35.445  1.00  0.00     0.004 C 
ENDBRANCH  16  17
ENDBRANCH  15  16
ENDBRANCH  14  15
ENDBRANCH  13  14
ENDBRANCH  12  13
ENDBRANCH  11  12
ENDBRANCH   1  11
TORSDOF 14
ENDMDL
MODEL 4
REMARK VINA RESULT:    -4.679      2.144      4.987
REMARK INTER + INTRA:         -10.642
REMARK INTER:                  -8.923
REMARK INTRA:                  -1.720
REMARK UNBOUND:                -2.134
REMARK SMILES CCCCCCCCCCCCCCCC(=O)[O-]
REMARK SMILES IDX 9 1 10 2 11 3 12 4 13 5 14 6 15 7 16 8 17 9 18 10 8 11 7 12
REMARK SMILES IDX 6 13 5 14 4 15 3 16 2 17 1 18
REMARK H PARENT
REMARK Flexibility Score: inf
ROOT
ATOM      1  C   UNL     1    -104.572 -87.584  37.655  1.00  0.00     0.000 C 
ENDROOT
BRANCH   1   2
ATOM      2  C   UNL     1    -105.416 -87.459  36.381  1.00  0.00     0.000 C 
BRANCH   2   3
ATOM      3  C   UNL     1    -104.784 -86.468  35.394  1.00  0.00     0.000 C 
BRANCH   3   4
ATOM      4  C   UNL     1    -105.865 -85.714  34.606  1.00  0.00     0.000 C 
BRANCH   4   5
ATOM      5  C   UNL     1    -105.333 -84.429  33.952  1.00  0.00     0.000 C 
BRANCH   5   6
ATOM      6  C   UNL     1    -104.448 -83.603  34.902  1.00  0.00     0.006 C 
BRANCH   6   7
ATOM      7  C   UNL     1    -103.072 -83.301  34.295  1.00  0.00     0.053 C 
BRANCH   7   8
ATOM      8  C   UNL     1    -102.001 -84.169  34.882  1.00  0.00     0.041 C 
ATOM      9  O   UNL     1    -101.128 -84.691  34.139  1.00  0.00    -0.550 OA
ATOM     10  O   UNL     1    -101.986 -84.425  36.247  1.00  0.00    -0.550 OA
ENDBRANCH   7   8
ENDBRANCH   6   7
ENDBRANCH   5   6
ENDBRANCH   4   5
ENDBRANCH   3   4
ENDBRANCH   2   3
ENDBRANCH   1   2
BRANCH   1  11
ATOM     11  C   UNL     1    -104.137 -86.201  38.163  1.00  0.00     0.000 C 
BRANCH  11  12
ATOM     12  C   UNL     1    -104.618 -85.916  39.595  1.00  0.00    -0.000 C 
BRANCH  12  13
ATOM     13  C   UNL     1    -105.391 -84.591  39.706  1.00  0.00    -0.000 C 
BRANCH  13  14
ATOM     14  C   UNL     1    -105.083 -83.629  38.547  1.00  0.00    -0.000 C 
BRANCH  14  15
ATOM     15  C   UNL     1    -105.114 -82.151  38.977  1.00  0.00    -0.000 C 
BRANCH  15  16
ATOM     16  C   UNL     1    -104.030 -81.815  40.012  1.00  0.00    -0.000 C 
BRANCH  16  17
ATOM     17  C   UNL     1    -102.625 -82.232  39.553  1.00  0.00    -0.003 C 
ATOM     18  C   UNL     1    -101.978 -83.181  40.557  1.00  0.00     0.004 C 
ENDBRANCH  16  17
ENDBRANCH  15  16
ENDBRANCH  14  15
ENDBRANCH  13  14
ENDBRANCH  12  13
ENDBRANCH  11  12
ENDBRANCH   1  11
TORSDOF 14
ENDMDL
MODEL 5
REMARK VINA RESULT:    -4.671      1.348      5.037
REMARK INTER + INTRA:         -10.628
REMARK INTER:                  -8.946
REMARK INTRA:                  -1.682
REMARK UNBOUND:                -2.134
REMARK SMILES CCCCCCCCCCCCCCCC(=O)[O-]
REMARK SMILES IDX 9 1 10 2 11 3 12 4 13 5 14 6 15 7 16 8 17 9 18 10 8 11 7 12
REMARK SMILES IDX 6 13 5 14 4 15 3 16 2 17 1 18
REMARK H PARENT
REMARK Flexibility Score: inf
ROOT
ATOM      1  C   UNL     1    -105.055 -86.401  37.550  1.00  0.00     0.000 C 
ENDROOT
BRANCH   1   2
ATOM      2  C   UNL     1    -104.801 -87.483  36.493  1.00  0.00     0.000 C 
BRANCH   2   3
ATOM      3  C   UNL     1    -105.866 -87.439  35.389  1.00  0.00     0.000 C 
BRANCH   3   4
ATOM      4  C   UNL     1    -105.825 -86.098  34.640  1.00  0.00     0.000 C 
BRANCH   4   5
ATOM      5  C   UNL     1    -104.505 -85.884  33.882  1.00  0.00     0.000 C 
BRANCH   5   6
ATOM      6  C   UNL     1    -104.005 -84.430  33.964  1.00  0.00     0.006 C 
BRANCH   6   7
ATOM      7  C   UNL     1    -104.524 -83.710  35.216  1.00  0.00     0.053 C 
BRANCH   7   8
ATOM      8  C   UNL     1    -103.403 -83.231  36.087  1.00  0.00     0.041 C 
ATOM      9  O   UNL     1    -103.259 -82.001  36.317  1.00  0.00    -0.550 OA
ATOM     10  O   UNL     1    -102.502 -84.142  36.622  1.00  0.00    -0.550 OA
ENDBRANCH   7   8
ENDBRANCH   6   7
ENDBRANCH   5   6
ENDBRANCH   4   5
ENDBRANCH   3   4
ENDBRANCH   2   3
ENDBRANCH   1   2
BRANCH   1  11
ATOM     11  C   UNL     1    -104.196 -86.642  38.800  1.00  0.00     0.000 C 
BRANCH  11  12
ATOM     12  C   UNL     1    -104.341 -85.523  39.845  1.00  0.00    -0.000 C 
BRANCH  12  13
ATOM     13  C   UNL     1    -105.456 -84.525  39.491  1.00  0.00    -0.000 C 
BRANCH  13  14
ATOM     14  C   UNL     1    -104.969 -83.067  39.507  1.00  0.00    -0.000 C 
BRANCH  14  15
ATOM     15  C   UNL     1    -103.458 -82.948  39.776  1.00  0.00    -0.000 C 
BRANCH  15  16
ATOM     16  C   UNL     1    -102.985 -81.488  39.851  1.00  0.00    -0.000 C 
BRANCH  16  17
ATOM     17  C   UNL     1    -103.755 -80.671  40.900  1.00  0.00    -0.003 C 
ATOM     18  C   UNL     1    -104.294 -79.376  40.300  1.00  0.00     0.004 C 
ENDBRANCH  16  17
ENDBRANCH  15  16
ENDBRANCH  14  15
ENDBRANCH  13  14
ENDBRANCH  12  13
ENDBRANCH  11  12
ENDBRANCH   1  11
TORSDOF 14
ENDMDL
MODEL 6
REMARK VINA RESULT:    -4.545      1.435      4.317
REMARK INTER + INTRA:         -10.398
REMARK INTER:                  -8.286
REMARK INTRA:                  -2.112
REMARK UNBOUND:                -2.134
REMARK SMILES CCCCCCCCCCCCCCCC(=O)[O-]
REMARK SMILES IDX 9 1 10 2 11 3 12 4 13 5 14 6 15 7 16 8 17 9 18 10 8 11 7 12
REMARK SMILES IDX 6 13 5 14 4 15 3 16 2 17 1 18
REMARK H PARENT
REMARK Flexibility Score: inf
ROOT
ATOM      1  C   UNL     1    -104.736 -87.707  36.414  1.00  0.00     0.000 C 
ENDROOT
BRANCH   1   2
ATOM      2  C   UNL     1    -105.783 -87.149  35.442  1.00  0.00     0.000 C 
BRANCH   2   3
ATOM      3  C   UNL     1    -105.393 -85.748  34.954  1.00  0.00     0.000 C 
BRANCH   3   4
ATOM      4  C   UNL     1    -103.878 -85.652  34.713  1.00  0.00     0.000 C 
BRANCH   4   5
ATOM      5  C   UNL     1    -103.216 -84.543  35.545  1.00  0.00     0.000 C 
BRANCH   5   6
ATOM      6  C   UNL     1    -104.221 -83.481  36.024  1.00  0.00     0.006 C 
BRANCH   6   7
ATOM      7  C   UNL     1    -103.588 -82.085  36.114  1.00  0.00     0.053 C 
BRANCH   7   8
ATOM      8  C   UNL     1    -104.625 -81.005  36.158  1.00  0.00     0.041 C 
ATOM      9  O   UNL     1    -104.627 -80.166  37.097  1.00  0.00    -0.550 OA
ATOM     10  O   UNL     1    -105.607 -80.945  35.178  1.00  0.00    -0.550 OA
ENDBRANCH   7   8
ENDBRANCH   6   7
ENDBRANCH   5   6
ENDBRANCH   4   5
ENDBRANCH   3   4
ENDBRANCH   2   3
ENDBRANCH   1   2
BRANCH   1  11
ATOM     11  C   UNL     1    -105.017 -87.241  37.850  1.00  0.00     0.000 C 
BRANCH  11  12
ATOM     12  C   UNL     1    -103.758 -86.720  38.562  1.00  0.00    -0.000 C 
BRANCH  12  13
ATOM     13  C   UNL     1    -104.088 -85.782  39.736  1.00  0.00    -0.000 C 
BRANCH  13  14
ATOM     14  C   UNL     1    -105.219 -84.796  39.403  1.00  0.00    -0.000 C 
BRANCH  14  15
ATOM     15  C   UNL     1    -104.785 -83.326  39.537  1.00  0.00    -0.000 C 
BRANCH  15  16
ATOM     16  C   UNL     1    -103.286 -83.178  39.840  1.00  0.00    -0.000 C 
BRANCH  16  17
ATOM     17  C   UNL     1    -102.798 -81.727  39.718  1.00  0.00    -0.003 C 
ATOM     18  C   UNL     1    -103.579 -80.805  40.650  1.00  0.00     0.004 C 
ENDBRANCH  16  17
ENDBRANCH  15  16
ENDBRANCH  14  15
ENDBRANCH  13  14
ENDBRANCH  12  13
ENDBRANCH  11  12
ENDBRANCH   1  11
TORSDOF 14
ENDMDL
MODEL 7
REMARK VINA RESULT:    -4.517      3.238      6.162
REMARK INTER + INTRA:         -10.348
REMARK INTER:                  -8.356
REMARK INTRA:                  -1.992
REMARK UNBOUND:                -2.134
REMARK SMILES CCCCCCCCCCCCCCCC(=O)[O-]
REMARK SMILES IDX 9 1 10 2 11 3 12 4 13 5 14 6 15 7 16 8 17 9 18 10 8 11 7 12
REMARK SMILES IDX 6 13 5 14 4 15 3 16 2 17 1 18
REMARK H PARENT
REMARK Flexibility Score: inf
ROOT
ATOM      1  C   UNL     1    -103.770 -83.157  37.130  1.00  0.00     0.000 C 
ENDROOT
BRANCH   1   2
ATOM      2  C   UNL     1    -102.732 -83.973  36.350  1.00  0.00     0.000 C 
BRANCH   2   3
ATOM      3  C   UNL     1    -102.806 -83.672  34.848  1.00  0.00     0.000 C 
BRANCH   3   4
ATOM      4  C   UNL     1    -103.292 -84.901  34.065  1.00  0.00     0.000 C 
BRANCH   4   5
ATOM      5  C   UNL     1    -104.495 -84.590  33.160  1.00  0.00     0.000 C 
BRANCH   5   6
ATOM      6  C   UNL     1    -105.691 -84.017  33.941  1.00  0.00     0.006 C 
BRANCH   6   7
ATOM      7  C   UNL     1    -106.373 -82.864  33.191  1.00  0.00     0.053 C 
BRANCH   7   8
ATOM      8  C   UNL     1    -107.472 -83.353  32.299  1.00  0.00     0.041 C 
ATOM      9  O   UNL     1    -107.478 -83.053  31.076  1.00  0.00    -0.550 OA
ATOM     10  O   UNL     1    -108.506 -84.117  32.825  1.00  0.00    -0.550 OA
ENDBRANCH   7   8
ENDBRANCH   6   7
ENDBRANCH   5   6
ENDBRANCH   4   5
ENDBRANCH   3   4
ENDBRANCH   2   3
ENDBRANCH   1   2
BRANCH   1  11
ATOM     11  C   UNL     1    -103.416 -83.101  38.623  1.00  0.00     0.000 C 
BRANCH  11  12
ATOM     12  C   UNL     1    -104.649 -83.235  39.531  1.00  0.00    -0.000 C 
BRANCH  12  13
ATOM     13  C   UNL     1    -105.225 -84.661  39.540  1.00  0.00    -0.000 C 
BRANCH  13  14
ATOM     14  C   UNL     1    -104.156 -85.727  39.832  1.00  0.00    -0.000 C 
BRANCH  14  15
ATOM     15  C   UNL     1    -104.022 -86.760  38.699  1.00  0.00    -0.000 C 
BRANCH  15  16
ATOM     16  C   UNL     1    -105.054 -86.548  37.581  1.00  0.00    -0.000 C 
BRANCH  16  17
ATOM     17  C   UNL     1    -104.829 -87.483  36.384  1.00  0.00    -0.003 C 
ATOM     18  C   UNL     1    -105.934 -87.320  35.344  1.00  0.00     0.004 C 
ENDBRANCH  16  17
ENDBRANCH  15  16
ENDBRANCH  14  15
ENDBRANCH  13  14
ENDBRANCH  12  13
ENDBRANCH  11  12
ENDBRANCH   1  11
TORSDOF 14
ENDMDL
MODEL 8
REMARK VINA RESULT:    -4.494      3.701      6.088
REMARK INTER + INTRA:         -10.306
REMARK INTER:                  -8.843
REMARK INTRA:                  -1.464
REMARK UNBOUND:                -2.134
REMARK SMILES CCCCCCCCCCCCCCCC(=O)[O-]
REMARK SMILES IDX 9 1 10 2 11 3 12 4 13 5 14 6 15 7 16 8 17 9 18 10 8 11 7 12
REMARK SMILES IDX 6 13 5 14 4 15 3 16 2 17 1 18
REMARK H PARENT
REMARK Flexibility Score: inf
ROOT
ATOM      1  C   UNL     1    -104.708 -87.344  36.431  1.00  0.00     0.000 C 
ENDROOT
BRANCH   1   2
ATOM      2  C   UNL     1    -105.092 -85.934  35.969  1.00  0.00     0.000 C 
BRANCH   2   3
ATOM      3  C   UNL     1    -103.909 -85.233  35.289  1.00  0.00     0.000 C 
BRANCH   3   4
ATOM      4  C   UNL     1    -104.366 -84.475  34.034  1.00  0.00     0.000 C 
BRANCH   4   5
ATOM      5  C   UNL     1    -105.889 -84.527  33.832  1.00  0.00     0.000 C 
BRANCH   5   6
ATOM      6  C   UNL     1    -106.448 -83.236  33.209  1.00  0.00     0.006 C 
BRANCH   6   7
ATOM      7  C   UNL     1    -107.915 -83.387  32.783  1.00  0.00     0.053 C 
BRANCH   7   8
ATOM      8  C   UNL     1    -108.133 -82.941  31.369  1.00  0.00     0.041 C 
ATOM      9  O   UNL     1    -108.171 -81.713  31.090  1.00  0.00    -0.550 OA
ATOM     10  O   UNL     1    -108.325 -83.881  30.366  1.00  0.00    -0.550 OA
ENDBRANCH   7   8
ENDBRANCH   6   7
ENDBRANCH   5   6
ENDBRANCH   4   5
ENDBRANCH   3   4
ENDBRANCH   2   3
ENDBRANCH   1   2
BRANCH   1  11
ATOM     11  C   UNL     1    -104.841 -87.478  37.955  1.00  0.00     0.000 C 
BRANCH  11  12
ATOM     12  C   UNL     1    -103.539 -87.138  38.698  1.00  0.00    -0.000 C 
BRANCH  12  13
ATOM     13  C   UNL     1    -103.659 -85.863  39.549  1.00  0.00    -0.000 C 
BRANCH  13  14
ATOM     14  C   UNL     1    -105.103 -85.341  39.629  1.00  0.00    -0.000 C 
BRANCH  14  15
ATOM     15  C   UNL     1    -105.181 -83.804  39.627  1.00  0.00    -0.000 C 
BRANCH  15  16
ATOM     16  C   UNL     1    -104.454 -83.178  38.427  1.00  0.00    -0.000 C 
BRANCH  16  17
ATOM     17  C   UNL     1    -103.549 -82.004  38.831  1.00  0.00    -0.003 C 
ATOM     18  C   UNL     1    -102.863 -82.274  40.167  1.00  0.00     0.004 C 
ENDBRANCH  16  17
ENDBRANCH  15  16
ENDBRANCH  14  15
ENDBRANCH  13  14
ENDBRANCH  12  13
ENDBRANCH  11  12
ENDBRANCH   1  11
TORSDOF 14
ENDMDL
MODEL 9
REMARK VINA RESULT:    -4.483      2.184      5.550
REMARK INTER + INTRA:         -10.285
REMARK INTER:                  -8.098
REMARK INTRA:                  -2.187
REMARK UNBOUND:                -2.134
REMARK SMILES CCCCCCCCCCCCCCCC(=O)[O-]
REMARK SMILES IDX 9 1 10 2 11 3 12 4 13 5 14 6 15 7 16 8 17 9 18 10 8 11 7 12
REMARK SMILES IDX 6 13 5 14 4 15 3 16 2 17 1 18
REMARK H PARENT
REMARK Flexibility Score: inf
ROOT
ATOM      1  C   UNL     1    -104.581 -83.580  39.497  1.00  0.00     0.000 C 
ENDROOT
BRANCH   1   2
ATOM      2  C   UNL     1    -105.123 -85.009  39.379  1.00  0.00     0.000 C 
BRANCH   2   3
ATOM      3  C   UNL     1    -104.009 -86.042  39.594  1.00  0.00     0.000 C 
BRANCH   3   4
ATOM      4  C   UNL     1    -103.947 -87.035  38.424  1.00  0.00     0.000 C 
BRANCH   4   5
ATOM      5  C   UNL     1    -105.122 -86.873  37.446  1.00  0.00     0.000 C 
BRANCH   5   6
ATOM      6  C   UNL     1    -104.659 -86.666  35.993  1.00  0.00     0.006 C 
BRANCH   6   7
ATOM      7  C   UNL     1    -104.517 -85.180  35.637  1.00  0.00     0.053 C 
BRANCH   7   8
ATOM      8  C   UNL     1    -103.082 -84.776  35.492  1.00  0.00     0.041 C 
ATOM      9  O   UNL     1    -102.410 -84.449  36.506  1.00  0.00    -0.550 OA
ATOM     10  O   UNL     1    -102.496 -84.733  34.234  1.00  0.00    -0.550 OA
ENDBRANCH   7   8
ENDBRANCH   6   7
ENDBRANCH   5   6
ENDBRANCH   4   5
ENDBRANCH   3   4
ENDBRANCH   2   3
ENDBRANCH   1   2
BRANCH   1  11
ATOM     11  C   UNL     1    -103.066 -83.585  39.749  1.00  0.00     0.000 C 
BRANCH  11  12
ATOM     12  C   UNL     1    -102.481 -82.170  39.884  1.00  0.00    -0.000 C 
BRANCH  12  13
ATOM     13  C   UNL     1    -103.386 -81.231  40.699  1.00  0.00    -0.000 C 
BRANCH  13  14
ATOM     14  C   UNL     1    -103.276 -79.766  40.245  1.00  0.00    -0.000 C 
BRANCH  14  15
ATOM     15  C   UNL     1    -103.773 -79.551  38.804  1.00  0.00    -0.000 C 
BRANCH  15  16
ATOM     16  C   UNL     1    -105.243 -79.955  38.620  1.00  0.00    -0.000 C 
BRANCH  16  17
ATOM     17  C   UNL     1    -105.491 -80.700  37.299  1.00  0.00    -0.003 C 
ATOM     18  C   UNL     1    -104.180 -81.186  36.688  1.00  0.00     0.004 C 
ENDBRANCH  16  17
ENDBRANCH  15  16
ENDBRANCH  14  15
ENDBRANCH  13  14
ENDBRANCH  12  13
ENDBRANCH  11  12
ENDBRANCH   1  11
TORSDOF 14
ENDMDL
