MODEL 1
REMARK VINA RESULT:    -3.025      0.000      0.000
REMARK INTER + INTRA:          -4.143
REMARK INTER:                  -3.910
REMARK INTRA:                  -0.234
REMARK UNBOUND:                -0.234
REMARK SMILES CCCCCCC(=O)[O-]
REMARK SMILES IDX 5 1 6 2 7 3 8 4 9 5 4 6 3 7 2 8 1 9
REMARK H PARENT
REMARK Flexibility Score: inf
ROOT
ATOM      1  C   UNL     1      -7.308  -5.005   8.616  1.00  0.00     0.006 C 
ENDROOT
BRANCH   1   2
ATOM      2  C   UNL     1      -7.871  -4.777  10.021  1.00  0.00     0.053 C 
BRANCH   2   3
ATOM      3  C   UNL     1      -9.350  -4.560   9.967  1.00  0.00     0.041 C 
ATOM      4  O   UNL     1     -10.125  -5.530   9.755  1.00  0.00    -0.550 OA
ATOM      5  O   UNL     1      -9.870  -3.279  10.099  1.00  0.00    -0.550 OA
ENDBRANCH   2   3
ENDBRANCH   1   2
BRANCH   1   6
ATOM      6  C   UNL     1      -6.929  -6.479   8.407  1.00  0.00     0.000 C 
BRANCH   6   7
ATOM      7  C   UNL     1      -6.171  -7.071   9.605  1.00  0.00    -0.000 C 
BRANCH   7   8
ATOM      8  C   UNL     1      -4.681  -7.295   9.310  1.00  0.00    -0.003 C 
ATOM      9  C   UNL     1      -3.934  -5.969   9.214  1.00  0.00     0.004 C 
ENDBRANCH   7   8
ENDBRANCH   6   7
ENDBRANCH   1   6
TORSDOF 5
ENDMDL
MODEL 2
REMARK VINA RESULT:    -2.970     21.260     22.157
REMARK INTER + INTRA:          -4.072
REMARK INTER:                  -3.859
REMARK INTRA:                  -0.213
REMARK UNBOUND:                -0.234
REMARK SMILES CCCCCCC(=O)[O-]
REMARK SMILES IDX 5 1 6 2 7 3 8 4 9 5 4 6 3 7 2 8 1 9
REMARK H PARENT
REMARK Flexibility Score: inf
ROOT
ATOM      1  C   UNL     1      -7.188   5.091  -8.365  1.00  0.00     0.006 C 
ENDROOT
BRANCH   1   2
ATOM      2  C   UNL     1      -7.634   4.692  -9.774  1.00  0.00     0.053 C 
BRANCH   2   3
ATOM      3  C   UNL     1      -9.127   4.669  -9.866  1.00  0.00     0.041 C 
ATOM      4  O   UNL     1      -9.736   3.577 -10.011  1.00  0.00    -0.550 OA
ATOM      5  O   UNL     1      -9.843   5.859  -9.842  1.00  0.00    -0.550 OA
ENDBRANCH   2   3
ENDBRANCH   1   2
BRANCH   1   6
ATOM      6  C   UNL     1      -6.435   6.430  -8.385  1.00  0.00     0.000 C 
BRANCH   6   7
ATOM      7  C   UNL     1      -4.973   6.282  -8.835  1.00  0.00    -0.000 C 
BRANCH   7   8
ATOM      8  C   UNL     1      -4.480   7.485  -9.651  1.00  0.00    -0.003 C 
ATOM      9  C   UNL     1      -5.417   8.679  -9.489  1.00  0.00     0.004 C 
ENDBRANCH   7   8
ENDBRANCH   6   7
ENDBRANCH   1   6
TORSDOF 5
ENDMDL
MODEL 3
REMARK VINA RESULT:    -2.969     22.184     23.242
REMARK INTER + INTRA:          -4.070
REMARK INTER:                  -3.710
REMARK INTRA:                  -0.360
REMARK UNBOUND:                -0.234
REMARK SMILES CCCCCCC(=O)[O-]
REMARK SMILES IDX 5 1 6 2 7 3 8 4 9 5 4 6 3 7 2 8 1 9
REMARK H PARENT
REMARK Flexibility Score: inf
ROOT
ATOM      1  C   UNL     1       7.146  -6.303  -7.808  1.00  0.00     0.006 C 
ENDROOT
BRANCH   1   2
ATOM      2  C   UNL     1       6.443  -6.157  -9.160  1.00  0.00     0.053 C 
BRANCH   2   3
ATOM      3  C   UNL     1       5.002  -6.540  -9.047  1.00  0.00     0.041 C 
ATOM      4  O   UNL     1       4.154  -5.705  -8.636  1.00  0.00    -0.550 OA
ATOM      5  O   UNL     1       4.602  -7.836  -9.349  1.00  0.00    -0.550 OA
ENDBRANCH   2   3
ENDBRANCH   1   2
BRANCH   1   6
ATOM      6  C   UNL     1       8.086  -7.518  -7.805  1.00  0.00     0.000 C 
BRANCH   6   7
ATOM      7  C   UNL     1       8.708  -7.790  -9.184  1.00  0.00    -0.000 C 
BRANCH   7   8
ATOM      8  C   UNL     1       8.707  -9.281  -9.549  1.00  0.00    -0.003 C 
ATOM      9  C   UNL     1       7.387  -9.941  -9.162  1.00  0.00     0.004 C 
ENDBRANCH   7   8
ENDBRANCH   6   7
ENDBRANCH   1   6
TORSDOF 5
ENDMDL
MODEL 4
REMARK VINA RESULT:    -2.958      2.959      3.424
REMARK INTER + INTRA:          -4.056
REMARK INTER:                  -3.780
REMARK INTRA:                  -0.276
REMARK UNBOUND:                -0.234
REMARK SMILES CCCCCCC(=O)[O-]
REMARK SMILES IDX 5 1 6 2 7 3 8 4 9 5 4 6 3 7 2 8 1 9
REMARK H PARENT
REMARK Flexibility Score: inf
ROOT
ATOM      1  C   UNL     1      -7.046  -6.281   7.794  1.00  0.00     0.006 C 
ENDROOT
BRANCH   1   2
ATOM      2  C   UNL     1      -8.159  -7.257   8.182  1.00  0.00     0.053 C 
BRANCH   2   3
ATOM      3  C   UNL     1      -7.588  -8.464   8.857  1.00  0.00     0.041 C 
ATOM      4  O   UNL     1      -8.339  -9.419   9.190  1.00  0.00    -0.550 OA
ATOM      5  O   UNL     1      -6.235  -8.512   9.165  1.00  0.00    -0.550 OA
ENDBRANCH   2   3
ENDBRANCH   1   2
BRANCH   1   6
ATOM      6  C   UNL     1      -7.142  -4.983   8.612  1.00  0.00     0.000 C 
BRANCH   6   7
ATOM      7  C   UNL     1      -6.136  -4.938   9.772  1.00  0.00    -0.000 C 
BRANCH   7   8
ATOM      8  C   UNL     1      -4.716  -5.332   9.340  1.00  0.00    -0.003 C 
ATOM      9  C   UNL     1      -3.677  -4.392   9.945  1.00  0.00     0.004 C 
ENDBRANCH   7   8
ENDBRANCH   6   7
ENDBRANCH   1   6
TORSDOF 5
ENDMDL
MODEL 5
REMARK VINA RESULT:    -2.953     17.631     19.215
REMARK INTER + INTRA:          -4.050
REMARK INTER:                  -3.672
REMARK INTRA:                  -0.378
REMARK UNBOUND:                -0.234
REMARK SMILES CCCCCCC(=O)[O-]
REMARK SMILES IDX 5 1 6 2 7 3 8 4 9 5 4 6 3 7 2 8 1 9
REMARK H PARENT
REMARK Flexibility Score: inf
ROOT
ATOM      1  C   UNL     1       7.132   6.302   7.670  1.00  0.00     0.006 C 
ENDROOT
BRANCH   1   2
ATOM      2  C   UNL     1       6.441   5.966   8.994  1.00  0.00     0.053 C 
BRANCH   2   3
ATOM      3  C   UNL     1       5.022   6.438   8.981  1.00  0.00     0.041 C 
ATOM      4  O   UNL     1       4.098   5.661   8.624  1.00  0.00    -0.550 OA
ATOM      5  O   UNL     1       4.724   7.754   9.314  1.00  0.00    -0.550 OA
ENDBRANCH   2   3
ENDBRANCH   1   2
BRANCH   1   6
ATOM      6  C   UNL     1       8.109   7.475   7.842  1.00  0.00     0.000 C 
BRANCH   6   7
ATOM      7  C   UNL     1       8.661   7.582   9.273  1.00  0.00    -0.000 C 
BRANCH   7   8
ATOM      8  C   UNL     1       8.429   8.967   9.894  1.00  0.00    -0.003 C 
ATOM      9  C   UNL     1       7.481   9.802   9.038  1.00  0.00     0.004 C 
ENDBRANCH   7   8
ENDBRANCH   6   7
ENDBRANCH   1   6
TORSDOF 5
ENDMDL
MODEL 6
REMARK VINA RESULT:    -2.946      3.390      4.362
REMARK INTER + INTRA:          -4.041
REMARK INTER:                  -3.679
REMARK INTRA:                  -0.362
REMARK UNBOUND:                -0.234
REMARK SMILES CCCCCCC(=O)[O-]
REMARK SMILES IDX 5 1 6 2 7 3 8 4 9 5 4 6 3 7 2 8 1 9
REMARK H PARENT
REMARK Flexibility Score: inf
ROOT
ATOM      1  C   UNL     1      -7.110  -6.320   7.824  1.00  0.00     0.006 C 
ENDROOT
BRANCH   1   2
ATOM      2  C   UNL     1      -6.401  -6.124   9.166  1.00  0.00     0.053 C 
BRANCH   2   3
ATOM      3  C   UNL     1      -4.958  -6.502   9.058  1.00  0.00     0.041 C 
ATOM      4  O   UNL     1      -4.114  -5.669   8.634  1.00  0.00    -0.550 OA
ATOM      5  O   UNL     1      -4.551  -7.791   9.379  1.00  0.00    -0.550 OA
ENDBRANCH   2   3
ENDBRANCH   1   2
BRANCH   1   6
ATOM      6  C   UNL     1      -8.085  -7.505   7.884  1.00  0.00     0.000 C 
BRANCH   6   7
ATOM      7  C   UNL     1      -8.566  -7.806   9.312  1.00  0.00    -0.000 C 
BRANCH   7   8
ATOM      8  C   UNL     1      -8.432  -9.290   9.681  1.00  0.00    -0.003 C 
ATOM      9  C   UNL     1      -7.222  -9.920   8.998  1.00  0.00     0.004 C 
ENDBRANCH   7   8
ENDBRANCH   6   7
ENDBRANCH   1   6
TORSDOF 5
ENDMDL
MODEL 7
REMARK VINA RESULT:    -2.943     23.240     24.162
REMARK INTER + INTRA:          -4.037
REMARK INTER:                  -3.816
REMARK INTRA:                  -0.221
REMARK UNBOUND:                -0.234
REMARK SMILES CCCCCCC(=O)[O-]
REMARK SMILES IDX 5 1 6 2 7 3 8 4 9 5 4 6 3 7 2 8 1 9
REMARK H PARENT
REMARK Flexibility Score: inf
ROOT
ATOM      1  C   UNL     1       7.255  -5.334  -8.340  1.00  0.00     0.006 C 
ENDROOT
BRANCH   1   2
ATOM      2  C   UNL     1       7.700  -4.980  -9.761  1.00  0.00     0.053 C 
BRANCH   2   3
ATOM      3  C   UNL     1       9.187  -4.835  -9.826  1.00  0.00     0.041 C 
ATOM      4  O   UNL     1       9.931  -5.838  -9.662  1.00  0.00    -0.550 OA
ATOM      5  O   UNL     1       9.755  -3.581 -10.016  1.00  0.00    -0.550 OA
ENDBRANCH   2   3
ENDBRANCH   1   2
BRANCH   1   6
ATOM      6  C   UNL     1       6.432  -6.631  -8.328  1.00  0.00     0.000 C 
BRANCH   6   7
ATOM      7  C   UNL     1       5.011  -6.437  -8.880  1.00  0.00    -0.000 C 
BRANCH   7   8
ATOM      8  C   UNL     1       4.500  -7.666  -9.645  1.00  0.00    -0.003 C 
ATOM      9  C   UNL     1       5.457  -8.845  -9.493  1.00  0.00     0.004 C 
ENDBRANCH   7   8
ENDBRANCH   6   7
ENDBRANCH   1   6
TORSDOF 5
ENDMDL
MODEL 8
REMARK VINA RESULT:    -2.933     21.702     22.206
REMARK INTER + INTRA:          -4.024
REMARK INTER:                  -3.764
REMARK INTRA:                  -0.260
REMARK UNBOUND:                -0.234
REMARK SMILES CCCCCCC(=O)[O-]
REMARK SMILES IDX 5 1 6 2 7 3 8 4 9 5 4 6 3 7 2 8 1 9
REMARK H PARENT
REMARK Flexibility Score: inf
ROOT
ATOM      1  C   UNL     1      -7.102   6.363  -7.852  1.00  0.00     0.006 C 
ENDROOT
BRANCH   1   2
ATOM      2  C   UNL     1      -8.118   7.504  -7.958  1.00  0.00     0.053 C 
BRANCH   2   3
ATOM      3  C   UNL     1      -7.606   8.582  -8.859  1.00  0.00     0.041 C 
ATOM      4  O   UNL     1      -6.381   8.641  -9.145  1.00  0.00    -0.550 OA
ATOM      5  O   UNL     1      -8.473   9.554  -9.343  1.00  0.00    -0.550 OA
ENDBRANCH   2   3
ENDBRANCH   1   2
BRANCH   1   6
ATOM      6  C   UNL     1      -7.493   5.192  -8.766  1.00  0.00     0.000 C 
BRANCH   6   7
ATOM      7  C   UNL     1      -6.281   4.554  -9.463  1.00  0.00    -0.000 C 
BRANCH   7   8
ATOM      8  C   UNL     1      -5.022   5.430  -9.379  1.00  0.00    -0.003 C 
ATOM      9  C   UNL     1      -3.783   4.654  -9.817  1.00  0.00     0.004 C 
ENDBRANCH   7   8
ENDBRANCH   6   7
ENDBRANCH   1   6
TORSDOF 5
ENDMDL
MODEL 9
REMARK VINA RESULT:    -2.910     21.898     23.011
REMARK INTER + INTRA:          -3.994
REMARK INTER:                  -3.625
REMARK INTRA:                  -0.369
REMARK UNBOUND:                -0.234
REMARK SMILES CCCCCCC(=O)[O-]
REMARK SMILES IDX 5 1 6 2 7 3 8 4 9 5 4 6 3 7 2 8 1 9
REMARK H PARENT
REMARK Flexibility Score: inf
ROOT
ATOM      1  C   UNL     1      -7.072   6.423  -7.914  1.00  0.00     0.006 C 
ENDROOT
BRANCH   1   2
ATOM      2  C   UNL     1      -6.358   6.330  -9.265  1.00  0.00     0.053 C 
BRANCH   2   3
ATOM      3  C   UNL     1      -4.907   6.657  -9.116  1.00  0.00     0.041 C 
ATOM      4  O   UNL     1      -4.472   7.788  -9.460  1.00  0.00    -0.550 OA
ATOM      5  O   UNL     1      -4.023   5.694  -8.645  1.00  0.00    -0.550 OA
ENDBRANCH   2   3
ENDBRANCH   1   2
BRANCH   1   6
ATOM      6  C   UNL     1      -8.136   7.531  -7.928  1.00  0.00     0.000 C 
BRANCH   6   7
ATOM      7  C   UNL     1      -8.485   7.999  -9.350  1.00  0.00    -0.000 C 
BRANCH   7   8
ATOM      8  C   UNL     1      -8.460   9.528  -9.491  1.00  0.00    -0.003 C 
ATOM      9  C   UNL     1      -7.107  10.097  -9.075  1.00  0.00     0.004 C 
ENDBRANCH   7   8
ENDBRANCH   6   7
ENDBRANCH   1   6
TORSDOF 5
ENDMDL
