MODEL 1
REMARK VINA RESULT:    -5.032      0.000      0.000
REMARK INTER + INTRA:         -13.276
REMARK INTER:                 -11.503
REMARK INTRA:                  -1.773
REMARK UNBOUND:                -1.773
REMARK SMILES CCCCCCCCCCCCCCCCCCCCCCCC(=O)[O-]
REMARK SMILES IDX 13 1 14 2 15 3 16 4 17 5 18 6 19 7 20 8 21 9 22 10 23 11
REMARK SMILES IDX 24 12 25 13 26 14 12 15 11 16 10 17 9 18 8 19 7 20 6 21 5 22
REMARK SMILES IDX 4 23 3 24 2 25 1 26
REMARK H PARENT
REMARK Flexibility Score: inf
ROOT
ATOM      1  C   UNL     1      -7.762  -9.314  -5.113  1.00  0.00     0.000 C 
ENDROOT
BRANCH   1   2
ATOM      2  C   UNL     1      -7.464 -10.821  -5.182  1.00  0.00     0.000 C 
BRANCH   2   3
ATOM      3  C   UNL     1      -8.581 -11.620  -5.876  1.00  0.00     0.000 C 
BRANCH   3   4
ATOM      4  C   UNL     1      -8.069 -12.578  -6.971  1.00  0.00     0.000 C 
BRANCH   4   5
ATOM      5  C   UNL     1      -6.798 -12.048  -7.656  1.00  0.00     0.000 C 
BRANCH   5   6
ATOM      6  C   UNL     1      -5.721 -13.140  -7.742  1.00  0.00     0.000 C 
BRANCH   6   7
ATOM      7  C   UNL     1      -4.316 -12.627  -7.376  1.00  0.00     0.000 C 
BRANCH   7   8
ATOM      8  C   UNL     1      -4.289 -11.290  -6.612  1.00  0.00     0.000 C 
BRANCH   8   9
ATOM      9  C   UNL     1      -3.191 -11.233  -5.539  1.00  0.00     0.000 C 
BRANCH   9  10
ATOM     10  C   UNL     1      -2.628 -12.630  -5.256  1.00  0.00     0.006 C 
BRANCH  10  11
ATOM     11  C   UNL     1      -2.331 -12.811  -3.764  1.00  0.00     0.053 C 
BRANCH  11  12
ATOM     12  C   UNL     1      -0.896 -13.173  -3.554  1.00  0.00     0.041 C 
ATOM     13  O   UNL     1      -0.103 -13.218  -4.531  1.00  0.00    -0.550 OA
ATOM     14  O   UNL     1      -0.440 -13.496  -2.283  1.00  0.00    -0.550 OA
ENDBRANCH  11  12
ENDBRANCH  10  11
ENDBRANCH   9  10
ENDBRANCH   8   9
ENDBRANCH   7   8
ENDBRANCH   6   7
ENDBRANCH   5   6
ENDBRANCH   4   5
ENDBRANCH   3   4
ENDBRANCH   2   3
ENDBRANCH   1   2
BRANCH   1  15
ATOM     15  C   UNL     1      -9.274  -9.004  -5.085  1.00  0.00     0.000 C 
BRANCH  15  16
ATOM     16  C   UNL     1      -9.625  -7.559  -5.489  1.00  0.00     0.000 C 
BRANCH  16  17
ATOM     17  C   UNL     1     -10.906  -7.409  -6.330  1.00  0.00     0.000 C 
BRANCH  17  18
ATOM     18  C   UNL     1     -12.197  -7.184  -5.516  1.00  0.00    -0.000 C 
BRANCH  18  19
ATOM     19  C   UNL     1     -12.678  -5.721  -5.437  1.00  0.00    -0.000 C 
BRANCH  19  20
ATOM     20  C   UNL     1     -11.581  -4.689  -5.117  1.00  0.00    -0.000 C 
BRANCH  20  21
ATOM     21  C   UNL     1     -11.610  -3.477  -6.063  1.00  0.00    -0.000 C 
BRANCH  21  22
ATOM     22  C   UNL     1     -10.870  -3.733  -7.388  1.00  0.00    -0.000 C 
BRANCH  22  23
ATOM     23  C   UNL     1     -11.773  -3.908  -8.627  1.00  0.00    -0.000 C 
BRANCH  23  24
ATOM     24  C   UNL     1     -11.178  -3.390  -9.948  1.00  0.00    -0.000 C 
BRANCH  24  25
ATOM     25  C   UNL     1     -10.860  -4.518 -10.939  1.00  0.00    -0.003 C 
ATOM     26  C   UNL     1     -11.495  -5.833 -10.496  1.00  0.00     0.004 C 
ENDBRANCH  24  25
ENDBRANCH  23  24
ENDBRANCH  22  23
ENDBRANCH  21  22
ENDBRANCH  20  21
ENDBRANCH  19  20
ENDBRANCH  18  19
ENDBRANCH  17  18
ENDBRANCH  16  17
ENDBRANCH  15  16
ENDBRANCH   1  15
TORSDOF 22
ENDMDL
MODEL 2
REMARK VINA RESULT:    -5.025      4.622      9.601
REMARK INTER + INTRA:         -13.261
REMARK INTER:                 -10.685
REMARK INTRA:                  -2.576
REMARK UNBOUND:                -1.773
REMARK SMILES CCCCCCCCCCCCCCCCCCCCCCCC(=O)[O-]
REMARK SMILES IDX 13 1 14 2 15 3 16 4 17 5 18 6 19 7 20 8 21 9 22 10 23 11
REMARK SMILES IDX 24 12 25 13 26 14 12 15 11 16 10 17 9 18 8 19 7 20 6 21 5 22
REMARK SMILES IDX 4 23 3 24 2 25 1 26
REMARK H PARENT
REMARK Flexibility Score: inf
ROOT
ATOM      1  C   UNL     1      -7.021 -10.360  -5.128  1.00  0.00     0.000 C 
ENDROOT
BRANCH   1   2
ATOM      2  C   UNL     1      -7.956  -9.185  -4.795  1.00  0.00     0.000 C 
BRANCH   2   3
ATOM      3  C   UNL     1      -9.425  -9.469  -5.157  1.00  0.00     0.000 C 
BRANCH   3   4
ATOM      4  C   UNL     1     -10.199  -8.220  -5.625  1.00  0.00     0.000 C 
BRANCH   4   5
ATOM      5  C   UNL     1      -9.424  -6.920  -5.351  1.00  0.00     0.000 C 
BRANCH   5   6
ATOM      6  C   UNL     1      -9.241  -6.104  -6.639  1.00  0.00     0.000 C 
BRANCH   6   7
ATOM      7  C   UNL     1     -10.352  -6.360  -7.675  1.00  0.00     0.000 C 
BRANCH   7   8
ATOM      8  C   UNL     1     -10.904  -5.098  -8.364  1.00  0.00     0.000 C 
BRANCH   8   9
ATOM      9  C   UNL     1     -11.220  -3.964  -7.379  1.00  0.00     0.000 C 
BRANCH   9  10
ATOM     10  C   UNL     1     -12.502  -4.261  -6.593  1.00  0.00     0.006 C 
BRANCH  10  11
ATOM     11  C   UNL     1     -12.202  -4.454  -5.103  1.00  0.00     0.053 C 
BRANCH  11  12
ATOM     12  C   UNL     1     -12.978  -5.609  -4.557  1.00  0.00     0.041 C 
ATOM     13  O   UNL     1     -13.168  -6.636  -5.260  1.00  0.00    -0.550 OA
ATOM     14  O   UNL     1     -13.523  -5.538  -3.281  1.00  0.00    -0.550 OA
ENDBRANCH  11  12
ENDBRANCH  10  11
ENDBRANCH   9  10
ENDBRANCH   8   9
ENDBRANCH   7   8
ENDBRANCH   6   7
ENDBRANCH   5   6
ENDBRANCH   4   5
ENDBRANCH   3   4
ENDBRANCH   2   3
ENDBRANCH   1   2
BRANCH   1  15
ATOM     15  C   UNL     1      -6.266 -10.166  -6.459  1.00  0.00     0.000 C 
BRANCH  15  16
ATOM     16  C   UNL     1      -4.948 -10.960  -6.554  1.00  0.00     0.000 C 
BRANCH  16  17
ATOM     17  C   UNL     1      -5.033 -12.271  -7.358  1.00  0.00     0.000 C 
BRANCH  17  18
ATOM     18  C   UNL     1      -6.346 -12.472  -8.141  1.00  0.00    -0.000 C 
BRANCH  18  19
ATOM     19  C   UNL     1      -7.145 -13.738  -7.771  1.00  0.00    -0.000 C 
BRANCH  19  20
ATOM     20  C   UNL     1      -8.676 -13.587  -7.840  1.00  0.00    -0.000 C 
BRANCH  20  21
ATOM     21  C   UNL     1      -9.242 -12.744  -6.684  1.00  0.00    -0.000 C 
BRANCH  21  22
ATOM     22  C   UNL     1     -10.763 -12.529  -6.789  1.00  0.00    -0.000 C 
BRANCH  22  23
ATOM     23  C   UNL     1     -11.578 -12.962  -5.553  1.00  0.00    -0.000 C 
BRANCH  23  24
ATOM     24  C   UNL     1     -11.437 -12.048  -4.323  1.00  0.00    -0.000 C 
BRANCH  24  25
ATOM     25  C   UNL     1     -11.847 -12.741  -3.017  1.00  0.00    -0.003 C 
ATOM     26  C   UNL     1     -13.134 -13.539  -3.200  1.00  0.00     0.004 C 
ENDBRANCH  24  25
ENDBRANCH  23  24
ENDBRANCH  22  23
ENDBRANCH  21  22
ENDBRANCH  20  21
ENDBRANCH  19  20
ENDBRANCH  18  19
ENDBRANCH  17  18
ENDBRANCH  16  17
ENDBRANCH  15  16
ENDBRANCH   1  15
TORSDOF 22
ENDMDL
MODEL 3
REMARK VINA RESULT:    -4.982      4.011      5.921
REMARK INTER + INTRA:         -13.164
REMARK INTER:                 -10.306
REMARK INTRA:                  -2.857
REMARK UNBOUND:                -1.773
REMARK SMILES CCCCCCCCCCCCCCCCCCCCCCCC(=O)[O-]
REMARK SMILES IDX 13 1 14 2 15 3 16 4 17 5 18 6 19 7 20 8 21 9 22 10 23 11
REMARK SMILES IDX 24 12 25 13 26 14 12 15 11 16 10 17 9 18 8 19 7 20 6 21 5 22
REMARK SMILES IDX 4 23 3 24 2 25 1 26
REMARK H PARENT
REMARK Flexibility Score: inf
ROOT
ATOM      1  C   UNL     1      -8.855  -8.844  -4.733  1.00  0.00     0.000 C 
ENDROOT
BRANCH   1   2
ATOM      2  C   UNL     1      -7.601  -9.351  -5.464  1.00  0.00     0.000 C 
BRANCH   2   3
ATOM      3  C   UNL     1      -7.624 -10.870  -5.709  1.00  0.00     0.000 C 
BRANCH   3   4
ATOM      4  C   UNL     1      -9.011 -11.511  -5.494  1.00  0.00     0.000 C 
BRANCH   4   5
ATOM      5  C   UNL     1      -9.352 -12.534  -6.590  1.00  0.00     0.000 C 
BRANCH   5   6
ATOM      6  C   UNL     1     -10.756 -12.285  -7.160  1.00  0.00     0.000 C 
BRANCH   6   7
ATOM      7  C   UNL     1     -11.532 -11.198  -6.392  1.00  0.00     0.000 C 
BRANCH   7   8
ATOM      8  C   UNL     1     -12.967 -11.584  -5.987  1.00  0.00     0.000 C 
BRANCH   8   9
ATOM      9  C   UNL     1     -13.634 -10.545  -5.075  1.00  0.00     0.000 C 
BRANCH   9  10
ATOM     10  C   UNL     1     -13.624 -11.009  -3.613  1.00  0.00     0.006 C 
BRANCH  10  11
ATOM     11  C   UNL     1     -13.166 -12.467  -3.503  1.00  0.00     0.053 C 
BRANCH  11  12
ATOM     12  C   UNL     1     -11.890 -12.558  -2.729  1.00  0.00     0.041 C 
ATOM     13  O   UNL     1     -11.754 -11.923  -1.650  1.00  0.00    -0.550 OA
ATOM     14  O   UNL     1     -10.835 -13.319  -3.216  1.00  0.00    -0.550 OA
ENDBRANCH  11  12
ENDBRANCH  10  11
ENDBRANCH   9  10
ENDBRANCH   8   9
ENDBRANCH   7   8
ENDBRANCH   6   7
ENDBRANCH   5   6
ENDBRANCH   4   5
ENDBRANCH   3   4
ENDBRANCH   2   3
ENDBRANCH   1   2
BRANCH   1  15
ATOM     15  C   UNL     1      -9.094  -7.333  -4.933  1.00  0.00     0.000 C 
BRANCH  15  16
ATOM     16  C   UNL     1      -9.671  -6.968  -6.315  1.00  0.00     0.000 C 
BRANCH  16  17
ATOM     17  C   UNL     1     -11.084  -7.514  -6.598  1.00  0.00     0.000 C 
BRANCH  17  18
ATOM     18  C   UNL     1     -12.114  -7.268  -5.477  1.00  0.00    -0.000 C 
BRANCH  18  19
ATOM     19  C   UNL     1     -12.765  -5.869  -5.477  1.00  0.00    -0.000 C 
BRANCH  19  20
ATOM     20  C   UNL     1     -11.881  -4.737  -4.922  1.00  0.00    -0.000 C 
BRANCH  20  21
ATOM     21  C   UNL     1     -11.692  -3.585  -5.923  1.00  0.00    -0.000 C 
BRANCH  21  22
ATOM     22  C   UNL     1     -12.111  -3.962  -7.356  1.00  0.00    -0.000 C 
BRANCH  22  23
ATOM     23  C   UNL     1     -10.953  -4.115  -8.364  1.00  0.00    -0.000 C 
BRANCH  23  24
ATOM     24  C   UNL     1     -11.204  -3.488  -9.747  1.00  0.00    -0.000 C 
BRANCH  24  25
ATOM     25  C   UNL     1     -10.964  -4.474 -10.899  1.00  0.00    -0.003 C 
ATOM     26  C   UNL     1     -11.507  -5.858 -10.559  1.00  0.00     0.004 C 
ENDBRANCH  24  25
ENDBRANCH  23  24
ENDBRANCH  22  23
ENDBRANCH  21  22
ENDBRANCH  20  21
ENDBRANCH  19  20
ENDBRANCH  18  19
ENDBRANCH  17  18
ENDBRANCH  16  17
ENDBRANCH  15  16
ENDBRANCH   1  15
TORSDOF 22
ENDMDL
MODEL 4
REMARK VINA RESULT:    -4.918      4.824      9.354
REMARK INTER + INTRA:         -13.016
REMARK INTER:                 -10.017
REMARK INTRA:                  -2.999
REMARK UNBOUND:                -1.773
REMARK SMILES CCCCCCCCCCCCCCCCCCCCCCCC(=O)[O-]
REMARK SMILES IDX 13 1 14 2 15 3 16 4 17 5 18 6 19 7 20 8 21 9 22 10 23 11
REMARK SMILES IDX 24 12 25 13 26 14 12 15 11 16 10 17 9 18 8 19 7 20 6 21 5 22
REMARK SMILES IDX 4 23 3 24 2 25 1 26
REMARK H PARENT
REMARK Flexibility Score: inf
ROOT
ATOM      1  C   UNL     1      -7.906  -9.248  -4.660  1.00  0.00     0.000 C 
ENDROOT
BRANCH   1   2
ATOM      2  C   UNL     1      -9.289  -8.764  -5.127  1.00  0.00     0.000 C 
BRANCH   2   3
ATOM      3  C   UNL     1      -9.415  -7.230  -5.131  1.00  0.00     0.000 C 
BRANCH   3   4
ATOM      4  C   UNL     1      -9.276  -6.601  -6.533  1.00  0.00     0.000 C 
BRANCH   4   5
ATOM      5  C   UNL     1     -10.562  -6.749  -7.364  1.00  0.00     0.000 C 
BRANCH   5   6
ATOM      6  C   UNL     1     -10.463  -5.962  -8.679  1.00  0.00     0.000 C 
BRANCH   6   7
ATOM      7  C   UNL     1     -11.213  -4.617  -8.631  1.00  0.00     0.000 C 
BRANCH   7   8
ATOM      8  C   UNL     1     -10.811  -3.688  -7.470  1.00  0.00     0.000 C 
BRANCH   8   9
ATOM      9  C   UNL     1     -12.007  -3.235  -6.621  1.00  0.00     0.000 C 
BRANCH   9  10
ATOM     10  C   UNL     1     -12.813  -4.440  -6.122  1.00  0.00     0.006 C 
BRANCH  10  11
ATOM     11  C   UNL     1     -12.295  -4.923  -4.763  1.00  0.00     0.053 C 
BRANCH  11  12
ATOM     12  C   UNL     1     -13.170  -6.009  -4.224  1.00  0.00     0.041 C 
ATOM     13  O   UNL     1     -13.795  -5.844  -3.144  1.00  0.00    -0.550 OA
ATOM     14  O   UNL     1     -13.269  -7.220  -4.898  1.00  0.00    -0.550 OA
ENDBRANCH  11  12
ENDBRANCH  10  11
ENDBRANCH   9  10
ENDBRANCH   8   9
ENDBRANCH   7   8
ENDBRANCH   6   7
ENDBRANCH   5   6
ENDBRANCH   4   5
ENDBRANCH   3   4
ENDBRANCH   2   3
ENDBRANCH   1   2
BRANCH   1  15
ATOM     15  C   UNL     1      -7.274 -10.272  -5.627  1.00  0.00     0.000 C 
BRANCH  15  16
ATOM     16  C   UNL     1      -8.158 -11.505  -5.898  1.00  0.00     0.000 C 
BRANCH  16  17
ATOM     17  C   UNL     1      -7.708 -12.383  -7.081  1.00  0.00     0.000 C 
BRANCH  17  18
ATOM     18  C   UNL     1      -8.725 -13.456  -7.520  1.00  0.00    -0.000 C 
BRANCH  18  19
ATOM     19  C   UNL     1     -10.176 -13.216  -7.055  1.00  0.00    -0.000 C 
BRANCH  19  20
ATOM     20  C   UNL     1     -11.195 -12.990  -8.187  1.00  0.00    -0.000 C 
BRANCH  20  21
ATOM     21  C   UNL     1     -12.037 -11.719  -7.984  1.00  0.00    -0.000 C 
BRANCH  21  22
ATOM     22  C   UNL     1     -11.733 -11.005  -6.655  1.00  0.00    -0.000 C 
BRANCH  22  23
ATOM     23  C   UNL     1     -12.937 -10.829  -5.708  1.00  0.00    -0.000 C 
BRANCH  23  24
ATOM     24  C   UNL     1     -12.722 -11.342  -4.274  1.00  0.00    -0.000 C 
BRANCH  24  25
ATOM     25  C   UNL     1     -11.268 -11.749  -4.000  1.00  0.00    -0.003 C 
ATOM     26  C   UNL     1     -11.186 -13.185  -3.494  1.00  0.00     0.004 C 
ENDBRANCH  24  25
ENDBRANCH  23  24
ENDBRANCH  22  23
ENDBRANCH  21  22
ENDBRANCH  20  21
ENDBRANCH  19  20
ENDBRANCH  18  19
ENDBRANCH  17  18
ENDBRANCH  16  17
ENDBRANCH  15  16
ENDBRANCH   1  15
TORSDOF 22
ENDMDL
MODEL 5
REMARK VINA RESULT:    -4.883      4.410      9.852
REMARK INTER + INTRA:         -12.937
REMARK INTER:                 -10.717
REMARK INTRA:                  -2.220
REMARK UNBOUND:                -1.773
REMARK SMILES CCCCCCCCCCCCCCCCCCCCCCCC(=O)[O-]
REMARK SMILES IDX 13 1 14 2 15 3 16 4 17 5 18 6 19 7 20 8 21 9 22 10 23 11
REMARK SMILES IDX 24 12 25 13 26 14 12 15 11 16 10 17 9 18 8 19 7 20 6 21 5 22
REMARK SMILES IDX 4 23 3 24 2 25 1 26
REMARK H PARENT
REMARK Flexibility Score: inf
ROOT
ATOM      1  C   UNL     1     -10.773  -9.598  -5.803  1.00  0.00     0.000 C 
ENDROOT
BRANCH   1   2
ATOM      2  C   UNL     1      -9.429  -9.461  -5.068  1.00  0.00     0.000 C 
BRANCH   2   3
ATOM      3  C   UNL     1      -8.930  -8.007  -5.000  1.00  0.00     0.000 C 
BRANCH   3   4
ATOM      4  C   UNL     1      -9.932  -6.981  -5.569  1.00  0.00     0.000 C 
BRANCH   4   5
ATOM      5  C   UNL     1      -9.302  -6.101  -6.661  1.00  0.00     0.000 C 
BRANCH   5   6
ATOM      6  C   UNL     1      -9.956  -6.360  -8.026  1.00  0.00     0.000 C 
BRANCH   6   7
ATOM      7  C   UNL     1     -10.930  -5.244  -8.446  1.00  0.00     0.000 C 
BRANCH   7   8
ATOM      8  C   UNL     1     -10.847  -3.955  -7.606  1.00  0.00     0.000 C 
BRANCH   8   9
ATOM      9  C   UNL     1     -12.178  -3.589  -6.934  1.00  0.00     0.000 C 
BRANCH   9  10
ATOM     10  C   UNL     1     -12.820  -4.819  -6.282  1.00  0.00     0.006 C 
BRANCH  10  11
ATOM     11  C   UNL     1     -12.487  -4.886  -4.788  1.00  0.00     0.053 C 
BRANCH  11  12
ATOM     12  C   UNL     1     -13.288  -5.957  -4.119  1.00  0.00     0.041 C 
ATOM     13  O   UNL     1     -13.733  -5.784  -2.954  1.00  0.00    -0.550 OA
ATOM     14  O   UNL     1     -13.514  -7.164  -4.769  1.00  0.00    -0.550 OA
ENDBRANCH  11  12
ENDBRANCH  10  11
ENDBRANCH   9  10
ENDBRANCH   8   9
ENDBRANCH   7   8
ENDBRANCH   6   7
ENDBRANCH   5   6
ENDBRANCH   4   5
ENDBRANCH   3   4
ENDBRANCH   2   3
ENDBRANCH   1   2
BRANCH   1  15
ATOM     15  C   UNL     1     -11.519 -10.901  -5.447  1.00  0.00     0.000 C 
BRANCH  15  16
ATOM     16  C   UNL     1     -10.596 -12.041  -4.972  1.00  0.00     0.000 C 
BRANCH  16  17
ATOM     17  C   UNL     1     -10.376 -13.171  -5.995  1.00  0.00     0.000 C 
BRANCH  17  18
ATOM     18  C   UNL     1      -9.583 -12.766  -7.254  1.00  0.00    -0.000 C 
BRANCH  18  19
ATOM     19  C   UNL     1      -8.257 -13.522  -7.468  1.00  0.00    -0.000 C 
BRANCH  19  20
ATOM     20  C   UNL     1      -6.991 -12.645  -7.431  1.00  0.00    -0.000 C 
BRANCH  20  21
ATOM     21  C   UNL     1      -7.213 -11.314  -6.693  1.00  0.00    -0.000 C 
BRANCH  21  22
ATOM     22  C   UNL     1      -5.900 -10.673  -6.207  1.00  0.00    -0.000 C 
BRANCH  22  23
ATOM     23  C   UNL     1      -4.612 -11.422  -6.604  1.00  0.00    -0.000 C 
BRANCH  23  24
ATOM     24  C   UNL     1      -3.337 -10.964  -5.873  1.00  0.00    -0.000 C 
BRANCH  24  25
ATOM     25  C   UNL     1      -2.854 -11.978  -4.828  1.00  0.00    -0.003 C 
ATOM     26  C   UNL     1      -1.393 -12.351  -5.060  1.00  0.00     0.004 C 
ENDBRANCH  24  25
ENDBRANCH  23  24
ENDBRANCH  22  23
ENDBRANCH  21  22
ENDBRANCH  20  21
ENDBRANCH  19  20
ENDBRANCH  18  19
ENDBRANCH  17  18
ENDBRANCH  16  17
ENDBRANCH  15  16
ENDBRANCH   1  15
TORSDOF 22
ENDMDL
MODEL 6
REMARK VINA RESULT:    -4.820      4.518      9.296
REMARK INTER + INTRA:         -12.793
REMARK INTER:                  -9.843
REMARK INTRA:                  -2.950
REMARK UNBOUND:                -1.773
REMARK SMILES CCCCCCCCCCCCCCCCCCCCCCCC(=O)[O-]
REMARK SMILES IDX 13 1 14 2 15 3 16 4 17 5 18 6 19 7 20 8 21 9 22 10 23 11
REMARK SMILES IDX 24 12 25 13 26 14 12 15 11 16 10 17 9 18 8 19 7 20 6 21 5 22
REMARK SMILES IDX 4 23 3 24 2 25 1 26
REMARK H PARENT
REMARK Flexibility Score: inf
ROOT
ATOM      1  C   UNL     1      -6.695 -10.009  -6.247  1.00  0.00     0.000 C 
ENDROOT
BRANCH   1   2
ATOM      2  C   UNL     1      -7.612 -10.270  -5.041  1.00  0.00     0.000 C 
BRANCH   2   3
ATOM      3  C   UNL     1      -8.937  -9.491  -5.118  1.00  0.00     0.000 C 
BRANCH   3   4
ATOM      4  C   UNL     1      -8.803  -8.001  -4.741  1.00  0.00     0.000 C 
BRANCH   4   5
ATOM      5  C   UNL     1      -9.719  -7.104  -5.589  1.00  0.00     0.000 C 
BRANCH   5   6
ATOM      6  C   UNL     1     -11.044  -7.812  -5.908  1.00  0.00     0.000 C 
BRANCH   6   7
ATOM      7  C   UNL     1     -12.279  -6.987  -5.499  1.00  0.00     0.000 C 
BRANCH   7   8
ATOM      8  C   UNL     1     -11.988  -5.523  -5.118  1.00  0.00     0.000 C 
BRANCH   8   9
ATOM      9  C   UNL     1     -12.417  -4.524  -6.203  1.00  0.00     0.000 C 
BRANCH   9  10
ATOM     10  C   UNL     1     -11.210  -4.049  -7.020  1.00  0.00     0.006 C 
BRANCH  10  11
ATOM     11  C   UNL     1     -11.580  -3.876  -8.497  1.00  0.00     0.053 C 
BRANCH  11  12
ATOM     12  C   UNL     1     -10.820  -4.845  -9.345  1.00  0.00     0.041 C 
ATOM     13  O   UNL     1     -10.366  -5.907  -8.845  1.00  0.00    -0.550 OA
ATOM     14  O   UNL     1     -10.582  -4.557 -10.683  1.00  0.00    -0.550 OA
ENDBRANCH  11  12
ENDBRANCH  10  11
ENDBRANCH   9  10
ENDBRANCH   8   9
ENDBRANCH   7   8
ENDBRANCH   6   7
ENDBRANCH   5   6
ENDBRANCH   4   5
ENDBRANCH   3   4
ENDBRANCH   2   3
ENDBRANCH   1   2
BRANCH   1  15
ATOM     15  C   UNL     1      -5.995 -11.288  -6.753  1.00  0.00     0.000 C 
BRANCH  15  16
ATOM     16  C   UNL     1      -6.773 -12.033  -7.856  1.00  0.00     0.000 C 
BRANCH  16  17
ATOM     17  C   UNL     1      -7.409 -13.366  -7.419  1.00  0.00     0.000 C 
BRANCH  17  18
ATOM     18  C   UNL     1      -8.864 -13.578  -7.884  1.00  0.00    -0.000 C 
BRANCH  18  19
ATOM     19  C   UNL     1      -9.940 -13.344  -6.804  1.00  0.00    -0.000 C 
BRANCH  19  20
ATOM     20  C   UNL     1     -10.530 -11.922  -6.767  1.00  0.00    -0.000 C 
BRANCH  20  21
ATOM     21  C   UNL     1     -11.848 -11.805  -7.551  1.00  0.00    -0.000 C 
BRANCH  21  22
ATOM     22  C   UNL     1     -13.083 -11.715  -6.637  1.00  0.00    -0.000 C 
BRANCH  22  23
ATOM     23  C   UNL     1     -12.864 -10.978  -5.300  1.00  0.00    -0.000 C 
BRANCH  23  24
ATOM     24  C   UNL     1     -13.038 -11.844  -4.039  1.00  0.00    -0.000 C 
BRANCH  24  25
ATOM     25  C   UNL     1     -11.735 -12.004  -3.245  1.00  0.00    -0.003 C 
ATOM     26  C   UNL     1     -11.189 -13.424  -3.368  1.00  0.00     0.004 C 
ENDBRANCH  24  25
ENDBRANCH  23  24
ENDBRANCH  22  23
ENDBRANCH  21  22
ENDBRANCH  20  21
ENDBRANCH  19  20
ENDBRANCH  18  19
ENDBRANCH  17  18
ENDBRANCH  16  17
ENDBRANCH  15  16
ENDBRANCH   1  15
TORSDOF 22
ENDMDL
MODEL 7
REMARK VINA RESULT:    -4.792      4.661      9.431
REMARK INTER + INTRA:         -12.729
REMARK INTER:                 -10.152
REMARK INTRA:                  -2.577
REMARK UNBOUND:                -1.773
REMARK SMILES CCCCCCCCCCCCCCCCCCCCCCCC(=O)[O-]
REMARK SMILES IDX 13 1 14 2 15 3 16 4 17 5 18 6 19 7 20 8 21 9 22 10 23 11
REMARK SMILES IDX 24 12 25 13 26 14 12 15 11 16 10 17 9 18 8 19 7 20 6 21 5 22
REMARK SMILES IDX 4 23 3 24 2 25 1 26
REMARK H PARENT
REMARK Flexibility Score: inf
ROOT
ATOM      1  C   UNL     1      -7.219 -10.535  -5.114  1.00  0.00     0.000 C 
ENDROOT
BRANCH   1   2
ATOM      2  C   UNL     1      -8.104  -9.326  -4.768  1.00  0.00     0.000 C 
BRANCH   2   3
ATOM      3  C   UNL     1      -9.574  -9.524  -5.177  1.00  0.00     0.000 C 
BRANCH   3   4
ATOM      4  C   UNL     1     -10.274  -8.223  -5.622  1.00  0.00     0.000 C 
BRANCH   4   5
ATOM      5  C   UNL     1      -9.407  -6.981  -5.360  1.00  0.00     0.000 C 
BRANCH   5   6
ATOM      6  C   UNL     1      -9.213  -6.162  -6.645  1.00  0.00     0.000 C 
BRANCH   6   7
ATOM      7  C   UNL     1     -10.442  -6.201  -7.573  1.00  0.00     0.000 C 
BRANCH   7   8
ATOM      8  C   UNL     1     -10.727  -4.892  -8.333  1.00  0.00     0.000 C 
BRANCH   8   9
ATOM      9  C   UNL     1     -11.387  -3.819  -7.455  1.00  0.00     0.000 C 
BRANCH   9  10
ATOM     10  C   UNL     1     -12.563  -4.404  -6.664  1.00  0.00     0.006 C 
BRANCH  10  11
ATOM     11  C   UNL     1     -12.227  -4.501  -5.172  1.00  0.00     0.053 C 
BRANCH  11  12
ATOM     12  C   UNL     1     -13.004  -5.606  -4.531  1.00  0.00     0.041 C 
ATOM     13  O   UNL     1     -13.248  -6.664  -5.168  1.00  0.00    -0.550 OA
ATOM     14  O   UNL     1     -13.491  -5.453  -3.239  1.00  0.00    -0.550 OA
ENDBRANCH  11  12
ENDBRANCH  10  11
ENDBRANCH   9  10
ENDBRANCH   8   9
ENDBRANCH   7   8
ENDBRANCH   6   7
ENDBRANCH   5   6
ENDBRANCH   4   5
ENDBRANCH   3   4
ENDBRANCH   2   3
ENDBRANCH   1   2
BRANCH   1  15
ATOM     15  C   UNL     1      -6.492 -10.377  -6.466  1.00  0.00     0.000 C 
BRANCH  15  16
ATOM     16  C   UNL     1      -5.138 -11.108  -6.539  1.00  0.00     0.000 C 
BRANCH  16  17
ATOM     17  C   UNL     1      -5.060 -12.238  -7.582  1.00  0.00     0.000 C 
BRANCH  17  18
ATOM     18  C   UNL     1      -6.405 -12.616  -8.235  1.00  0.00    -0.000 C 
BRANCH  18  19
ATOM     19  C   UNL     1      -7.072 -13.890  -7.677  1.00  0.00    -0.000 C 
BRANCH  19  20
ATOM     20  C   UNL     1      -8.610 -13.909  -7.753  1.00  0.00    -0.000 C 
BRANCH  20  21
ATOM     21  C   UNL     1      -9.256 -12.725  -7.014  1.00  0.00    -0.000 C 
BRANCH  21  22
ATOM     22  C   UNL     1     -10.309 -13.165  -5.982  1.00  0.00    -0.000 C 
BRANCH  22  23
ATOM     23  C   UNL     1     -11.588 -13.798  -6.570  1.00  0.00    -0.000 C 
BRANCH  23  24
ATOM     24  C   UNL     1     -12.308 -12.950  -7.633  1.00  0.00    -0.000 C 
BRANCH  24  25
ATOM     25  C   UNL     1     -12.152 -13.517  -9.050  1.00  0.00    -0.003 C 
ATOM     26  C   UNL     1     -12.183 -12.404 -10.093  1.00  0.00     0.004 C 
ENDBRANCH  24  25
ENDBRANCH  23  24
ENDBRANCH  22  23
ENDBRANCH  21  22
ENDBRANCH  20  21
ENDBRANCH  19  20
ENDBRANCH  18  19
ENDBRANCH  17  18
ENDBRANCH  16  17
ENDBRANCH  15  16
ENDBRANCH   1  15
TORSDOF 22
ENDMDL
MODEL 8
REMARK VINA RESULT:    -4.742      4.810      9.415
REMARK INTER + INTRA:         -12.615
REMARK INTER:                  -9.832
REMARK INTRA:                  -2.783
REMARK UNBOUND:                -1.773
REMARK SMILES CCCCCCCCCCCCCCCCCCCCCCCC(=O)[O-]
REMARK SMILES IDX 13 1 14 2 15 3 16 4 17 5 18 6 19 7 20 8 21 9 22 10 23 11
REMARK SMILES IDX 24 12 25 13 26 14 12 15 11 16 10 17 9 18 8 19 7 20 6 21 5 22
REMARK SMILES IDX 4 23 3 24 2 25 1 26
REMARK H PARENT
REMARK Flexibility Score: inf
ROOT
ATOM      1  C   UNL     1     -11.864  -9.963  -6.474  1.00  0.00     0.000 C 
ENDROOT
BRANCH   1   2
ATOM      2  C   UNL     1     -11.665  -8.568  -5.858  1.00  0.00     0.000 C 
BRANCH   2   3
ATOM      3  C   UNL     1     -10.190  -8.252  -5.557  1.00  0.00     0.000 C 
BRANCH   3   4
ATOM      4  C   UNL     1      -9.871  -6.742  -5.537  1.00  0.00     0.000 C 
BRANCH   4   5
ATOM      5  C   UNL     1      -9.287  -6.255  -6.873  1.00  0.00     0.000 C 
BRANCH   5   6
ATOM      6  C   UNL     1     -10.350  -6.278  -7.981  1.00  0.00     0.000 C 
BRANCH   6   7
ATOM      7  C   UNL     1     -10.385  -4.977  -8.805  1.00  0.00     0.000 C 
BRANCH   7   8
ATOM      8  C   UNL     1     -10.798  -3.718  -8.020  1.00  0.00     0.000 C 
BRANCH   8   9
ATOM      9  C   UNL     1     -12.251  -3.767  -7.527  1.00  0.00     0.000 C 
BRANCH   9  10
ATOM     10  C   UNL     1     -12.310  -3.998  -6.012  1.00  0.00     0.006 C 
BRANCH  10  11
ATOM     11  C   UNL     1     -13.068  -5.289  -5.683  1.00  0.00     0.053 C 
BRANCH  11  12
ATOM     12  C   UNL     1     -13.082  -5.525  -4.207  1.00  0.00     0.041 C 
ATOM     13  O   UNL     1     -13.880  -6.360  -3.705  1.00  0.00    -0.550 OA
ATOM     14  O   UNL     1     -12.238  -4.797  -3.378  1.00  0.00    -0.550 OA
ENDBRANCH  11  12
ENDBRANCH  10  11
ENDBRANCH   9  10
ENDBRANCH   8   9
ENDBRANCH   7   8
ENDBRANCH   6   7
ENDBRANCH   5   6
ENDBRANCH   4   5
ENDBRANCH   3   4
ENDBRANCH   2   3
ENDBRANCH   1   2
BRANCH   1  15
ATOM     15  C   UNL     1     -13.087 -10.704  -5.894  1.00  0.00     0.000 C 
BRANCH  15  16
ATOM     16  C   UNL     1     -13.662 -10.059  -4.618  1.00  0.00     0.000 C 
BRANCH  16  17
ATOM     17  C   UNL     1     -13.702 -10.978  -3.382  1.00  0.00     0.000 C 
BRANCH  17  18
ATOM     18  C   UNL     1     -13.081 -12.374  -3.588  1.00  0.00    -0.000 C 
BRANCH  18  19
ATOM     19  C   UNL     1     -11.752 -12.619  -2.845  1.00  0.00    -0.000 C 
BRANCH  19  20
ATOM     20  C   UNL     1     -10.689 -13.395  -3.646  1.00  0.00    -0.000 C 
BRANCH  20  21
ATOM     21  C   UNL     1     -11.093 -13.612  -5.113  1.00  0.00    -0.000 C 
BRANCH  21  22
ATOM     22  C   UNL     1      -9.986 -13.215  -6.105  1.00  0.00    -0.000 C 
BRANCH  22  23
ATOM     23  C   UNL     1      -9.345 -11.833  -5.862  1.00  0.00    -0.000 C 
BRANCH  23  24
ATOM     24  C   UNL     1      -7.877 -11.705  -6.303  1.00  0.00    -0.000 C 
BRANCH  24  25
ATOM     25  C   UNL     1      -7.190 -10.459  -5.730  1.00  0.00    -0.003 C 
ATOM     26  C   UNL     1      -5.685 -10.497  -5.981  1.00  0.00     0.004 C 
ENDBRANCH  24  25
ENDBRANCH  23  24
ENDBRANCH  22  23
ENDBRANCH  21  22
ENDBRANCH  20  21
ENDBRANCH  19  20
ENDBRANCH  18  19
ENDBRANCH  17  18
ENDBRANCH  16  17
ENDBRANCH  15  16
ENDBRANCH   1  15
TORSDOF 22
ENDMDL
MODEL 9
REMARK VINA RESULT:    -4.699      2.358      3.633
REMARK INTER + INTRA:         -12.515
REMARK INTER:                 -10.186
REMARK INTRA:                  -2.330
REMARK UNBOUND:                -1.773
REMARK SMILES CCCCCCCCCCCCCCCCCCCCCCCC(=O)[O-]
REMARK SMILES IDX 13 1 14 2 15 3 16 4 17 5 18 6 19 7 20 8 21 9 22 10 23 11
REMARK SMILES IDX 24 12 25 13 26 14 12 15 11 16 10 17 9 18 8 19 7 20 6 21 5 22
REMARK SMILES IDX 4 23 3 24 2 25 1 26
REMARK H PARENT
REMARK Flexibility Score: inf
ROOT
ATOM      1  C   UNL     1     -12.397 -12.209  -3.260  1.00  0.00     0.000 C 
ENDROOT
BRANCH   1   2
ATOM      2  C   UNL     1     -11.129 -13.018  -3.578  1.00  0.00     0.000 C 
BRANCH   2   3
ATOM      3  C   UNL     1     -11.149 -13.632  -4.989  1.00  0.00     0.000 C 
BRANCH   3   4
ATOM      4  C   UNL     1     -10.161 -12.965  -5.968  1.00  0.00     0.000 C 
BRANCH   4   5
ATOM      5  C   UNL     1      -9.383 -11.812  -5.312  1.00  0.00     0.000 C 
BRANCH   5   6
ATOM      6  C   UNL     1      -8.095 -11.502  -6.089  1.00  0.00     0.000 C 
BRANCH   6   7
ATOM      7  C   UNL     1      -7.214 -10.449  -5.393  1.00  0.00     0.000 C 
BRANCH   7   8
ATOM      8  C   UNL     1      -5.774 -10.346  -5.930  1.00  0.00     0.000 C 
BRANCH   8   9
ATOM      9  C   UNL     1      -5.422 -11.462  -6.924  1.00  0.00     0.000 C 
BRANCH   9  10
ATOM     10  C   UNL     1      -4.036 -12.046  -6.626  1.00  0.00     0.006 C 
BRANCH  10  11
ATOM     11  C   UNL     1      -3.272 -11.167  -5.630  1.00  0.00     0.053 C 
BRANCH  11  12
ATOM     12  C   UNL     1      -2.323 -11.994  -4.823  1.00  0.00     0.041 C 
ATOM     13  O   UNL     1      -2.516 -12.160  -3.589  1.00  0.00    -0.550 OA
ATOM     14  O   UNL     1      -1.203 -12.552  -5.425  1.00  0.00    -0.550 OA
ENDBRANCH  11  12
ENDBRANCH  10  11
ENDBRANCH   9  10
ENDBRANCH   8   9
ENDBRANCH   7   8
ENDBRANCH   6   7
ENDBRANCH   5   6
ENDBRANCH   4   5
ENDBRANCH   3   4
ENDBRANCH   2   3
ENDBRANCH   1   2
BRANCH   1  15
ATOM     15  C   UNL     1     -13.541 -12.472  -4.263  1.00  0.00     0.000 C 
BRANCH  15  16
ATOM     16  C   UNL     1     -14.004 -11.217  -5.027  1.00  0.00     0.000 C 
BRANCH  16  17
ATOM     17  C   UNL     1     -13.082  -9.990  -4.889  1.00  0.00     0.000 C 
BRANCH  17  18
ATOM     18  C   UNL     1     -12.062  -9.810  -6.031  1.00  0.00    -0.000 C 
BRANCH  18  19
ATOM     19  C   UNL     1     -11.488  -8.386  -6.182  1.00  0.00    -0.000 C 
BRANCH  19  20
ATOM     20  C   UNL     1     -10.161  -8.136  -5.442  1.00  0.00    -0.000 C 
BRANCH  20  21
ATOM     21  C   UNL     1      -9.698  -6.672  -5.531  1.00  0.00    -0.000 C 
BRANCH  21  22
ATOM     22  C   UNL     1      -9.464  -6.205  -6.979  1.00  0.00    -0.000 C 
BRANCH  22  23
ATOM     23  C   UNL     1     -10.638  -5.442  -7.626  1.00  0.00    -0.000 C 
BRANCH  23  24
ATOM     24  C   UNL     1     -10.717  -3.945  -7.279  1.00  0.00    -0.000 C 
BRANCH  24  25
ATOM     25  C   UNL     1     -11.988  -3.581  -6.500  1.00  0.00    -0.003 C 
ATOM     26  C   UNL     1     -12.769  -4.832  -6.110  1.00  0.00     0.004 C 
ENDBRANCH  24  25
ENDBRANCH  23  24
ENDBRANCH  22  23
ENDBRANCH  21  22
ENDBRANCH  20  21
ENDBRANCH  19  20
ENDBRANCH  18  19
ENDBRANCH  17  18
ENDBRANCH  16  17
ENDBRANCH  15  16
ENDBRANCH   1  15
TORSDOF 22
ENDMDL
