MODEL 1
REMARK VINA RESULT:    -4.040      0.000      0.000
REMARK INTER + INTRA:          -8.663
REMARK INTER:                  -6.875
REMARK INTRA:                  -1.789
REMARK UNBOUND:                -1.789
REMARK SMILES CCCCCCCCCCCCCC(=O)[O-]
REMARK SMILES IDX 8 1 9 2 10 3 11 4 12 5 13 6 14 7 15 8 16 9 7 10 6 11 5 12
REMARK SMILES IDX 4 13 3 14 2 15 1 16
REMARK H PARENT
REMARK Flexibility Score: inf
ROOT
ATOM      1  C   UNL     1      18.555 -41.631  24.636  1.00  0.00     0.000 C 
ENDROOT
BRANCH   1   2
ATOM      2  C   UNL     1      18.863 -42.697  25.710  1.00  0.00     0.000 C 
BRANCH   2   3
ATOM      3  C   UNL     1      17.853 -43.859  25.736  1.00  0.00     0.000 C 
BRANCH   3   4
ATOM      4  C   UNL     1      17.039 -43.985  27.039  1.00  0.00     0.000 C 
BRANCH   4   5
ATOM      5  C   UNL     1      17.032 -45.394  27.668  1.00  0.00     0.006 C 
BRANCH   5   6
ATOM      6  C   UNL     1      17.515 -45.443  29.127  1.00  0.00     0.053 C 
BRANCH   6   7
ATOM      7  C   UNL     1      16.490 -44.909  30.078  1.00  0.00     0.041 C 
ATOM      8  O   UNL     1      16.827 -44.101  30.983  1.00  0.00    -0.550 OA
ATOM      9  O   UNL     1      15.170 -45.331  29.989  1.00  0.00    -0.550 OA
ENDBRANCH   6   7
ENDBRANCH   5   6
ENDBRANCH   4   5
ENDBRANCH   3   4
ENDBRANCH   2   3
ENDBRANCH   1   2
BRANCH   1  10
ATOM     10  C   UNL     1      18.296 -40.241  25.244  1.00  0.00     0.000 C 
BRANCH  10  11
ATOM     11  C   UNL     1      16.937 -40.156  25.956  1.00  0.00    -0.000 C 
BRANCH  11  12
ATOM     12  C   UNL     1      17.082 -39.910  27.469  1.00  0.00    -0.000 C 
BRANCH  12  13
ATOM     13  C   UNL     1      18.462 -39.346  27.849  1.00  0.00    -0.000 C 
BRANCH  13  14
ATOM     14  C   UNL     1      19.156 -40.070  29.017  1.00  0.00    -0.000 C 
BRANCH  14  15
ATOM     15  C   UNL     1      18.660 -41.516  29.238  1.00  0.00    -0.003 C 
ATOM     16  C   UNL     1      19.756 -42.437  29.770  1.00  0.00     0.004 C 
ENDBRANCH  14  15
ENDBRANCH  13  14
ENDBRANCH  12  13
ENDBRANCH  11  12
ENDBRANCH  10  11
ENDBRANCH   1  10
TORSDOF 12
ENDMDL
MODEL 2
REMARK VINA RESULT:    -4.035      1.344      2.761
REMARK INTER + INTRA:          -8.654
REMARK INTER:                  -7.040
REMARK INTRA:                  -1.614
REMARK UNBOUND:                -1.789
REMARK SMILES CCCCCCCCCCCCCC(=O)[O-]
REMARK SMILES IDX 8 1 9 2 10 3 11 4 12 5 13 6 14 7 15 8 16 9 7 10 6 11 5 12
REMARK SMILES IDX 4 13 3 14 2 15 1 16
REMARK H PARENT
REMARK Flexibility Score: inf
ROOT
ATOM      1  C   UNL     1      16.678 -43.664  25.815  1.00  0.00     0.000 C 
ENDROOT
BRANCH   1   2
ATOM      2  C   UNL     1      16.433 -44.022  27.297  1.00  0.00     0.000 C 
BRANCH   2   3
ATOM      3  C   UNL     1      17.411 -45.075  27.849  1.00  0.00     0.000 C 
BRANCH   3   4
ATOM      4  C   UNL     1      17.142 -45.517  29.300  1.00  0.00     0.000 C 
BRANCH   4   5
ATOM      5  C   UNL     1      15.760 -45.115  29.859  1.00  0.00     0.006 C 
BRANCH   5   6
ATOM      6  C   UNL     1      15.811 -44.305  31.164  1.00  0.00     0.053 C 
BRANCH   6   7
ATOM      7  C   UNL     1      16.105 -45.168  32.351  1.00  0.00     0.041 C 
ATOM      8  O   UNL     1      15.167 -45.743  32.964  1.00  0.00    -0.550 OA
ATOM      9  O   UNL     1      17.410 -45.308  32.805  1.00  0.00    -0.550 OA
ENDBRANCH   6   7
ENDBRANCH   5   6
ENDBRANCH   4   5
ENDBRANCH   3   4
ENDBRANCH   2   3
ENDBRANCH   1   2
BRANCH   1  10
ATOM     10  C   UNL     1      18.124 -43.949  25.372  1.00  0.00     0.000 C 
BRANCH  10  11
ATOM     11  C   UNL     1      18.925 -42.662  25.117  1.00  0.00    -0.000 C 
BRANCH  11  12
ATOM     12  C   UNL     1      18.027 -41.414  25.064  1.00  0.00    -0.000 C 
BRANCH  12  13
ATOM     13  C   UNL     1      18.453 -40.333  26.071  1.00  0.00    -0.000 C 
BRANCH  13  14
ATOM     14  C   UNL     1      17.838 -40.479  27.475  1.00  0.00    -0.000 C 
BRANCH  14  15
ATOM     15  C   UNL     1      18.724 -41.267  28.465  1.00  0.00    -0.003 C 
ATOM     16  C   UNL     1      17.999 -41.592  29.770  1.00  0.00     0.004 C 
ENDBRANCH  14  15
ENDBRANCH  13  14
ENDBRANCH  12  13
ENDBRANCH  11  12
ENDBRANCH  10  11
ENDBRANCH   1  10
TORSDOF 12
ENDMDL
MODEL 3
REMARK VINA RESULT:    -3.980      1.363      2.322
REMARK INTER + INTRA:          -8.560
REMARK INTER:                  -7.091
REMARK INTRA:                  -1.469
REMARK UNBOUND:                -1.789
REMARK SMILES CCCCCCCCCCCCCC(=O)[O-]
REMARK SMILES IDX 8 1 9 2 10 3 11 4 12 5 13 6 14 7 15 8 16 9 7 10 6 11 5 12
REMARK SMILES IDX 4 13 3 14 2 15 1 16
REMARK H PARENT
REMARK Flexibility Score: inf
ROOT
ATOM      1  C   UNL     1      17.638 -43.218  25.757  1.00  0.00     0.000 C 
ENDROOT
BRANCH   1   2
ATOM      2  C   UNL     1      17.475 -44.753  25.756  1.00  0.00     0.000 C 
BRANCH   2   3
ATOM      3  C   UNL     1      17.233 -45.350  27.155  1.00  0.00     0.000 C 
BRANCH   3   4
ATOM      4  C   UNL     1      16.245 -44.563  28.038  1.00  0.00     0.000 C 
BRANCH   4   5
ATOM      5  C   UNL     1      16.510 -44.655  29.555  1.00  0.00     0.006 C 
BRANCH   5   6
ATOM      6  C   UNL     1      17.914 -45.159  29.928  1.00  0.00     0.053 C 
BRANCH   6   7
ATOM      7  C   UNL     1      18.562 -44.301  30.970  1.00  0.00     0.041 C 
ATOM      8  O   UNL     1      19.767 -44.488  31.284  1.00  0.00    -0.550 OA
ATOM      9  O   UNL     1      17.826 -43.318  31.619  1.00  0.00    -0.550 OA
ENDBRANCH   6   7
ENDBRANCH   5   6
ENDBRANCH   4   5
ENDBRANCH   3   4
ENDBRANCH   2   3
ENDBRANCH   1   2
BRANCH   1  10
ATOM     10  C   UNL     1      18.885 -42.758  24.982  1.00  0.00     0.000 C 
BRANCH  10  11
ATOM     11  C   UNL     1      18.713 -41.359  24.369  1.00  0.00    -0.000 C 
BRANCH  11  12
ATOM     12  C   UNL     1      17.646 -40.525  25.101  1.00  0.00    -0.000 C 
BRANCH  12  13
ATOM     13  C   UNL     1      18.221 -39.241  25.722  1.00  0.00    -0.000 C 
BRANCH  13  14
ATOM     14  C   UNL     1      18.722 -39.393  27.171  1.00  0.00    -0.000 C 
BRANCH  14  15
ATOM     15  C   UNL     1      17.870 -40.355  28.027  1.00  0.00    -0.003 C 
ATOM     16  C   UNL     1      18.707 -41.452  28.683  1.00  0.00     0.004 C 
ENDBRANCH  14  15
ENDBRANCH  13  14
ENDBRANCH  12  13
ENDBRANCH  11  12
ENDBRANCH  10  11
ENDBRANCH   1  10
TORSDOF 12
ENDMDL
MODEL 4
REMARK VINA RESULT:    -3.964      3.088      5.532
REMARK INTER + INTRA:          -8.534
REMARK INTER:                  -7.229
REMARK INTRA:                  -1.305
REMARK UNBOUND:                -1.789
REMARK SMILES CCCCCCCCCCCCCC(=O)[O-]
REMARK SMILES IDX 8 1 9 2 10 3 11 4 12 5 13 6 14 7 15 8 16 9 7 10 6 11 5 12
REMARK SMILES IDX 4 13 3 14 2 15 1 16
REMARK H PARENT
REMARK Flexibility Score: inf
ROOT
ATOM      1  C   UNL     1      16.372 -43.727  26.197  1.00  0.00     0.000 C 
ENDROOT
BRANCH   1   2
ATOM      2  C   UNL     1      17.748 -44.106  25.607  1.00  0.00     0.000 C 
BRANCH   2   3
ATOM      3  C   UNL     1      18.696 -42.906  25.427  1.00  0.00     0.000 C 
BRANCH   3   4
ATOM      4  C   UNL     1      18.611 -41.837  26.533  1.00  0.00     0.000 C 
BRANCH   4   5
ATOM      5  C   UNL     1      18.324 -40.405  26.035  1.00  0.00     0.006 C 
BRANCH   5   6
ATOM      6  C   UNL     1      17.802 -40.324  24.592  1.00  0.00     0.053 C 
BRANCH   6   7
ATOM      7  C   UNL     1      16.311 -40.200  24.538  1.00  0.00     0.041 C 
ATOM      8  O   UNL     1      15.615 -41.133  24.057  1.00  0.00    -0.550 OA
ATOM      9  O   UNL     1      15.692 -39.041  24.986  1.00  0.00    -0.550 OA
ENDBRANCH   6   7
ENDBRANCH   5   6
ENDBRANCH   4   5
ENDBRANCH   3   4
ENDBRANCH   2   3
ENDBRANCH   1   2
BRANCH   1  10
ATOM     10  C   UNL     1      16.119 -44.380  27.567  1.00  0.00     0.000 C 
BRANCH  10  11
ATOM     11  C   UNL     1      17.149 -45.472  27.897  1.00  0.00    -0.000 C 
BRANCH  11  12
ATOM     12  C   UNL     1      17.523 -45.493  29.390  1.00  0.00    -0.000 C 
BRANCH  12  13
ATOM     13  C   UNL     1      17.520 -44.092  30.023  1.00  0.00    -0.000 C 
BRANCH  13  14
ATOM     14  C   UNL     1      16.714 -43.975  31.330  1.00  0.00    -0.000 C 
BRANCH  14  15
ATOM     15  C   UNL     1      15.536 -44.969  31.427  1.00  0.00    -0.003 C 
ATOM     16  C   UNL     1      15.423 -45.611  32.809  1.00  0.00     0.004 C 
ENDBRANCH  14  15
ENDBRANCH  13  14
ENDBRANCH  12  13
ENDBRANCH  11  12
ENDBRANCH  10  11
ENDBRANCH   1  10
TORSDOF 12
ENDMDL
MODEL 5
REMARK VINA RESULT:    -3.959      2.732      4.658
REMARK INTER + INTRA:          -8.525
REMARK INTER:                  -6.688
REMARK INTRA:                  -1.837
REMARK UNBOUND:                -1.789
REMARK SMILES CCCCCCCCCCCCCC(=O)[O-]
REMARK SMILES IDX 8 1 9 2 10 3 11 4 12 5 13 6 14 7 15 8 16 9 7 10 6 11 5 12
REMARK SMILES IDX 4 13 3 14 2 15 1 16
REMARK H PARENT
REMARK Flexibility Score: inf
ROOT
ATOM      1  C   UNL     1      15.740 -44.984  29.457  1.00  0.00     0.000 C 
ENDROOT
BRANCH   1   2
ATOM      2  C   UNL     1      17.126 -45.383  28.906  1.00  0.00     0.000 C 
BRANCH   2   3
ATOM      3  C   UNL     1      17.218 -45.337  27.369  1.00  0.00     0.000 C 
BRANCH   3   4
ATOM      4  C   UNL     1      17.167 -43.924  26.756  1.00  0.00     0.000 C 
BRANCH   4   5
ATOM      5  C   UNL     1      17.922 -43.767  25.419  1.00  0.00     0.006 C 
BRANCH   5   6
ATOM      6  C   UNL     1      18.957 -42.631  25.401  1.00  0.00     0.053 C 
BRANCH   6   7
ATOM      7  C   UNL     1      18.313 -41.283  25.295  1.00  0.00     0.041 C 
ATOM      8  O   UNL     1      18.536 -40.405  26.169  1.00  0.00    -0.550 OA
ATOM      9  O   UNL     1      17.438 -41.009  24.252  1.00  0.00    -0.550 OA
ENDBRANCH   6   7
ENDBRANCH   5   6
ENDBRANCH   4   5
ENDBRANCH   3   4
ENDBRANCH   2   3
ENDBRANCH   1   2
BRANCH   1  10
ATOM     10  C   UNL     1      15.829 -43.904  30.549  1.00  0.00     0.000 C 
BRANCH  10  11
ATOM     11  C   UNL     1      15.830 -42.481  29.968  1.00  0.00    -0.000 C 
BRANCH  11  12
ATOM     12  C   UNL     1      17.051 -41.662  30.424  1.00  0.00    -0.000 C 
BRANCH  12  13
ATOM     13  C   UNL     1      18.198 -41.687  29.400  1.00  0.00    -0.000 C 
BRANCH  13  14
ATOM     14  C   UNL     1      19.419 -42.527  29.818  1.00  0.00    -0.000 C 
BRANCH  14  15
ATOM     15  C   UNL     1      19.422 -42.924  31.310  1.00  0.00    -0.003 C 
ATOM     16  C   UNL     1      19.604 -44.427  31.516  1.00  0.00     0.004 C 
ENDBRANCH  14  15
ENDBRANCH  13  14
ENDBRANCH  12  13
ENDBRANCH  11  12
ENDBRANCH  10  11
ENDBRANCH   1  10
TORSDOF 12
ENDMDL
MODEL 6
REMARK VINA RESULT:    -3.952      2.128      4.799
REMARK INTER + INTRA:          -8.513
REMARK INTER:                  -6.640
REMARK INTRA:                  -1.873
REMARK UNBOUND:                -1.789
REMARK SMILES CCCCCCCCCCCCCC(=O)[O-]
REMARK SMILES IDX 8 1 9 2 10 3 11 4 12 5 13 6 14 7 15 8 16 9 7 10 6 11 5 12
REMARK SMILES IDX 4 13 3 14 2 15 1 16
REMARK H PARENT
REMARK Flexibility Score: inf
ROOT
ATOM      1  C   UNL     1      17.639 -41.855  29.639  1.00  0.00     0.000 C 
ENDROOT
BRANCH   1   2
ATOM      2  C   UNL     1      18.953 -42.652  29.484  1.00  0.00     0.000 C 
BRANCH   2   3
ATOM      3  C   UNL     1      19.805 -42.697  30.766  1.00  0.00     0.000 C 
BRANCH   3   4
ATOM      4  C   UNL     1      19.835 -44.062  31.480  1.00  0.00     0.000 C 
BRANCH   4   5
ATOM      5  C   UNL     1      19.161 -44.087  32.868  1.00  0.00     0.006 C 
BRANCH   5   6
ATOM      6  C   UNL     1      17.676 -44.481  32.848  1.00  0.00     0.053 C 
BRANCH   6   7
ATOM      7  C   UNL     1      16.781 -43.325  33.168  1.00  0.00     0.041 C 
ATOM      8  O   UNL     1      17.270 -42.181  33.365  1.00  0.00    -0.550 OA
ATOM      9  O   UNL     1      15.410 -43.516  33.286  1.00  0.00    -0.550 OA
ENDBRANCH   6   7
ENDBRANCH   5   6
ENDBRANCH   4   5
ENDBRANCH   3   4
ENDBRANCH   2   3
ENDBRANCH   1   2
BRANCH   1  10
ATOM     10  C   UNL     1      16.391 -42.734  29.445  1.00  0.00     0.000 C 
BRANCH  10  11
ATOM     11  C   UNL     1      16.734 -44.228  29.349  1.00  0.00    -0.000 C 
BRANCH  11  12
ATOM     12  C   UNL     1      16.236 -44.862  28.039  1.00  0.00    -0.000 C 
BRANCH  12  13
ATOM     13  C   UNL     1      17.386 -45.333  27.132  1.00  0.00    -0.000 C 
BRANCH  13  14
ATOM     14  C   UNL     1      17.423 -44.675  25.740  1.00  0.00    -0.000 C 
BRANCH  14  15
ATOM     15  C   UNL     1      17.419 -43.132  25.781  1.00  0.00    -0.003 C 
ATOM     16  C   UNL     1      18.828 -42.542  25.812  1.00  0.00     0.004 C 
ENDBRANCH  14  15
ENDBRANCH  13  14
ENDBRANCH  12  13
ENDBRANCH  11  12
ENDBRANCH  10  11
ENDBRANCH   1  10
TORSDOF 12
ENDMDL
MODEL 7
REMARK VINA RESULT:    -3.940      1.692      3.601
REMARK INTER + INTRA:          -8.492
REMARK INTER:                  -7.306
REMARK INTRA:                  -1.186
REMARK UNBOUND:                -1.789
REMARK SMILES CCCCCCCCCCCCCC(=O)[O-]
REMARK SMILES IDX 8 1 9 2 10 3 11 4 12 5 13 6 14 7 15 8 16 9 7 10 6 11 5 12
REMARK SMILES IDX 4 13 3 14 2 15 1 16
REMARK H PARENT
REMARK Flexibility Score: inf
ROOT
ATOM      1  C   UNL     1      16.917 -44.179  26.850  1.00  0.00     0.000 C 
ENDROOT
BRANCH   1   2
ATOM      2  C   UNL     1      17.127 -45.501  27.618  1.00  0.00     0.000 C 
BRANCH   2   3
ATOM      3  C   UNL     1      17.466 -45.304  29.108  1.00  0.00     0.000 C 
BRANCH   3   4
ATOM      4  C   UNL     1      16.977 -43.976  29.717  1.00  0.00     0.000 C 
BRANCH   4   5
ATOM      5  C   UNL     1      15.486 -43.952  30.117  1.00  0.00     0.006 C 
BRANCH   5   6
ATOM      6  C   UNL     1      15.049 -45.119  31.016  1.00  0.00     0.053 C 
BRANCH   6   7
ATOM      7  C   UNL     1      15.460 -44.917  32.441  1.00  0.00     0.041 C 
ATOM      8  O   UNL     1      16.496 -45.478  32.887  1.00  0.00    -0.550 OA
ATOM      9  O   UNL     1      14.682 -44.139  33.288  1.00  0.00    -0.550 OA
ENDBRANCH   6   7
ENDBRANCH   5   6
ENDBRANCH   4   5
ENDBRANCH   3   4
ENDBRANCH   2   3
ENDBRANCH   1   2
BRANCH   1  10
ATOM     10  C   UNL     1      17.841 -44.057  25.625  1.00  0.00     0.000 C 
BRANCH  10  11
ATOM     11  C   UNL     1      18.641 -42.744  25.622  1.00  0.00    -0.000 C 
BRANCH  11  12
ATOM     12  C   UNL     1      18.597 -42.027  26.982  1.00  0.00    -0.000 C 
BRANCH  12  13
ATOM     13  C   UNL     1      18.346 -40.515  26.849  1.00  0.00    -0.000 C 
BRANCH  13  14
ATOM     14  C   UNL     1      16.988 -40.139  26.227  1.00  0.00    -0.000 C 
BRANCH  14  15
ATOM     15  C   UNL     1      17.103 -39.438  24.856  1.00  0.00    -0.003 C 
ATOM     16  C   UNL     1      18.540 -39.046  24.517  1.00  0.00     0.004 C 
ENDBRANCH  14  15
ENDBRANCH  13  14
ENDBRANCH  12  13
ENDBRANCH  11  12
ENDBRANCH  10  11
ENDBRANCH   1  10
TORSDOF 12
ENDMDL
MODEL 8
REMARK VINA RESULT:    -3.917      1.445      2.113
REMARK INTER + INTRA:          -8.454
REMARK INTER:                  -6.894
REMARK INTRA:                  -1.560
REMARK UNBOUND:                -1.789
REMARK SMILES CCCCCCCCCCCCCC(=O)[O-]
REMARK SMILES IDX 8 1 9 2 10 3 11 4 12 5 13 6 14 7 15 8 16 9 7 10 6 11 5 12
REMARK SMILES IDX 4 13 3 14 2 15 1 16
REMARK H PARENT
REMARK Flexibility Score: inf
ROOT
ATOM      1  C   UNL     1      18.994 -42.205  25.082  1.00  0.00     0.000 C 
ENDROOT
BRANCH   1   2
ATOM      2  C   UNL     1      18.116 -43.365  25.598  1.00  0.00     0.000 C 
BRANCH   2   3
ATOM      3  C   UNL     1      16.634 -42.987  25.777  1.00  0.00     0.000 C 
BRANCH   3   4
ATOM      4  C   UNL     1      16.125 -43.016  27.231  1.00  0.00     0.000 C 
BRANCH   4   5
ATOM      5  C   UNL     1      17.221 -42.875  28.309  1.00  0.00     0.006 C 
BRANCH   5   6
ATOM      6  C   UNL     1      16.800 -43.343  29.711  1.00  0.00     0.053 C 
BRANCH   6   7
ATOM      7  C   UNL     1      16.568 -44.821  29.766  1.00  0.00     0.041 C 
ATOM      8  O   UNL     1      17.428 -45.614  29.301  1.00  0.00    -0.550 OA
ATOM      9  O   UNL     1      15.387 -45.322  30.298  1.00  0.00    -0.550 OA
ENDBRANCH   6   7
ENDBRANCH   5   6
ENDBRANCH   4   5
ENDBRANCH   3   4
ENDBRANCH   2   3
ENDBRANCH   1   2
BRANCH   1  10
ATOM     10  C   UNL     1      18.196 -41.189  24.247  1.00  0.00     0.000 C 
BRANCH  10  11
ATOM     11  C   UNL     1      18.393 -39.744  24.732  1.00  0.00    -0.000 C 
BRANCH  11  12
ATOM     12  C   UNL     1      17.129 -39.170  25.396  1.00  0.00    -0.000 C 
BRANCH  12  13
ATOM     13  C   UNL     1      17.164 -39.277  26.930  1.00  0.00    -0.000 C 
BRANCH  13  14
ATOM     14  C   UNL     1      18.575 -39.377  27.539  1.00  0.00    -0.000 C 
BRANCH  14  15
ATOM     15  C   UNL     1      18.823 -38.393  28.702  1.00  0.00    -0.003 C 
ATOM     16  C   UNL     1      20.273 -37.916  28.767  1.00  0.00     0.004 C 
ENDBRANCH  14  15
ENDBRANCH  13  14
ENDBRANCH  12  13
ENDBRANCH  11  12
ENDBRANCH  10  11
ENDBRANCH   1  10
TORSDOF 12
ENDMDL
MODEL 9
REMARK VINA RESULT:    -3.905      1.369      3.820
REMARK INTER + INTRA:          -8.433
REMARK INTER:                  -6.415
REMARK INTRA:                  -2.017
REMARK UNBOUND:                -1.789
REMARK SMILES CCCCCCCCCCCCCC(=O)[O-]
REMARK SMILES IDX 8 1 9 2 10 3 11 4 12 5 13 6 14 7 15 8 16 9 7 10 6 11 5 12
REMARK SMILES IDX 4 13 3 14 2 15 1 16
REMARK H PARENT
REMARK Flexibility Score: inf
ROOT
ATOM      1  C   UNL     1      15.900 -39.273  28.564  1.00  0.00     0.000 C 
ENDROOT
BRANCH   1   2
ATOM      2  C   UNL     1      17.116 -39.031  29.484  1.00  0.00     0.000 C 
BRANCH   2   3
ATOM      3  C   UNL     1      17.562 -40.283  30.262  1.00  0.00     0.000 C 
BRANCH   3   4
ATOM      4  C   UNL     1      18.848 -40.951  29.739  1.00  0.00     0.000 C 
BRANCH   4   5
ATOM      5  C   UNL     1      18.663 -42.381  29.189  1.00  0.00     0.006 C 
BRANCH   5   6
ATOM      6  C   UNL     1      17.221 -42.908  29.256  1.00  0.00     0.053 C 
BRANCH   6   7
ATOM      7  C   UNL     1      17.157 -44.309  29.780  1.00  0.00     0.041 C 
ATOM      8  O   UNL     1      17.842 -45.218  29.242  1.00  0.00    -0.550 OA
ATOM      9  O   UNL     1      16.314 -44.619  30.840  1.00  0.00    -0.550 OA
ENDBRANCH   6   7
ENDBRANCH   5   6
ENDBRANCH   4   5
ENDBRANCH   3   4
ENDBRANCH   2   3
ENDBRANCH   1   2
BRANCH   1  10
ATOM     10  C   UNL     1      16.299 -39.886  27.210  1.00  0.00     0.000 C 
BRANCH  10  11
ATOM     11  C   UNL     1      17.493 -39.163  26.568  1.00  0.00    -0.000 C 
BRANCH  11  12
ATOM     12  C   UNL     1      18.606 -40.137  26.139  1.00  0.00    -0.000 C 
BRANCH  12  13
ATOM     13  C   UNL     1      18.123 -41.176  25.113  1.00  0.00    -0.000 C 
BRANCH  13  14
ATOM     14  C   UNL     1      18.806 -42.552  25.217  1.00  0.00    -0.000 C 
BRANCH  14  15
ATOM     15  C   UNL     1      17.877 -43.672  25.732  1.00  0.00    -0.003 C 
ATOM     16  C   UNL     1      16.398 -43.302  25.627  1.00  0.00     0.004 C 
ENDBRANCH  14  15
ENDBRANCH  13  14
ENDBRANCH  12  13
ENDBRANCH  11  12
ENDBRANCH  10  11
ENDBRANCH   1  10
TORSDOF 12
ENDMDL
