MODEL 1
REMARK VINA RESULT:    -4.815      0.000      0.000
REMARK INTER + INTRA:          -5.258
REMARK INTER:                  -5.096
REMARK INTRA:                  -0.162
REMARK UNBOUND:                -0.162
REMARK SMILES CC1=CC=C(C(C)C)CC1
REMARK SMILES IDX 1 1 2 2 3 3 4 4 5 5 9 6 10 7 6 8 7 9 8 10
REMARK H PARENT
REMARK Flexibility Score: inf
ROOT
ATOM      1  C   UNL     1       8.760  -2.586  16.748  1.00  0.00     0.039 C 
ATOM      2  C   UNL     1       7.273  -2.407  16.661  1.00  0.00    -0.073 C 
ATOM      3  C   UNL     1       6.685  -2.272  15.463  1.00  0.00    -0.001 C 
ATOM      4  C   UNL     1       5.224  -2.099  15.353  1.00  0.00    -0.001 C 
ATOM      5  C   UNL     1       4.420  -2.298  16.416  1.00  0.00    -0.067 C 
ATOM      6  C   UNL     1       5.022  -2.812  17.707  1.00  0.00     0.035 C 
ATOM      7  C   UNL     1       6.446  -2.274  17.918  1.00  0.00     0.035 C 
ENDROOT
BRANCH   5   8
ATOM      8  C   UNL     1       2.918  -2.103  16.318  1.00  0.00     0.009 C 
ATOM      9  C   UNL     1       2.568  -0.726  15.740  1.00  0.00     0.012 C 
ATOM     10  C   UNL     1       2.242  -2.321  17.678  1.00  0.00     0.012 C 
ENDBRANCH   5   8
TORSDOF 1
ENDMDL
MODEL 2
REMARK VINA RESULT:    -4.716      0.896      2.132
REMARK INTER + INTRA:          -5.154
REMARK INTER:                  -4.988
REMARK INTRA:                  -0.165
REMARK UNBOUND:                -0.162
REMARK SMILES CC1=CC=C(C(C)C)CC1
REMARK SMILES IDX 1 1 2 2 3 3 4 4 5 5 9 6 10 7 6 8 7 9 8 10
REMARK H PARENT
REMARK Flexibility Score: inf
ROOT
ATOM      1  C   UNL     1       8.851  -1.961  16.390  1.00  0.00     0.039 C 
ATOM      2  C   UNL     1       7.377  -2.209  16.518  1.00  0.00    -0.073 C 
ATOM      3  C   UNL     1       6.832  -2.389  17.731  1.00  0.00    -0.001 C 
ATOM      4  C   UNL     1       5.384  -2.630  17.881  1.00  0.00    -0.001 C 
ATOM      5  C   UNL     1       4.541  -2.450  16.846  1.00  0.00    -0.067 C 
ATOM      6  C   UNL     1       5.079  -1.889  15.546  1.00  0.00     0.035 C 
ATOM      7  C   UNL     1       6.518  -2.359  15.284  1.00  0.00     0.035 C 
ENDROOT
BRANCH   5   8
ATOM      8  C   UNL     1       3.052  -2.713  16.985  1.00  0.00     0.009 C 
ATOM      9  C   UNL     1       2.781  -3.951  17.850  1.00  0.00     0.012 C 
ATOM     10  C   UNL     1       2.382  -2.841  15.611  1.00  0.00     0.012 C 
ENDBRANCH   5   8
TORSDOF 1
ENDMDL
MODEL 3
REMARK VINA RESULT:    -4.357      2.108      4.158
REMARK INTER + INTRA:          -4.773
REMARK INTER:                  -4.624
REMARK INTRA:                  -0.149
REMARK UNBOUND:                -0.162
REMARK SMILES CC1=CC=C(C(C)C)CC1
REMARK SMILES IDX 1 1 2 2 3 3 4 4 5 5 9 6 10 7 6 8 7 9 8 10
REMARK H PARENT
REMARK Flexibility Score: inf
ROOT
ATOM      1  C   UNL     1       4.677  -2.629  17.525  1.00  0.00     0.039 C 
ATOM      2  C   UNL     1       3.458  -2.118  16.816  1.00  0.00    -0.073 C 
ATOM      3  C   UNL     1       2.256  -2.206  17.406  1.00  0.00    -0.001 C 
ATOM      4  C   UNL     1       1.044  -1.706  16.730  1.00  0.00    -0.001 C 
ATOM      5  C   UNL     1       1.132  -0.949  15.619  1.00  0.00    -0.067 C 
ATOM      6  C   UNL     1       2.498  -0.520  15.126  1.00  0.00     0.035 C 
ATOM      7  C   UNL     1       3.559  -1.598  15.401  1.00  0.00     0.035 C 
ENDROOT
BRANCH   5   8
ATOM      8  C   UNL     1      -0.110  -0.446  14.905  1.00  0.00     0.009 C 
ATOM      9  C   UNL     1      -1.158   0.069  15.900  1.00  0.00     0.012 C 
ATOM     10  C   UNL     1      -0.699  -1.527  13.990  1.00  0.00     0.012 C 
ENDBRANCH   5   8
TORSDOF 1
ENDMDL
MODEL 4
REMARK VINA RESULT:    -4.343      1.226      2.580
REMARK INTER + INTRA:          -4.758
REMARK INTER:                  -4.615
REMARK INTRA:                  -0.143
REMARK UNBOUND:                -0.162
REMARK SMILES CC1=CC=C(C(C)C)CC1
REMARK SMILES IDX 1 1 2 2 3 3 4 4 5 5 9 6 10 7 6 8 7 9 8 10
REMARK H PARENT
REMARK Flexibility Score: inf
ROOT
ATOM      1  C   UNL     1       6.808  -2.143  15.495  1.00  0.00     0.039 C 
ATOM      2  C   UNL     1       5.324  -2.133  15.711  1.00  0.00    -0.073 C 
ATOM      3  C   UNL     1       4.817  -2.529  16.889  1.00  0.00    -0.001 C 
ATOM      4  C   UNL     1       3.361  -2.523  17.126  1.00  0.00    -0.001 C 
ATOM      5  C   UNL     1       2.521  -1.913  16.268  1.00  0.00    -0.067 C 
ATOM      6  C   UNL     1       3.097  -1.132  15.104  1.00  0.00     0.035 C 
ATOM      7  C   UNL     1       4.389  -1.776  14.579  1.00  0.00     0.035 C 
ENDROOT
BRANCH   5   8
ATOM      8  C   UNL     1       1.020  -1.918  16.492  1.00  0.00     0.009 C 
ATOM      9  C   UNL     1       0.367  -0.645  15.938  1.00  0.00     0.012 C 
ATOM     10  C   UNL     1       0.683  -2.112  17.975  1.00  0.00     0.012 C 
ENDBRANCH   5   8
TORSDOF 1
ENDMDL
MODEL 5
REMARK VINA RESULT:    -4.326      9.876     11.571
REMARK INTER + INTRA:          -4.740
REMARK INTER:                  -4.574
REMARK INTRA:                  -0.167
REMARK UNBOUND:                -0.162
REMARK SMILES CC1=CC=C(C(C)C)CC1
REMARK SMILES IDX 1 1 2 2 3 3 4 4 5 5 9 6 10 7 6 8 7 9 8 10
REMARK H PARENT
REMARK Flexibility Score: inf
ROOT
ATOM      1  C   UNL     1       6.833   2.155  25.712  1.00  0.00     0.039 C 
ATOM      2  C   UNL     1       8.185   1.506  25.737  1.00  0.00    -0.073 C 
ATOM      3  C   UNL     1       8.952   1.518  24.636  1.00  0.00    -0.001 C 
ATOM      4  C   UNL     1      10.287   0.891  24.639  1.00  0.00    -0.001 C 
ATOM      5  C   UNL     1      10.866   0.495  25.789  1.00  0.00    -0.067 C 
ATOM      6  C   UNL     1      10.176   0.801  27.103  1.00  0.00     0.035 C 
ATOM      7  C   UNL     1       8.647   0.750  26.961  1.00  0.00     0.035 C 
ENDROOT
BRANCH   5   8
ATOM      8  C   UNL     1      12.230  -0.170  25.800  1.00  0.00     0.009 C 
ATOM      9  C   UNL     1      12.468  -0.982  24.521  1.00  0.00     0.012 C 
ATOM     10  C   UNL     1      12.412  -1.040  27.050  1.00  0.00     0.012 C 
ENDBRANCH   5   8
TORSDOF 1
ENDMDL
MODEL 6
REMARK VINA RESULT:    -4.319      1.018      4.624
REMARK INTER + INTRA:          -4.733
REMARK INTER:                  -4.569
REMARK INTRA:                  -0.164
REMARK UNBOUND:                -0.162
REMARK SMILES CC1=CC=C(C(C)C)CC1
REMARK SMILES IDX 1 1 2 2 3 3 4 4 5 5 9 6 10 7 6 8 7 9 8 10
REMARK H PARENT
REMARK Flexibility Score: inf
ROOT
ATOM      1  C   UNL     1       0.754  -1.560  15.861  1.00  0.00     0.039 C 
ATOM      2  C   UNL     1       2.152  -1.777  16.362  1.00  0.00    -0.073 C 
ATOM      3  C   UNL     1       2.352  -2.226  17.610  1.00  0.00    -0.001 C 
ATOM      4  C   UNL     1       3.717  -2.451  18.122  1.00  0.00    -0.001 C 
ATOM      5  C   UNL     1       4.780  -2.436  17.295  1.00  0.00    -0.067 C 
ATOM      6  C   UNL     1       4.549  -2.293  15.804  1.00  0.00     0.035 C 
ATOM      7  C   UNL     1       3.337  -1.398  15.505  1.00  0.00     0.035 C 
ENDROOT
BRANCH   5   8
ATOM      8  C   UNL     1       6.190  -2.647  17.814  1.00  0.00     0.009 C 
ATOM      9  C   UNL     1       6.449  -1.825  19.083  1.00  0.00     0.012 C 
ATOM     10  C   UNL     1       7.231  -2.337  16.732  1.00  0.00     0.012 C 
ENDBRANCH   5   8
TORSDOF 1
ENDMDL
MODEL 7
REMARK VINA RESULT:    -4.286      1.671      4.898
REMARK INTER + INTRA:          -4.698
REMARK INTER:                  -4.554
REMARK INTRA:                  -0.144
REMARK UNBOUND:                -0.162
REMARK SMILES CC1=CC=C(C(C)C)CC1
REMARK SMILES IDX 1 1 2 2 3 3 4 4 5 5 9 6 10 7 6 8 7 9 8 10
REMARK H PARENT
REMARK Flexibility Score: inf
ROOT
ATOM      1  C   UNL     1       0.061  -0.704  15.054  1.00  0.00     0.039 C 
ATOM      2  C   UNL     1       1.161  -1.179  15.957  1.00  0.00    -0.073 C 
ATOM      3  C   UNL     1       0.863  -1.892  17.055  1.00  0.00    -0.001 C 
ATOM      4  C   UNL     1       1.928  -2.374  17.954  1.00  0.00    -0.001 C 
ATOM      5  C   UNL     1       3.224  -2.314  17.590  1.00  0.00    -0.067 C 
ATOM      6  C   UNL     1       3.575  -1.846  16.193  1.00  0.00     0.035 C 
ATOM      7  C   UNL     1       2.592  -0.774  15.695  1.00  0.00     0.035 C 
ENDROOT
BRANCH   5   8
ATOM      8  C   UNL     1       4.328  -2.789  18.516  1.00  0.00     0.009 C 
ATOM      9  C   UNL     1       5.714  -2.555  17.902  1.00  0.00     0.012 C 
ATOM     10  C   UNL     1       4.135  -4.261  18.900  1.00  0.00     0.012 C 
ENDBRANCH   5   8
TORSDOF 1
ENDMDL
MODEL 8
REMARK VINA RESULT:    -4.262      6.857      8.798
REMARK INTER + INTRA:          -4.673
REMARK INTER:                  -4.526
REMARK INTRA:                  -0.147
REMARK UNBOUND:                -0.162
REMARK SMILES CC1=CC=C(C(C)C)CC1
REMARK SMILES IDX 1 1 2 2 3 3 4 4 5 5 9 6 10 7 6 8 7 9 8 10
REMARK H PARENT
REMARK Flexibility Score: inf
ROOT
ATOM      1  C   UNL     1      -2.051  -7.430   9.561  1.00  0.00     0.039 C 
ATOM      2  C   UNL     1      -1.373  -6.315  10.301  1.00  0.00    -0.073 C 
ATOM      3  C   UNL     1      -1.081  -5.171   9.664  1.00  0.00    -0.001 C 
ATOM      4  C   UNL     1      -0.418  -4.060  10.372  1.00  0.00    -0.001 C 
ATOM      5  C   UNL     1      -0.294  -4.067  11.713  1.00  0.00    -0.067 C 
ATOM      6  C   UNL     1      -0.944  -5.183  12.506  1.00  0.00     0.035 C 
ATOM      7  C   UNL     1      -0.923  -6.509  11.731  1.00  0.00     0.035 C 
ENDROOT
BRANCH   5   8
ATOM      8  C   UNL     1       0.403  -2.938  12.450  1.00  0.00     0.009 C 
ATOM      9  C   UNL     1       1.687  -3.424  13.134  1.00  0.00     0.012 C 
ATOM     10  C   UNL     1      -0.540  -2.267  13.456  1.00  0.00     0.012 C 
ENDBRANCH   5   8
TORSDOF 1
ENDMDL
MODEL 9
REMARK VINA RESULT:    -4.250      2.300      4.220
REMARK INTER + INTRA:          -4.660
REMARK INTER:                  -4.493
REMARK INTRA:                  -0.167
REMARK UNBOUND:                -0.162
REMARK SMILES CC1=CC=C(C(C)C)CC1
REMARK SMILES IDX 1 1 2 2 3 3 4 4 5 5 9 6 10 7 6 8 7 9 8 10
REMARK H PARENT
REMARK Flexibility Score: inf
ROOT
ATOM      1  C   UNL     1       4.339  -2.220  15.735  1.00  0.00     0.039 C 
ATOM      2  C   UNL     1       3.167  -2.179  16.670  1.00  0.00    -0.073 C 
ATOM      3  C   UNL     1       1.964  -1.794  16.217  1.00  0.00    -0.001 C 
ATOM      4  C   UNL     1       0.796  -1.750  17.117  1.00  0.00    -0.001 C 
ATOM      5  C   UNL     1       0.844  -2.305  18.344  1.00  0.00    -0.067 C 
ATOM      6  C   UNL     1       2.081  -3.077  18.754  1.00  0.00     0.035 C 
ATOM      7  C   UNL     1       3.353  -2.469  18.141  1.00  0.00     0.035 C 
ENDROOT
BRANCH   5   8
ATOM      8  C   UNL     1      -0.346  -2.248  19.285  1.00  0.00     0.009 C 
ATOM      9  C   UNL     1      -1.195  -0.994  19.039  1.00  0.00     0.012 C 
ATOM     10  C   UNL     1       0.102  -2.335  20.749  1.00  0.00     0.012 C 
ENDBRANCH   5   8
TORSDOF 1
ENDMDL
