MODEL 1
REMARK VINA RESULT:    -4.925      0.000      0.000
REMARK INTER + INTRA:          -6.942
REMARK INTER:                  -6.652
REMARK INTRA:                  -0.290
REMARK UNBOUND:                -0.290
REMARK SMILES CCCCCCC=CC(=O)[O-]
REMARK SMILES IDX 5 1 6 2 7 3 8 4 9 5 10 6 11 7 4 8 3 9 2 10 1 11
REMARK H PARENT
REMARK Flexibility Score: inf
ROOT
ATOM      1  C   UNL     1     -10.037 -65.272 -33.207  1.00  0.00     0.004 C 
ENDROOT
BRANCH   1   2
ATOM      2  C   UNL     1     -10.732 -66.630 -33.045  1.00  0.00     0.027 C 
BRANCH   2   3
ATOM      3  C   UNL     1     -11.937 -66.732 -33.935  1.00  0.00    -0.025 C 
ATOM      4  C   UNL     1     -11.934 -67.499 -35.031  1.00  0.00     0.020 C 
BRANCH   4   5
ATOM      5  C   UNL     1     -13.108 -67.625 -35.908  1.00  0.00     0.064 C 
ATOM      6  O   UNL     1     -14.250 -67.879 -35.437  1.00  0.00    -0.545 OA
ATOM      7  O   UNL     1     -12.958 -67.463 -37.279  1.00  0.00    -0.545 OA
ENDBRANCH   4   5
ENDBRANCH   2   3
ENDBRANCH   1   2
BRANCH   1   8
ATOM      8  C   UNL     1      -8.585 -65.335 -32.717  1.00  0.00     0.000 C 
BRANCH   8   9
ATOM      9  C   UNL     1      -7.657 -64.537 -33.644  1.00  0.00    -0.000 C 
BRANCH   9  10
ATOM     10  C   UNL     1      -8.421 -63.815 -34.766  1.00  0.00    -0.003 C 
ATOM     11  C   UNL     1      -7.497 -63.267 -35.852  1.00  0.00     0.004 C 
ENDBRANCH   9  10
ENDBRANCH   8   9
ENDBRANCH   1   8
TORSDOF 6
ENDMDL
MODEL 2
REMARK VINA RESULT:    -4.799      3.219      5.984
REMARK INTER + INTRA:          -6.772
REMARK INTER:                  -6.168
REMARK INTRA:                  -0.604
REMARK UNBOUND:                -0.290
REMARK SMILES CCCCCCC=CC(=O)[O-]
REMARK SMILES IDX 5 1 6 2 7 3 8 4 9 5 10 6 11 7 4 8 3 9 2 10 1 11
REMARK H PARENT
REMARK Flexibility Score: inf
ROOT
ATOM      1  C   UNL     1     -14.187 -67.925 -35.541  1.00  0.00     0.004 C 
ENDROOT
BRANCH   1   2
ATOM      2  C   UNL     1     -12.770 -67.524 -35.971  1.00  0.00     0.027 C 
BRANCH   2   3
ATOM      3  C   UNL     1     -11.840 -67.469 -34.794  1.00  0.00    -0.025 C 
ATOM      4  C   UNL     1     -11.443 -66.305 -34.270  1.00  0.00     0.020 C 
BRANCH   4   5
ATOM      5  C   UNL     1     -10.544 -66.228 -33.107  1.00  0.00     0.064 C 
ATOM      6  O   UNL     1      -9.652 -65.341 -33.031  1.00  0.00    -0.545 OA
ATOM      7  O   UNL     1     -10.681 -67.147 -32.076  1.00  0.00    -0.545 OA
ENDBRANCH   4   5
ENDBRANCH   2   3
ENDBRANCH   1   2
BRANCH   1   8
ATOM      8  C   UNL     1     -15.229 -66.955 -36.109  1.00  0.00     0.000 C 
BRANCH   8   9
ATOM      9  C   UNL     1     -15.947 -66.196 -34.983  1.00  0.00    -0.000 C 
BRANCH   9  10
ATOM     10  C   UNL     1     -15.659 -66.789 -33.595  1.00  0.00    -0.003 C 
ATOM     11  C   UNL     1     -14.862 -65.841 -32.701  1.00  0.00     0.004 C 
ENDBRANCH   9  10
ENDBRANCH   8   9
ENDBRANCH   1   8
TORSDOF 6
ENDMDL
MODEL 3
REMARK VINA RESULT:    -4.761      3.073      4.108
REMARK INTER + INTRA:          -6.721
REMARK INTER:                  -6.445
REMARK INTRA:                  -0.276
REMARK UNBOUND:                -0.290
REMARK SMILES CCCCCCC=CC(=O)[O-]
REMARK SMILES IDX 5 1 6 2 7 3 8 4 9 5 10 6 11 7 4 8 3 9 2 10 1 11
REMARK H PARENT
REMARK Flexibility Score: inf
ROOT
ATOM      1  C   UNL     1     -11.750 -67.325 -34.878  1.00  0.00     0.004 C 
ENDROOT
BRANCH   1   2
ATOM      2  C   UNL     1     -13.005 -67.683 -35.684  1.00  0.00     0.027 C 
BRANCH   2   3
ATOM      3  C   UNL     1     -14.254 -67.348 -34.922  1.00  0.00    -0.025 C 
ATOM      4  C   UNL     1     -15.433 -67.898 -35.235  1.00  0.00     0.020 C 
BRANCH   4   5
ATOM      5  C   UNL     1     -16.666 -67.596 -34.492  1.00  0.00     0.064 C 
ATOM      6  O   UNL     1     -16.662 -67.491 -33.236  1.00  0.00    -0.545 OA
ATOM      7  O   UNL     1     -17.856 -67.422 -35.186  1.00  0.00    -0.545 OA
ENDBRANCH   4   5
ENDBRANCH   2   3
ENDBRANCH   1   2
BRANCH   1   8
ATOM      8  C   UNL     1     -12.117 -66.563 -33.599  1.00  0.00     0.000 C 
BRANCH   8   9
ATOM      9  C   UNL     1     -10.858 -66.165 -32.815  1.00  0.00    -0.000 C 
BRANCH   9  10
ATOM     10  C   UNL     1     -10.386 -67.268 -31.855  1.00  0.00    -0.003 C 
ATOM     11  C   UNL     1      -8.974 -67.027 -31.325  1.00  0.00     0.004 C 
ENDBRANCH   9  10
ENDBRANCH   8   9
ENDBRANCH   1   8
TORSDOF 6
ENDMDL
MODEL 4
REMARK VINA RESULT:    -4.701      3.312      6.313
REMARK INTER + INTRA:          -6.640
REMARK INTER:                  -6.364
REMARK INTRA:                  -0.275
REMARK UNBOUND:                -0.290
REMARK SMILES CCCCCCC=CC(=O)[O-]
REMARK SMILES IDX 5 1 6 2 7 3 8 4 9 5 10 6 11 7 4 8 3 9 2 10 1 11
REMARK H PARENT
REMARK Flexibility Score: inf
ROOT
ATOM      1  C   UNL     1     -14.255 -67.222 -34.711  1.00  0.00     0.004 C 
ENDROOT
BRANCH   1   2
ATOM      2  C   UNL     1     -13.029 -67.608 -35.549  1.00  0.00     0.027 C 
BRANCH   2   3
ATOM      3  C   UNL     1     -11.754 -67.271 -34.831  1.00  0.00    -0.025 C 
ATOM      4  C   UNL     1     -11.760 -66.628 -33.658  1.00  0.00     0.020 C 
BRANCH   4   5
ATOM      5  C   UNL     1     -10.524 -66.301 -32.930  1.00  0.00     0.064 C 
ATOM      6  O   UNL     1     -10.058 -67.079 -32.055  1.00  0.00    -0.545 OA
ATOM      7  O   UNL     1      -9.859 -65.116 -33.212  1.00  0.00    -0.545 OA
ENDBRANCH   4   5
ENDBRANCH   2   3
ENDBRANCH   1   2
BRANCH   1   8
ATOM      8  C   UNL     1     -15.555 -67.578 -35.443  1.00  0.00     0.000 C 
BRANCH   8   9
ATOM      9  C   UNL     1     -16.231 -66.319 -36.007  1.00  0.00    -0.000 C 
BRANCH   9  10
ATOM     10  C   UNL     1     -16.930 -66.577 -37.351  1.00  0.00    -0.003 C 
ATOM     11  C   UNL     1     -16.127 -66.062 -38.544  1.00  0.00     0.004 C 
ENDBRANCH   9  10
ENDBRANCH   8   9
ENDBRANCH   1   8
TORSDOF 6
ENDMDL
MODEL 5
REMARK VINA RESULT:    -4.623      2.631      3.412
REMARK INTER + INTRA:          -6.533
REMARK INTER:                  -6.007
REMARK INTRA:                  -0.526
REMARK UNBOUND:                -0.290
REMARK SMILES CCCCCCC=CC(=O)[O-]
REMARK SMILES IDX 5 1 6 2 7 3 8 4 9 5 10 6 11 7 4 8 3 9 2 10 1 11
REMARK H PARENT
REMARK Flexibility Score: inf
ROOT
ATOM      1  C   UNL     1      -8.703 -67.632 -29.841  1.00  0.00     0.004 C 
ENDROOT
BRANCH   1   2
ATOM      2  C   UNL     1     -10.099 -67.700 -30.475  1.00  0.00     0.027 C 
BRANCH   2   3
ATOM      3  C   UNL     1     -10.062 -67.282 -31.916  1.00  0.00    -0.025 C 
ATOM      4  C   UNL     1     -11.167 -66.888 -32.558  1.00  0.00     0.020 C 
BRANCH   4   5
ATOM      5  C   UNL     1     -11.152 -66.460 -33.966  1.00  0.00     0.064 C 
ATOM      6  O   UNL     1     -11.826 -67.070 -34.840  1.00  0.00    -0.545 OA
ATOM      7  O   UNL     1     -10.384 -65.366 -34.339  1.00  0.00    -0.545 OA
ENDBRANCH   4   5
ENDBRANCH   2   3
ENDBRANCH   1   2
BRANCH   1   8
ATOM      8  C   UNL     1      -7.645 -67.250 -30.883  1.00  0.00     0.000 C 
BRANCH   8   9
ATOM      9  C   UNL     1      -6.834 -66.029 -30.423  1.00  0.00    -0.000 C 
BRANCH   9  10
ATOM     10  C   UNL     1      -6.261 -65.224 -31.599  1.00  0.00    -0.003 C 
ATOM     11  C   UNL     1      -7.312 -64.892 -32.657  1.00  0.00     0.004 C 
ENDBRANCH   9  10
ENDBRANCH   8   9
ENDBRANCH   1   8
TORSDOF 6
ENDMDL
MODEL 6
REMARK VINA RESULT:    -4.619      3.268      4.304
REMARK INTER + INTRA:          -6.529
REMARK INTER:                  -6.215
REMARK INTRA:                  -0.314
REMARK UNBOUND:                -0.290
REMARK SMILES CCCCCCC=CC(=O)[O-]
REMARK SMILES IDX 5 1 6 2 7 3 8 4 9 5 10 6 11 7 4 8 3 9 2 10 1 11
REMARK H PARENT
REMARK Flexibility Score: inf
ROOT
ATOM      1  C   UNL     1     -11.732 -66.434 -33.273  1.00  0.00     0.004 C 
ENDROOT
BRANCH   1   2
ATOM      2  C   UNL     1     -12.621 -65.858 -32.163  1.00  0.00     0.027 C 
BRANCH   2   3
ATOM      3  C   UNL     1     -14.070 -65.897 -32.553  1.00  0.00    -0.025 C 
ATOM      4  C   UNL     1     -14.474 -66.482 -33.686  1.00  0.00     0.020 C 
BRANCH   4   5
ATOM      5  C   UNL     1     -15.890 -66.546 -34.081  1.00  0.00     0.064 C 
ATOM      6  O   UNL     1     -16.678 -67.373 -33.549  1.00  0.00    -0.545 OA
ATOM      7  O   UNL     1     -16.367 -65.680 -35.055  1.00  0.00    -0.545 OA
ENDBRANCH   4   5
ENDBRANCH   2   3
ENDBRANCH   1   2
BRANCH   1   8
ATOM      8  C   UNL     1     -10.426 -66.994 -32.697  1.00  0.00     0.000 C 
BRANCH   8   9
ATOM      9  C   UNL     1     -10.625 -67.476 -31.252  1.00  0.00    -0.000 C 
BRANCH   9  10
ATOM     10  C   UNL     1      -9.306 -67.544 -30.466  1.00  0.00    -0.003 C 
ATOM     11  C   UNL     1      -9.459 -68.237 -29.114  1.00  0.00     0.004 C 
ENDBRANCH   9  10
ENDBRANCH   8   9
ENDBRANCH   1   8
TORSDOF 6
ENDMDL
MODEL 7
REMARK VINA RESULT:    -4.619      4.280      6.738
REMARK INTER + INTRA:          -6.528
REMARK INTER:                  -5.943
REMARK INTRA:                  -0.585
REMARK UNBOUND:                -0.290
REMARK SMILES CCCCCCC=CC(=O)[O-]
REMARK SMILES IDX 5 1 6 2 7 3 8 4 9 5 10 6 11 7 4 8 3 9 2 10 1 11
REMARK H PARENT
REMARK Flexibility Score: inf
ROOT
ATOM      1  C   UNL     1     -16.855 -67.973 -34.785  1.00  0.00     0.004 C 
ENDROOT
BRANCH   1   2
ATOM      2  C   UNL     1     -16.040 -66.997 -33.927  1.00  0.00     0.027 C 
BRANCH   2   3
ATOM      3  C   UNL     1     -14.605 -66.955 -34.367  1.00  0.00    -0.025 C 
ATOM      4  C   UNL     1     -14.191 -67.602 -35.462  1.00  0.00     0.020 C 
BRANCH   4   5
ATOM      5  C   UNL     1     -12.793 -67.563 -35.920  1.00  0.00     0.064 C 
ATOM      6  O   UNL     1     -12.509 -67.576 -37.148  1.00  0.00    -0.545 OA
ATOM      7  O   UNL     1     -11.769 -67.511 -34.985  1.00  0.00    -0.545 OA
ENDBRANCH   4   5
ENDBRANCH   2   3
ENDBRANCH   1   2
BRANCH   1   8
ATOM      8  C   UNL     1     -17.990 -67.246 -35.516  1.00  0.00     0.000 C 
BRANCH   8   9
ATOM      9  C   UNL     1     -17.733 -67.207 -37.030  1.00  0.00    -0.000 C 
BRANCH   9  10
ATOM     10  C   UNL     1     -16.664 -66.174 -37.421  1.00  0.00    -0.003 C 
ATOM     11  C   UNL     1     -15.812 -66.625 -38.605  1.00  0.00     0.004 C 
ENDBRANCH   9  10
ENDBRANCH   8   9
ENDBRANCH   1   8
TORSDOF 6
ENDMDL
MODEL 8
REMARK VINA RESULT:    -4.573      3.771      5.676
REMARK INTER + INTRA:          -6.467
REMARK INTER:                  -6.253
REMARK INTRA:                  -0.214
REMARK UNBOUND:                -0.290
REMARK SMILES CCCCCCC=CC(=O)[O-]
REMARK SMILES IDX 5 1 6 2 7 3 8 4 9 5 10 6 11 7 4 8 3 9 2 10 1 11
REMARK H PARENT
REMARK Flexibility Score: inf
ROOT
ATOM      1  C   UNL     1     -10.668 -66.922 -32.947  1.00  0.00     0.004 C 
ENDROOT
BRANCH   1   2
ATOM      2  C   UNL     1     -10.613 -65.397 -33.112  1.00  0.00     0.027 C 
BRANCH   2   3
ATOM      3  C   UNL     1      -9.258 -64.951 -33.580  1.00  0.00    -0.025 C 
ATOM      4  C   UNL     1      -9.111 -64.184 -34.666  1.00  0.00     0.020 C 
BRANCH   4   5
ATOM      5  C   UNL     1      -7.795 -63.723 -35.134  1.00  0.00     0.064 C 
ATOM      6  O   UNL     1      -6.729 -64.178 -34.637  1.00  0.00    -0.545 OA
ATOM      7  O   UNL     1      -7.723 -62.771 -36.142  1.00  0.00    -0.545 OA
ENDBRANCH   4   5
ENDBRANCH   2   3
ENDBRANCH   1   2
BRANCH   1   8
ATOM      8  C   UNL     1     -10.610 -67.317 -31.467  1.00  0.00     0.000 C 
BRANCH   8   9
ATOM      9  C   UNL     1      -9.162 -67.323 -30.955  1.00  0.00    -0.000 C 
BRANCH   9  10
ATOM     10  C   UNL     1      -9.003 -68.108 -29.643  1.00  0.00    -0.003 C 
ATOM     11  C   UNL     1     -10.287 -68.819 -29.220  1.00  0.00     0.004 C 
ENDBRANCH   9  10
ENDBRANCH   8   9
ENDBRANCH   1   8
TORSDOF 6
ENDMDL
MODEL 9
REMARK VINA RESULT:    -4.560      3.004      4.124
REMARK INTER + INTRA:          -6.448
REMARK INTER:                  -6.154
REMARK INTRA:                  -0.295
REMARK UNBOUND:                -0.290
REMARK SMILES CCCCCCC=CC(=O)[O-]
REMARK SMILES IDX 5 1 6 2 7 3 8 4 9 5 10 6 11 7 4 8 3 9 2 10 1 11
REMARK H PARENT
REMARK Flexibility Score: inf
ROOT
ATOM      1  C   UNL     1     -13.040 -66.131 -32.114  1.00  0.00     0.004 C 
ENDROOT
BRANCH   1   2
ATOM      2  C   UNL     1     -14.454 -65.683 -32.504  1.00  0.00     0.027 C 
BRANCH   2   3
ATOM      3  C   UNL     1     -15.010 -66.539 -33.606  1.00  0.00    -0.025 C 
ATOM      4  C   UNL     1     -15.885 -66.054 -34.493  1.00  0.00     0.020 C 
BRANCH   4   5
ATOM      5  C   UNL     1     -16.431 -66.870 -35.589  1.00  0.00     0.064 C 
ATOM      6  O   UNL     1     -16.373 -66.476 -36.786  1.00  0.00    -0.545 OA
ATOM      7  O   UNL     1     -17.019 -68.094 -35.303  1.00  0.00    -0.545 OA
ENDBRANCH   4   5
ENDBRANCH   2   3
ENDBRANCH   1   2
BRANCH   1   8
ATOM      8  C   UNL     1     -12.176 -66.369 -33.358  1.00  0.00     0.000 C 
BRANCH   8   9
ATOM      9  C   UNL     1     -10.689 -66.467 -32.985  1.00  0.00    -0.000 C 
BRANCH   9  10
ATOM     10  C   UNL     1     -10.453 -67.299 -31.715  1.00  0.00    -0.003 C 
ATOM     11  C   UNL     1      -9.005 -67.240 -31.230  1.00  0.00     0.004 C 
ENDBRANCH   9  10
ENDBRANCH   8   9
ENDBRANCH   1   8
TORSDOF 6
ENDMDL
