MODEL 1
REMARK VINA RESULT:    -3.933      0.000      0.000
REMARK INTER + INTRA:          -6.346
REMARK INTER:                  -6.002
REMARK INTRA:                  -0.343
REMARK UNBOUND:                -0.343
REMARK SMILES CC1=CCC[C@@H](C)C(=O)C[C@H](C(C)C)C(=O)C1
REMARK SMILES IDX 8 1 9 2 6 3 7 4 5 5 4 6 3 7 2 8 1 9 10 11 11 12 15 13 16 14
REMARK SMILES IDX 17 15 12 17 13 18 14 19
REMARK H PARENT
REMARK Flexibility Score: 70.00
ROOT
ATOM      1  C   UNL     1     -15.868  13.894 -31.134  1.00  0.00     0.136 C 
ATOM      2  O   UNL     1     -16.499  14.030 -32.173  1.00  0.00    -0.299 OA
ENDROOT
BRANCH   1   3
ATOM      3  C   UNL     1     -14.363  14.081 -31.133  1.00  0.00     0.053 C 
ATOM      4  C   UNL     1     -14.031  15.487 -31.641  1.00  0.00     0.016 C 
BRANCH   3   5
ATOM      5  C   UNL     1     -13.625  13.017 -31.980  1.00  0.00     0.015 C 
BRANCH   5   6
ATOM      6  C   UNL     1     -13.627  11.611 -31.353  1.00  0.00     0.028 C 
BRANCH   6   7
ATOM      7  C   UNL     1     -12.963  11.609 -29.996  1.00  0.00    -0.028 C 
ATOM      8  C   UNL     1     -13.518  11.153 -28.849  1.00  0.00    -0.070 CG0
ATOM      9  C   UNL     1     -12.700  11.240 -27.586  1.00  0.00     0.039 C 
ATOM     10  G   UNL     1     -14.915  10.564 -28.783  1.00  0.00     0.000 G0
ENDBRANCH   6   7
ENDBRANCH   5   6
ENDBRANCH   3   5
ENDBRANCH   1   3
BRANCH   1  11
ATOM     11  C   UNL     1     -16.611  13.611 -29.851  1.00  0.00     0.087 C 
BRANCH  11  12
ATOM     12  C   UNL     1     -16.857  12.096 -29.653  1.00  0.00     0.066 C 
BRANCH  12  13
ATOM     13  C   UNL     1     -16.004  11.559 -28.515  1.00  0.00     0.140 C 
ATOM     14  O   UNL     1     -16.208  11.938 -27.371  1.00  0.00    -0.299 OA
BRANCH  13  15
ATOM     15  C   UNL     1     -14.924  10.535 -28.758  1.00  0.00     0.106 CG0
ATOM     16  G   UNL     1     -13.545  11.162 -28.847  1.00  0.00     0.000 G0
ENDBRANCH  13  15
ENDBRANCH  12  13
BRANCH  12  17
ATOM     17  C   UNL     1     -18.359  11.724 -29.448  1.00  0.00    -0.006 C 
ATOM     18  C   UNL     1     -19.345  12.719 -30.086  1.00  0.00     0.008 C 
ATOM     19  C   UNL     1     -18.662  10.300 -29.940  1.00  0.00     0.008 C 
ENDBRANCH  12  17
ENDBRANCH  11  12
ENDBRANCH   1  11
TORSDOF 1
ENDMDL
MODEL 2
REMARK VINA RESULT:    -3.624      2.018      4.873
REMARK INTER + INTRA:          -5.875
REMARK INTER:                  -5.898
REMARK INTRA:                   0.023
REMARK UNBOUND:                -0.343
REMARK SMILES CC1=CCC[C@@H](C)C(=O)C[C@H](C(C)C)C(=O)C1
REMARK SMILES IDX 8 1 9 2 6 3 7 4 5 5 4 6 3 7 2 8 1 9 10 11 11 12 15 13 16 14
REMARK SMILES IDX 17 15 12 17 13 18 14 19
REMARK H PARENT
REMARK Flexibility Score: 70.00
ROOT
ATOM      1  C   UNL     1     -14.148  11.980 -29.495  1.00  0.00     0.136 C 
ATOM      2  O   UNL     1     -13.123  11.510 -29.968  1.00  0.00    -0.299 OA
ENDROOT
BRANCH   1   3
ATOM      3  C   UNL     1     -14.699  11.434 -28.192  1.00  0.00     0.053 C 
ATOM      4  C   UNL     1     -13.566  11.349 -27.164  1.00  0.00     0.016 C 
BRANCH   3   5
ATOM      5  C   UNL     1     -15.377  10.053 -28.357  1.00  0.00     0.015 C 
BRANCH   5   6
ATOM      6  C   UNL     1     -16.340   9.971 -29.555  1.00  0.00     0.028 C 
BRANCH   6   7
ATOM      7  C   UNL     1     -17.513  10.908 -29.387  1.00  0.00    -0.028 C 
ATOM      8  C   UNL     1     -18.031  11.702 -30.353  1.00  0.00    -0.070 CG0
ATOM      9  C   UNL     1     -19.204  12.578 -29.993  1.00  0.00     0.039 C 
ATOM     10  G   UNL     1     -17.486  11.746 -31.768  1.00  0.00     0.000 G0
ENDBRANCH   6   7
ENDBRANCH   5   6
ENDBRANCH   3   5
ENDBRANCH   1   3
BRANCH   1  11
ATOM     11  C   UNL     1     -14.812  13.147 -30.184  1.00  0.00     0.087 C 
BRANCH  11  12
ATOM     12  C   UNL     1     -15.074  12.857 -31.681  1.00  0.00     0.066 C 
BRANCH  12  13
ATOM     13  C   UNL     1     -16.560  12.938 -31.990  1.00  0.00     0.140 C 
ATOM     14  O   UNL     1     -17.029  13.965 -32.457  1.00  0.00    -0.299 OA
BRANCH  13  15
ATOM     15  C   UNL     1     -17.475  11.759 -31.764  1.00  0.00     0.106 CG0
ATOM     16  G   UNL     1     -18.019  11.715 -30.348  1.00  0.00     0.000 G0
ENDBRANCH  13  15
ENDBRANCH  12  13
BRANCH  12  17
ATOM     17  C   UNL     1     -14.253  13.763 -32.651  1.00  0.00    -0.006 C 
ATOM     18  C   UNL     1     -14.003  15.186 -32.120  1.00  0.00     0.008 C 
ATOM     19  C   UNL     1     -12.918  13.110 -33.042  1.00  0.00     0.008 C 
ENDBRANCH  12  17
ENDBRANCH  11  12
ENDBRANCH   1  11
TORSDOF 1
ENDMDL
MODEL 3
REMARK VINA RESULT:    -3.545      1.926      3.188
REMARK INTER + INTRA:          -5.754
REMARK INTER:                  -6.036
REMARK INTRA:                   0.282
REMARK UNBOUND:                -0.343
REMARK SMILES CC1=CCC[C@@H](C)C(=O)C[C@H](C(C)C)C(=O)C1
REMARK SMILES IDX 8 1 9 2 6 3 7 4 5 5 4 6 3 7 2 8 1 9 10 11 11 12 15 13 16 14
REMARK SMILES IDX 17 15 12 17 13 18 14 19
REMARK H PARENT
REMARK Flexibility Score: 70.00
ROOT
ATOM      1  C   UNL     1     -16.301  13.651 -30.424  1.00  0.00     0.136 C 
ATOM      2  O   UNL     1     -15.505  14.579 -30.441  1.00  0.00    -0.299 OA
ENDROOT
BRANCH   1   3
ATOM      3  C   UNL     1     -17.191  13.395 -31.624  1.00  0.00     0.053 C 
ATOM      4  C   UNL     1     -17.929  12.067 -31.428  1.00  0.00     0.016 C 
BRANCH   3   5
ATOM      5  C   UNL     1     -16.412  13.383 -32.960  1.00  0.00     0.015 C 
BRANCH   5   6
ATOM      6  C   UNL     1     -15.464  12.180 -33.117  1.00  0.00     0.028 C 
BRANCH   6   7
ATOM      7  C   UNL     1     -14.016  12.597 -33.003  1.00  0.00    -0.028 C 
ATOM      8  C   UNL     1     -13.132  12.128 -32.093  1.00  0.00    -0.070 CG0
ATOM      9  C   UNL     1     -11.725  12.671 -32.131  1.00  0.00     0.039 C 
ATOM     10  G   UNL     1     -13.492  11.090 -31.047  1.00  0.00     0.000 G0
ENDBRANCH   6   7
ENDBRANCH   5   6
ENDBRANCH   3   5
ENDBRANCH   1   3
BRANCH   1  11
ATOM     11  C   UNL     1     -16.333  12.729 -29.229  1.00  0.00     0.087 C 
BRANCH  11  12
ATOM     12  C   UNL     1     -15.603  11.395 -29.514  1.00  0.00     0.066 C 
BRANCH  12  13
ATOM     13  C   UNL     1     -14.133  11.641 -29.810  1.00  0.00     0.140 C 
ATOM     14  O   UNL     1     -13.457  12.296 -29.030  1.00  0.00    -0.299 OA
BRANCH  13  15
ATOM     15  C   UNL     1     -13.471  11.064 -31.037  1.00  0.00     0.106 CG0
ATOM     16  G   UNL     1     -13.144  12.128 -32.069  1.00  0.00     0.000 G0
ENDBRANCH  13  15
ENDBRANCH  12  13
BRANCH  12  17
ATOM     17  C   UNL     1     -15.774  10.330 -28.384  1.00  0.00    -0.006 C 
ATOM     18  C   UNL     1     -15.237  10.778 -27.013  1.00  0.00     0.008 C 
ATOM     19  C   UNL     1     -17.236   9.877 -28.250  1.00  0.00     0.008 C 
ENDBRANCH  12  17
ENDBRANCH  11  12
ENDBRANCH   1  11
TORSDOF 1
ENDMDL
MODEL 4
REMARK VINA RESULT:    -3.510      1.992      4.472
REMARK INTER + INTRA:          -5.701
REMARK INTER:                  -5.974
REMARK INTRA:                   0.273
REMARK UNBOUND:                -0.343
REMARK SMILES CC1=CCC[C@@H](C)C(=O)C[C@H](C(C)C)C(=O)C1
REMARK SMILES IDX 8 1 9 2 6 3 7 4 5 5 4 6 3 7 2 8 1 9 10 11 11 12 15 13 16 14
REMARK SMILES IDX 17 15 12 17 13 18 14 19
REMARK H PARENT
REMARK Flexibility Score: 70.00
ROOT
ATOM      1  C   UNL     1     -17.251  11.542 -29.108  1.00  0.00     0.136 C 
ATOM      2  O   UNL     1     -17.649  10.614 -28.417  1.00  0.00    -0.299 OA
ENDROOT
BRANCH   1   3
ATOM      3  C   UNL     1     -18.143  12.113 -30.193  1.00  0.00     0.053 C 
ATOM      4  C   UNL     1     -19.467  11.342 -30.212  1.00  0.00     0.016 C 
BRANCH   3   5
ATOM      5  C   UNL     1     -17.484  12.081 -31.592  1.00  0.00     0.015 C 
BRANCH   5   6
ATOM      6  C   UNL     1     -16.892  13.431 -32.033  1.00  0.00     0.028 C 
BRANCH   6   7
ATOM      7  C   UNL     1     -15.616  13.246 -32.820  1.00  0.00    -0.028 C 
ATOM      8  C   UNL     1     -14.375  13.133 -32.291  1.00  0.00    -0.070 CG0
ATOM      9  C   UNL     1     -13.216  12.960 -33.240  1.00  0.00     0.039 C 
ATOM     10  G   UNL     1     -14.104  13.171 -30.798  1.00  0.00     0.000 G0
ENDBRANCH   6   7
ENDBRANCH   5   6
ENDBRANCH   3   5
ENDBRANCH   1   3
BRANCH   1  11
ATOM     11  C   UNL     1     -15.900  12.150 -28.821  1.00  0.00     0.087 C 
BRANCH  11  12
ATOM     12  C   UNL     1     -14.747  11.184 -29.184  1.00  0.00     0.066 C 
BRANCH  12  13
ATOM     13  C   UNL     1     -13.822  11.817 -30.212  1.00  0.00     0.140 C 
ATOM     14  O   UNL     1     -12.842  11.203 -30.607  1.00  0.00    -0.299 OA
BRANCH  13  15
ATOM     15  C   UNL     1     -14.104  13.183 -30.787  1.00  0.00     0.106 CG0
ATOM     16  G   UNL     1     -14.359  13.136 -32.283  1.00  0.00     0.000 G0
ENDBRANCH  13  15
ENDBRANCH  12  13
BRANCH  12  17
ATOM     17  C   UNL     1     -13.941  10.673 -27.948  1.00  0.00    -0.006 C 
ATOM     18  C   UNL     1     -13.073  11.751 -27.276  1.00  0.00     0.008 C 
ATOM     19  C   UNL     1     -14.860  10.017 -26.906  1.00  0.00     0.008 C 
ENDBRANCH  12  17
ENDBRANCH  11  12
ENDBRANCH   1  11
TORSDOF 1
ENDMDL
MODEL 5
REMARK VINA RESULT:    -3.161      9.302     10.973
REMARK INTER + INTRA:          -5.167
REMARK INTER:                  -5.641
REMARK INTRA:                   0.474
REMARK UNBOUND:                -0.343
REMARK SMILES CC1=CCC[C@@H](C)C(=O)C[C@H](C(C)C)C(=O)C1
REMARK SMILES IDX 8 1 9 2 6 3 7 4 5 5 4 6 3 7 2 8 1 9 10 11 11 12 15 13 16 14
REMARK SMILES IDX 17 15 12 17 13 18 14 19
REMARK H PARENT
REMARK Flexibility Score: 70.00
ROOT
ATOM      1  C   UNL     1     -26.678  13.998 -30.345  1.00  0.00     0.136 C 
ATOM      2  O   UNL     1     -27.302  14.139 -31.386  1.00  0.00    -0.299 OA
ENDROOT
BRANCH   1   3
ATOM      3  C   UNL     1     -25.414  14.801 -30.105  1.00  0.00     0.053 C 
ATOM      4  C   UNL     1     -25.537  16.154 -30.814  1.00  0.00     0.016 C 
BRANCH   3   5
ATOM      5  C   UNL     1     -24.136  14.065 -30.573  1.00  0.00     0.015 C 
BRANCH   5   6
ATOM      6  C   UNL     1     -24.331  12.553 -30.785  1.00  0.00     0.028 C 
BRANCH   6   7
ATOM      7  C   UNL     1     -23.898  11.764 -29.572  1.00  0.00    -0.028 C 
ATOM      8  C   UNL     1     -24.499  10.643 -29.108  1.00  0.00    -0.070 CG0
ATOM      9  C   UNL     1     -23.925   9.994 -27.873  1.00  0.00     0.039 C 
ATOM     10  G   UNL     1     -25.712  10.018 -29.771  1.00  0.00     0.000 G0
ENDBRANCH   6   7
ENDBRANCH   5   6
ENDBRANCH   3   5
ENDBRANCH   1   3
BRANCH   1  11
ATOM     11  C   UNL     1     -27.216  13.073 -29.280  1.00  0.00     0.087 C 
BRANCH  11  12
ATOM     12  C   UNL     1     -27.710  11.735 -29.879  1.00  0.00     0.066 C 
BRANCH  12  13
ATOM     13  C   UNL     1     -27.016  10.560 -29.209  1.00  0.00     0.140 C 
ATOM     14  O   UNL     1     -27.524  10.032 -28.231  1.00  0.00    -0.299 OA
BRANCH  13  15
ATOM     15  C   UNL     1     -25.722  10.002 -29.746  1.00  0.00     0.106 CG0
ATOM     16  G   UNL     1     -24.507  10.630 -29.088  1.00  0.00     0.000 G0
ENDBRANCH  13  15
ENDBRANCH  12  13
BRANCH  12  17
ATOM     17  C   UNL     1     -29.262  11.563 -29.841  1.00  0.00    -0.006 C 
ATOM     18  C   UNL     1     -30.039  12.740 -30.456  1.00  0.00     0.008 C 
ATOM     19  C   UNL     1     -29.701  10.245 -30.499  1.00  0.00     0.008 C 
ENDBRANCH  12  17
ENDBRANCH  11  12
ENDBRANCH   1  11
TORSDOF 1
ENDMDL
MODEL 6
REMARK VINA RESULT:    -2.989      2.004      3.823
REMARK INTER + INTRA:          -4.905
REMARK INTER:                  -5.149
REMARK INTRA:                   0.244
REMARK UNBOUND:                -0.343
REMARK SMILES CC1=CCC[C@@H](C)C(=O)C[C@H](C(C)C)C(=O)C1
REMARK SMILES IDX 8 1 9 2 6 3 7 4 5 5 4 6 3 7 2 8 1 9 10 11 11 12 15 13 16 14
REMARK SMILES IDX 17 15 12 17 13 18 14 19
REMARK H PARENT
REMARK Flexibility Score: 70.00
ROOT
ATOM      1  C   UNL     1     -15.427  10.199 -30.599  1.00  0.00     0.136 C 
ATOM      2  O   UNL     1     -14.767  10.365 -31.615  1.00  0.00    -0.299 OA
ENDROOT
BRANCH   1   3
ATOM      3  C   UNL     1     -14.733  10.084 -29.256  1.00  0.00     0.053 C 
ATOM      4  C   UNL     1     -15.770  10.240 -28.139  1.00  0.00     0.016 C 
BRANCH   3   5
ATOM      5  C   UNL     1     -13.594  11.117 -29.077  1.00  0.00     0.015 C 
BRANCH   5   6
ATOM      6  C   UNL     1     -14.083  12.573 -28.979  1.00  0.00     0.028 C 
BRANCH   6   7
ATOM      7  C   UNL     1     -13.866  13.319 -30.275  1.00  0.00    -0.028 C 
ATOM      8  C   UNL     1     -14.837  13.888 -31.027  1.00  0.00    -0.070 CG0
ATOM      9  C   UNL     1     -14.426  14.587 -32.298  1.00  0.00     0.039 C 
ATOM     10  G   UNL     1     -16.306  13.853 -30.647  1.00  0.00     0.000 G0
ENDBRANCH   6   7
ENDBRANCH   5   6
ENDBRANCH   3   5
ENDBRANCH   1   3
BRANCH   1  11
ATOM     11  C   UNL     1     -16.934  10.182 -30.692  1.00  0.00     0.087 C 
BRANCH  11  12
ATOM     12  C   UNL     1     -17.550  11.542 -30.287  1.00  0.00     0.066 C 
BRANCH  12  13
ATOM     13  C   UNL     1     -17.038  12.652 -31.191  1.00  0.00     0.140 C 
ATOM     14  O   UNL     1     -17.237  12.596 -32.395  1.00  0.00    -0.299 OA
BRANCH  13  15
ATOM     15  C   UNL     1     -16.312  13.850 -30.630  1.00  0.00     0.106 CG0
ATOM     16  G   UNL     1     -14.850  13.879 -31.033  1.00  0.00     0.000 G0
ENDBRANCH  13  15
ENDBRANCH  12  13
BRANCH  12  17
ATOM     17  C   UNL     1     -19.110  11.538 -30.238  1.00  0.00    -0.006 C 
ATOM     18  C   UNL     1     -19.707  10.427 -29.355  1.00  0.00     0.008 C 
ATOM     19  C   UNL     1     -19.667  12.903 -29.807  1.00  0.00     0.008 C 
ENDBRANCH  12  17
ENDBRANCH  11  12
ENDBRANCH   1  11
TORSDOF 1
ENDMDL
MODEL 7
REMARK VINA RESULT:    -2.959     10.480     12.696
REMARK INTER + INTRA:          -4.859
REMARK INTER:                  -4.763
REMARK INTRA:                  -0.096
REMARK UNBOUND:                -0.343
REMARK SMILES CC1=CCC[C@@H](C)C(=O)C[C@H](C(C)C)C(=O)C1
REMARK SMILES IDX 8 1 9 2 6 3 7 4 5 5 4 6 3 7 2 8 1 9 10 11 11 12 15 13 16 14
REMARK SMILES IDX 17 15 12 17 13 18 14 19
REMARK H PARENT
REMARK Flexibility Score: 70.00
ROOT
ATOM      1  C   UNL     1     -26.595  19.601 -33.780  1.00  0.00     0.136 C 
ATOM      2  O   UNL     1     -26.523  20.822 -33.747  1.00  0.00    -0.299 OA
ENDROOT
BRANCH   1   3
ATOM      3  C   UNL     1     -27.950  18.924 -33.827  1.00  0.00     0.053 C 
ATOM      4  C   UNL     1     -28.893  19.616 -32.837  1.00  0.00     0.016 C 
BRANCH   3   5
ATOM      5  C   UNL     1     -27.876  17.408 -33.525  1.00  0.00     0.015 C 
BRANCH   5   6
ATOM      6  C   UNL     1     -28.040  17.061 -32.035  1.00  0.00     0.028 C 
BRANCH   6   7
ATOM      7  C   UNL     1     -27.170  15.890 -31.640  1.00  0.00    -0.028 C 
ATOM      8  C   UNL     1     -25.939  15.977 -31.086  1.00  0.00    -0.070 CG0
ATOM      9  C   UNL     1     -25.217  14.692 -30.765  1.00  0.00     0.039 C 
ATOM     10  G   UNL     1     -25.261  17.298 -30.776  1.00  0.00     0.000 G0
ENDBRANCH   6   7
ENDBRANCH   5   6
ENDBRANCH   3   5
ENDBRANCH   1   3
BRANCH   1  11
ATOM     11  C   UNL     1     -25.324  18.789 -33.844  1.00  0.00     0.087 C 
BRANCH  11  12
ATOM     12  C   UNL     1     -24.435  19.016 -32.599  1.00  0.00     0.066 C 
BRANCH  12  13
ATOM     13  C   UNL     1     -24.259  17.721 -31.822  1.00  0.00     0.140 C 
ATOM     14  O   UNL     1     -23.283  17.016 -32.030  1.00  0.00    -0.299 OA
BRANCH  13  15
ATOM     15  C   UNL     1     -25.250  17.297 -30.767  1.00  0.00     0.106 CG0
ATOM     16  G   UNL     1     -25.924  15.981 -31.106  1.00  0.00     0.000 G0
ENDBRANCH  13  15
ENDBRANCH  12  13
BRANCH  12  17
ATOM     17  C   UNL     1     -23.052  19.665 -32.924  1.00  0.00    -0.006 C 
ATOM     18  C   UNL     1     -22.643  19.562 -34.404  1.00  0.00     0.008 C 
ATOM     19  C   UNL     1     -22.992  21.130 -32.465  1.00  0.00     0.008 C 
ENDBRANCH  12  17
ENDBRANCH  11  12
ENDBRANCH   1  11
TORSDOF 1
ENDMDL
MODEL 8
REMARK VINA RESULT:    -2.925      1.751      3.721
REMARK INTER + INTRA:          -4.807
REMARK INTER:                  -5.482
REMARK INTRA:                   0.674
REMARK UNBOUND:                -0.343
REMARK SMILES CC1=CCC[C@@H](C)C(=O)C[C@H](C(C)C)C(=O)C1
REMARK SMILES IDX 8 1 9 2 6 3 7 4 5 5 4 6 3 7 2 8 1 9 10 11 11 12 15 13 16 14
REMARK SMILES IDX 17 15 12 17 13 18 14 19
REMARK H PARENT
REMARK Flexibility Score: 70.00
ROOT
ATOM      1  C   UNL     1     -17.485  12.192 -29.493  1.00  0.00     0.136 C 
ATOM      2  O   UNL     1     -18.608  12.534 -29.835  1.00  0.00    -0.299 OA
ENDROOT
BRANCH   1   3
ATOM      3  C   UNL     1     -17.168  10.723 -29.296  1.00  0.00     0.053 C 
ATOM      4  C   UNL     1     -18.249   9.879 -29.979  1.00  0.00     0.016 C 
BRANCH   3   5
ATOM      5  C   UNL     1     -17.043  10.330 -27.805  1.00  0.00     0.015 C 
BRANCH   5   6
ATOM      6  C   UNL     1     -15.616  10.458 -27.244  1.00  0.00     0.028 C 
BRANCH   6   7
ATOM      7  C   UNL     1     -14.589   9.927 -28.217  1.00  0.00    -0.028 C 
ATOM      8  C   UNL     1     -13.773  10.682 -28.989  1.00  0.00    -0.070 CG0
ATOM      9  C   UNL     1     -12.813   9.970 -29.908  1.00  0.00     0.039 C 
ATOM     10  G   UNL     1     -13.783  12.199 -28.968  1.00  0.00     0.000 G0
ENDBRANCH   6   7
ENDBRANCH   5   6
ENDBRANCH   3   5
ENDBRANCH   1   3
BRANCH   1  11
ATOM     11  C   UNL     1     -16.409  13.240 -29.342  1.00  0.00     0.087 C 
BRANCH  11  12
ATOM     12  C   UNL     1     -15.513  13.330 -30.600  1.00  0.00     0.066 C 
BRANCH  12  13
ATOM     13  C   UNL     1     -14.120  12.797 -30.304  1.00  0.00     0.140 C 
ATOM     14  O   UNL     1     -13.245  12.880 -31.152  1.00  0.00    -0.299 OA
BRANCH  13  15
ATOM     15  C   UNL     1     -13.778  12.191 -28.965  1.00  0.00     0.106 CG0
ATOM     16  G   UNL     1     -13.767  10.675 -29.005  1.00  0.00     0.000 G0
ENDBRANCH  13  15
ENDBRANCH  12  13
BRANCH  12  17
ATOM     17  C   UNL     1     -16.122  12.633 -31.857  1.00  0.00    -0.006 C 
ATOM     18  C   UNL     1     -16.435  13.594 -33.017  1.00  0.00     0.008 C 
ATOM     19  C   UNL     1     -15.230  11.485 -32.355  1.00  0.00     0.008 C 
ENDBRANCH  12  17
ENDBRANCH  11  12
ENDBRANCH   1  11
TORSDOF 1
ENDMDL
MODEL 9
REMARK VINA RESULT:    -2.925      9.741     12.644
REMARK INTER + INTRA:          -4.807
REMARK INTER:                  -4.848
REMARK INTRA:                   0.041
REMARK UNBOUND:                -0.343
REMARK SMILES CC1=CCC[C@@H](C)C(=O)C[C@H](C(C)C)C(=O)C1
REMARK SMILES IDX 8 1 9 2 6 3 7 4 5 5 4 6 3 7 2 8 1 9 10 11 11 12 15 13 16 14
REMARK SMILES IDX 17 15 12 17 13 18 14 19
REMARK H PARENT
REMARK Flexibility Score: 70.00
ROOT
ATOM      1  C   UNL     1     -27.634  17.465 -32.545  1.00  0.00     0.136 C 
ATOM      2  O   UNL     1     -27.776  16.464 -33.232  1.00  0.00    -0.299 OA
ENDROOT
BRANCH   1   3
ATOM      3  C   UNL     1     -28.490  18.689 -32.805  1.00  0.00     0.053 C 
ATOM      4  C   UNL     1     -29.745  18.269 -33.577  1.00  0.00     0.016 C 
BRANCH   3   5
ATOM      5  C   UNL     1     -27.735  19.799 -33.574  1.00  0.00     0.015 C 
BRANCH   5   6
ATOM      6  C   UNL     1     -26.452  19.312 -34.271  1.00  0.00     0.028 C 
BRANCH   6   7
ATOM      7  C   UNL     1     -25.264  20.172 -33.908  1.00  0.00    -0.028 C 
ATOM      8  C   UNL     1     -24.073  19.718 -33.453  1.00  0.00    -0.070 CG0
ATOM      9  C   UNL     1     -23.004  20.733 -33.137  1.00  0.00     0.039 C 
ATOM     10  G   UNL     1     -23.771  18.244 -33.251  1.00  0.00     0.000 G0
ENDBRANCH   6   7
ENDBRANCH   5   6
ENDBRANCH   3   5
ENDBRANCH   1   3
BRANCH   1  11
ATOM     11  C   UNL     1     -26.651  17.441 -31.399  1.00  0.00     0.087 C 
BRANCH  11  12
ATOM     12  C   UNL     1     -25.335  16.727 -31.786  1.00  0.00     0.066 C 
BRANCH  12  13
ATOM     13  C   UNL     1     -24.198  17.729 -31.908  1.00  0.00     0.140 C 
ATOM     14  O   UNL     1     -23.612  18.109 -30.906  1.00  0.00    -0.299 OA
BRANCH  13  15
ATOM     15  C   UNL     1     -23.747  18.246 -33.252  1.00  0.00     0.106 CG0
ATOM     16  G   UNL     1     -24.075  19.715 -33.443  1.00  0.00     0.000 G0
ENDBRANCH  13  15
ENDBRANCH  12  13
BRANCH  12  17
ATOM     17  C   UNL     1     -24.947  15.558 -30.827  1.00  0.00    -0.006 C 
ATOM     18  C   UNL     1     -26.113  14.611 -30.489  1.00  0.00     0.008 C 
ATOM     19  C   UNL     1     -23.759  14.750 -31.371  1.00  0.00     0.008 C 
ENDBRANCH  12  17
ENDBRANCH  11  12
ENDBRANCH   1  11
TORSDOF 1
ENDMDL
