MODEL 1
REMARK VINA RESULT:    -3.662      0.000      0.000
REMARK INTER + INTRA:          -6.955
REMARK INTER:                  -4.947
REMARK INTRA:                  -2.008
REMARK UNBOUND:                -2.008
REMARK SMILES C=CC(C)=CCC=C(C)CCC=C(C)C
REMARK SMILES IDX 8 1 7 2 9 3 10 4 11 5 12 6 14 7 13 8 15 9 6 10 5 11 3 12
REMARK SMILES IDX 4 13 2 14 1 15
REMARK H PARENT
REMARK Flexibility Score: inf
ROOT
ATOM      1  C   UNL     1     143.977 143.801 131.166  1.00  0.00    -0.077 C 
ATOM      2  C   UNL     1     144.175 144.905 130.412  1.00  0.00    -0.024 C 
ATOM      3  C   UNL     1     143.897 142.467 130.471  1.00  0.00     0.039 C 
ENDROOT
BRANCH   1   4
ATOM      4  C   UNL     1     143.874 143.839 132.682  1.00  0.00     0.034 C 
BRANCH   4   5
ATOM      5  C   UNL     1     144.986 143.021 133.354  1.00  0.00     0.032 C 
BRANCH   5   6
ATOM      6  C   UNL     1     146.036 143.901 133.988  1.00  0.00    -0.028 C 
ATOM      7  C   UNL     1     147.488 143.922 131.948  1.00  0.00     0.039 C 
ATOM      8  C   UNL     1     147.176 144.294 133.375  1.00  0.00    -0.080 C 
ATOM      9  C   UNL     1     148.178 145.132 134.124  1.00  0.00     0.039 C 
ENDBRANCH   5   6
ENDBRANCH   4   5
ENDBRANCH   1   4
BRANCH   2  10
ATOM     10  C   UNL     1     144.257 146.306 130.972  1.00  0.00     0.055 C 
BRANCH  10  11
ATOM     11  C   UNL     1     145.679 146.800 131.005  1.00  0.00    -0.020 C 
ATOM     12  C   UNL     1     146.215 147.539 132.000  1.00  0.00    -0.055 C 
ATOM     13  C   UNL     1     147.663 147.953 131.893  1.00  0.00     0.044 C 
BRANCH  12  14
ATOM     14  C   UNL     1     145.415 147.938 133.194  1.00  0.00    -0.005 C 
ATOM     15  C   UNL     1     144.990 147.072 134.117  1.00  0.00     0.009 C 
ENDBRANCH  12  14
ENDBRANCH  10  11
ENDBRANCH   2  10
TORSDOF 6
ENDMDL
MODEL 2
REMARK VINA RESULT:    -3.575      1.354      4.613
REMARK INTER + INTRA:          -6.837
REMARK INTER:                  -4.788
REMARK INTRA:                  -2.049
REMARK UNBOUND:                -2.008
REMARK SMILES C=CC(C)=CCC=C(C)CCC=C(C)C
REMARK SMILES IDX 8 1 7 2 9 3 10 4 11 5 12 6 14 7 13 8 15 9 6 10 5 11 3 12
REMARK SMILES IDX 4 13 2 14 1 15
REMARK H PARENT
REMARK Flexibility Score: inf
ROOT
ATOM      1  C   UNL     1     146.728 147.055 130.998  1.00  0.00    -0.077 C 
ATOM      2  C   UNL     1     146.519 145.921 130.292  1.00  0.00    -0.024 C 
ATOM      3  C   UNL     1     146.795 148.361 130.251  1.00  0.00     0.039 C 
ENDROOT
BRANCH   1   4
ATOM      4  C   UNL     1     146.857 147.076 132.513  1.00  0.00     0.034 C 
BRANCH   4   5
ATOM      5  C   UNL     1     145.720 147.868 133.175  1.00  0.00     0.032 C 
BRANCH   5   6
ATOM      6  C   UNL     1     144.728 146.966 133.868  1.00  0.00    -0.028 C 
ATOM      7  C   UNL     1     143.169 146.895 131.909  1.00  0.00     0.039 C 
ATOM      8  C   UNL     1     143.567 146.540 133.319  1.00  0.00    -0.080 C 
ATOM      9  C   UNL     1     142.628 145.682 134.125  1.00  0.00     0.039 C 
ENDBRANCH   5   6
ENDBRANCH   4   5
ENDBRANCH   1   4
BRANCH   2  10
ATOM     10  C   UNL     1     146.448 144.544 130.908  1.00  0.00     0.055 C 
BRANCH  10  11
ATOM     11  C   UNL     1     145.026 144.056 130.997  1.00  0.00    -0.020 C 
ATOM     12  C   UNL     1     144.528 143.315 132.009  1.00  0.00    -0.055 C 
ATOM     13  C   UNL     1     143.075 142.908 131.960  1.00  0.00     0.044 C 
BRANCH  12  14
ATOM     14  C   UNL     1     145.375 142.905 133.167  1.00  0.00    -0.005 C 
ATOM     15  C   UNL     1     145.777 143.749 134.118  1.00  0.00     0.009 C 
ENDBRANCH  12  14
ENDBRANCH  10  11
ENDBRANCH   2  10
TORSDOF 6
ENDMDL
MODEL 3
REMARK VINA RESULT:    -3.206      1.240      3.646
REMARK INTER + INTRA:          -6.339
REMARK INTER:                  -5.935
REMARK INTRA:                  -0.404
REMARK UNBOUND:                -2.008
REMARK SMILES C=CC(C)=CCC=C(C)CCC=C(C)C
REMARK SMILES IDX 8 1 7 2 9 3 10 4 11 5 12 6 14 7 13 8 15 9 6 10 5 11 3 12
REMARK SMILES IDX 4 13 2 14 1 15
REMARK H PARENT
REMARK Flexibility Score: inf
ROOT
ATOM      1  C   UNL     1     144.966 147.324 132.758  1.00  0.00    -0.077 C 
ATOM      2  C   UNL     1     145.948 147.080 131.862  1.00  0.00    -0.024 C 
ATOM      3  C   UNL     1     145.310 148.101 134.002  1.00  0.00     0.039 C 
ENDROOT
BRANCH   1   4
ATOM      4  C   UNL     1     143.525 146.887 132.550  1.00  0.00     0.034 C 
BRANCH   4   5
ATOM      5  C   UNL     1     143.044 145.945 133.663  1.00  0.00     0.032 C 
BRANCH   5   6
ATOM      6  C   UNL     1     144.080 144.905 134.016  1.00  0.00    -0.028 C 
ATOM      7  C   UNL     1     143.488 143.419 132.089  1.00  0.00     0.039 C 
ATOM      8  C   UNL     1     144.275 143.755 133.330  1.00  0.00    -0.080 C 
ATOM      9  C   UNL     1     145.306 142.766 133.805  1.00  0.00     0.039 C 
ENDBRANCH   5   6
ENDBRANCH   4   5
ENDBRANCH   1   4
BRANCH   2  10
ATOM     10  C   UNL     1     145.749 146.299 130.585  1.00  0.00     0.055 C 
BRANCH  10  11
ATOM     11  C   UNL     1     146.513 145.001 130.611  1.00  0.00    -0.020 C 
ATOM     12  C   UNL     1     147.363 144.627 131.591  1.00  0.00    -0.055 C 
ATOM     13  C   UNL     1     148.049 143.287 131.479  1.00  0.00     0.044 C 
BRANCH  12  14
ATOM     14  C   UNL     1     147.624 145.499 132.773  1.00  0.00    -0.005 C 
ATOM     15  C   UNL     1     147.807 145.028 134.007  1.00  0.00     0.009 C 
ENDBRANCH  12  14
ENDBRANCH  10  11
ENDBRANCH   2  10
TORSDOF 6
ENDMDL
MODEL 4
REMARK VINA RESULT:    -3.198      1.286      3.139
REMARK INTER + INTRA:          -6.329
REMARK INTER:                  -5.950
REMARK INTRA:                  -0.379
REMARK UNBOUND:                -2.008
REMARK SMILES C=CC(C)=CCC=C(C)CCC=C(C)C
REMARK SMILES IDX 8 1 7 2 9 3 10 4 11 5 12 6 14 7 13 8 15 9 6 10 5 11 3 12
REMARK SMILES IDX 4 13 2 14 1 15
REMARK H PARENT
REMARK Flexibility Score: inf
ROOT
ATOM      1  C   UNL     1     145.781 143.459 132.761  1.00  0.00    -0.077 C 
ATOM      2  C   UNL     1     144.840 143.672 131.814  1.00  0.00    -0.024 C 
ATOM      3  C   UNL     1     145.389 142.696 133.999  1.00  0.00     0.039 C 
ENDROOT
BRANCH   1   4
ATOM      4  C   UNL     1     147.223 143.918 132.615  1.00  0.00     0.034 C 
BRANCH   4   5
ATOM      5  C   UNL     1     147.652 144.839 133.767  1.00  0.00     0.032 C 
BRANCH   5   6
ATOM      6  C   UNL     1     146.612 145.889 134.073  1.00  0.00    -0.028 C 
ATOM      7  C   UNL     1     147.238 147.320 132.116  1.00  0.00     0.039 C 
ATOM      8  C   UNL     1     146.430 147.020 133.353  1.00  0.00    -0.080 C 
ATOM      9  C   UNL     1     145.393 148.023 133.782  1.00  0.00     0.039 C 
ENDBRANCH   5   6
ENDBRANCH   4   5
ENDBRANCH   1   4
BRANCH   2  10
ATOM     10  C   UNL     1     145.088 144.435 130.535  1.00  0.00     0.055 C 
BRANCH  10  11
ATOM     11  C   UNL     1     144.319 145.730 130.510  1.00  0.00    -0.020 C 
ATOM     12  C   UNL     1     143.432 146.116 131.452  1.00  0.00    -0.055 C 
ATOM     13  C   UNL     1     142.744 147.451 131.292  1.00  0.00     0.044 C 
BRANCH  12  14
ATOM     14  C   UNL     1     143.133 145.264 132.639  1.00  0.00    -0.005 C 
ATOM     15  C   UNL     1     142.912 145.756 133.860  1.00  0.00     0.009 C 
ENDBRANCH  12  14
ENDBRANCH  10  11
ENDBRANCH   2  10
TORSDOF 6
ENDMDL
MODEL 5
REMARK VINA RESULT:    -3.111      1.314      3.510
REMARK INTER + INTRA:          -6.210
REMARK INTER:                  -5.308
REMARK INTRA:                  -0.901
REMARK UNBOUND:                -2.008
REMARK SMILES C=CC(C)=CCC=C(C)CCC=C(C)C
REMARK SMILES IDX 8 1 7 2 9 3 10 4 11 5 12 6 14 7 13 8 15 9 6 10 5 11 3 12
REMARK SMILES IDX 4 13 2 14 1 15
REMARK H PARENT
REMARK Flexibility Score: inf
ROOT
ATOM      1  C   UNL     1     146.345 143.978 131.466  1.00  0.00    -0.077 C 
ATOM      2  C   UNL     1     145.094 143.705 131.033  1.00  0.00    -0.024 C 
ATOM      3  C   UNL     1     147.316 144.602 130.498  1.00  0.00     0.039 C 
ENDROOT
BRANCH   1   4
ATOM      4  C   UNL     1     146.803 143.723 132.893  1.00  0.00     0.034 C 
BRANCH   4   5
ATOM      5  C   UNL     1     147.536 144.934 133.486  1.00  0.00     0.032 C 
BRANCH   5   6
ATOM      6  C   UNL     1     146.580 145.964 134.037  1.00  0.00    -0.028 C 
ATOM      7  C   UNL     1     146.953 147.565 132.148  1.00  0.00     0.039 C 
ATOM      8  C   UNL     1     146.326 147.160 133.457  1.00  0.00    -0.080 C 
ATOM      9  C   UNL     1     145.389 148.132 134.125  1.00  0.00     0.039 C 
ENDBRANCH   5   6
ENDBRANCH   4   5
ENDBRANCH   1   4
BRANCH   2  10
ATOM     10  C   UNL     1     144.026 143.065 131.888  1.00  0.00     0.055 C 
BRANCH  10  11
ATOM     11  C   UNL     1     143.536 144.011 132.953  1.00  0.00    -0.020 C 
ATOM     12  C   UNL     1     143.303 145.328 132.765  1.00  0.00    -0.055 C 
ATOM     13  C   UNL     1     142.803 146.146 133.931  1.00  0.00     0.044 C 
BRANCH  12  14
ATOM     14  C   UNL     1     143.517 145.977 131.439  1.00  0.00    -0.005 C 
ATOM     15  C   UNL     1     142.811 147.026 131.013  1.00  0.00     0.009 C 
ENDBRANCH  12  14
ENDBRANCH  10  11
ENDBRANCH   2  10
TORSDOF 6
ENDMDL
MODEL 6
REMARK VINA RESULT:    -3.070      1.193      3.378
REMARK INTER + INTRA:          -6.155
REMARK INTER:                  -5.115
REMARK INTRA:                  -1.040
REMARK UNBOUND:                -2.008
REMARK SMILES C=CC(C)=CCC=C(C)CCC=C(C)C
REMARK SMILES IDX 8 1 7 2 9 3 10 4 11 5 12 6 14 7 13 8 15 9 6 10 5 11 3 12
REMARK SMILES IDX 4 13 2 14 1 15
REMARK H PARENT
REMARK Flexibility Score: inf
ROOT
ATOM      1  C   UNL     1     144.346 146.787 131.420  1.00  0.00    -0.077 C 
ATOM      2  C   UNL     1     145.623 147.096 131.103  1.00  0.00    -0.024 C 
ATOM      3  C   UNL     1     143.489 146.124 130.374  1.00  0.00     0.039 C 
ENDROOT
BRANCH   1   4
ATOM      4  C   UNL     1     143.748 147.041 132.795  1.00  0.00     0.034 C 
BRANCH   4   5
ATOM      5  C   UNL     1     143.065 145.789 133.364  1.00  0.00     0.032 C 
BRANCH   5   6
ATOM      6  C   UNL     1     144.057 144.822 133.962  1.00  0.00    -0.028 C 
ATOM      7  C   UNL     1     143.838 143.177 132.086  1.00  0.00     0.039 C 
ATOM      8  C   UNL     1     144.396 143.634 133.410  1.00  0.00    -0.080 C 
ATOM      9  C   UNL     1     145.362 142.725 134.123  1.00  0.00     0.039 C 
ENDBRANCH   5   6
ENDBRANCH   4   5
ENDBRANCH   1   4
BRANCH   2  10
ATOM     10  C   UNL     1     146.585 147.778 132.046  1.00  0.00     0.055 C 
BRANCH  10  11
ATOM     11  C   UNL     1     147.099 146.822 133.091  1.00  0.00    -0.020 C 
ATOM     12  C   UNL     1     147.422 145.531 132.862  1.00  0.00    -0.055 C 
ATOM     13  C   UNL     1     147.933 144.699 134.014  1.00  0.00     0.044 C 
BRANCH  12  14
ATOM     14  C   UNL     1     147.296 144.924 131.505  1.00  0.00    -0.005 C 
ATOM     15  C   UNL     1     147.643 143.665 131.229  1.00  0.00     0.009 C 
ENDBRANCH  12  14
ENDBRANCH  10  11
ENDBRANCH   2  10
TORSDOF 6
ENDMDL
MODEL 7
REMARK VINA RESULT:    -3.049      0.844      1.622
REMARK INTER + INTRA:          -6.126
REMARK INTER:                  -5.174
REMARK INTRA:                  -0.952
REMARK UNBOUND:                -2.008
REMARK SMILES C=CC(C)=CCC=C(C)CCC=C(C)C
REMARK SMILES IDX 8 1 7 2 9 3 10 4 11 5 12 6 14 7 13 8 15 9 6 10 5 11 3 12
REMARK SMILES IDX 4 13 2 14 1 15
REMARK H PARENT
REMARK Flexibility Score: inf
ROOT
ATOM      1  C   UNL     1     143.960 144.436 131.281  1.00  0.00    -0.077 C 
ATOM      2  C   UNL     1     143.700 145.718 130.943  1.00  0.00    -0.024 C 
ATOM      3  C   UNL     1     144.643 143.554 130.270  1.00  0.00     0.039 C 
ENDROOT
BRANCH   1   4
ATOM      4  C   UNL     1     143.630 143.855 132.647  1.00  0.00     0.034 C 
BRANCH   4   5
ATOM      5  C   UNL     1     144.818 143.090 133.248  1.00  0.00     0.032 C 
BRANCH   5   6
ATOM      6  C   UNL     1     145.824 144.015 133.889  1.00  0.00    -0.028 C 
ATOM      7  C   UNL     1     147.494 143.753 132.041  1.00  0.00     0.039 C 
ATOM      8  C   UNL     1     147.039 144.303 133.369  1.00  0.00    -0.080 C 
ATOM      9  C   UNL     1     147.983 145.201 134.124  1.00  0.00     0.039 C 
ENDBRANCH   5   6
ENDBRANCH   4   5
ENDBRANCH   1   4
BRANCH   2  10
ATOM     10  C   UNL     1     143.005 146.706 131.849  1.00  0.00     0.055 C 
BRANCH  10  11
ATOM     11  C   UNL     1     143.913 147.164 132.960  1.00  0.00    -0.020 C 
ATOM     12  C   UNL     1     145.229 147.432 132.818  1.00  0.00    -0.055 C 
ATOM     13  C   UNL     1     146.007 147.891 134.028  1.00  0.00     0.044 C 
BRANCH  12  14
ATOM     14  C   UNL     1     145.916 147.295 131.502  1.00  0.00    -0.005 C 
ATOM     15  C   UNL     1     146.927 148.075 131.116  1.00  0.00     0.009 C 
ENDBRANCH  12  14
ENDBRANCH  10  11
ENDBRANCH   2  10
TORSDOF 6
ENDMDL
MODEL 8
REMARK VINA RESULT:    -2.863      1.398      4.832
REMARK INTER + INTRA:          -5.875
REMARK INTER:                  -5.393
REMARK INTRA:                  -0.482
REMARK UNBOUND:                -2.008
REMARK SMILES C=CC(C)=CCC=C(C)CCC=C(C)C
REMARK SMILES IDX 8 1 7 2 9 3 10 4 11 5 12 6 14 7 13 8 15 9 6 10 5 11 3 12
REMARK SMILES IDX 4 13 2 14 1 15
REMARK H PARENT
REMARK Flexibility Score: inf
ROOT
ATOM      1  C   UNL     1     147.175 146.398 132.883  1.00  0.00    -0.077 C 
ATOM      2  C   UNL     1     147.571 145.216 132.360  1.00  0.00    -0.024 C 
ATOM      3  C   UNL     1     147.582 147.664 132.176  1.00  0.00     0.039 C 
ENDROOT
BRANCH   1   4
ATOM      4  C   UNL     1     146.305 146.506 134.125  1.00  0.00     0.034 C 
BRANCH   4   5
ATOM      5  C   UNL     1     145.340 147.697 134.049  1.00  0.00     0.032 C 
BRANCH   5   6
ATOM      6  C   UNL     1     144.484 147.657 132.806  1.00  0.00    -0.028 C 
ATOM      7  C   UNL     1     143.110 145.725 133.612  1.00  0.00     0.039 C 
ATOM      8  C   UNL     1     143.494 146.761 132.587  1.00  0.00    -0.080 C 
ATOM      9  C   UNL     1     142.738 146.785 131.284  1.00  0.00     0.039 C 
ENDBRANCH   5   6
ENDBRANCH   4   5
ENDBRANCH   1   4
BRANCH   2  10
ATOM     10  C   UNL     1     147.251 143.873 132.972  1.00  0.00     0.055 C 
BRANCH  10  11
ATOM     11  C   UNL     1     145.876 143.403 132.576  1.00  0.00    -0.020 C 
ATOM     12  C   UNL     1     145.276 143.684 131.399  1.00  0.00    -0.055 C 
ATOM     13  C   UNL     1     143.894 143.131 131.144  1.00  0.00     0.044 C 
BRANCH  12  14
ATOM     14  C   UNL     1     145.950 144.510 130.356  1.00  0.00    -0.005 C 
ATOM     15  C   UNL     1     145.322 145.442 129.638  1.00  0.00     0.009 C 
ENDBRANCH  12  14
ENDBRANCH  10  11
ENDBRANCH   2  10
TORSDOF 6
ENDMDL
MODEL 9
REMARK VINA RESULT:    -2.755      1.099      3.150
REMARK INTER + INTRA:          -5.729
REMARK INTER:                  -4.271
REMARK INTRA:                  -1.459
REMARK UNBOUND:                -2.008
REMARK SMILES C=CC(C)=CCC=C(C)CCC=C(C)C
REMARK SMILES IDX 8 1 7 2 9 3 10 4 11 5 12 6 14 7 13 8 15 9 6 10 5 11 3 12
REMARK SMILES IDX 4 13 2 14 1 15
REMARK H PARENT
REMARK Flexibility Score: inf
ROOT
ATOM      1  C   UNL     1     145.419 143.774 133.909  1.00  0.00    -0.077 C 
ATOM      2  C   UNL     1     146.738 144.068 133.881  1.00  0.00    -0.024 C 
ATOM      3  C   UNL     1     145.004 142.334 133.759  1.00  0.00     0.039 C 
ENDROOT
BRANCH   1   4
ATOM      4  C   UNL     1     144.339 144.823 134.125  1.00  0.00     0.034 C 
BRANCH   4   5
ATOM      5  C   UNL     1     143.382 144.916 132.928  1.00  0.00     0.032 C 
BRANCH   5   6
ATOM      6  C   UNL     1     144.076 145.407 131.681  1.00  0.00    -0.028 C 
ATOM      7  C   UNL     1     144.246 143.120 130.674  1.00  0.00     0.039 C 
ATOM      8  C   UNL     1     144.490 144.608 130.671  1.00  0.00    -0.080 C 
ATOM      9  C   UNL     1     145.220 145.204 129.496  1.00  0.00     0.039 C 
ENDBRANCH   5   6
ENDBRANCH   4   5
ENDBRANCH   1   4
BRANCH   2  10
ATOM     10  C   UNL     1     147.293 145.468 134.001  1.00  0.00     0.055 C 
BRANCH  10  11
ATOM     11  C   UNL     1     147.330 146.159 132.663  1.00  0.00    -0.020 C 
ATOM     12  C   UNL     1     146.723 147.332 132.385  1.00  0.00    -0.055 C 
ATOM     13  C   UNL     1     146.860 147.905 130.995  1.00  0.00     0.044 C 
BRANCH  12  14
ATOM     14  C   UNL     1     145.939 148.069 133.418  1.00  0.00    -0.005 C 
ATOM     15  C   UNL     1     144.616 148.231 133.358  1.00  0.00     0.009 C 
ENDBRANCH  12  14
ENDBRANCH  10  11
ENDBRANCH   2  10
TORSDOF 6
ENDMDL
