MODEL 1
REMARK VINA RESULT:    -4.576      0.000      0.000
REMARK INTER + INTRA:          -5.265
REMARK INTER:                  -4.977
REMARK INTRA:                  -0.288
REMARK UNBOUND:                -0.288
REMARK SMILES CC(=O)c1cc(C)ccc1O
REMARK SMILES IDX 7 1 6 2 5 3 4 4 10 5 9 6 8 7 2 8 3 9 1 10 11 11
REMARK H PARENT 11 12
REMARK Flexibility Score: inf
ROOT
ATOM      1  C   UNL     1       7.368 -30.158  18.618  1.00  0.00     0.044 C 
ATOM      2  C   UNL     1       8.391 -29.526  17.719  1.00  0.00    -0.050 A 
ATOM      3  C   UNL     1       8.420 -29.838  16.353  1.00  0.00     0.019 A 
ATOM      4  C   UNL     1       9.390 -29.275  15.501  1.00  0.00     0.059 A 
ATOM      5  C   UNL     1      10.365 -28.413  16.054  1.00  0.00     0.126 A 
ATOM      6  C   UNL     1      10.338 -28.114  17.423  1.00  0.00     0.047 A 
ATOM      7  C   UNL     1       9.363 -28.670  18.252  1.00  0.00     0.007 A 
ENDROOT
BRANCH   4   8
ATOM      8  C   UNL     1       9.359 -29.623  14.055  1.00  0.00     0.163 C 
ATOM      9  O   UNL     1      10.445 -29.749  13.425  1.00  0.00    -0.294 OA
ATOM     10  C   UNL     1       8.078 -29.833  13.305  1.00  0.00     0.093 C 
ENDBRANCH   4   8
BRANCH   5  11
ATOM     11  O   UNL     1      11.375 -27.871  15.260  1.00  0.00    -0.507 OA
ATOM     12  H   UNL     1      12.115 -28.445  14.871  1.00  0.00     0.293 HD
ENDBRANCH   5  11
TORSDOF 2
ENDMDL
MODEL 2
REMARK VINA RESULT:    -4.449      1.903      2.965
REMARK INTER + INTRA:          -5.128
REMARK INTER:                  -4.862
REMARK INTRA:                  -0.266
REMARK UNBOUND:                -0.288
REMARK SMILES CC(=O)c1cc(C)ccc1O
REMARK SMILES IDX 7 1 6 2 5 3 4 4 10 5 9 6 8 7 2 8 3 9 1 10 11 11
REMARK H PARENT 11 12
REMARK Flexibility Score: inf
ROOT
ATOM      1  C   UNL     1       9.240 -29.086  18.991  1.00  0.00     0.044 C 
ATOM      2  C   UNL     1       8.382 -29.418  17.804  1.00  0.00    -0.050 A 
ATOM      3  C   UNL     1       8.935 -29.433  16.516  1.00  0.00     0.019 A 
ATOM      4  C   UNL     1       8.139 -29.716  15.389  1.00  0.00     0.059 A 
ATOM      5  C   UNL     1       6.756 -29.948  15.572  1.00  0.00     0.126 A 
ATOM      6  C   UNL     1       6.207 -29.919  16.862  1.00  0.00     0.047 A 
ATOM      7  C   UNL     1       7.012 -29.651  17.970  1.00  0.00     0.007 A 
ENDROOT
BRANCH   4   8
ATOM      8  C   UNL     1       8.783 -29.741  14.048  1.00  0.00     0.163 C 
ATOM      9  O   UNL     1       8.090 -29.489  13.024  1.00  0.00    -0.294 OA
ATOM     10  C   UNL     1      10.236 -30.058  13.860  1.00  0.00     0.093 C 
ENDBRANCH   4   8
BRANCH   5  11
ATOM     11  O   UNL     1       5.919 -30.181  14.482  1.00  0.00    -0.507 OA
ATOM     12  H   UNL     1       5.047 -29.679  14.360  1.00  0.00     0.293 HD
ENDBRANCH   5  11
TORSDOF 2
ENDMDL
MODEL 3
REMARK VINA RESULT:    -4.397      2.572      4.648
REMARK INTER + INTRA:          -5.071
REMARK INTER:                  -4.820
REMARK INTRA:                  -0.251
REMARK UNBOUND:                -0.288
REMARK SMILES CC(=O)c1cc(C)ccc1O
REMARK SMILES IDX 7 1 6 2 5 3 4 4 10 5 9 6 8 7 2 8 3 9 1 10 11 11
REMARK H PARENT 11 12
REMARK Flexibility Score: inf
ROOT
ATOM      1  C   UNL     1      10.725 -29.239  13.743  1.00  0.00     0.044 C 
ATOM      2  C   UNL     1       9.441 -29.500  14.478  1.00  0.00    -0.050 A 
ATOM      3  C   UNL     1       9.404 -29.437  15.877  1.00  0.00     0.019 A 
ATOM      4  C   UNL     1       8.215 -29.706  16.584  1.00  0.00     0.059 A 
ATOM      5  C   UNL     1       7.061 -30.080  15.858  1.00  0.00     0.126 A 
ATOM      6  C   UNL     1       7.109 -30.153  14.458  1.00  0.00     0.047 A 
ATOM      7  C   UNL     1       8.291 -29.871  13.772  1.00  0.00     0.007 A 
ENDROOT
BRANCH   4   8
ATOM      8  C   UNL     1       8.227 -29.601  18.068  1.00  0.00     0.163 C 
ATOM      9  O   UNL     1       7.377 -30.246  18.740  1.00  0.00    -0.294 OA
ATOM     10  C   UNL     1       9.217 -28.751  18.806  1.00  0.00     0.093 C 
ENDBRANCH   4   8
BRANCH   5  11
ATOM     11  O   UNL     1       5.875 -30.404  16.515  1.00  0.00    -0.507 OA
ATOM     12  H   UNL     1       5.102 -30.848  16.035  1.00  0.00     0.293 HD
ENDBRANCH   5  11
TORSDOF 2
ENDMDL
MODEL 4
REMARK VINA RESULT:    -4.288      2.647      4.416
REMARK INTER + INTRA:          -4.952
REMARK INTER:                  -4.677
REMARK INTRA:                  -0.275
REMARK UNBOUND:                -0.288
REMARK SMILES CC(=O)c1cc(C)ccc1O
REMARK SMILES IDX 7 1 6 2 5 3 4 4 10 5 9 6 8 7 2 8 3 9 1 10 11 11
REMARK H PARENT 11 12
REMARK Flexibility Score: inf
ROOT
ATOM      1  C   UNL     1       7.762 -30.654  13.417  1.00  0.00     0.044 C 
ATOM      2  C   UNL     1       7.464 -30.310  14.848  1.00  0.00    -0.050 A 
ATOM      3  C   UNL     1       8.468 -29.776  15.669  1.00  0.00     0.019 A 
ATOM      4  C   UNL     1       8.213 -29.472  17.020  1.00  0.00     0.059 A 
ATOM      5  C   UNL     1       6.933 -29.751  17.552  1.00  0.00     0.126 A 
ATOM      6  C   UNL     1       5.937 -30.296  16.728  1.00  0.00     0.047 A 
ATOM      7  C   UNL     1       6.201 -30.579  15.388  1.00  0.00     0.007 A 
ENDROOT
BRANCH   4   8
ATOM      8  C   UNL     1       9.308 -28.886  17.840  1.00  0.00     0.163 C 
ATOM      9  O   UNL     1       9.348 -29.122  19.078  1.00  0.00    -0.294 OA
ATOM     10  C   UNL     1      10.377 -28.017  17.249  1.00  0.00     0.093 C 
ENDBRANCH   4   8
BRANCH   5  11
ATOM     11  O   UNL     1       6.648 -29.515  18.896  1.00  0.00    -0.507 OA
ATOM     12  H   UNL     1       6.334 -28.609  19.225  1.00  0.00     0.293 HD
ENDBRANCH   5  11
TORSDOF 2
ENDMDL
MODEL 5
REMARK VINA RESULT:    -4.280      2.509      3.791
REMARK INTER + INTRA:          -4.943
REMARK INTER:                  -4.639
REMARK INTRA:                  -0.305
REMARK UNBOUND:                -0.288
REMARK SMILES CC(=O)c1cc(C)ccc1O
REMARK SMILES IDX 7 1 6 2 5 3 4 4 10 5 9 6 8 7 2 8 3 9 1 10 11 11
REMARK H PARENT 11 12
REMARK Flexibility Score: inf
ROOT
ATOM      1  C   UNL     1      10.374 -29.361  13.774  1.00  0.00     0.044 C 
ATOM      2  C   UNL     1       9.997 -29.131  15.209  1.00  0.00    -0.050 A 
ATOM      3  C   UNL     1       8.855 -29.742  15.746  1.00  0.00     0.019 A 
ATOM      4  C   UNL     1       8.472 -29.515  17.082  1.00  0.00     0.059 A 
ATOM      5  C   UNL     1       9.239 -28.626  17.869  1.00  0.00     0.126 A 
ATOM      6  C   UNL     1      10.373 -28.008  17.323  1.00  0.00     0.047 A 
ATOM      7  C   UNL     1      10.747 -28.253  16.001  1.00  0.00     0.007 A 
ENDROOT
BRANCH   4   8
ATOM      8  C   UNL     1       7.264 -30.208  17.607  1.00  0.00     0.163 C 
ATOM      9  O   UNL     1       6.405 -29.549  18.253  1.00  0.00    -0.294 OA
ATOM     10  C   UNL     1       7.024 -31.673  17.398  1.00  0.00     0.093 C 
ENDBRANCH   4   8
BRANCH   5  11
ATOM     11  O   UNL     1       8.871 -28.330  19.182  1.00  0.00    -0.507 OA
ATOM     12  H   UNL     1       9.551 -28.290  19.931  1.00  0.00     0.293 HD
ENDBRANCH   5  11
TORSDOF 2
ENDMDL
MODEL 6
REMARK VINA RESULT:    -4.202      2.681      4.599
REMARK INTER + INTRA:          -4.859
REMARK INTER:                  -4.553
REMARK INTRA:                  -0.306
REMARK UNBOUND:                -0.288
REMARK SMILES CC(=O)c1cc(C)ccc1O
REMARK SMILES IDX 7 1 6 2 5 3 4 4 10 5 9 6 8 7 2 8 3 9 1 10 11 11
REMARK H PARENT 11 12
REMARK Flexibility Score: inf
ROOT
ATOM      1  C   UNL     1      11.417 -28.923  14.159  1.00  0.00     0.044 C 
ATOM      2  C   UNL     1       9.951 -29.245  14.110  1.00  0.00    -0.050 A 
ATOM      3  C   UNL     1       9.238 -29.468  15.296  1.00  0.00     0.019 A 
ATOM      4  C   UNL     1       7.868 -29.798  15.267  1.00  0.00     0.059 A 
ATOM      5  C   UNL     1       7.228 -29.940  14.015  1.00  0.00     0.126 A 
ATOM      6  C   UNL     1       7.950 -29.727  12.832  1.00  0.00     0.047 A 
ATOM      7  C   UNL     1       9.303 -29.388  12.878  1.00  0.00     0.007 A 
ENDROOT
BRANCH   4   8
ATOM      8  C   UNL     1       7.155 -30.002  16.557  1.00  0.00     0.163 C 
ATOM      9  O   UNL     1       6.056 -29.416  16.755  1.00  0.00    -0.294 OA
ATOM     10  C   UNL     1       7.694 -30.883  17.644  1.00  0.00     0.093 C 
ENDBRANCH   4   8
BRANCH   5  11
ATOM     11  O   UNL     1       5.887 -30.314  13.934  1.00  0.00    -0.507 OA
ATOM     12  H   UNL     1       5.579 -31.070  13.334  1.00  0.00     0.293 HD
ENDBRANCH   5  11
TORSDOF 2
ENDMDL
MODEL 7
REMARK VINA RESULT:    -4.198      1.441      3.811
REMARK INTER + INTRA:          -4.854
REMARK INTER:                  -4.639
REMARK INTRA:                  -0.215
REMARK UNBOUND:                -0.288
REMARK SMILES CC(=O)c1cc(C)ccc1O
REMARK SMILES IDX 7 1 6 2 5 3 4 4 10 5 9 6 8 7 2 8 3 9 1 10 11 11
REMARK H PARENT 11 12
REMARK Flexibility Score: inf
ROOT
ATOM      1  C   UNL     1       5.927 -30.847  13.236  1.00  0.00     0.044 C 
ATOM      2  C   UNL     1       7.219 -30.336  13.804  1.00  0.00    -0.050 A 
ATOM      3  C   UNL     1       7.360 -30.159  15.188  1.00  0.00     0.019 A 
ATOM      4  C   UNL     1       8.556 -29.655  15.736  1.00  0.00     0.059 A 
ATOM      5  C   UNL     1       9.606 -29.291  14.862  1.00  0.00     0.126 A 
ATOM      6  C   UNL     1       9.454 -29.459  13.478  1.00  0.00     0.047 A 
ATOM      7  C   UNL     1       8.268 -29.972  12.952  1.00  0.00     0.007 A 
ENDROOT
BRANCH   4   8
ATOM      8  C   UNL     1       8.659 -29.510  17.213  1.00  0.00     0.163 C 
ATOM      9  O   UNL     1       9.536 -28.745  17.700  1.00  0.00    -0.294 OA
ATOM     10  C   UNL     1       7.755 -30.243  18.158  1.00  0.00     0.093 C 
ENDBRANCH   4   8
BRANCH   5  11
ATOM     11  O   UNL     1      10.789 -28.741  15.354  1.00  0.00    -0.507 OA
ATOM     12  H   UNL     1      10.843 -28.330  16.278  1.00  0.00     0.293 HD
ENDBRANCH   5  11
TORSDOF 2
ENDMDL
MODEL 8
REMARK VINA RESULT:    -4.190      1.486      1.875
REMARK INTER + INTRA:          -4.845
REMARK INTER:                  -4.545
REMARK INTRA:                  -0.301
REMARK UNBOUND:                -0.288
REMARK SMILES CC(=O)c1cc(C)ccc1O
REMARK SMILES IDX 7 1 6 2 5 3 4 4 10 5 9 6 8 7 2 8 3 9 1 10 11 11
REMARK H PARENT 11 12
REMARK Flexibility Score: inf
ROOT
ATOM      1  C   UNL     1       6.646 -32.629  16.667  1.00  0.00     0.044 C 
ATOM      2  C   UNL     1       7.493 -31.390  16.620  1.00  0.00    -0.050 A 
ATOM      3  C   UNL     1       8.126 -31.014  15.427  1.00  0.00     0.019 A 
ATOM      4  C   UNL     1       8.946 -29.870  15.371  1.00  0.00     0.059 A 
ATOM      5  C   UNL     1       9.154 -29.122  16.553  1.00  0.00     0.126 A 
ATOM      6  C   UNL     1       8.528 -29.511  17.746  1.00  0.00     0.047 A 
ATOM      7  C   UNL     1       7.708 -30.639  17.782  1.00  0.00     0.007 A 
ENDROOT
BRANCH   4   8
ATOM      8  C   UNL     1       9.575 -29.504  14.073  1.00  0.00     0.163 C 
ATOM      9  O   UNL     1      10.782 -29.139  14.051  1.00  0.00    -0.294 OA
ATOM     10  C   UNL     1       8.825 -29.549  12.776  1.00  0.00     0.093 C 
ENDBRANCH   4   8
BRANCH   5  11
ATOM     11  O   UNL     1       9.997 -28.012  16.559  1.00  0.00    -0.507 OA
ATOM     12  H   UNL     1      10.194 -27.494  17.408  1.00  0.00     0.293 HD
ENDBRANCH   5  11
TORSDOF 2
ENDMDL
MODEL 9
REMARK VINA RESULT:    -4.064      2.016      3.691
REMARK INTER + INTRA:          -4.709
REMARK INTER:                  -4.405
REMARK INTRA:                  -0.304
REMARK UNBOUND:                -0.288
REMARK SMILES CC(=O)c1cc(C)ccc1O
REMARK SMILES IDX 7 1 6 2 5 3 4 4 10 5 9 6 8 7 2 8 3 9 1 10 11 11
REMARK H PARENT 11 12
REMARK Flexibility Score: inf
ROOT
ATOM      1  C   UNL     1      10.181 -30.407  12.321  1.00  0.00     0.044 C 
ATOM      2  C   UNL     1      10.151 -29.796  13.693  1.00  0.00    -0.050 A 
ATOM      3  C   UNL     1       9.070 -30.042  14.551  1.00  0.00     0.019 A 
ATOM      4  C   UNL     1       9.013 -29.456  15.831  1.00  0.00     0.059 A 
ATOM      5  C   UNL     1      10.050 -28.579  16.226  1.00  0.00     0.126 A 
ATOM      6  C   UNL     1      11.122 -28.328  15.358  1.00  0.00     0.047 A 
ATOM      7  C   UNL     1      11.171 -28.927  14.098  1.00  0.00     0.007 A 
ENDROOT
BRANCH   4   8
ATOM      8  C   UNL     1       7.854 -29.769  16.709  1.00  0.00     0.163 C 
ATOM      9  O   UNL     1       8.051 -30.009  17.932  1.00  0.00    -0.294 OA
ATOM     10  C   UNL     1       6.446 -29.813  16.197  1.00  0.00     0.093 C 
ENDBRANCH   4   8
BRANCH   5  11
ATOM     11  O   UNL     1      10.012 -27.936  17.462  1.00  0.00    -0.507 OA
ATOM     12  H   UNL     1       9.267 -27.294  17.708  1.00  0.00     0.293 HD
ENDBRANCH   5  11
TORSDOF 2
ENDMDL
