MODEL 1
REMARK VINA RESULT:    -2.976      0.000      0.000
REMARK INTER + INTRA:          -6.925
REMARK INTER:                  -5.586
REMARK INTRA:                  -1.338
REMARK UNBOUND:                -1.338
REMARK SMILES O=C([O-])CCCCCCCCCCCCCCC(=O)[O-]
REMARK SMILES IDX 10 1 9 2 8 3 7 4 6 5 5 6 4 7 2 8 1 9 3 10 11 11 12 12 13 13
REMARK SMILES IDX 14 14 15 15 16 16 17 17 18 18 19 19 20 20
REMARK H PARENT
REMARK Flexibility Score: inf
ROOT
ATOM      1  C   UNL     1      25.005  39.281  24.773  1.00  0.00     0.000 C 
ENDROOT
BRANCH   1   2
ATOM      2  C   UNL     1      24.965  40.621  24.023  1.00  0.00     0.000 C 
BRANCH   2   3
ATOM      3  C   UNL     1      25.994  41.630  24.566  1.00  0.00     0.000 C 
BRANCH   3   4
ATOM      4  C   UNL     1      25.987  41.716  26.101  1.00  0.00     0.000 C 
BRANCH   4   5
ATOM      5  C   UNL     1      27.333  41.301  26.721  1.00  0.00     0.000 C 
BRANCH   5   6
ATOM      6  C   UNL     1      27.993  42.439  27.514  1.00  0.00     0.006 C 
BRANCH   6   7
ATOM      7  C   UNL     1      29.524  42.427  27.407  1.00  0.00     0.053 C 
BRANCH   7   8
ATOM      8  C   UNL     1      29.984  43.432  26.398  1.00  0.00     0.041 C 
ATOM      9  O   UNL     1      30.043  43.125  25.179  1.00  0.00    -0.550 OA
ATOM     10  O   UNL     1      30.300  44.724  26.800  1.00  0.00    -0.550 OA
ENDBRANCH   7   8
ENDBRANCH   6   7
ENDBRANCH   5   6
ENDBRANCH   4   5
ENDBRANCH   3   4
ENDBRANCH   2   3
ENDBRANCH   1   2
BRANCH   1  11
ATOM     11  C   UNL     1      25.935  38.257  24.100  1.00  0.00     0.000 C 
BRANCH  11  12
ATOM     12  C   UNL     1      26.293  37.080  25.025  1.00  0.00     0.000 C 
BRANCH  12  13
ATOM     13  C   UNL     1      27.051  37.473  26.310  1.00  0.00     0.000 C 
BRANCH  13  14
ATOM     14  C   UNL     1      26.332  37.125  27.629  1.00  0.00     0.000 C 
BRANCH  14  15
ATOM     15  C   UNL     1      25.863  38.337  28.452  1.00  0.00     0.000 C 
BRANCH  15  16
ATOM     16  C   UNL     1      25.587  37.988  29.924  1.00  0.00     0.006 C 
BRANCH  16  17
ATOM     17  C   UNL     1      26.693  38.494  30.857  1.00  0.00     0.053 C 
BRANCH  17  18
ATOM     18  C   UNL     1      26.935  37.551  31.995  1.00  0.00     0.041 C 
ATOM     19  O   UNL     1      26.030  37.337  32.844  1.00  0.00    -0.550 OA
ATOM     20  O   UNL     1      28.148  36.880  32.099  1.00  0.00    -0.550 OA
ENDBRANCH  17  18
ENDBRANCH  16  17
ENDBRANCH  15  16
ENDBRANCH  14  15
ENDBRANCH  13  14
ENDBRANCH  12  13
ENDBRANCH  11  12
ENDBRANCH   1  11
TORSDOF 15
ENDMDL
MODEL 2
REMARK VINA RESULT:    -2.964      1.402      1.818
REMARK INTER + INTRA:          -6.902
REMARK INTER:                  -5.721
REMARK INTRA:                  -1.181
REMARK UNBOUND:                -1.338
REMARK SMILES O=C([O-])CCCCCCCCCCCCCCC(=O)[O-]
REMARK SMILES IDX 10 1 9 2 8 3 7 4 6 5 5 6 4 7 2 8 1 9 3 10 11 11 12 12 13 13
REMARK SMILES IDX 14 14 15 15 16 16 17 17 18 18 19 19 20 20
REMARK H PARENT
REMARK Flexibility Score: inf
ROOT
ATOM      1  C   UNL     1      25.779  39.899  24.821  1.00  0.00     0.000 C 
ENDROOT
BRANCH   1   2
ATOM      2  C   UNL     1      25.239  40.457  26.146  1.00  0.00     0.000 C 
BRANCH   2   3
ATOM      3  C   UNL     1      26.346  40.643  27.200  1.00  0.00     0.000 C 
BRANCH   3   4
ATOM      4  C   UNL     1      26.624  42.123  27.513  1.00  0.00     0.000 C 
BRANCH   4   5
ATOM      5  C   UNL     1      26.570  43.011  26.257  1.00  0.00     0.000 C 
BRANCH   5   6
ATOM      6  C   UNL     1      27.946  43.178  25.594  1.00  0.00     0.006 C 
BRANCH   6   7
ATOM      7  C   UNL     1      29.024  43.658  26.575  1.00  0.00     0.053 C 
BRANCH   7   8
ATOM      8  C   UNL     1      29.981  42.550  26.881  1.00  0.00     0.041 C 
ATOM      9  O   UNL     1      30.659  42.026  25.959  1.00  0.00    -0.550 OA
ATOM     10  O   UNL     1      30.161  42.129  28.193  1.00  0.00    -0.550 OA
ENDBRANCH   7   8
ENDBRANCH   6   7
ENDBRANCH   5   6
ENDBRANCH   4   5
ENDBRANCH   3   4
ENDBRANCH   2   3
ENDBRANCH   1   2
BRANCH   1  11
ATOM     11  C   UNL     1      26.090  38.395  24.897  1.00  0.00     0.000 C 
BRANCH  11  12
ATOM     12  C   UNL     1      24.876  37.558  25.342  1.00  0.00     0.000 C 
BRANCH  12  13
ATOM     13  C   UNL     1      25.011  36.910  26.734  1.00  0.00     0.000 C 
BRANCH  13  14
ATOM     14  C   UNL     1      26.440  36.895  27.315  1.00  0.00     0.000 C 
BRANCH  14  15
ATOM     15  C   UNL     1      26.521  37.059  28.843  1.00  0.00     0.000 C 
BRANCH  15  16
ATOM     16  C   UNL     1      25.443  38.006  29.399  1.00  0.00     0.006 C 
BRANCH  16  17
ATOM     17  C   UNL     1      25.019  37.626  30.823  1.00  0.00     0.053 C 
BRANCH  17  18
ATOM     18  C   UNL     1      26.054  38.017  31.833  1.00  0.00     0.041 C 
ATOM     19  O   UNL     1      27.205  38.365  31.459  1.00  0.00    -0.550 OA
ATOM     20  O   UNL     1      25.737  38.033  33.186  1.00  0.00    -0.550 OA
ENDBRANCH  17  18
ENDBRANCH  16  17
ENDBRANCH  15  16
ENDBRANCH  14  15
ENDBRANCH  13  14
ENDBRANCH  12  13
ENDBRANCH  11  12
ENDBRANCH   1  11
TORSDOF 15
ENDMDL
MODEL 3
REMARK VINA RESULT:    -2.957      2.361      8.208
REMARK INTER + INTRA:          -6.888
REMARK INTER:                  -6.093
REMARK INTRA:                  -0.795
REMARK UNBOUND:                -1.338
REMARK SMILES O=C([O-])CCCCCCCCCCCCCCC(=O)[O-]
REMARK SMILES IDX 10 1 9 2 8 3 7 4 6 5 5 6 4 7 2 8 1 9 3 10 11 11 12 12 13 13
REMARK SMILES IDX 14 14 15 15 16 16 17 17 18 18 19 19 20 20
REMARK H PARENT
REMARK Flexibility Score: inf
ROOT
ATOM      1  C   UNL     1      25.596  39.439  29.366  1.00  0.00     0.000 C 
ENDROOT
BRANCH   1   2
ATOM      2  C   UNL     1      25.293  37.940  29.511  1.00  0.00     0.000 C 
BRANCH   2   3
ATOM      3  C   UNL     1      25.017  37.534  30.970  1.00  0.00     0.000 C 
BRANCH   3   4
ATOM      4  C   UNL     1      26.073  38.077  31.947  1.00  0.00     0.000 C 
BRANCH   4   5
ATOM      5  C   UNL     1      26.053  37.348  33.302  1.00  0.00     0.000 C 
BRANCH   5   6
ATOM      6  C   UNL     1      24.946  37.865  34.233  1.00  0.00     0.006 C 
BRANCH   6   7
ATOM      7  C   UNL     1      24.929  37.147  35.590  1.00  0.00     0.053 C 
BRANCH   7   8
ATOM      8  C   UNL     1      25.827  37.847  36.561  1.00  0.00     0.041 C 
ATOM      9  O   UNL     1      25.389  38.803  37.252  1.00  0.00    -0.550 OA
ATOM     10  O   UNL     1      27.134  37.410  36.737  1.00  0.00    -0.550 OA
ENDBRANCH   7   8
ENDBRANCH   6   7
ENDBRANCH   5   6
ENDBRANCH   4   5
ENDBRANCH   3   4
ENDBRANCH   2   3
ENDBRANCH   1   2
BRANCH   1  11
ATOM     11  C   UNL     1      25.379  39.947  27.930  1.00  0.00     0.000 C 
BRANCH  11  12
ATOM     12  C   UNL     1      25.942  38.987  26.867  1.00  0.00     0.000 C 
BRANCH  12  13
ATOM     13  C   UNL     1      26.166  39.619  25.478  1.00  0.00     0.000 C 
BRANCH  13  14
ATOM     14  C   UNL     1      25.621  41.052  25.313  1.00  0.00     0.000 C 
BRANCH  14  15
ATOM     15  C   UNL     1      26.694  42.134  25.103  1.00  0.00     0.000 C 
BRANCH  15  16
ATOM     16  C   UNL     1      27.685  42.228  26.276  1.00  0.00     0.006 C 
BRANCH  16  17
ATOM     17  C   UNL     1      28.447  43.558  26.284  1.00  0.00     0.053 C 
BRANCH  17  18
ATOM     18  C   UNL     1      29.912  43.361  26.047  1.00  0.00     0.041 C 
ATOM     19  O   UNL     1      30.651  44.348  25.790  1.00  0.00    -0.550 OA
ATOM     20  O   UNL     1      30.469  42.092  26.144  1.00  0.00    -0.550 OA
ENDBRANCH  17  18
ENDBRANCH  16  17
ENDBRANCH  15  16
ENDBRANCH  14  15
ENDBRANCH  13  14
ENDBRANCH  12  13
ENDBRANCH  11  12
ENDBRANCH   1  11
TORSDOF 15
ENDMDL
MODEL 4
REMARK VINA RESULT:    -2.732      2.928      6.595
REMARK INTER + INTRA:          -6.465
REMARK INTER:                  -5.381
REMARK INTRA:                  -1.085
REMARK UNBOUND:                -1.338
REMARK SMILES O=C([O-])CCCCCCCCCCCCCCC(=O)[O-]
REMARK SMILES IDX 10 1 9 2 8 3 7 4 6 5 5 6 4 7 2 8 1 9 3 10 11 11 12 12 13 13
REMARK SMILES IDX 14 14 15 15 16 16 17 17 18 18 19 19 20 20
REMARK H PARENT
REMARK Flexibility Score: inf
ROOT
ATOM      1  C   UNL     1      25.812  40.504  27.879  1.00  0.00     0.000 C 
ENDROOT
BRANCH   1   2
ATOM      2  C   UNL     1      25.025  39.725  28.944  1.00  0.00     0.000 C 
BRANCH   2   3
ATOM      3  C   UNL     1      25.791  38.491  29.456  1.00  0.00     0.000 C 
BRANCH   3   4
ATOM      4  C   UNL     1      25.443  37.212  28.677  1.00  0.00     0.000 C 
BRANCH   4   5
ATOM      5  C   UNL     1      24.911  37.508  27.264  1.00  0.00     0.000 C 
BRANCH   5   6
ATOM      6  C   UNL     1      25.777  36.876  26.163  1.00  0.00     0.006 C 
BRANCH   6   7
ATOM      7  C   UNL     1      27.202  37.445  26.129  1.00  0.00     0.053 C 
BRANCH   7   8
ATOM      8  C   UNL     1      27.822  37.216  24.787  1.00  0.00     0.041 C 
ATOM      9  O   UNL     1      29.072  37.272  24.649  1.00  0.00    -0.550 OA
ATOM     10  O   UNL     1      27.022  36.894  23.698  1.00  0.00    -0.550 OA
ENDBRANCH   7   8
ENDBRANCH   6   7
ENDBRANCH   5   6
ENDBRANCH   4   5
ENDBRANCH   3   4
ENDBRANCH   2   3
ENDBRANCH   1   2
BRANCH   1  11
ATOM     11  C   UNL     1      24.945  40.881  26.665  1.00  0.00     0.000 C 
BRANCH  11  12
ATOM     12  C   UNL     1      25.656  40.626  25.324  1.00  0.00     0.000 C 
BRANCH  12  13
ATOM     13  C   UNL     1      26.034  41.898  24.539  1.00  0.00     0.000 C 
BRANCH  13  14
ATOM     14  C   UNL     1      26.132  43.185  25.384  1.00  0.00     0.000 C 
BRANCH  14  15
ATOM     15  C   UNL     1      27.375  43.275  26.287  1.00  0.00     0.000 C 
BRANCH  15  16
ATOM     16  C   UNL     1      28.544  42.413  25.781  1.00  0.00     0.006 C 
BRANCH  16  17
ATOM     17  C   UNL     1      29.829  42.652  26.583  1.00  0.00     0.053 C 
BRANCH  17  18
ATOM     18  C   UNL     1      30.358  44.038  26.382  1.00  0.00     0.041 C 
ATOM     19  O   UNL     1      30.391  44.849  27.345  1.00  0.00    -0.550 OA
ATOM     20  O   UNL     1      30.850  44.424  25.142  1.00  0.00    -0.550 OA
ENDBRANCH  17  18
ENDBRANCH  16  17
ENDBRANCH  15  16
ENDBRANCH  14  15
ENDBRANCH  13  14
ENDBRANCH  12  13
ENDBRANCH  11  12
ENDBRANCH   1  11
TORSDOF 15
ENDMDL
MODEL 5
REMARK VINA RESULT:    -2.693     15.672     18.468
REMARK INTER + INTRA:          -6.393
REMARK INTER:                  -4.676
REMARK INTRA:                  -1.717
REMARK UNBOUND:                -1.338
REMARK SMILES O=C([O-])CCCCCCCCCCCCCCC(=O)[O-]
REMARK SMILES IDX 10 1 9 2 8 3 7 4 6 5 5 6 4 7 2 8 1 9 3 10 11 11 12 12 13 13
REMARK SMILES IDX 14 14 15 15 16 16 17 17 18 18 19 19 20 20
REMARK H PARENT
REMARK Flexibility Score: inf
ROOT
ATOM      1  C   UNL     1      30.714  50.963  38.421  1.00  0.00     0.000 C 
ENDROOT
BRANCH   1   2
ATOM      2  C   UNL     1      31.482  50.327  39.590  1.00  0.00     0.000 C 
BRANCH   2   3
ATOM      3  C   UNL     1      31.235  51.057  40.922  1.00  0.00     0.000 C 
BRANCH   3   4
ATOM      4  C   UNL     1      31.152  50.096  42.119  1.00  0.00     0.000 C 
BRANCH   4   5
ATOM      5  C   UNL     1      31.184  48.618  41.692  1.00  0.00     0.000 C 
BRANCH   5   6
ATOM      6  C   UNL     1      29.783  48.054  41.412  1.00  0.00     0.006 C 
BRANCH   6   7
ATOM      7  C   UNL     1      29.820  46.733  40.632  1.00  0.00     0.053 C 
BRANCH   7   8
ATOM      8  C   UNL     1      29.465  45.589  41.528  1.00  0.00     0.041 C 
ATOM      9  O   UNL     1      28.258  45.291  41.727  1.00  0.00    -0.550 OA
ATOM     10  O   UNL     1      30.469  44.820  42.104  1.00  0.00    -0.550 OA
ENDBRANCH   7   8
ENDBRANCH   6   7
ENDBRANCH   5   6
ENDBRANCH   4   5
ENDBRANCH   3   4
ENDBRANCH   2   3
ENDBRANCH   1   2
BRANCH   1  11
ATOM     11  C   UNL     1      30.320  52.423  38.701  1.00  0.00     0.000 C 
BRANCH  11  12
ATOM     12  C   UNL     1      29.011  52.831  38.000  1.00  0.00     0.000 C 
BRANCH  12  13
ATOM     13  C   UNL     1      27.776  52.000  38.401  1.00  0.00     0.000 C 
BRANCH  13  14
ATOM     14  C   UNL     1      27.190  52.324  39.790  1.00  0.00     0.000 C 
BRANCH  14  15
ATOM     15  C   UNL     1      27.767  51.491  40.948  1.00  0.00     0.000 C 
BRANCH  15  16
ATOM     16  C   UNL     1      28.252  52.358  42.123  1.00  0.00     0.006 C 
BRANCH  16  17
ATOM     17  C   UNL     1      27.906  53.839  41.930  1.00  0.00     0.053 C 
BRANCH  17  18
ATOM     18  C   UNL     1      29.135  54.689  41.830  1.00  0.00     0.041 C 
ATOM     19  O   UNL     1      30.272  54.185  42.033  1.00  0.00    -0.550 OA
ATOM     20  O   UNL     1      29.030  56.028  41.477  1.00  0.00    -0.550 OA
ENDBRANCH  17  18
ENDBRANCH  16  17
ENDBRANCH  15  16
ENDBRANCH  14  15
ENDBRANCH  13  14
ENDBRANCH  12  13
ENDBRANCH  11  12
ENDBRANCH   1  11
TORSDOF 15
ENDMDL
MODEL 6
REMARK VINA RESULT:    -2.688     12.867     15.434
REMARK INTER + INTRA:          -6.383
REMARK INTER:                  -5.750
REMARK INTRA:                  -0.633
REMARK UNBOUND:                -1.338
REMARK SMILES O=C([O-])CCCCCCCCCCCCCCC(=O)[O-]
REMARK SMILES IDX 10 1 9 2 8 3 7 4 6 5 5 6 4 7 2 8 1 9 3 10 11 11 12 12 13 13
REMARK SMILES IDX 14 14 15 15 16 16 17 17 18 18 19 19 20 20
REMARK H PARENT
REMARK Flexibility Score: inf
ROOT
ATOM      1  C   UNL     1      29.463  46.757  40.717  1.00  0.00     0.000 C 
ENDROOT
BRANCH   1   2
ATOM      2  C   UNL     1      30.357  48.004  40.636  1.00  0.00     0.000 C 
BRANCH   2   3
ATOM      3  C   UNL     1      29.561  49.310  40.812  1.00  0.00     0.000 C 
BRANCH   3   4
ATOM      4  C   UNL     1      30.389  50.560  40.472  1.00  0.00     0.000 C 
BRANCH   4   5
ATOM      5  C   UNL     1      30.381  50.880  38.967  1.00  0.00     0.000 C 
BRANCH   5   6
ATOM      6  C   UNL     1      29.943  52.323  38.673  1.00  0.00     0.006 C 
BRANCH   6   7
ATOM      7  C   UNL     1      28.420  52.468  38.555  1.00  0.00     0.053 C 
BRANCH   7   8
ATOM      8  C   UNL     1      27.841  52.955  39.846  1.00  0.00     0.041 C 
ATOM      9  O   UNL     1      28.261  54.021  40.366  1.00  0.00    -0.550 OA
ATOM     10  O   UNL     1      26.803  52.255  40.449  1.00  0.00    -0.550 OA
ENDBRANCH   7   8
ENDBRANCH   6   7
ENDBRANCH   5   6
ENDBRANCH   4   5
ENDBRANCH   3   4
ENDBRANCH   2   3
ENDBRANCH   1   2
BRANCH   1  11
ATOM     11  C   UNL     1      29.453  46.129  42.121  1.00  0.00     0.000 C 
BRANCH  11  12
ATOM     12  C   UNL     1      28.976  44.666  42.116  1.00  0.00     0.000 C 
BRANCH  12  13
ATOM     13  C   UNL     1      27.446  44.484  42.052  1.00  0.00     0.000 C 
BRANCH  13  14
ATOM     14  C   UNL     1      26.959  43.020  42.052  1.00  0.00     0.000 C 
BRANCH  14  15
ATOM     15  C   UNL     1      25.785  42.728  41.101  1.00  0.00     0.000 C 
BRANCH  15  16
ATOM     16  C   UNL     1      26.154  41.733  39.987  1.00  0.00     0.006 C 
BRANCH  16  17
ATOM     17  C   UNL     1      27.278  40.780  40.410  1.00  0.00     0.053 C 
BRANCH  17  18
ATOM     18  C   UNL     1      27.668  39.853  39.300  1.00  0.00     0.041 C 
ATOM     19  O   UNL     1      28.758  39.225  39.353  1.00  0.00    -0.550 OA
ATOM     20  O   UNL     1      26.811  39.654  38.225  1.00  0.00    -0.550 OA
ENDBRANCH  17  18
ENDBRANCH  16  17
ENDBRANCH  15  16
ENDBRANCH  14  15
ENDBRANCH  13  14
ENDBRANCH  12  13
ENDBRANCH  11  12
ENDBRANCH   1  11
TORSDOF 15
ENDMDL
MODEL 7
REMARK VINA RESULT:    -2.529     12.476     16.681
REMARK INTER + INTRA:          -6.084
REMARK INTER:                  -5.435
REMARK INTRA:                  -0.649
REMARK UNBOUND:                -1.338
REMARK SMILES O=C([O-])CCCCCCCCCCCCCCC(=O)[O-]
REMARK SMILES IDX 10 1 9 2 8 3 7 4 6 5 5 6 4 7 2 8 1 9 3 10 11 11 12 12 13 13
REMARK SMILES IDX 14 14 15 15 16 16 17 17 18 18 19 19 20 20
REMARK H PARENT
REMARK Flexibility Score: inf
ROOT
ATOM      1  C   UNL     1      28.538  45.564  41.880  1.00  0.00     0.000 C 
ENDROOT
BRANCH   1   2
ATOM      2  C   UNL     1      28.286  44.068  42.115  1.00  0.00     0.000 C 
BRANCH   2   3
ATOM      3  C   UNL     1      26.799  43.693  41.977  1.00  0.00     0.000 C 
BRANCH   3   4
ATOM      4  C   UNL     1      26.590  42.349  41.259  1.00  0.00     0.000 C 
BRANCH   4   5
ATOM      5  C   UNL     1      26.256  42.525  39.767  1.00  0.00     0.000 C 
BRANCH   5   6
ATOM      6  C   UNL     1      26.203  41.187  39.013  1.00  0.00     0.006 C 
BRANCH   6   7
ATOM      7  C   UNL     1      26.062  39.982  39.953  1.00  0.00     0.053 C 
BRANCH   7   8
ATOM      8  C   UNL     1      27.218  39.048  39.779  1.00  0.00     0.041 C 
ATOM      9  O   UNL     1      27.036  37.803  39.811  1.00  0.00    -0.550 OA
ATOM     10  O   UNL     1      28.488  39.553  39.533  1.00  0.00    -0.550 OA
ENDBRANCH   7   8
ENDBRANCH   6   7
ENDBRANCH   5   6
ENDBRANCH   4   5
ENDBRANCH   3   4
ENDBRANCH   2   3
ENDBRANCH   1   2
BRANCH   1  11
ATOM     11  C   UNL     1      30.035  45.919  41.896  1.00  0.00     0.000 C 
BRANCH  11  12
ATOM     12  C   UNL     1      30.287  47.433  42.015  1.00  0.00     0.000 C 
BRANCH  12  13
ATOM     13  C   UNL     1      30.531  48.157  40.676  1.00  0.00     0.000 C 
BRANCH  13  14
ATOM     14  C   UNL     1      29.449  49.180  40.275  1.00  0.00     0.000 C 
BRANCH  14  15
ATOM     15  C   UNL     1      29.931  50.639  40.204  1.00  0.00     0.000 C 
BRANCH  15  16
ATOM     16  C   UNL     1      30.168  51.120  38.762  1.00  0.00     0.006 C 
BRANCH  16  17
ATOM     17  C   UNL     1      29.886  52.618  38.599  1.00  0.00     0.053 C 
BRANCH  17  18
ATOM     18  C   UNL     1      28.496  52.973  39.029  1.00  0.00     0.041 C 
ATOM     19  O   UNL     1      28.313  53.789  39.971  1.00  0.00    -0.550 OA
ATOM     20  O   UNL     1      27.402  52.430  38.368  1.00  0.00    -0.550 OA
ENDBRANCH  17  18
ENDBRANCH  16  17
ENDBRANCH  15  16
ENDBRANCH  14  15
ENDBRANCH  13  14
ENDBRANCH  12  13
ENDBRANCH  11  12
ENDBRANCH   1  11
TORSDOF 15
ENDMDL
MODEL 8
REMARK VINA RESULT:    -2.458      3.551      5.377
REMARK INTER + INTRA:          -5.952
REMARK INTER:                  -5.489
REMARK INTRA:                  -0.462
REMARK UNBOUND:                -1.338
REMARK SMILES O=C([O-])CCCCCCCCCCCCCCC(=O)[O-]
REMARK SMILES IDX 10 1 9 2 8 3 7 4 6 5 5 6 4 7 2 8 1 9 3 10 11 11 12 12 13 13
REMARK SMILES IDX 14 14 15 15 16 16 17 17 18 18 19 19 20 20
REMARK H PARENT
REMARK Flexibility Score: inf
ROOT
ATOM      1  C   UNL     1      25.217  38.281  29.538  1.00  0.00     0.000 C 
ENDROOT
BRANCH   1   2
ATOM      2  C   UNL     1      25.645  39.600  28.878  1.00  0.00     0.000 C 
BRANCH   2   3
ATOM      3  C   UNL     1      25.301  39.645  27.378  1.00  0.00     0.000 C 
BRANCH   3   4
ATOM      4  C   UNL     1      25.485  41.045  26.769  1.00  0.00     0.000 C 
BRANCH   4   5
ATOM      5  C   UNL     1      26.779  41.163  25.943  1.00  0.00     0.000 C 
BRANCH   5   6
ATOM      6  C   UNL     1      27.152  42.622  25.637  1.00  0.00     0.006 C 
BRANCH   6   7
ATOM      7  C   UNL     1      28.003  43.261  26.744  1.00  0.00     0.053 C 
BRANCH   7   8
ATOM      8  C   UNL     1      29.448  42.929  26.546  1.00  0.00     0.041 C 
ATOM      9  O   UNL     1      30.085  42.312  27.440  1.00  0.00    -0.550 OA
ATOM     10  O   UNL     1      30.080  43.260  25.354  1.00  0.00    -0.550 OA
ENDBRANCH   7   8
ENDBRANCH   6   7
ENDBRANCH   5   6
ENDBRANCH   4   5
ENDBRANCH   3   4
ENDBRANCH   2   3
ENDBRANCH   1   2
BRANCH   1  11
ATOM     11  C   UNL     1      25.033  38.416  31.059  1.00  0.00     0.000 C 
BRANCH  11  12
ATOM     12  C   UNL     1      25.299  37.099  31.810  1.00  0.00     0.000 C 
BRANCH  12  13
ATOM     13  C   UNL     1      26.027  37.260  33.161  1.00  0.00     0.000 C 
BRANCH  13  14
ATOM     14  C   UNL     1      25.112  37.260  34.402  1.00  0.00     0.000 C 
BRANCH  14  15
ATOM     15  C   UNL     1      25.829  37.537  35.736  1.00  0.00     0.000 C 
BRANCH  15  16
ATOM     16  C   UNL     1      24.875  38.039  36.833  1.00  0.00     0.006 C 
BRANCH  16  17
ATOM     17  C   UNL     1      24.964  39.557  37.026  1.00  0.00     0.053 C 
BRANCH  17  18
ATOM     18  C   UNL     1      25.467  39.915  38.391  1.00  0.00     0.041 C 
ATOM     19  O   UNL     1      25.798  41.102  38.653  1.00  0.00    -0.550 OA
ATOM     20  O   UNL     1      25.537  38.946  39.384  1.00  0.00    -0.550 OA
ENDBRANCH  17  18
ENDBRANCH  16  17
ENDBRANCH  15  16
ENDBRANCH  14  15
ENDBRANCH  13  14
ENDBRANCH  12  13
ENDBRANCH  11  12
ENDBRANCH   1  11
TORSDOF 15
ENDMDL
MODEL 9
REMARK VINA RESULT:    -2.424      1.190      6.536
REMARK INTER + INTRA:          -5.888
REMARK INTER:                  -5.008
REMARK INTRA:                  -0.880
REMARK UNBOUND:                -1.338
REMARK SMILES O=C([O-])CCCCCCCCCCCCCCC(=O)[O-]
REMARK SMILES IDX 10 1 9 2 8 3 7 4 6 5 5 6 4 7 2 8 1 9 3 10 11 11 12 12 13 13
REMARK SMILES IDX 14 14 15 15 16 16 17 17 18 18 19 19 20 20
REMARK H PARENT
REMARK Flexibility Score: inf
ROOT
ATOM      1  C   UNL     1      26.057  40.134  24.786  1.00  0.00     0.000 C 
ENDROOT
BRANCH   1   2
ATOM      2  C   UNL     1      24.878  39.150  24.825  1.00  0.00     0.000 C 
BRANCH   2   3
ATOM      3  C   UNL     1      25.124  37.975  25.789  1.00  0.00     0.000 C 
BRANCH   3   4
ATOM      4  C   UNL     1      25.821  38.411  27.089  1.00  0.00     0.000 C 
BRANCH   4   5
ATOM      5  C   UNL     1      24.875  39.163  28.041  1.00  0.00     0.000 C 
BRANCH   5   6
ATOM      6  C   UNL     1      25.523  39.462  29.402  1.00  0.00     0.006 C 
BRANCH   6   7
ATOM      7  C   UNL     1      25.020  38.533  30.516  1.00  0.00     0.053 C 
BRANCH   7   8
ATOM      8  C   UNL     1      26.166  38.045  31.345  1.00  0.00     0.041 C 
ATOM      9  O   UNL     1      25.953  37.473  32.445  1.00  0.00    -0.550 OA
ATOM     10  O   UNL     1      27.467  38.178  30.877  1.00  0.00    -0.550 OA
ENDBRANCH   7   8
ENDBRANCH   6   7
ENDBRANCH   5   6
ENDBRANCH   4   5
ENDBRANCH   3   4
ENDBRANCH   2   3
ENDBRANCH   1   2
BRANCH   1  11
ATOM     11  C   UNL     1      25.612  41.576  24.488  1.00  0.00     0.000 C 
BRANCH  11  12
ATOM     12  C   UNL     1      26.702  42.614  24.809  1.00  0.00     0.000 C 
BRANCH  12  13
ATOM     13  C   UNL     1      26.378  43.549  25.991  1.00  0.00     0.000 C 
BRANCH  13  14
ATOM     14  C   UNL     1      26.182  42.846  27.349  1.00  0.00     0.000 C 
BRANCH  14  15
ATOM     15  C   UNL     1      27.413  42.083  27.869  1.00  0.00     0.000 C 
BRANCH  15  16
ATOM     16  C   UNL     1      28.559  42.032  26.844  1.00  0.00     0.006 C 
BRANCH  16  17
ATOM     17  C   UNL     1      29.695  42.999  27.199  1.00  0.00     0.053 C 
BRANCH  17  18
ATOM     18  C   UNL     1      30.412  43.485  25.977  1.00  0.00     0.041 C 
ATOM     19  O   UNL     1      30.482  42.757  24.951  1.00  0.00    -0.550 OA
ATOM     20  O   UNL     1      30.972  44.756  25.957  1.00  0.00    -0.550 OA
ENDBRANCH  17  18
ENDBRANCH  16  17
ENDBRANCH  15  16
ENDBRANCH  14  15
ENDBRANCH  13  14
ENDBRANCH  12  13
ENDBRANCH  11  12
ENDBRANCH   1  11
TORSDOF 15
ENDMDL
