MODEL 1
REMARK VINA RESULT:    -5.519      0.000      0.000
REMARK INTER + INTRA:          -6.942
REMARK INTER:                  -7.455
REMARK INTRA:                   0.513
REMARK UNBOUND:                 0.513
REMARK SMILES C=C(C)[C@H]1CC[C@@H](C)C2=C(C1)[C@H](C)CC2
REMARK SMILES IDX 10 1 9 2 15 3 14 4 12 5 13 6 7 7 8 8 6 9 11 11 4 12 5 13
REMARK SMILES IDX 2 15 1 16 3 17
REMARK H PARENT
REMARK Flexibility Score: 80.00
ROOT
ATOM      1  C   UNL     1      -2.787 -14.910   9.633  1.00  0.00    -0.067 C 
ATOM      2  C   UNL     1      -2.986 -15.964  10.430  1.00  0.00    -0.068 C 
ATOM      3  C   UNL     1      -2.537 -15.692  11.826  1.00  0.00     0.032 C 
ATOM      4  C   UNL     1      -2.179 -14.206  11.837  1.00  0.00     0.012 C 
ATOM      5  C   UNL     1      -2.146 -13.772  10.364  1.00  0.00     0.012 C 
ATOM      6  C   UNL     1      -0.712 -13.546   9.873  1.00  0.00     0.012 C 
ENDROOT
BRANCH   2   7
ATOM      7  C   UNL     1      -3.588 -17.297  10.036  1.00  0.00     0.012 C 
ATOM      8  C   UNL     1      -2.618 -18.146   9.205  1.00  0.00     0.012 C 
BRANCH   7   9
ATOM      9  C   UNL     1      -4.992 -17.158   9.409  1.00  0.00     0.008 CG0
ATOM     10  G   UNL     1      -5.032 -16.558   7.994  1.00  0.00     0.000 G0
ENDBRANCH   7   9
ENDBRANCH   2   7
BRANCH   1  11
ATOM     11  C   UNL     1      -3.160 -14.824   8.173  1.00  0.00     0.039 C 
BRANCH  11  12
ATOM     12  C   UNL     1      -4.666 -15.056   7.938  1.00  0.00     0.018 C 
BRANCH  12  13
ATOM     13  C   UNL     1      -5.040 -16.552   7.989  1.00  0.00     0.009 CG0
ATOM     14  G   UNL     1      -4.992 -17.151   9.404  1.00  0.00     0.000 G0
ENDBRANCH  12  13
BRANCH  12  15
ATOM     15  C   UNL     1      -5.083 -14.466   6.595  1.00  0.00    -0.077 C 
ATOM     16  C   UNL     1      -5.375 -13.160   6.491  1.00  0.00     0.008 C 
ATOM     17  C   UNL     1      -5.183 -15.331   5.364  1.00  0.00     0.039 C 
ENDBRANCH  12  15
ENDBRANCH  11  12
ENDBRANCH   1  11
TORSDOF 1
ENDMDL
MODEL 2
REMARK VINA RESULT:    -5.409      2.047      5.148
REMARK INTER + INTRA:          -6.793
REMARK INTER:                  -7.292
REMARK INTRA:                   0.500
REMARK UNBOUND:                 0.513
REMARK SMILES C=C(C)[C@H]1CC[C@@H](C)C2=C(C1)[C@H](C)CC2
REMARK SMILES IDX 10 1 9 2 15 3 14 4 12 5 13 6 7 7 8 8 6 9 11 11 4 12 5 13
REMARK SMILES IDX 2 15 1 16 3 17
REMARK H PARENT
REMARK Flexibility Score: 80.00
ROOT
ATOM      1  C   UNL     1      -3.473 -16.336   9.533  1.00  0.00    -0.067 C 
ATOM      2  C   UNL     1      -3.267 -15.567   8.459  1.00  0.00    -0.068 C 
ATOM      3  C   UNL     1      -4.216 -15.895   7.356  1.00  0.00     0.032 C 
ATOM      4  C   UNL     1      -5.199 -16.890   7.971  1.00  0.00     0.012 C 
ATOM      5  C   UNL     1      -4.578 -17.322   9.308  1.00  0.00     0.012 C 
ATOM      6  C   UNL     1      -4.029 -18.751   9.242  1.00  0.00     0.012 C 
ENDROOT
BRANCH   2   7
ATOM      7  C   UNL     1      -2.223 -14.480   8.311  1.00  0.00     0.012 C 
ATOM      8  C   UNL     1      -0.811 -15.055   8.135  1.00  0.00     0.012 C 
BRANCH   7   9
ATOM      9  C   UNL     1      -2.325 -13.398   9.407  1.00  0.00     0.008 CG0
ATOM     10  G   UNL     1      -1.895 -13.837  10.817  1.00  0.00     0.000 G0
ENDBRANCH   7   9
ENDBRANCH   2   7
BRANCH   1  11
ATOM     11  C   UNL     1      -2.722 -16.249  10.839  1.00  0.00     0.039 C 
BRANCH  11  12
ATOM     12  C   UNL     1      -2.832 -14.855  11.487  1.00  0.00     0.018 C 
BRANCH  12  13
ATOM     13  C   UNL     1      -1.887 -13.829  10.827  1.00  0.00     0.009 CG0
ATOM     14  G   UNL     1      -2.326 -13.406   9.416  1.00  0.00     0.000 G0
ENDBRANCH  12  13
BRANCH  12  15
ATOM     15  C   UNL     1      -2.533 -14.946  12.979  1.00  0.00    -0.077 C 
ATOM     16  C   UNL     1      -2.702 -13.875  13.771  1.00  0.00     0.008 C 
ATOM     17  C   UNL     1      -2.035 -16.230  13.594  1.00  0.00     0.039 C 
ENDBRANCH  12  15
ENDBRANCH  11  12
ENDBRANCH   1  11
TORSDOF 1
ENDMDL
MODEL 3
REMARK VINA RESULT:    -5.380      1.751      3.363
REMARK INTER + INTRA:          -6.754
REMARK INTER:                  -7.200
REMARK INTRA:                   0.446
REMARK UNBOUND:                 0.513
REMARK SMILES C=C(C)[C@H]1CC[C@@H](C)C2=C(C1)[C@H](C)CC2
REMARK SMILES IDX 10 1 9 2 15 3 14 4 12 5 13 6 7 7 8 8 6 9 11 11 4 12 5 13
REMARK SMILES IDX 2 15 1 16 3 17
REMARK H PARENT
REMARK Flexibility Score: 80.00
ROOT
ATOM      1  C   UNL     1      -3.494 -16.176   9.667  1.00  0.00    -0.067 C 
ATOM      2  C   UNL     1      -3.131 -15.555  10.794  1.00  0.00    -0.068 C 
ATOM      3  C   UNL     1      -4.001 -15.943  11.942  1.00  0.00     0.032 C 
ATOM      4  C   UNL     1      -4.881 -17.069  11.400  1.00  0.00     0.012 C 
ATOM      5  C   UNL     1      -4.685 -17.059   9.877  1.00  0.00     0.012 C 
ATOM      6  C   UNL     1      -5.914 -16.499   9.152  1.00  0.00     0.012 C 
ENDROOT
BRANCH   2   7
ATOM      7  C   UNL     1      -1.990 -14.572  10.959  1.00  0.00     0.012 C 
ATOM      8  C   UNL     1      -1.968 -13.944  12.359  1.00  0.00     0.012 C 
BRANCH   7   9
ATOM      9  C   UNL     1      -1.914 -13.544   9.811  1.00  0.00     0.008 CG0
ATOM     10  G   UNL     1      -3.096 -13.555   8.829  1.00  0.00     0.000 G0
ENDBRANCH   7   9
ENDBRANCH   2   7
BRANCH   1  11
ATOM     11  C   UNL     1      -2.809 -16.047   8.328  1.00  0.00     0.039 C 
BRANCH  11  12
ATOM     12  C   UNL     1      -2.965 -14.637   7.724  1.00  0.00     0.018 C 
BRANCH  12  13
ATOM     13  C   UNL     1      -3.098 -13.549   8.810  1.00  0.00     0.009 CG0
ATOM     14  G   UNL     1      -1.925 -13.524   9.804  1.00  0.00     0.000 G0
ENDBRANCH  12  13
BRANCH  12  15
ATOM     15  C   UNL     1      -4.177 -14.594   6.801  1.00  0.00    -0.077 C 
ATOM     16  C   UNL     1      -5.028 -13.557   6.847  1.00  0.00     0.008 C 
ATOM     17  C   UNL     1      -4.451 -15.713   5.826  1.00  0.00     0.039 C 
ENDBRANCH  12  15
ENDBRANCH  11  12
ENDBRANCH   1  11
TORSDOF 1
ENDMDL
MODEL 4
REMARK VINA RESULT:    -5.317      1.180      3.548
REMARK INTER + INTRA:          -6.668
REMARK INTER:                  -8.330
REMARK INTRA:                   1.662
REMARK UNBOUND:                 0.513
REMARK SMILES C=C(C)[C@H]1CC[C@@H](C)C2=C(C1)[C@H](C)CC2
REMARK SMILES IDX 10 1 9 2 15 3 14 4 12 5 13 6 7 7 8 8 6 9 11 11 4 12 5 13
REMARK SMILES IDX 2 15 1 16 3 17
REMARK H PARENT
REMARK Flexibility Score: 80.00
ROOT
ATOM      1  C   UNL     1      -2.350 -15.538   8.912  1.00  0.00    -0.067 C 
ATOM      2  C   UNL     1      -2.944 -14.531   8.265  1.00  0.00    -0.068 C 
ATOM      3  C   UNL     1      -2.728 -13.227   8.958  1.00  0.00     0.032 C 
ATOM      4  C   UNL     1      -1.731 -13.540  10.073  1.00  0.00     0.012 C 
ATOM      5  C   UNL     1      -1.663 -15.072  10.158  1.00  0.00     0.012 C 
ATOM      6  C   UNL     1      -2.379 -15.601  11.406  1.00  0.00     0.012 C 
ENDROOT
BRANCH   2   7
ATOM      7  C   UNL     1      -3.748 -14.625   6.985  1.00  0.00     0.012 C 
ATOM      8  C   UNL     1      -5.021 -13.770   7.038  1.00  0.00     0.012 C 
BRANCH   7   9
ATOM      9  C   UNL     1      -3.992 -16.082   6.537  1.00  0.00     0.008 CG0
ATOM     10  G   UNL     1      -4.718 -16.978   7.554  1.00  0.00     0.000 G0
ENDBRANCH   7   9
ENDBRANCH   2   7
BRANCH   1  11
ATOM     11  C   UNL     1      -2.332 -16.981   8.472  1.00  0.00     0.039 C 
BRANCH  11  12
ATOM     12  C   UNL     1      -3.731 -17.628   8.526  1.00  0.00     0.018 C 
BRANCH  12  13
ATOM     13  C   UNL     1      -4.715 -16.971   7.535  1.00  0.00     0.009 CG0
ATOM     14  G   UNL     1      -4.033 -16.057   6.505  1.00  0.00     0.000 G0
ENDBRANCH  12  13
BRANCH  12  15
ATOM     15  C   UNL     1      -4.291 -17.544   9.942  1.00  0.00    -0.077 C 
ATOM     16  C   UNL     1      -3.739 -18.263  10.932  1.00  0.00     0.008 C 
ATOM     17  C   UNL     1      -5.475 -16.665  10.258  1.00  0.00     0.039 C 
ENDBRANCH  12  15
ENDBRANCH  11  12
ENDBRANCH   1  11
TORSDOF 1
ENDMDL
MODEL 5
REMARK VINA RESULT:    -4.775      1.509      4.181
REMARK INTER + INTRA:          -5.937
REMARK INTER:                  -6.415
REMARK INTRA:                   0.478
REMARK UNBOUND:                 0.513
REMARK SMILES C=C(C)[C@H]1CC[C@@H](C)C2=C(C1)[C@H](C)CC2
REMARK SMILES IDX 10 1 9 2 15 3 14 4 12 5 13 6 7 7 8 8 6 9 11 11 4 12 5 13
REMARK SMILES IDX 2 15 1 16 3 17
REMARK H PARENT
REMARK Flexibility Score: 80.00
ROOT
ATOM      1  C   UNL     1      -2.391 -16.502   8.887  1.00  0.00    -0.067 C 
ATOM      2  C   UNL     1      -3.409 -16.179   8.085  1.00  0.00    -0.068 C 
ATOM      3  C   UNL     1      -3.009 -15.166   7.066  1.00  0.00     0.032 C 
ATOM      4  C   UNL     1      -1.497 -15.024   7.232  1.00  0.00     0.012 C 
ATOM      5  C   UNL     1      -1.150 -15.734   8.549  1.00  0.00     0.012 C 
ATOM      6  C   UNL     1      -0.809 -14.733   9.659  1.00  0.00     0.012 C 
ENDROOT
BRANCH   2   7
ATOM      7  C   UNL     1      -4.818 -16.734   8.143  1.00  0.00     0.012 C 
ATOM      8  C   UNL     1      -5.734 -16.094   7.091  1.00  0.00     0.012 C 
BRANCH   7   9
ATOM      9  C   UNL     1      -5.406 -16.729   9.570  1.00  0.00     0.008 CG0
ATOM     10  G   UNL     1      -4.497 -16.141  10.661  1.00  0.00     0.000 G0
ENDBRANCH   7   9
ENDBRANCH   2   7
BRANCH   1  11
ATOM     11  C   UNL     1      -2.431 -17.520  10.000  1.00  0.00     0.039 C 
BRANCH  11  12
ATOM     12  C   UNL     1      -3.373 -17.100  11.145  1.00  0.00     0.018 C 
BRANCH  12  13
ATOM     13  C   UNL     1      -4.480 -16.137  10.665  1.00  0.00     0.009 CG0
ATOM     14  G   UNL     1      -5.385 -16.734   9.575  1.00  0.00     0.000 G0
ENDBRANCH  12  13
BRANCH  12  15
ATOM     15  C   UNL     1      -2.574 -16.448  12.268  1.00  0.00    -0.077 C 
ATOM     16  C   UNL     1      -2.739 -15.145  12.550  1.00  0.00     0.008 C 
ATOM     17  C   UNL     1      -1.579 -17.243  13.076  1.00  0.00     0.039 C 
ENDBRANCH  12  15
ENDBRANCH  11  12
ENDBRANCH   1  11
TORSDOF 1
ENDMDL
MODEL 6
REMARK VINA RESULT:    -4.711      1.932      3.288
REMARK INTER + INTRA:          -5.850
REMARK INTER:                  -6.335
REMARK INTRA:                   0.485
REMARK UNBOUND:                 0.513
REMARK SMILES C=C(C)[C@H]1CC[C@@H](C)C2=C(C1)[C@H](C)CC2
REMARK SMILES IDX 10 1 9 2 15 3 14 4 12 5 13 6 7 7 8 8 6 9 11 11 4 12 5 13
REMARK SMILES IDX 2 15 1 16 3 17
REMARK H PARENT
REMARK Flexibility Score: 80.00
ROOT
ATOM      1  C   UNL     1      -3.400 -15.027   9.747  1.00  0.00    -0.067 C 
ATOM      2  C   UNL     1      -2.812 -14.891  10.939  1.00  0.00    -0.068 C 
ATOM      3  C   UNL     1      -1.819 -13.777  10.940  1.00  0.00     0.032 C 
ATOM      4  C   UNL     1      -1.999 -13.094   9.586  1.00  0.00     0.012 C 
ATOM      5  C   UNL     1      -2.872 -14.042   8.750  1.00  0.00     0.012 C 
ATOM      6  C   UNL     1      -2.057 -14.749   7.661  1.00  0.00     0.012 C 
ENDROOT
BRANCH   2   7
ATOM      7  C   UNL     1      -3.073 -15.723  12.177  1.00  0.00     0.012 C 
ATOM      8  C   UNL     1      -2.203 -15.284  13.362  1.00  0.00     0.012 C 
BRANCH   7   9
ATOM      9  C   UNL     1      -3.030 -17.241  11.899  1.00  0.00     0.008 CG0
ATOM     10  G   UNL     1      -2.747 -17.642  10.443  1.00  0.00     0.000 G0
ENDBRANCH   7   9
ENDBRANCH   2   7
BRANCH   1  11
ATOM     11  C   UNL     1      -4.478 -16.025   9.402  1.00  0.00     0.039 C 
BRANCH  11  12
ATOM     12  C   UNL     1      -3.983 -17.481   9.504  1.00  0.00     0.018 C 
BRANCH  12  13
ATOM     13  C   UNL     1      -2.752 -17.615  10.426  1.00  0.00     0.009 CG0
ATOM     14  G   UNL     1      -3.032 -17.225  11.886  1.00  0.00     0.000 G0
ENDBRANCH  12  13
BRANCH  12  15
ATOM     15  C   UNL     1      -3.649 -18.019   8.117  1.00  0.00    -0.077 C 
ATOM     16  C   UNL     1      -2.835 -19.078   7.979  1.00  0.00     0.008 C 
ATOM     17  C   UNL     1      -4.214 -17.373   6.877  1.00  0.00     0.039 C 
ENDBRANCH  12  15
ENDBRANCH  11  12
ENDBRANCH   1  11
TORSDOF 1
ENDMDL
MODEL 7
REMARK VINA RESULT:    -4.379      1.850      4.126
REMARK INTER + INTRA:          -5.401
REMARK INTER:                  -5.838
REMARK INTRA:                   0.437
REMARK UNBOUND:                 0.513
REMARK SMILES C=C(C)[C@H]1CC[C@@H](C)C2=C(C1)[C@H](C)CC2
REMARK SMILES IDX 10 1 9 2 15 3 14 4 12 5 13 6 7 7 8 8 6 9 11 11 4 12 5 13
REMARK SMILES IDX 2 15 1 16 3 17
REMARK H PARENT
REMARK Flexibility Score: 80.00
ROOT
ATOM      1  C   UNL     1      -3.421 -16.654   8.725  1.00  0.00    -0.067 C 
ATOM      2  C   UNL     1      -4.560 -16.702   9.422  1.00  0.00    -0.068 C 
ATOM      3  C   UNL     1      -5.750 -16.488   8.549  1.00  0.00     0.032 C 
ATOM      4  C   UNL     1      -5.192 -16.475   7.127  1.00  0.00     0.012 C 
ATOM      5  C   UNL     1      -3.667 -16.371   7.275  1.00  0.00     0.012 C 
ATOM      6  C   UNL     1      -3.155 -14.977   6.896  1.00  0.00     0.012 C 
ENDROOT
BRANCH   2   7
ATOM      7  C   UNL     1      -4.701 -16.942  10.911  1.00  0.00     0.012 C 
ATOM      8  C   UNL     1      -6.156 -16.821  11.381  1.00  0.00     0.012 C 
BRANCH   7   9
ATOM      9  C   UNL     1      -3.703 -16.114  11.749  1.00  0.00     0.008 CG0
ATOM     10  G   UNL     1      -2.846 -15.111  10.961  1.00  0.00     0.000 G0
ENDBRANCH   7   9
ENDBRANCH   2   7
BRANCH   1  11
ATOM     11  C   UNL     1      -2.035 -16.867   9.282  1.00  0.00     0.039 C 
BRANCH  11  12
ATOM     12  C   UNL     1      -1.628 -15.764  10.280  1.00  0.00     0.018 C 
BRANCH  12  13
ATOM     13  C   UNL     1      -2.850 -15.123  10.970  1.00  0.00     0.009 CG0
ATOM     14  G   UNL     1      -3.702 -16.125  11.767  1.00  0.00     0.000 G0
ENDBRANCH  12  13
BRANCH  12  15
ATOM     15  C   UNL     1      -0.816 -14.688   9.567  1.00  0.00    -0.077 C 
ATOM     16  C   UNL     1      -0.994 -13.392   9.871  1.00  0.00     0.008 C 
ATOM     17  C   UNL     1       0.192 -15.051   8.505  1.00  0.00     0.039 C 
ENDBRANCH  12  15
ENDBRANCH  11  12
ENDBRANCH   1  11
TORSDOF 1
ENDMDL
MODEL 8
REMARK VINA RESULT:    -4.354      1.765      3.572
REMARK INTER + INTRA:          -5.369
REMARK INTER:                  -5.893
REMARK INTRA:                   0.525
REMARK UNBOUND:                 0.513
REMARK SMILES C=C(C)[C@H]1CC[C@@H](C)C2=C(C1)[C@H](C)CC2
REMARK SMILES IDX 10 1 9 2 15 3 14 4 12 5 13 6 7 7 8 8 6 9 11 11 4 12 5 13
REMARK SMILES IDX 2 15 1 16 3 17
REMARK H PARENT
REMARK Flexibility Score: 80.00
ROOT
ATOM      1  C   UNL     1      -2.347 -15.979  10.510  1.00  0.00    -0.067 C 
ATOM      2  C   UNL     1      -1.976 -14.719  10.757  1.00  0.00    -0.068 C 
ATOM      3  C   UNL     1      -2.419 -14.269  12.108  1.00  0.00     0.032 C 
ATOM      4  C   UNL     1      -2.985 -15.525  12.770  1.00  0.00     0.012 C 
ATOM      5  C   UNL     1      -3.122 -16.565  11.649  1.00  0.00     0.012 C 
ATOM      6  C   UNL     1      -4.588 -16.783  11.256  1.00  0.00     0.012 C 
ENDROOT
BRANCH   2   7
ATOM      7  C   UNL     1      -1.201 -13.805   9.831  1.00  0.00     0.012 C 
ATOM      8  C   UNL     1      -1.065 -12.387  10.400  1.00  0.00     0.012 C 
BRANCH   7   9
ATOM      9  C   UNL     1      -1.718 -13.847   8.376  1.00  0.00     0.008 CG0
ATOM     10  G   UNL     1      -2.991 -14.678   8.147  1.00  0.00     0.000 G0
ENDBRANCH   7   9
ENDBRANCH   2   7
BRANCH   1  11
ATOM     11  C   UNL     1      -2.033 -16.763   9.259  1.00  0.00     0.039 C 
BRANCH  11  12
ATOM     12  C   UNL     1      -2.718 -16.172   8.010  1.00  0.00     0.018 C 
BRANCH  12  13
ATOM     13  C   UNL     1      -2.979 -14.658   8.150  1.00  0.00     0.009 CG0
ATOM     14  G   UNL     1      -1.704 -13.832   8.380  1.00  0.00     0.000 G0
ENDBRANCH  12  13
BRANCH  12  15
ATOM     15  C   UNL     1      -4.030 -16.900   7.741  1.00  0.00    -0.077 C 
ATOM     16  C   UNL     1      -4.154 -18.205   8.032  1.00  0.00     0.008 C 
ATOM     17  C   UNL     1      -5.209 -16.178   7.138  1.00  0.00     0.039 C 
ENDBRANCH  12  15
ENDBRANCH  11  12
ENDBRANCH   1  11
TORSDOF 1
ENDMDL
MODEL 9
REMARK VINA RESULT:    -4.274      1.516      3.086
REMARK INTER + INTRA:          -5.260
REMARK INTER:                  -6.352
REMARK INTRA:                   1.092
REMARK UNBOUND:                 0.513
REMARK SMILES C=C(C)[C@H]1CC[C@@H](C)C2=C(C1)[C@H](C)CC2
REMARK SMILES IDX 10 1 9 2 15 3 14 4 12 5 13 6 7 7 8 8 6 9 11 11 4 12 5 13
REMARK SMILES IDX 2 15 1 16 3 17
REMARK H PARENT
REMARK Flexibility Score: 80.00
ROOT
ATOM      1  C   UNL     1      -4.067 -16.110   9.718  1.00  0.00    -0.067 C 
ATOM      2  C   UNL     1      -2.776 -15.797   9.860  1.00  0.00    -0.068 C 
ATOM      3  C   UNL     1      -2.139 -16.570  10.966  1.00  0.00     0.032 C 
ATOM      4  C   UNL     1      -3.203 -17.578  11.398  1.00  0.00     0.012 C 
ATOM      5  C   UNL     1      -4.508 -17.125  10.727  1.00  0.00     0.012 C 
ATOM      6  C   UNL     1      -5.479 -16.504  11.738  1.00  0.00     0.012 C 
ENDROOT
BRANCH   2   7
ATOM      7  C   UNL     1      -1.991 -14.796   9.038  1.00  0.00     0.012 C 
ATOM      8  C   UNL     1      -2.122 -13.369   9.585  1.00  0.00     0.012 C 
BRANCH   7   9
ATOM      9  C   UNL     1      -2.271 -14.913   7.524  1.00  0.00     0.008 CG0
ATOM     10  G   UNL     1      -3.083 -16.145   7.092  1.00  0.00     0.000 G0
ENDBRANCH   7   9
ENDBRANCH   2   7
BRANCH   1  11
ATOM     11  C   UNL     1      -5.002 -15.549   8.675  1.00  0.00     0.039 C 
BRANCH  11  12
ATOM     12  C   UNL     1      -4.616 -15.983   7.247  1.00  0.00     0.018 C 
BRANCH  12  13
ATOM     13  C   UNL     1      -3.091 -16.148   7.081  1.00  0.00     0.009 CG0
ATOM     14  G   UNL     1      -2.286 -14.917   7.529  1.00  0.00     0.000 G0
ENDBRANCH  12  13
BRANCH  12  15
ATOM     15  C   UNL     1      -5.138 -14.970   6.233  1.00  0.00    -0.077 C 
ATOM     16  C   UNL     1      -5.382 -15.344   4.967  1.00  0.00     0.008 C 
ATOM     17  C   UNL     1      -5.383 -13.534   6.625  1.00  0.00     0.039 C 
ENDBRANCH  12  15
ENDBRANCH  11  12
ENDBRANCH   1  11
TORSDOF 1
ENDMDL
