MODEL 1
REMARK VINA RESULT:    -2.853      0.000      0.000
REMARK INTER + INTRA:          -2.853
REMARK INTER:                  -2.853
REMARK INTRA:                   0.000
REMARK UNBOUND:                 0.000
REMARK SMILES CC(=O)[O-]
REMARK SMILES IDX 1 1 2 2 3 3 4 4
REMARK H PARENT
REMARK Flexibility Score: inf
ROOT
ATOM      1  C   UNL     1      -4.235  27.161  55.095  1.00  0.00     0.063 C 
ATOM      2  C   UNL     1      -4.221  28.330  56.020  1.00  0.00     0.038 C 
ATOM      3  O   UNL     1      -5.277  28.684  56.605  1.00  0.00    -0.550 OA
ATOM      4  O   UNL     1      -3.056  29.066  56.196  1.00  0.00    -0.550 OA
ENDROOT
TORSDOF 0
ENDMDL
MODEL 2
REMARK VINA RESULT:    -2.812      0.133      1.621
REMARK INTER + INTRA:          -2.812
REMARK INTER:                  -2.812
REMARK INTRA:                   0.000
REMARK UNBOUND:                 0.000
REMARK SMILES CC(=O)[O-]
REMARK SMILES IDX 1 1 2 2 3 3 4 4
REMARK H PARENT
REMARK Flexibility Score: inf
ROOT
ATOM      1  C   UNL     1      -4.186  27.151  55.017  1.00  0.00     0.063 C 
ATOM      2  C   UNL     1      -4.104  28.325  55.932  1.00  0.00     0.038 C 
ATOM      3  O   UNL     1      -3.004  28.908  56.114  1.00  0.00    -0.550 OA
ATOM      4  O   UNL     1      -5.231  28.746  56.628  1.00  0.00    -0.550 OA
ENDROOT
TORSDOF 0
ENDMDL
MODEL 3
REMARK VINA RESULT:    -2.801      2.165      2.437
REMARK INTER + INTRA:          -2.801
REMARK INTER:                  -2.801
REMARK INTRA:                   0.000
REMARK UNBOUND:                 0.000
REMARK SMILES CC(=O)[O-]
REMARK SMILES IDX 1 1 2 2 3 3 4 4
REMARK H PARENT
REMARK Flexibility Score: inf
ROOT
ATOM      1  C   UNL     1      -4.989  27.826  55.560  1.00  0.00     0.063 C 
ATOM      2  C   UNL     1      -3.816  26.992  55.171  1.00  0.00     0.038 C 
ATOM      3  O   UNL     1      -3.688  26.599  53.983  1.00  0.00    -0.550 OA
ATOM      4  O   UNL     1      -2.890  26.601  56.130  1.00  0.00    -0.550 OA
ENDROOT
TORSDOF 0
ENDMDL
MODEL 4
REMARK VINA RESULT:    -2.744      1.336      1.752
REMARK INTER + INTRA:          -2.744
REMARK INTER:                  -2.744
REMARK INTRA:                   0.000
REMARK UNBOUND:                 0.000
REMARK SMILES CC(=O)[O-]
REMARK SMILES IDX 1 1 2 2 3 3 4 4
REMARK H PARENT
REMARK Flexibility Score: inf
ROOT
ATOM      1  C   UNL     1      -2.809  28.722  56.285  1.00  0.00     0.063 C 
ATOM      2  C   UNL     1      -4.228  28.316  56.084  1.00  0.00     0.038 C 
ATOM      3  O   UNL     1      -5.137  28.824  56.791  1.00  0.00    -0.550 OA
ATOM      4  O   UNL     1      -4.547  27.335  55.152  1.00  0.00    -0.550 OA
ENDROOT
TORSDOF 0
ENDMDL
MODEL 5
REMARK VINA RESULT:    -2.742      1.535      1.895
REMARK INTER + INTRA:          -2.742
REMARK INTER:                  -2.742
REMARK INTRA:                   0.000
REMARK UNBOUND:                 0.000
REMARK SMILES CC(=O)[O-]
REMARK SMILES IDX 1 1 2 2 3 3 4 4
REMARK H PARENT
REMARK Flexibility Score: inf
ROOT
ATOM      1  C   UNL     1      -3.579  29.058  56.556  1.00  0.00     0.063 C 
ATOM      2  C   UNL     1      -4.162  27.834  55.937  1.00  0.00     0.038 C 
ATOM      3  O   UNL     1      -5.344  27.846  55.504  1.00  0.00    -0.550 OA
ATOM      4  O   UNL     1      -3.421  26.659  55.884  1.00  0.00    -0.550 OA
ENDROOT
TORSDOF 0
ENDMDL
MODEL 6
REMARK VINA RESULT:    -2.693      1.312      1.882
REMARK INTER + INTRA:          -2.693
REMARK INTER:                  -2.693
REMARK INTRA:                   0.000
REMARK UNBOUND:                 0.000
REMARK SMILES CC(=O)[O-]
REMARK SMILES IDX 1 1 2 2 3 3 4 4
REMARK H PARENT
REMARK Flexibility Score: inf
ROOT
ATOM      1  C   UNL     1      -2.763  28.426  56.244  1.00  0.00     0.063 C 
ATOM      2  C   UNL     1      -4.220  28.181  56.048  1.00  0.00     0.038 C 
ATOM      3  O   UNL     1      -4.613  27.392  55.150  1.00  0.00    -0.550 OA
ATOM      4  O   UNL     1      -5.151  28.865  56.820  1.00  0.00    -0.550 OA
ENDROOT
TORSDOF 0
ENDMDL
MODEL 7
REMARK VINA RESULT:    -2.689      1.547      2.328
REMARK INTER + INTRA:          -2.689
REMARK INTER:                  -2.689
REMARK INTRA:                   0.000
REMARK UNBOUND:                 0.000
REMARK SMILES CC(=O)[O-]
REMARK SMILES IDX 1 1 2 2 3 3 4 4
REMARK H PARENT
REMARK Flexibility Score: inf
ROOT
ATOM      1  C   UNL     1      -3.305  29.011  56.359  1.00  0.00     0.063 C 
ATOM      2  C   UNL     1      -4.003  27.773  55.909  1.00  0.00     0.038 C 
ATOM      3  O   UNL     1      -3.371  26.688  55.822  1.00  0.00    -0.550 OA
ATOM      4  O   UNL     1      -5.339  27.824  55.533  1.00  0.00    -0.550 OA
ENDROOT
TORSDOF 0
ENDMDL
MODEL 8
REMARK VINA RESULT:    -2.585      2.560      3.127
REMARK INTER + INTRA:          -2.585
REMARK INTER:                  -2.585
REMARK INTRA:                   0.000
REMARK UNBOUND:                 0.000
REMARK SMILES CC(=O)[O-]
REMARK SMILES IDX 1 1 2 2 3 3 4 4
REMARK H PARENT
REMARK Flexibility Score: inf
ROOT
ATOM      1  C   UNL     1      -4.194  31.247  58.548  1.00  0.00     0.063 C 
ATOM      2  C   UNL     1      -3.737  30.107  57.704  1.00  0.00     0.038 C 
ATOM      3  O   UNL     1      -4.578  29.396  57.095  1.00  0.00    -0.550 OA
ATOM      4  O   UNL     1      -2.386  29.792  57.630  1.00  0.00    -0.550 OA
ENDROOT
TORSDOF 0
ENDMDL
MODEL 9
REMARK VINA RESULT:    -2.538      2.008      2.582
REMARK INTER + INTRA:          -2.538
REMARK INTER:                  -2.538
REMARK INTRA:                   0.000
REMARK UNBOUND:                 0.000
REMARK SMILES CC(=O)[O-]
REMARK SMILES IDX 1 1 2 2 3 3 4 4
REMARK H PARENT
REMARK Flexibility Score: inf
ROOT
ATOM      1  C   UNL     1      -4.535  28.840  56.616  1.00  0.00     0.063 C 
ATOM      2  C   UNL     1      -3.629  29.801  57.306  1.00  0.00     0.038 C 
ATOM      3  O   UNL     1      -2.399  29.551  57.403  1.00  0.00    -0.550 OA
ATOM      4  O   UNL     1      -4.147  30.949  57.892  1.00  0.00    -0.550 OA
ENDROOT
TORSDOF 0
ENDMDL
