MODEL 1
REMARK VINA RESULT:    -3.645      0.000      0.000
REMARK INTER + INTRA:          -4.354
REMARK INTER:                  -4.284
REMARK INTRA:                  -0.070
REMARK UNBOUND:                -0.070
REMARK SMILES CCCCC(=O)[O-]
REMARK SMILES IDX 4 1 5 2 6 3 7 4 3 5 2 6 1 7
REMARK H PARENT
REMARK Flexibility Score: inf
ROOT
ATOM      1  C   UNL     1     135.932 133.612 114.271  1.00  0.00     0.053 C 
ENDROOT
BRANCH   1   2
ATOM      2  C   UNL     1     136.698 133.161 115.476  1.00  0.00     0.041 C 
ATOM      3  O   UNL     1     136.881 133.947 116.444  1.00  0.00    -0.550 OA
ATOM      4  O   UNL     1     137.238 131.882 115.519  1.00  0.00    -0.550 OA
ENDBRANCH   1   2
BRANCH   1   5
ATOM      5  C   UNL     1     134.476 133.112 114.272  1.00  0.00     0.006 C 
BRANCH   5   6
ATOM      6  C   UNL     1     133.534 133.936 115.167  1.00  0.00    -0.003 C 
ATOM      7  C   UNL     1     133.163 135.290 114.564  1.00  0.00     0.004 C 
ENDBRANCH   5   6
ENDBRANCH   1   5
TORSDOF 3
ENDMDL
MODEL 2
REMARK VINA RESULT:    -3.636      1.159      1.365
REMARK INTER + INTRA:          -4.344
REMARK INTER:                  -4.230
REMARK INTRA:                  -0.115
REMARK UNBOUND:                -0.070
REMARK SMILES CCCCC(=O)[O-]
REMARK SMILES IDX 4 1 5 2 6 3 7 4 3 5 2 6 1 7
REMARK H PARENT
REMARK Flexibility Score: inf
ROOT
ATOM      1  C   UNL     1     135.974 133.046 114.695  1.00  0.00     0.053 C 
ENDROOT
BRANCH   1   2
ATOM      2  C   UNL     1     136.534 134.180 115.498  1.00  0.00     0.041 C 
ATOM      3  O   UNL     1     136.970 135.212 114.923  1.00  0.00    -0.550 OA
ATOM      4  O   UNL     1     136.603 134.084 116.883  1.00  0.00    -0.550 OA
ENDBRANCH   1   2
BRANCH   1   5
ATOM      5  C   UNL     1     134.650 133.408 114.000  1.00  0.00     0.006 C 
BRANCH   5   6
ATOM      6  C   UNL     1     133.594 134.011 114.944  1.00  0.00    -0.003 C 
ATOM      7  C   UNL     1     132.827 135.178 114.322  1.00  0.00     0.004 C 
ENDBRANCH   5   6
ENDBRANCH   1   5
TORSDOF 3
ENDMDL
MODEL 3
REMARK VINA RESULT:    -3.627     10.014     10.919
REMARK INTER + INTRA:          -4.333
REMARK INTER:                  -4.220
REMARK INTRA:                  -0.113
REMARK UNBOUND:                -0.070
REMARK SMILES CCCCC(=O)[O-]
REMARK SMILES IDX 4 1 5 2 6 3 7 4 3 5 2 6 1 7
REMARK H PARENT
REMARK Flexibility Score: inf
ROOT
ATOM      1  C   UNL     1     140.386 143.284 114.615  1.00  0.00     0.053 C 
ENDROOT
BRANCH   1   2
ATOM      2  C   UNL     1     139.857 142.169 115.463  1.00  0.00     0.041 C 
ATOM      3  O   UNL     1     139.425 141.113 114.929  1.00  0.00    -0.550 OA
ATOM      4  O   UNL     1     139.813 142.306 116.845  1.00  0.00    -0.550 OA
ENDBRANCH   1   2
BRANCH   1   5
ATOM      5  C   UNL     1     141.685 142.906 113.880  1.00  0.00     0.006 C 
BRANCH   5   6
ATOM      6  C   UNL     1     142.838 142.504 114.818  1.00  0.00    -0.003 C 
ATOM      7  C   UNL     1     143.596 141.266 114.341  1.00  0.00     0.004 C 
ENDBRANCH   5   6
ENDBRANCH   1   5
TORSDOF 3
ENDMDL
MODEL 4
REMARK VINA RESULT:    -3.563     10.424     11.350
REMARK INTER + INTRA:          -4.258
REMARK INTER:                  -4.217
REMARK INTRA:                  -0.040
REMARK UNBOUND:                -0.070
REMARK SMILES CCCCC(=O)[O-]
REMARK SMILES IDX 4 1 5 2 6 3 7 4 3 5 2 6 1 7
REMARK H PARENT
REMARK Flexibility Score: inf
ROOT
ATOM      1  C   UNL     1     141.451 143.300 114.270  1.00  0.00     0.053 C 
ENDROOT
BRANCH   1   2
ATOM      2  C   UNL     1     140.184 142.835 114.920  1.00  0.00     0.041 C 
ATOM      3  O   UNL     1     139.519 143.617 115.650  1.00  0.00    -0.550 OA
ATOM      4  O   UNL     1     139.752 141.525 114.745  1.00  0.00    -0.550 OA
ENDBRANCH   1   2
BRANCH   1   5
ATOM      5  C   UNL     1     142.665 142.433 114.647  1.00  0.00     0.006 C 
BRANCH   5   6
ATOM      6  C   UNL     1     143.366 141.783 113.440  1.00  0.00    -0.003 C 
ATOM      7  C   UNL     1     144.361 140.693 113.838  1.00  0.00     0.004 C 
ENDBRANCH   5   6
ENDBRANCH   1   5
TORSDOF 3
ENDMDL
MODEL 5
REMARK VINA RESULT:    -3.515      2.425      3.615
REMARK INTER + INTRA:          -4.202
REMARK INTER:                  -4.090
REMARK INTRA:                  -0.111
REMARK UNBOUND:                -0.070
REMARK SMILES CCCCC(=O)[O-]
REMARK SMILES IDX 4 1 5 2 6 3 7 4 3 5 2 6 1 7
REMARK H PARENT
REMARK Flexibility Score: inf
ROOT
ATOM      1  C   UNL     1     133.466 135.739 115.016  1.00  0.00     0.053 C 
ENDROOT
BRANCH   1   2
ATOM      2  C   UNL     1     134.473 136.494 115.827  1.00  0.00     0.041 C 
ATOM      3  O   UNL     1     135.576 136.829 115.320  1.00  0.00    -0.550 OA
ATOM      4  O   UNL     1     134.206 136.804 117.155  1.00  0.00    -0.550 OA
ENDBRANCH   1   2
BRANCH   1   5
ATOM      5  C   UNL     1     133.610 134.213 115.161  1.00  0.00     0.006 C 
BRANCH   5   6
ATOM      6  C   UNL     1     134.477 133.562 114.069  1.00  0.00    -0.003 C 
ATOM      7  C   UNL     1     135.880 133.198 114.553  1.00  0.00     0.004 C 
ENDBRANCH   5   6
ENDBRANCH   1   5
TORSDOF 3
ENDMDL
MODEL 6
REMARK VINA RESULT:    -3.463     10.149     11.049
REMARK INTER + INTRA:          -4.140
REMARK INTER:                  -4.029
REMARK INTRA:                  -0.111
REMARK UNBOUND:                -0.070
REMARK SMILES CCCCC(=O)[O-]
REMARK SMILES IDX 4 1 5 2 6 3 7 4 3 5 2 6 1 7
REMARK H PARENT
REMARK Flexibility Score: inf
ROOT
ATOM      1  C   UNL     1     142.887 142.432 114.899  1.00  0.00     0.053 C 
ENDROOT
BRANCH   1   2
ATOM      2  C   UNL     1     141.704 142.842 114.078  1.00  0.00     0.041 C 
ATOM      3  O   UNL     1     141.662 142.581 112.846  1.00  0.00    -0.550 OA
ATOM      4  O   UNL     1     140.657 143.541 114.667  1.00  0.00    -0.550 OA
ENDBRANCH   1   2
BRANCH   1   5
ATOM      5  C   UNL     1     143.154 140.917 114.840  1.00  0.00     0.006 C 
BRANCH   5   6
ATOM      6  C   UNL     1     141.981 140.056 115.343  1.00  0.00    -0.003 C 
ATOM      7  C   UNL     1     141.814 140.096 116.861  1.00  0.00     0.004 C 
ENDBRANCH   5   6
ENDBRANCH   1   5
TORSDOF 3
ENDMDL
MODEL 7
REMARK VINA RESULT:    -3.449      2.298      2.992
REMARK INTER + INTRA:          -4.124
REMARK INTER:                  -4.006
REMARK INTRA:                  -0.118
REMARK UNBOUND:                -0.070
REMARK SMILES CCCCC(=O)[O-]
REMARK SMILES IDX 4 1 5 2 6 3 7 4 3 5 2 6 1 7
REMARK H PARENT
REMARK Flexibility Score: inf
ROOT
ATOM      1  C   UNL     1     133.420 134.201 114.768  1.00  0.00     0.053 C 
ENDROOT
BRANCH   1   2
ATOM      2  C   UNL     1     134.626 133.696 114.037  1.00  0.00     0.041 C 
ATOM      3  O   UNL     1     135.484 132.993 114.634  1.00  0.00    -0.550 OA
ATOM      4  O   UNL     1     134.820 134.028 112.701  1.00  0.00    -0.550 OA
ENDBRANCH   1   2
BRANCH   1   5
ATOM      5  C   UNL     1     133.330 135.737 114.775  1.00  0.00     0.006 C 
BRANCH   5   6
ATOM      6  C   UNL     1     134.577 136.433 115.350  1.00  0.00    -0.003 C 
ATOM      7  C   UNL     1     134.623 136.417 116.878  1.00  0.00     0.004 C 
ENDBRANCH   5   6
ENDBRANCH   1   5
TORSDOF 3
ENDMDL
MODEL 8
REMARK VINA RESULT:    -3.442      9.378     10.243
REMARK INTER + INTRA:          -4.115
REMARK INTER:                  -4.014
REMARK INTRA:                  -0.101
REMARK UNBOUND:                -0.070
REMARK SMILES CCCCC(=O)[O-]
REMARK SMILES IDX 4 1 5 2 6 3 7 4 3 5 2 6 1 7
REMARK H PARENT
REMARK Flexibility Score: inf
ROOT
ATOM      1  C   UNL     1     141.766 140.157 117.277  1.00  0.00     0.053 C 
ENDROOT
BRANCH   1   2
ATOM      2  C   UNL     1     140.797 140.894 118.149  1.00  0.00     0.041 C 
ATOM      3  O   UNL     1     140.723 142.151 118.099  1.00  0.00    -0.550 OA
ATOM      4  O   UNL     1     139.993 140.196 119.042  1.00  0.00    -0.550 OA
ENDBRANCH   1   2
BRANCH   1   5
ATOM      5  C   UNL     1     141.568 140.460 115.782  1.00  0.00     0.006 C 
BRANCH   5   6
ATOM      6  C   UNL     1     142.814 141.045 115.093  1.00  0.00    -0.003 C 
ATOM      7  C   UNL     1     142.869 142.571 115.145  1.00  0.00     0.004 C 
ENDBRANCH   5   6
ENDBRANCH   1   5
TORSDOF 3
ENDMDL
MODEL 9
REMARK VINA RESULT:    -3.431      9.515     10.278
REMARK INTER + INTRA:          -4.103
REMARK INTER:                  -3.990
REMARK INTRA:                  -0.113
REMARK UNBOUND:                -0.070
REMARK SMILES CCCCC(=O)[O-]
REMARK SMILES IDX 4 1 5 2 6 3 7 4 3 5 2 6 1 7
REMARK H PARENT
REMARK Flexibility Score: inf
ROOT
ATOM      1  C   UNL     1     142.968 140.729 115.002  1.00  0.00     0.053 C 
ENDROOT
BRANCH   1   2
ATOM      2  C   UNL     1     141.920 140.017 115.800  1.00  0.00     0.041 C 
ATOM      3  O   UNL     1     140.896 139.549 115.234  1.00  0.00    -0.550 OA
ATOM      4  O   UNL     1     142.057 139.896 117.178  1.00  0.00    -0.550 OA
ENDBRANCH   1   2
BRANCH   1   5
ATOM      5  C   UNL     1     142.886 142.259 115.144  1.00  0.00     0.006 C 
BRANCH   5   6
ATOM      6  C   UNL     1     141.664 142.885 114.447  1.00  0.00    -0.003 C 
ATOM      7  C   UNL     1     141.512 142.448 112.991  1.00  0.00     0.004 C 
ENDBRANCH   5   6
ENDBRANCH   1   5
TORSDOF 3
ENDMDL
