MODEL 1
REMARK VINA RESULT:    -3.001      0.000      0.000
REMARK INTER + INTRA:          -3.912
REMARK INTER:                  -3.528
REMARK INTRA:                  -0.384
REMARK UNBOUND:                -0.384
REMARK SMILES [NH3+][C@H](CO)C(=O)[O-]
REMARK SMILES IDX 3 1 2 2 1 3 5 7 6 8 7 9 4 10
REMARK H PARENT 1 4 1 5 1 6 4 11
REMARK Flexibility Score: inf
ROOT
ATOM      1  C   UNL     1     158.734 156.790 162.943  1.00  0.00     0.227 C 
ENDROOT
BRANCH   1   2
ATOM      2  C   UNL     1     159.917 157.580 162.355  1.00  0.00     0.253 C 
BRANCH   2   3
ATOM      3  N   UNL     1     160.260 157.098 161.010  1.00  0.00    -0.348 N 
ATOM      4  H   UNL     1     159.801 156.175 160.837  1.00  0.00     0.345 HD
ATOM      5  H   UNL     1     161.296 156.991 160.907  1.00  0.00     0.345 HD
ATOM      6  H   UNL     1     159.913 157.775 160.291  1.00  0.00     0.345 HD
ENDBRANCH   2   3
BRANCH   2   7
ATOM      7  C   UNL     1     159.591 159.050 162.319  1.00  0.00     0.102 C 
ATOM      8  O   UNL     1     159.290 159.611 161.232  1.00  0.00    -0.544 OA
ATOM      9  O   UNL     1     159.604 159.793 163.493  1.00  0.00    -0.544 OA
ENDBRANCH   2   7
ENDBRANCH   1   2
BRANCH   1  10
ATOM     10  O   UNL     1     157.562 157.560 162.920  1.00  0.00    -0.390 OA
ATOM     11  H   UNL     1     157.828 158.489 163.149  1.00  0.00     0.210 HD
ENDBRANCH   1  10
TORSDOF 4
ENDMDL
MODEL 2
REMARK VINA RESULT:    -2.904      2.271      3.184
REMARK INTER + INTRA:          -3.797
REMARK INTER:                  -3.394
REMARK INTRA:                  -0.403
REMARK UNBOUND:                -0.384
REMARK SMILES [NH3+][C@H](CO)C(=O)[O-]
REMARK SMILES IDX 3 1 2 2 1 3 5 7 6 8 7 9 4 10
REMARK H PARENT 1 4 1 5 1 6 4 11
REMARK Flexibility Score: inf
ROOT
ATOM      1  C   UNL     1     159.886 159.058 164.432  1.00  0.00     0.227 C 
ENDROOT
BRANCH   1   2
ATOM      2  C   UNL     1     159.387 157.602 164.377  1.00  0.00     0.253 C 
BRANCH   2   3
ATOM      3  N   UNL     1     158.513 157.298 165.518  1.00  0.00    -0.348 N 
ATOM      4  H   UNL     1     157.589 157.771 165.391  1.00  0.00     0.345 HD
ATOM      5  H   UNL     1     158.945 157.624 166.414  1.00  0.00     0.345 HD
ATOM      6  H   UNL     1     158.347 156.267 165.574  1.00  0.00     0.345 HD
ENDBRANCH   2   3
BRANCH   2   7
ATOM      7  C   UNL     1     158.664 157.352 163.080  1.00  0.00     0.102 C 
ATOM      8  O   UNL     1     157.419 157.532 162.997  1.00  0.00    -0.544 OA
ATOM      9  O   UNL     1     159.372 156.935 161.960  1.00  0.00    -0.544 OA
ENDBRANCH   2   7
ENDBRANCH   1   2
BRANCH   1  10
ATOM     10  O   UNL     1     159.463 159.771 163.301  1.00  0.00    -0.390 OA
ATOM     11  H   UNL     1     160.257 160.260 162.960  1.00  0.00     0.210 HD
ENDBRANCH   1  10
TORSDOF 4
ENDMDL
MODEL 3
REMARK VINA RESULT:    -2.870      1.973      2.589
REMARK INTER + INTRA:          -3.758
REMARK INTER:                  -3.362
REMARK INTRA:                  -0.395
REMARK UNBOUND:                -0.384
REMARK SMILES [NH3+][C@H](CO)C(=O)[O-]
REMARK SMILES IDX 3 1 2 2 1 3 5 7 6 8 7 9 4 10
REMARK H PARENT 1 4 1 5 1 6 4 11
REMARK Flexibility Score: inf
ROOT
ATOM      1  C   UNL     1     160.594 157.550 161.266  1.00  0.00     0.227 C 
ENDROOT
BRANCH   1   2
ATOM      2  C   UNL     1     159.896 158.436 162.313  1.00  0.00     0.253 C 
BRANCH   2   3
ATOM      3  N   UNL     1     159.243 159.590 161.681  1.00  0.00    -0.348 N 
ATOM      4  H   UNL     1     159.226 160.396 162.347  1.00  0.00     0.345 HD
ATOM      5  H   UNL     1     158.263 159.355 161.401  1.00  0.00     0.345 HD
ATOM      6  H   UNL     1     159.780 159.881 160.831  1.00  0.00     0.345 HD
ENDBRANCH   2   3
BRANCH   2   7
ATOM      7  C   UNL     1     158.892 157.626 163.091  1.00  0.00     0.102 C 
ATOM      8  O   UNL     1     157.669 157.671 162.795  1.00  0.00    -0.544 OA
ATOM      9  O   UNL     1     159.317 156.808 164.131  1.00  0.00    -0.544 OA
ENDBRANCH   2   7
ENDBRANCH   1   2
BRANCH   1  10
ATOM     10  O   UNL     1     159.907 156.339 161.102  1.00  0.00    -0.390 OA
ATOM     11  H   UNL     1     159.925 156.131 160.131  1.00  0.00     0.210 HD
ENDBRANCH   1  10
TORSDOF 4
ENDMDL
MODEL 4
REMARK VINA RESULT:    -2.863     14.822     15.541
REMARK INTER + INTRA:          -3.749
REMARK INTER:                  -3.544
REMARK INTRA:                  -0.205
REMARK UNBOUND:                -0.384
REMARK SMILES [NH3+][C@H](CO)C(=O)[O-]
REMARK SMILES IDX 3 1 2 2 1 3 5 7 6 8 7 9 4 10
REMARK H PARENT 1 4 1 5 1 6 4 11
REMARK Flexibility Score: inf
ROOT
ATOM      1  C   UNL     1     169.774 158.120 153.203  1.00  0.00     0.227 C 
ENDROOT
BRANCH   1   2
ATOM      2  C   UNL     1     171.282 157.826 153.109  1.00  0.00     0.253 C 
BRANCH   2   3
ATOM      3  N   UNL     1     171.591 156.480 153.612  1.00  0.00    -0.348 N 
ATOM      4  H   UNL     1     172.625 156.326 153.597  1.00  0.00     0.345 HD
ATOM      5  H   UNL     1     171.126 155.749 153.025  1.00  0.00     0.345 HD
ATOM      6  H   UNL     1     171.261 156.385 154.600  1.00  0.00     0.345 HD
ENDBRANCH   2   3
BRANCH   2   7
ATOM      7  C   UNL     1     171.750 157.975 151.686  1.00  0.00     0.102 C 
ATOM      8  O   UNL     1     172.981 157.974 151.415  1.00  0.00    -0.544 OA
ATOM      9  O   UNL     1     170.822 158.098 150.659  1.00  0.00    -0.544 OA
ENDBRANCH   2   7
ENDBRANCH   1   2
BRANCH   1  10
ATOM     10  O   UNL     1     169.023 156.973 152.909  1.00  0.00    -0.390 OA
ATOM     11  H   UNL     1     169.666 156.218 152.860  1.00  0.00     0.210 HD
ENDBRANCH   1  10
TORSDOF 4
ENDMDL
MODEL 5
REMARK VINA RESULT:    -2.837      9.511     10.318
REMARK INTER + INTRA:          -3.719
REMARK INTER:                  -3.503
REMARK INTRA:                  -0.216
REMARK UNBOUND:                -0.384
REMARK SMILES [NH3+][C@H](CO)C(=O)[O-]
REMARK SMILES IDX 3 1 2 2 1 3 5 7 6 8 7 9 4 10
REMARK H PARENT 1 4 1 5 1 6 4 11
REMARK Flexibility Score: inf
ROOT
ATOM      1  C   UNL     1     159.723 159.715 153.278  1.00  0.00     0.227 C 
ENDROOT
BRANCH   1   2
ATOM      2  C   UNL     1     159.840 158.193 153.077  1.00  0.00     0.253 C 
BRANCH   2   3
ATOM      3  N   UNL     1     158.616 157.506 153.509  1.00  0.00    -0.348 N 
ATOM      4  H   UNL     1     158.248 156.914 152.729  1.00  0.00     0.345 HD
ATOM      5  H   UNL     1     157.882 158.196 153.791  1.00  0.00     0.345 HD
ATOM      6  H   UNL     1     158.827 156.880 154.320  1.00  0.00     0.345 HD
ENDBRANCH   2   3
BRANCH   2   7
ATOM      7  C   UNL     1     160.135 157.884 151.633  1.00  0.00     0.102 C 
ATOM      8  O   UNL     1     160.535 156.738 151.294  1.00  0.00    -0.544 OA
ATOM      9  O   UNL     1     159.950 158.860 150.662  1.00  0.00    -0.544 OA
ENDBRANCH   2   7
ENDBRANCH   1   2
BRANCH   1  10
ATOM     10  O   UNL     1     158.431 160.160 152.966  1.00  0.00    -0.390 OA
ATOM     11  H   UNL     1     158.512 161.120 152.723  1.00  0.00     0.210 HD
ENDBRANCH   1  10
TORSDOF 4
ENDMDL
MODEL 6
REMARK VINA RESULT:    -2.815      2.931      3.701
REMARK INTER + INTRA:          -3.693
REMARK INTER:                  -3.295
REMARK INTRA:                  -0.397
REMARK UNBOUND:                -0.384
REMARK SMILES [NH3+][C@H](CO)C(=O)[O-]
REMARK SMILES IDX 3 1 2 2 1 3 5 7 6 8 7 9 4 10
REMARK H PARENT 1 4 1 5 1 6 4 11
REMARK Flexibility Score: inf
ROOT
ATOM      1  C   UNL     1     159.301 157.699 165.720  1.00  0.00     0.227 C 
ENDROOT
BRANCH   1   2
ATOM      2  C   UNL     1     158.426 156.578 165.130  1.00  0.00     0.253 C 
BRANCH   2   3
ATOM      3  N   UNL     1     157.063 156.627 165.674  1.00  0.00    -0.348 N 
ATOM      4  H   UNL     1     156.521 157.388 165.203  1.00  0.00     0.345 HD
ATOM      5  H   UNL     1     157.080 156.807 166.705  1.00  0.00     0.345 HD
ATOM      6  H   UNL     1     156.575 155.720 165.493  1.00  0.00     0.345 HD
ENDBRANCH   2   3
BRANCH   2   7
ATOM      7  C   UNL     1     158.396 156.683 163.628  1.00  0.00     0.102 C 
ATOM      8  O   UNL     1     159.154 155.964 162.922  1.00  0.00    -0.544 OA
ATOM      9  O   UNL     1     157.517 157.564 163.011  1.00  0.00    -0.544 OA
ENDBRANCH   2   7
ENDBRANCH   1   2
BRANCH   1  10
ATOM     10  O   UNL     1     159.899 158.453 164.701  1.00  0.00    -0.390 OA
ATOM     11  H   UNL     1     159.160 158.869 164.184  1.00  0.00     0.210 HD
ENDBRANCH   1  10
TORSDOF 4
ENDMDL
MODEL 7
REMARK VINA RESULT:    -2.813      2.381      2.875
REMARK INTER + INTRA:          -3.691
REMARK INTER:                  -3.464
REMARK INTRA:                  -0.228
REMARK UNBOUND:                -0.384
REMARK SMILES [NH3+][C@H](CO)C(=O)[O-]
REMARK SMILES IDX 3 1 2 2 1 3 5 7 6 8 7 9 4 10
REMARK H PARENT 1 4 1 5 1 6 4 11
REMARK Flexibility Score: inf
ROOT
ATOM      1  C   UNL     1     158.556 156.177 165.439  1.00  0.00     0.227 C 
ENDROOT
BRANCH   1   2
ATOM      2  C   UNL     1     159.333 157.084 164.467  1.00  0.00     0.253 C 
BRANCH   2   3
ATOM      3  N   UNL     1     160.740 156.671 164.368  1.00  0.00    -0.348 N 
ATOM      4  H   UNL     1     161.182 157.119 163.533  1.00  0.00     0.345 HD
ATOM      5  H   UNL     1     160.816 155.631 164.281  1.00  0.00     0.345 HD
ATOM      6  H   UNL     1     161.262 156.982 165.219  1.00  0.00     0.345 HD
ENDBRANCH   2   3
BRANCH   2   7
ATOM      7  C   UNL     1     158.683 157.064 163.109  1.00  0.00     0.102 C 
ATOM      8  O   UNL     1     159.291 156.582 162.117  1.00  0.00    -0.544 OA
ATOM      9  O   UNL     1     157.396 157.564 162.948  1.00  0.00    -0.544 OA
ENDBRANCH   2   7
ENDBRANCH   1   2
BRANCH   1  10
ATOM     10  O   UNL     1     157.338 156.768 165.805  1.00  0.00    -0.390 OA
ATOM     11  H   UNL     1     157.098 156.396 166.694  1.00  0.00     0.210 HD
ENDBRANCH   1  10
TORSDOF 4
ENDMDL
MODEL 8
REMARK VINA RESULT:    -2.812      1.785      2.524
REMARK INTER + INTRA:          -3.689
REMARK INTER:                  -3.286
REMARK INTRA:                  -0.404
REMARK UNBOUND:                -0.384
REMARK SMILES [NH3+][C@H](CO)C(=O)[O-]
REMARK SMILES IDX 3 1 2 2 1 3 5 7 6 8 7 9 4 10
REMARK H PARENT 1 4 1 5 1 6 4 11
REMARK Flexibility Score: inf
ROOT
ATOM      1  C   UNL     1     160.558 156.496 161.881  1.00  0.00     0.227 C 
ENDROOT
BRANCH   1   2
ATOM      2  C   UNL     1     159.887 156.709 163.250  1.00  0.00     0.253 C 
BRANCH   2   3
ATOM      3  N   UNL     1     160.886 156.975 164.294  1.00  0.00    -0.348 N 
ATOM      4  H   UNL     1     161.715 157.456 163.876  1.00  0.00     0.345 HD
ATOM      5  H   UNL     1     161.198 156.084 164.746  1.00  0.00     0.345 HD
ATOM      6  H   UNL     1     160.478 157.604 165.024  1.00  0.00     0.345 HD
ENDBRANCH   2   3
BRANCH   2   7
ATOM      7  C   UNL     1     158.896 157.839 163.171  1.00  0.00     0.102 C 
ATOM      8  O   UNL     1     159.262 159.026 163.383  1.00  0.00    -0.544 OA
ATOM      9  O   UNL     1     157.571 157.579 162.845  1.00  0.00    -0.544 OA
ENDBRANCH   2   7
ENDBRANCH   1   2
BRANCH   1  10
ATOM     10  O   UNL     1     160.061 157.406 160.937  1.00  0.00    -0.390 OA
ATOM     11  H   UNL     1     159.444 158.013 161.425  1.00  0.00     0.210 HD
ENDBRANCH   1  10
TORSDOF 4
ENDMDL
MODEL 9
REMARK VINA RESULT:    -2.694     15.215     15.837
REMARK INTER + INTRA:          -3.550
REMARK INTER:                  -3.150
REMARK INTRA:                  -0.400
REMARK UNBOUND:                -0.384
REMARK SMILES [NH3+][C@H](CO)C(=O)[O-]
REMARK SMILES IDX 3 1 2 2 1 3 5 7 6 8 7 9 4 10
REMARK H PARENT 1 4 1 5 1 6 4 11
REMARK Flexibility Score: inf
ROOT
ATOM      1  C   UNL     1     171.440 158.155 151.171  1.00  0.00     0.227 C 
ENDROOT
BRANCH   1   2
ATOM      2  C   UNL     1     170.811 158.072 152.574  1.00  0.00     0.253 C 
BRANCH   2   3
ATOM      3  N   UNL     1     169.495 157.421 152.527  1.00  0.00    -0.348 N 
ATOM      4  H   UNL     1     169.607 156.388 152.640  1.00  0.00     0.345 HD
ATOM      5  H   UNL     1     169.017 157.617 151.617  1.00  0.00     0.345 HD
ATOM      6  H   UNL     1     168.897 157.772 153.310  1.00  0.00     0.345 HD
ENDBRANCH   2   3
BRANCH   2   7
ATOM      7  C   UNL     1     171.730 157.332 153.510  1.00  0.00     0.102 C 
ATOM      8  O   UNL     1     172.516 157.963 154.266  1.00  0.00    -0.544 OA
ATOM      9  O   UNL     1     171.702 155.943 153.555  1.00  0.00    -0.544 OA
ENDBRANCH   2   7
ENDBRANCH   1   2
BRANCH   1  10
ATOM     10  O   UNL     1     172.706 157.553 151.157  1.00  0.00    -0.390 OA
ATOM     11  H   UNL     1     172.631 156.721 151.694  1.00  0.00     0.210 HD
ENDBRANCH   1  10
TORSDOF 4
ENDMDL
