MODEL 1
REMARK VINA RESULT:    -3.700      0.000      0.000
REMARK INTER + INTRA:          -5.892
REMARK INTER:                  -4.997
REMARK INTRA:                  -0.894
REMARK UNBOUND:                -0.894
REMARK SMILES O=c1c(-c2ccc(O)cc2)coc2c([C@H]3O[C@H](CO)[C@@H](O)[C@H](O)[C@H]3O)c(O)ccc12
REMARK SMILES IDX 3 1 11 2 12 3 13 4 30 5 2 6 1 7 29 8 28 9 26 10 14 11 4 12
REMARK SMILES IDX 5 13 6 14 7 15 10 16 9 17 8 18 15 20 24 21 16 22 22 23 17 24
REMARK SMILES IDX 20 25 25 26 23 28 18 30 19 31 21 33 27 35
REMARK H PARENT 8 19 25 27 23 29 19 32 21 34 27 36
REMARK Flexibility Score: inf
ROOT
ATOM      1  C   UNL     1    -129.534  40.392  16.378  1.00  0.00     0.065 A 
ATOM      2  C   UNL     1    -128.512  39.705  17.047  1.00  0.00     0.208 A 
ATOM      3  O   UNL     1    -127.337  39.496  16.467  1.00  0.00    -0.463 OA
ATOM      4  C   UNL     1    -127.048  39.910  15.235  1.00  0.00     0.147 A 
ATOM      5  C   UNL     1    -128.022  40.613  14.487  1.00  0.00     0.066 A 
ATOM      6  C   UNL     1    -129.281  40.845  15.069  1.00  0.00     0.200 A 
ATOM      7  O   UNL     1    -130.185  41.440  14.417  1.00  0.00    -0.288 OA
ATOM      8  C   UNL     1    -127.713  41.062  13.195  1.00  0.00     0.020 A 
ATOM      9  C   UNL     1    -126.448  40.832  12.657  1.00  0.00     0.047 A 
ATOM     10  C   UNL     1    -125.474  40.143  13.389  1.00  0.00     0.125 A 
ATOM     11  C   UNL     1    -125.772  39.650  14.682  1.00  0.00     0.069 A 
ENDROOT
BRANCH   1  12
ATOM     12  C   UNL     1    -130.838  40.619  17.050  1.00  0.00    -0.011 A 
ATOM     13  C   UNL     1    -131.547  39.539  17.605  1.00  0.00     0.013 A 
ATOM     14  C   UNL     1    -132.771  39.751  18.247  1.00  0.00     0.047 A 
ATOM     15  C   UNL     1    -133.299  41.041  18.348  1.00  0.00     0.115 A 
ATOM     16  C   UNL     1    -131.372  41.916  17.161  1.00  0.00     0.013 A 
ATOM     17  C   UNL     1    -132.595  42.124  17.803  1.00  0.00     0.047 A 
BRANCH  15  18
ATOM     18  O   UNL     1    -134.520  41.237  18.990  1.00  0.00    -0.508 OA
ATOM     19  H   UNL     1    -135.400  41.065  18.517  1.00  0.00     0.293 HD
ENDBRANCH  15  18
ENDBRANCH   1  12
BRANCH  11  20
ATOM     20  C   UNL     1    -124.724  38.915  15.511  1.00  0.00     0.188 C 
ATOM     21  C   UNL     1    -123.891  39.920  16.332  1.00  0.00     0.179 C 
ATOM     22  O   UNL     1    -123.902  38.122  14.667  1.00  0.00    -0.362 OA
ATOM     23  C   UNL     1    -122.847  39.169  17.182  1.00  0.00     0.177 C 
ATOM     24  C   UNL     1    -122.984  37.313  15.393  1.00  0.00     0.176 C 
ATOM     25  C   UNL     1    -122.066  38.139  16.338  1.00  0.00     0.177 C 
BRANCH  21  26
ATOM     26  O   UNL     1    -123.258  40.839  15.479  1.00  0.00    -0.387 OA
ATOM     27  H   UNL     1    -123.809  40.894  14.654  1.00  0.00     0.211 HD
ENDBRANCH  21  26
BRANCH  23  28
ATOM     28  O   UNL     1    -123.480  38.514  18.251  1.00  0.00    -0.387 OA
ATOM     29  H   UNL     1    -124.208  39.111  18.568  1.00  0.00     0.211 HD
ENDBRANCH  23  28
BRANCH  24  30
ATOM     30  C   UNL     1    -123.667  36.115  16.093  1.00  0.00     0.191 C 
BRANCH  30  31
ATOM     31  O   UNL     1    -122.937  35.725  17.225  1.00  0.00    -0.394 OA
ATOM     32  H   UNL     1    -121.994  35.616  16.931  1.00  0.00     0.210 HD
ENDBRANCH  30  31
ENDBRANCH  24  30
BRANCH  25  33
ATOM     33  O   UNL     1    -121.041  38.775  15.613  1.00  0.00    -0.388 OA
ATOM     34  H   UNL     1    -121.124  38.514  14.660  1.00  0.00     0.211 HD
ENDBRANCH  25  33
ENDBRANCH  11  20
BRANCH  10  35
ATOM     35  O   UNL     1    -124.209  39.956  12.831  1.00  0.00    -0.507 OA
ATOM     36  H   UNL     1    -123.650  39.137  13.035  1.00  0.00     0.293 HD
ENDBRANCH  10  35
TORSDOF 9
ENDMDL
MODEL 2
REMARK VINA RESULT:    -3.688      1.717      2.613
REMARK INTER + INTRA:          -5.876
REMARK INTER:                  -4.776
REMARK INTRA:                  -1.100
REMARK UNBOUND:                -0.894
REMARK SMILES O=c1c(-c2ccc(O)cc2)coc2c([C@H]3O[C@H](CO)[C@@H](O)[C@H](O)[C@H]3O)c(O)ccc12
REMARK SMILES IDX 3 1 11 2 12 3 13 4 30 5 2 6 1 7 29 8 28 9 26 10 14 11 4 12
REMARK SMILES IDX 5 13 6 14 7 15 10 16 9 17 8 18 15 20 24 21 16 22 22 23 17 24
REMARK SMILES IDX 20 25 25 26 23 28 18 30 19 31 21 33 27 35
REMARK H PARENT 8 19 25 27 23 29 19 32 21 34 27 36
REMARK Flexibility Score: inf
ROOT
ATOM      1  C   UNL     1    -130.589  40.104  16.420  1.00  0.00     0.065 A 
ATOM      2  C   UNL     1    -129.310  40.542  16.789  1.00  0.00     0.208 A 
ATOM      3  O   UNL     1    -128.243  40.222  16.067  1.00  0.00    -0.463 OA
ATOM      4  C   UNL     1    -128.306  39.478  14.965  1.00  0.00     0.147 A 
ATOM      5  C   UNL     1    -129.559  38.993  14.518  1.00  0.00     0.066 A 
ATOM      6  C   UNL     1    -130.708  39.307  15.265  1.00  0.00     0.200 A 
ATOM      7  O   UNL     1    -131.837  38.864  14.914  1.00  0.00    -0.288 OA
ATOM      8  C   UNL     1    -129.626  38.221  13.350  1.00  0.00     0.020 A 
ATOM      9  C   UNL     1    -128.469  37.946  12.623  1.00  0.00     0.047 A 
ATOM     10  C   UNL     1    -127.225  38.424  13.052  1.00  0.00     0.125 A 
ATOM     11  C   UNL     1    -127.125  39.176  14.246  1.00  0.00     0.069 A 
ENDROOT
BRANCH   1  12
ATOM     12  C   UNL     1    -131.767  40.480  17.241  1.00  0.00    -0.011 A 
ATOM     13  C   UNL     1    -132.318  41.770  17.142  1.00  0.00     0.013 A 
ATOM     14  C   UNL     1    -133.433  42.123  17.908  1.00  0.00     0.047 A 
ATOM     15  C   UNL     1    -134.014  41.194  18.776  1.00  0.00     0.115 A 
ATOM     16  C   UNL     1    -132.361  39.547  18.111  1.00  0.00     0.013 A 
ATOM     17  C   UNL     1    -133.476  39.904  18.875  1.00  0.00     0.047 A 
BRANCH  15  18
ATOM     18  O   UNL     1    -135.125  41.561  19.533  1.00  0.00    -0.508 OA
ATOM     19  H   UNL     1    -136.045  41.644  19.116  1.00  0.00     0.293 HD
ENDBRANCH  15  18
ENDBRANCH   1  12
BRANCH  11  20
ATOM     20  C   UNL     1    -125.786  39.728  14.725  1.00  0.00     0.188 C 
ATOM     21  C   UNL     1    -125.477  41.065  14.021  1.00  0.00     0.179 C 
ATOM     22  O   UNL     1    -124.758  38.773  14.508  1.00  0.00    -0.362 OA
ATOM     23  C   UNL     1    -124.132  41.626  14.524  1.00  0.00     0.177 C 
ATOM     24  C   UNL     1    -123.506  39.177  15.049  1.00  0.00     0.176 C 
ATOM     25  C   UNL     1    -123.025  40.550  14.499  1.00  0.00     0.177 C 
BRANCH  21  26
ATOM     26  O   UNL     1    -125.441  40.884  12.628  1.00  0.00    -0.387 OA
ATOM     27  H   UNL     1    -125.970  41.624  12.228  1.00  0.00     0.211 HD
ENDBRANCH  21  26
BRANCH  23  28
ATOM     28  O   UNL     1    -124.277  42.119  15.832  1.00  0.00    -0.387 OA
ATOM     29  H   UNL     1    -124.901  42.890  15.784  1.00  0.00     0.211 HD
ENDBRANCH  23  28
BRANCH  24  30
ATOM     30  C   UNL     1    -123.464  39.084  16.591  1.00  0.00     0.191 C 
BRANCH  30  31
ATOM     31  O   UNL     1    -122.466  39.923  17.108  1.00  0.00    -0.394 OA
ATOM     32  H   UNL     1    -122.662  40.036  18.075  1.00  0.00     0.210 HD
ENDBRANCH  30  31
ENDBRANCH  24  30
BRANCH  25  33
ATOM     33  O   UNL     1    -122.501  40.417  13.200  1.00  0.00    -0.388 OA
ATOM     34  H   UNL     1    -123.243  40.523  12.552  1.00  0.00     0.211 HD
ENDBRANCH  25  33
ENDBRANCH  11  20
BRANCH  10  35
ATOM     35  O   UNL     1    -126.092  38.154  12.284  1.00  0.00    -0.507 OA
ATOM     36  H   UNL     1    -125.965  37.266  11.812  1.00  0.00     0.293 HD
ENDBRANCH  10  35
TORSDOF 9
ENDMDL
MODEL 3
REMARK VINA RESULT:    -3.666      2.556      8.431
REMARK INTER + INTRA:          -5.846
REMARK INTER:                  -4.668
REMARK INTRA:                  -1.178
REMARK UNBOUND:                -0.894
REMARK SMILES O=c1c(-c2ccc(O)cc2)coc2c([C@H]3O[C@H](CO)[C@@H](O)[C@H](O)[C@H]3O)c(O)ccc12
REMARK SMILES IDX 3 1 11 2 12 3 13 4 30 5 2 6 1 7 29 8 28 9 26 10 14 11 4 12
REMARK SMILES IDX 5 13 6 14 7 15 10 16 9 17 8 18 15 20 24 21 16 22 22 23 17 24
REMARK SMILES IDX 20 25 25 26 23 28 18 30 19 31 21 33 27 35
REMARK H PARENT 8 19 25 27 23 29 19 32 21 34 27 36
REMARK Flexibility Score: inf
ROOT
ATOM      1  C   UNL     1    -124.235  40.029  15.224  1.00  0.00     0.065 A 
ATOM      2  C   UNL     1    -125.486  40.598  14.951  1.00  0.00     0.208 A 
ATOM      3  O   UNL     1    -126.587  40.141  15.536  1.00  0.00    -0.463 OA
ATOM      4  C   UNL     1    -126.586  39.131  16.402  1.00  0.00     0.147 A 
ATOM      5  C   UNL     1    -125.365  38.498  16.737  1.00  0.00     0.066 A 
ATOM      6  C   UNL     1    -124.181  38.952  16.129  1.00  0.00     0.200 A 
ATOM      7  O   UNL     1    -123.079  38.388  16.379  1.00  0.00    -0.288 OA
ATOM      8  C   UNL     1    -125.363  37.442  17.661  1.00  0.00     0.020 A 
ATOM      9  C   UNL     1    -126.552  37.032  18.260  1.00  0.00     0.047 A 
ATOM     10  C   UNL     1    -127.765  37.654  17.941  1.00  0.00     0.125 A 
ATOM     11  C   UNL     1    -127.800  38.698  16.986  1.00  0.00     0.069 A 
ENDROOT
BRANCH   1  12
ATOM     12  C   UNL     1    -123.018  40.561  14.561  1.00  0.00    -0.011 A 
ATOM     13  C   UNL     1    -122.623  40.070  13.305  1.00  0.00     0.013 A 
ATOM     14  C   UNL     1    -121.481  40.577  12.674  1.00  0.00     0.047 A 
ATOM     15  C   UNL     1    -120.726  41.581  13.286  1.00  0.00     0.115 A 
ATOM     16  C   UNL     1    -122.258  41.577  15.169  1.00  0.00     0.013 A 
ATOM     17  C   UNL     1    -121.118  42.081  14.536  1.00  0.00     0.047 A 
BRANCH  15  18
ATOM     18  O   UNL     1    -119.592  42.076  12.647  1.00  0.00    -0.508 OA
ATOM     19  H   UNL     1    -118.753  41.515  12.549  1.00  0.00     0.293 HD
ENDBRANCH  15  18
ENDBRANCH   1  12
BRANCH  11  20
ATOM     20  C   UNL     1    -129.103  39.408  16.636  1.00  0.00     0.188 C 
ATOM     21  C   UNL     1    -129.395  40.525  17.659  1.00  0.00     0.179 C 
ATOM     22  O   UNL     1    -130.168  38.471  16.568  1.00  0.00    -0.362 OA
ATOM     23  C   UNL     1    -130.703  41.251  17.288  1.00  0.00     0.177 C 
ATOM     24  C   UNL     1    -131.387  39.052  16.121  1.00  0.00     0.176 C 
ATOM     25  C   UNL     1    -131.843  40.250  17.001  1.00  0.00     0.177 C 
BRANCH  21  26
ATOM     26  O   UNL     1    -129.484  39.986  18.954  1.00  0.00    -0.387 OA
ATOM     27  H   UNL     1    -130.243  39.346  18.948  1.00  0.00     0.211 HD
ENDBRANCH  21  26
BRANCH  23  28
ATOM     28  O   UNL     1    -130.498  42.063  16.160  1.00  0.00    -0.387 OA
ATOM     29  H   UNL     1    -129.517  42.193  16.070  1.00  0.00     0.211 HD
ENDBRANCH  23  28
BRANCH  24  30
ATOM     30  C   UNL     1    -131.379  39.368  14.608  1.00  0.00     0.191 C 
BRANCH  30  31
ATOM     31  O   UNL     1    -132.262  40.419  14.321  1.00  0.00    -0.394 OA
ATOM     32  H   UNL     1    -132.576  40.279  13.389  1.00  0.00     0.210 HD
ENDBRANCH  30  31
ENDBRANCH  24  30
BRANCH  25  33
ATOM     33  O   UNL     1    -132.416  39.801  18.205  1.00  0.00    -0.388 OA
ATOM     34  H   UNL     1    -133.217  39.260  17.986  1.00  0.00     0.211 HD
ENDBRANCH  25  33
ENDBRANCH  11  20
BRANCH  10  35
ATOM     35  O   UNL     1    -128.932  37.236  18.581  1.00  0.00    -0.507 OA
ATOM     36  H   UNL     1    -129.020  37.243  19.590  1.00  0.00     0.293 HD
ENDBRANCH  10  35
TORSDOF 9
ENDMDL
MODEL 4
REMARK VINA RESULT:    -3.548     10.555     13.036
REMARK INTER + INTRA:          -5.686
REMARK INTER:                  -4.524
REMARK INTRA:                  -1.162
REMARK UNBOUND:                -0.894
REMARK SMILES O=c1c(-c2ccc(O)cc2)coc2c([C@H]3O[C@H](CO)[C@@H](O)[C@H](O)[C@H]3O)c(O)ccc12
REMARK SMILES IDX 3 1 11 2 12 3 13 4 30 5 2 6 1 7 29 8 28 9 26 10 14 11 4 12
REMARK SMILES IDX 5 13 6 14 7 15 10 16 9 17 8 18 15 20 24 21 16 22 22 23 17 24
REMARK SMILES IDX 20 25 25 26 23 28 18 30 19 31 21 33 27 35
REMARK H PARENT 8 19 25 27 23 29 19 32 21 34 27 36
REMARK Flexibility Score: inf
ROOT
ATOM      1  C   UNL     1    -126.052  38.571   4.364  1.00  0.00     0.065 A 
ATOM      2  C   UNL     1    -125.002  39.411   4.760  1.00  0.00     0.208 A 
ATOM      3  O   UNL     1    -123.790  39.284   4.232  1.00  0.00    -0.463 OA
ATOM      4  C   UNL     1    -123.489  38.372   3.310  1.00  0.00     0.147 A 
ATOM      5  C   UNL     1    -124.490  37.484   2.851  1.00  0.00     0.066 A 
ATOM      6  C   UNL     1    -125.783  37.585   3.396  1.00  0.00     0.200 A 
ATOM      7  O   UNL     1    -126.691  36.786   3.034  1.00  0.00    -0.288 OA
ATOM      8  C   UNL     1    -124.175  36.532   1.870  1.00  0.00     0.020 A 
ATOM      9  C   UNL     1    -122.889  36.473   1.337  1.00  0.00     0.047 A 
ATOM     10  C   UNL     1    -121.891  37.351   1.779  1.00  0.00     0.125 A 
ATOM     11  C   UNL     1    -122.174  38.297   2.793  1.00  0.00     0.069 A 
ENDROOT
BRANCH   1  12
ATOM     12  C   UNL     1    -127.399  38.736   4.965  1.00  0.00    -0.011 A 
ATOM     13  C   UNL     1    -127.738  38.049   6.144  1.00  0.00     0.013 A 
ATOM     14  C   UNL     1    -129.003  38.209   6.717  1.00  0.00     0.047 A 
ATOM     15  C   UNL     1    -129.942  39.060   6.126  1.00  0.00     0.115 A 
ATOM     16  C   UNL     1    -128.345  39.596   4.378  1.00  0.00     0.013 A 
ATOM     17  C   UNL     1    -129.609  39.754   4.955  1.00  0.00     0.047 A 
BRANCH  15  18
ATOM     18  O   UNL     1    -131.198  39.209   6.709  1.00  0.00    -0.508 OA
ATOM     19  H   UNL     1    -131.709  38.415   7.077  1.00  0.00     0.293 HD
ENDBRANCH  15  18
ENDBRANCH   1  12
BRANCH  11  20
ATOM     20  C   UNL     1    -121.113  39.280   3.278  1.00  0.00     0.188 C 
ATOM     21  C   UNL     1    -121.151  40.568   2.431  1.00  0.00     0.179 C 
ATOM     22  O   UNL     1    -119.831  38.670   3.244  1.00  0.00    -0.362 OA
ATOM     23  C   UNL     1    -120.089  41.564   2.939  1.00  0.00     0.177 C 
ATOM     24  C   UNL     1    -118.814  39.492   3.804  1.00  0.00     0.176 C 
ATOM     25  C   UNL     1    -118.715  40.883   3.116  1.00  0.00     0.177 C 
BRANCH  21  26
ATOM     26  O   UNL     1    -120.930  40.266   1.076  1.00  0.00    -0.387 OA
ATOM     27  H   UNL     1    -120.145  40.800   0.786  1.00  0.00     0.211 HD
ENDBRANCH  21  26
BRANCH  23  28
ATOM     28  O   UNL     1    -120.498  42.118   4.163  1.00  0.00    -0.387 OA
ATOM     29  H   UNL     1    -121.044  41.429   4.626  1.00  0.00     0.211 HD
ENDBRANCH  23  28
BRANCH  24  30
ATOM     30  C   UNL     1    -118.893  39.574   5.345  1.00  0.00     0.191 C 
BRANCH  30  31
ATOM     31  O   UNL     1    -118.336  40.777   5.804  1.00  0.00    -0.394 OA
ATOM     32  H   UNL     1    -117.500  40.918   5.286  1.00  0.00     0.210 HD
ENDBRANCH  30  31
ENDBRANCH  24  30
BRANCH  25  33
ATOM     33  O   UNL     1    -118.053  40.786   1.878  1.00  0.00    -0.388 OA
ATOM     34  H   UNL     1    -117.674  39.873   1.797  1.00  0.00     0.211 HD
ENDBRANCH  25  33
ENDBRANCH  11  20
BRANCH  10  35
ATOM     35  O   UNL     1    -120.623  37.283   1.203  1.00  0.00    -0.507 OA
ATOM     36  H   UNL     1    -120.222  36.405   0.894  1.00  0.00     0.293 HD
ENDBRANCH  10  35
TORSDOF 9
ENDMDL
MODEL 5
REMARK VINA RESULT:    -3.511      2.182      7.723
REMARK INTER + INTRA:          -5.637
REMARK INTER:                  -5.056
REMARK INTRA:                  -0.581
REMARK UNBOUND:                -0.894
REMARK SMILES O=c1c(-c2ccc(O)cc2)coc2c([C@H]3O[C@H](CO)[C@@H](O)[C@H](O)[C@H]3O)c(O)ccc12
REMARK SMILES IDX 3 1 11 2 12 3 13 4 30 5 2 6 1 7 29 8 28 9 26 10 14 11 4 12
REMARK SMILES IDX 5 13 6 14 7 15 10 16 9 17 8 18 15 20 24 21 16 22 22 23 17 24
REMARK SMILES IDX 20 25 25 26 23 28 18 30 19 31 21 33 27 35
REMARK H PARENT 8 19 25 27 23 29 19 32 21 34 27 36
REMARK Flexibility Score: inf
ROOT
ATOM      1  C   UNL     1    -125.607  37.693  17.160  1.00  0.00     0.065 A 
ATOM      2  C   UNL     1    -126.951  37.817  17.536  1.00  0.00     0.208 A 
ATOM      3  O   UNL     1    -127.768  38.640  16.889  1.00  0.00    -0.463 OA
ATOM      4  C   UNL     1    -127.380  39.393  15.861  1.00  0.00     0.147 A 
ATOM      5  C   UNL     1    -126.039  39.329  15.415  1.00  0.00     0.066 A 
ATOM      6  C   UNL     1    -125.145  38.474  16.083  1.00  0.00     0.200 A 
ATOM      7  O   UNL     1    -123.933  38.418  15.732  1.00  0.00    -0.288 OA
ATOM      8  C   UNL     1    -125.635  40.112  14.323  1.00  0.00     0.020 A 
ATOM      9  C   UNL     1    -126.552  40.934  13.671  1.00  0.00     0.047 A 
ATOM     10  C   UNL     1    -127.883  41.001  14.101  1.00  0.00     0.125 A 
ATOM     11  C   UNL     1    -128.308  40.248  15.221  1.00  0.00     0.069 A 
ENDROOT
BRANCH   1  12
ATOM     12  C   UNL     1    -124.715  36.762  17.895  1.00  0.00    -0.011 A 
ATOM     13  C   UNL     1    -123.984  37.212  19.009  1.00  0.00     0.013 A 
ATOM     14  C   UNL     1    -123.150  36.334  19.709  1.00  0.00     0.047 A 
ATOM     15  C   UNL     1    -123.040  34.998  19.310  1.00  0.00     0.115 A 
ATOM     16  C   UNL     1    -124.606  35.415  17.503  1.00  0.00     0.013 A 
ATOM     17  C   UNL     1    -123.772  34.540  18.206  1.00  0.00     0.047 A 
BRANCH  15  18
ATOM     18  O   UNL     1    -122.205  34.136  20.017  1.00  0.00    -0.508 OA
ATOM     19  H   UNL     1    -122.034  33.188  19.702  1.00  0.00     0.293 HD
ENDBRANCH  15  18
ENDBRANCH   1  12
BRANCH  11  20
ATOM     20  C   UNL     1    -129.757  40.284  15.697  1.00  0.00     0.188 C 
ATOM     21  C   UNL     1    -129.929  41.342  16.806  1.00  0.00     0.179 C 
ATOM     22  O   UNL     1    -130.159  38.996  16.136  1.00  0.00    -0.362 OA
ATOM     23  C   UNL     1    -131.398  41.387  17.268  1.00  0.00     0.177 C 
ATOM     24  C   UNL     1    -131.540  38.934  16.474  1.00  0.00     0.176 C 
ATOM     25  C   UNL     1    -131.943  39.972  17.560  1.00  0.00     0.177 C 
BRANCH  21  26
ATOM     26  O   UNL     1    -129.084  41.051  17.890  1.00  0.00    -0.387 OA
ATOM     27  H   UNL     1    -129.620  40.526  18.541  1.00  0.00     0.211 HD
ENDBRANCH  21  26
BRANCH  23  28
ATOM     28  O   UNL     1    -132.193  41.999  16.284  1.00  0.00    -0.387 OA
ATOM     29  H   UNL     1    -131.713  41.898  15.420  1.00  0.00     0.211 HD
ENDBRANCH  23  28
BRANCH  24  30
ATOM     30  C   UNL     1    -132.460  38.955  15.233  1.00  0.00     0.191 C 
BRANCH  30  31
ATOM     31  O   UNL     1    -133.714  39.494  15.559  1.00  0.00    -0.394 OA
ATOM     32  H   UNL     1    -133.951  40.122  14.827  1.00  0.00     0.210 HD
ENDBRANCH  30  31
ENDBRANCH  24  30
BRANCH  25  33
ATOM     33  O   UNL     1    -131.538  39.546  18.839  1.00  0.00    -0.388 OA
ATOM     34  H   UNL     1    -132.181  38.860  19.157  1.00  0.00     0.211 HD
ENDBRANCH  25  33
ENDBRANCH  11  20
BRANCH  10  35
ATOM     35  O   UNL     1    -128.781  41.813  13.407  1.00  0.00    -0.507 OA
ATOM     36  H   UNL     1    -128.467  42.577  12.820  1.00  0.00     0.293 HD
ENDBRANCH  10  35
TORSDOF 9
ENDMDL
MODEL 6
REMARK VINA RESULT:    -3.492      9.682     14.134
REMARK INTER + INTRA:          -5.611
REMARK INTER:                  -4.429
REMARK INTRA:                  -1.182
REMARK UNBOUND:                -0.894
REMARK SMILES O=c1c(-c2ccc(O)cc2)coc2c([C@H]3O[C@H](CO)[C@@H](O)[C@H](O)[C@H]3O)c(O)ccc12
REMARK SMILES IDX 3 1 11 2 12 3 13 4 30 5 2 6 1 7 29 8 28 9 26 10 14 11 4 12
REMARK SMILES IDX 5 13 6 14 7 15 10 16 9 17 8 18 15 20 24 21 16 22 22 23 17 24
REMARK SMILES IDX 20 25 25 26 23 28 18 30 19 31 21 33 27 35
REMARK H PARENT 8 19 25 27 23 29 19 32 21 34 27 36
REMARK Flexibility Score: inf
ROOT
ATOM      1  C   UNL     1    -122.769  39.632   3.948  1.00  0.00     0.065 A 
ATOM      2  C   UNL     1    -123.748  40.287   4.706  1.00  0.00     0.208 A 
ATOM      3  O   UNL     1    -124.993  39.828   4.756  1.00  0.00    -0.463 OA
ATOM      4  C   UNL     1    -125.395  38.739   4.104  1.00  0.00     0.147 A 
ATOM      5  C   UNL     1    -124.470  38.015   3.315  1.00  0.00     0.066 A 
ATOM      6  C   UNL     1    -123.145  38.478   3.234  1.00  0.00     0.200 A 
ATOM      7  O   UNL     1    -122.302  37.876   2.511  1.00  0.00    -0.288 OA
ATOM      8  C   UNL     1    -124.891  36.860   2.639  1.00  0.00     0.020 A 
ATOM      9  C   UNL     1    -126.207  36.418   2.758  1.00  0.00     0.047 A 
ATOM     10  C   UNL     1    -127.130  37.123   3.541  1.00  0.00     0.125 A 
ATOM     11  C   UNL     1    -126.740  38.310   4.205  1.00  0.00     0.069 A 
ENDROOT
BRANCH   1  12
ATOM     12  C   UNL     1    -121.382  40.161   3.912  1.00  0.00    -0.011 A 
ATOM     13  C   UNL     1    -121.002  41.085   2.923  1.00  0.00     0.013 A 
ATOM     14  C   UNL     1    -119.699  41.593   2.893  1.00  0.00     0.047 A 
ATOM     15  C   UNL     1    -118.764  41.190   3.851  1.00  0.00     0.115 A 
ATOM     16  C   UNL     1    -120.439  39.765   4.878  1.00  0.00     0.013 A 
ATOM     17  C   UNL     1    -119.138  40.275   4.845  1.00  0.00     0.047 A 
BRANCH  15  18
ATOM     18  O   UNL     1    -117.470  41.703   3.809  1.00  0.00    -0.508 OA
ATOM     19  H   UNL     1    -116.658  41.098   3.858  1.00  0.00     0.293 HD
ENDBRANCH  15  18
ENDBRANCH   1  12
BRANCH  11  20
ATOM     20  C   UNL     1    -127.718  39.085   5.081  1.00  0.00     0.188 C 
ATOM     21  C   UNL     1    -127.722  38.513   6.513  1.00  0.00     0.179 C 
ATOM     22  O   UNL     1    -129.015  39.061   4.505  1.00  0.00    -0.362 OA
ATOM     23  C   UNL     1    -128.697  39.313   7.398  1.00  0.00     0.177 C 
ATOM     24  C   UNL     1    -129.947  39.873   5.209  1.00  0.00     0.176 C 
ATOM     25  C   UNL     1    -130.069  39.489   6.711  1.00  0.00     0.177 C 
BRANCH  21  26
ATOM     26  O   UNL     1    -128.081  37.155   6.493  1.00  0.00    -0.387 OA
ATOM     27  H   UNL     1    -128.282  36.896   7.431  1.00  0.00     0.211 HD
ENDBRANCH  21  26
BRANCH  23  28
ATOM     28  O   UNL     1    -128.155  40.576   7.690  1.00  0.00    -0.387 OA
ATOM     29  H   UNL     1    -128.722  40.978   8.400  1.00  0.00     0.211 HD
ENDBRANCH  23  28
BRANCH  24  30
ATOM     30  C   UNL     1    -129.717  41.384   4.977  1.00  0.00     0.191 C 
BRANCH  30  31
ATOM     31  O   UNL     1    -130.167  42.124   6.081  1.00  0.00    -0.394 OA
ATOM     32  H   UNL     1    -130.514  41.468   6.741  1.00  0.00     0.210 HD
ENDBRANCH  30  31
ENDBRANCH  24  30
BRANCH  25  33
ATOM     33  O   UNL     1    -130.850  38.330   6.873  1.00  0.00    -0.388 OA
ATOM     34  H   UNL     1    -130.535  37.852   7.683  1.00  0.00     0.211 HD
ENDBRANCH  25  33
ENDBRANCH  11  20
BRANCH  10  35
ATOM     35  O   UNL     1    -128.431  36.635   3.661  1.00  0.00    -0.507 OA
ATOM     36  H   UNL     1    -128.745  35.817   3.151  1.00  0.00     0.293 HD
ENDBRANCH  10  35
TORSDOF 9
ENDMDL
MODEL 7
REMARK VINA RESULT:    -3.478      9.918     12.713
REMARK INTER + INTRA:          -5.592
REMARK INTER:                  -4.433
REMARK INTRA:                  -1.159
REMARK UNBOUND:                -0.894
REMARK SMILES O=c1c(-c2ccc(O)cc2)coc2c([C@H]3O[C@H](CO)[C@@H](O)[C@H](O)[C@H]3O)c(O)ccc12
REMARK SMILES IDX 3 1 11 2 12 3 13 4 30 5 2 6 1 7 29 8 28 9 26 10 14 11 4 12
REMARK SMILES IDX 5 13 6 14 7 15 10 16 9 17 8 18 15 20 24 21 16 22 22 23 17 24
REMARK SMILES IDX 20 25 25 26 23 28 18 30 19 31 21 33 27 35
REMARK H PARENT 8 19 25 27 23 29 19 32 21 34 27 36
REMARK Flexibility Score: inf
ROOT
ATOM      1  C   UNL     1    -125.741  40.002   5.081  1.00  0.00     0.065 A 
ATOM      2  C   UNL     1    -124.492  40.624   5.208  1.00  0.00     0.208 A 
ATOM      3  O   UNL     1    -123.424  40.148   4.578  1.00  0.00    -0.463 OA
ATOM      4  C   UNL     1    -123.459  39.069   3.800  1.00  0.00     0.147 A 
ATOM      5  C   UNL     1    -124.680  38.379   3.614  1.00  0.00     0.066 A 
ATOM      6  C   UNL     1    -125.829  38.852   4.273  1.00  0.00     0.200 A 
ATOM      7  O   UNL     1    -126.928  38.241   4.157  1.00  0.00    -0.288 OA
ATOM      8  C   UNL     1    -124.719  37.250   2.783  1.00  0.00     0.020 A 
ATOM      9  C   UNL     1    -123.565  36.820   2.129  1.00  0.00     0.047 A 
ATOM     10  C   UNL     1    -122.352  37.498   2.301  1.00  0.00     0.125 A 
ATOM     11  C   UNL     1    -122.279  38.619   3.161  1.00  0.00     0.069 A 
ENDROOT
BRANCH   1  12
ATOM     12  C   UNL     1    -126.921  40.557   5.790  1.00  0.00    -0.011 A 
ATOM     13  C   UNL     1    -127.686  41.579   5.201  1.00  0.00     0.013 A 
ATOM     14  C   UNL     1    -128.803  42.097   5.864  1.00  0.00     0.047 A 
ATOM     15  C   UNL     1    -129.173  41.599   7.116  1.00  0.00     0.115 A 
ATOM     16  C   UNL     1    -127.302  40.055   7.047  1.00  0.00     0.013 A 
ATOM     17  C   UNL     1    -128.420  40.574   7.706  1.00  0.00     0.047 A 
BRANCH  15  18
ATOM     18  O   UNL     1    -130.289  42.125   7.764  1.00  0.00    -0.508 OA
ATOM     19  H   UNL     1    -130.625  43.060   7.563  1.00  0.00     0.293 HD
ENDBRANCH  15  18
ENDBRANCH   1  12
BRANCH  11  20
ATOM     20  C   UNL     1    -120.976  39.390   3.349  1.00  0.00     0.188 C 
ATOM     21  C   UNL     1    -120.848  40.492   2.278  1.00  0.00     0.179 C 
ATOM     22  O   UNL     1    -119.872  38.498   3.315  1.00  0.00    -0.362 OA
ATOM     23  C   UNL     1    -119.539  41.279   2.486  1.00  0.00     0.177 C 
ATOM     24  C   UNL     1    -118.636  39.138   3.611  1.00  0.00     0.176 C 
ATOM     25  C   UNL     1    -118.332  40.332   2.663  1.00  0.00     0.177 C 
BRANCH  21  26
ATOM     26  O   UNL     1    -120.880  39.927   0.992  1.00  0.00    -0.387 OA
ATOM     27  H   UNL     1    -119.938  39.756   0.729  1.00  0.00     0.211 HD
ENDBRANCH  21  26
BRANCH  23  28
ATOM     28  O   UNL     1    -119.651  42.109   3.614  1.00  0.00    -0.387 OA
ATOM     29  H   UNL     1    -119.255  42.986   3.370  1.00  0.00     0.211 HD
ENDBRANCH  23  28
BRANCH  24  30
ATOM     30  C   UNL     1    -118.490  39.489   5.109  1.00  0.00     0.191 C 
BRANCH  30  31
ATOM     31  O   UNL     1    -117.676  40.621   5.271  1.00  0.00    -0.394 OA
ATOM     32  H   UNL     1    -117.835  41.201   4.480  1.00  0.00     0.210 HD
ENDBRANCH  30  31
ENDBRANCH  24  30
BRANCH  25  33
ATOM     33  O   UNL     1    -117.878  39.878   1.411  1.00  0.00    -0.388 OA
ATOM     34  H   UNL     1    -117.407  39.016   1.544  1.00  0.00     0.211 HD
ENDBRANCH  25  33
ENDBRANCH  11  20
BRANCH  10  35
ATOM     35  O   UNL     1    -121.224  37.058   1.608  1.00  0.00    -0.507 OA
ATOM     36  H   UNL     1    -121.088  37.261   0.624  1.00  0.00     0.293 HD
ENDBRANCH  10  35
TORSDOF 9
ENDMDL
MODEL 8
REMARK VINA RESULT:    -3.426      2.498      8.745
REMARK INTER + INTRA:          -5.522
REMARK INTER:                  -4.400
REMARK INTRA:                  -1.122
REMARK UNBOUND:                -0.894
REMARK SMILES O=c1c(-c2ccc(O)cc2)coc2c([C@H]3O[C@H](CO)[C@@H](O)[C@H](O)[C@H]3O)c(O)ccc12
REMARK SMILES IDX 3 1 11 2 12 3 13 4 30 5 2 6 1 7 29 8 28 9 26 10 14 11 4 12
REMARK SMILES IDX 5 13 6 14 7 15 10 16 9 17 8 18 15 20 24 21 16 22 22 23 17 24
REMARK SMILES IDX 20 25 25 26 23 28 18 30 19 31 21 33 27 35
REMARK H PARENT 8 19 25 27 23 29 19 32 21 34 27 36
REMARK Flexibility Score: inf
ROOT
ATOM      1  C   UNL     1    -124.382  37.213  16.480  1.00  0.00     0.065 A 
ATOM      2  C   UNL     1    -125.230  37.946  15.639  1.00  0.00     0.208 A 
ATOM      3  O   UNL     1    -126.474  38.230  16.006  1.00  0.00    -0.463 OA
ATOM      4  C   UNL     1    -126.997  37.850  17.169  1.00  0.00     0.147 A 
ATOM      5  C   UNL     1    -126.209  37.107  18.080  1.00  0.00     0.066 A 
ATOM      6  C   UNL     1    -124.889  36.781  17.720  1.00  0.00     0.200 A 
ATOM      7  O   UNL     1    -124.169  36.090  18.494  1.00  0.00    -0.288 OA
ATOM      8  C   UNL     1    -126.756  36.717  19.312  1.00  0.00     0.020 A 
ATOM      9  C   UNL     1    -128.061  37.075  19.644  1.00  0.00     0.047 A 
ATOM     10  C   UNL     1    -128.848  37.815  18.753  1.00  0.00     0.125 A 
ATOM     11  C   UNL     1    -128.332  38.190  17.490  1.00  0.00     0.069 A 
ENDROOT
BRANCH   1  12
ATOM     12  C   UNL     1    -122.993  36.912  16.051  1.00  0.00    -0.011 A 
ATOM     13  C   UNL     1    -121.946  37.795  16.367  1.00  0.00     0.013 A 
ATOM     14  C   UNL     1    -120.635  37.509  15.971  1.00  0.00     0.047 A 
ATOM     15  C   UNL     1    -120.353  36.338  15.262  1.00  0.00     0.115 A 
ATOM     16  C   UNL     1    -122.702  35.732  15.343  1.00  0.00     0.013 A 
ATOM     17  C   UNL     1    -121.390  35.448  14.950  1.00  0.00     0.047 A 
BRANCH  15  18
ATOM     18  O   UNL     1    -119.043  36.067  14.874  1.00  0.00    -0.508 OA
ATOM     19  H   UNL     1    -118.658  36.439  14.013  1.00  0.00     0.293 HD
ENDBRANCH  15  18
ENDBRANCH   1  12
BRANCH  11  20
ATOM     20  C   UNL     1    -129.160  39.015  16.510  1.00  0.00     0.188 C 
ATOM     21  C   UNL     1    -128.878  40.518  16.705  1.00  0.00     0.179 C 
ATOM     22  O   UNL     1    -130.539  38.718  16.664  1.00  0.00    -0.362 OA
ATOM     23  C   UNL     1    -129.702  41.345  15.699  1.00  0.00     0.177 C 
ATOM     24  C   UNL     1    -131.355  39.361  15.692  1.00  0.00     0.176 C 
ATOM     25  C   UNL     1    -131.183  40.906  15.686  1.00  0.00     0.177 C 
BRANCH  21  26
ATOM     26  O   UNL     1    -129.184  40.904  18.022  1.00  0.00    -0.387 OA
ATOM     27  H   UNL     1    -130.089  41.312  17.999  1.00  0.00     0.211 HD
ENDBRANCH  21  26
BRANCH  23  28
ATOM     28  O   UNL     1    -129.163  41.207  14.409  1.00  0.00    -0.387 OA
ATOM     29  H   UNL     1    -128.671  40.343  14.390  1.00  0.00     0.211 HD
ENDBRANCH  23  28
BRANCH  24  30
ATOM     30  C   UNL     1    -131.227  38.723  14.290  1.00  0.00     0.191 C 
BRANCH  30  31
ATOM     31  O   UNL     1    -131.517  39.666  13.292  1.00  0.00    -0.394 OA
ATOM     32  H   UNL     1    -132.362  39.373  12.861  1.00  0.00     0.210 HD
ENDBRANCH  30  31
ENDBRANCH  24  30
BRANCH  25  33
ATOM     33  O   UNL     1    -131.877  41.494  16.760  1.00  0.00    -0.388 OA
ATOM     34  H   UNL     1    -132.151  40.775  17.385  1.00  0.00     0.211 HD
ENDBRANCH  25  33
ENDBRANCH  11  20
BRANCH  10  35
ATOM     35  O   UNL     1    -130.140  38.180  19.132  1.00  0.00    -0.507 OA
ATOM     36  H   UNL     1    -130.867  38.361  18.449  1.00  0.00     0.293 HD
ENDBRANCH  10  35
TORSDOF 9
ENDMDL
MODEL 9
REMARK VINA RESULT:    -3.397     11.265     13.760
REMARK INTER + INTRA:          -5.483
REMARK INTER:                  -4.336
REMARK INTRA:                  -1.148
REMARK UNBOUND:                -0.894
REMARK SMILES O=c1c(-c2ccc(O)cc2)coc2c([C@H]3O[C@H](CO)[C@@H](O)[C@H](O)[C@H]3O)c(O)ccc12
REMARK SMILES IDX 3 1 11 2 12 3 13 4 30 5 2 6 1 7 29 8 28 9 26 10 14 11 4 12
REMARK SMILES IDX 5 13 6 14 7 15 10 16 9 17 8 18 15 20 24 21 16 22 22 23 17 24
REMARK SMILES IDX 20 25 25 26 23 28 18 30 19 31 21 33 27 35
REMARK H PARENT 8 19 25 27 23 29 19 32 21 34 27 36
REMARK Flexibility Score: inf
ROOT
ATOM      1  C   UNL     1    -125.515  37.275   2.701  1.00  0.00     0.065 A 
ATOM      2  C   UNL     1    -124.127  37.265   2.508  1.00  0.00     0.208 A 
ATOM      3  O   UNL     1    -123.343  38.128   3.143  1.00  0.00    -0.463 OA
ATOM      4  C   UNL     1    -123.804  39.045   3.990  1.00  0.00     0.147 A 
ATOM      5  C   UNL     1    -125.194  39.126   4.245  1.00  0.00     0.066 A 
ATOM      6  C   UNL     1    -126.054  38.232   3.582  1.00  0.00     0.200 A 
ATOM      7  O   UNL     1    -127.302  38.299   3.761  1.00  0.00    -0.288 OA
ATOM      8  C   UNL     1    -125.678  40.084   5.147  1.00  0.00     0.020 A 
ATOM      9  C   UNL     1    -124.795  40.941   5.802  1.00  0.00     0.047 A 
ATOM     10  C   UNL     1    -123.417  40.867   5.562  1.00  0.00     0.125 A 
ATOM     11  C   UNL     1    -122.906  39.932   4.630  1.00  0.00     0.069 A 
ENDROOT
BRANCH   1  12
ATOM     12  C   UNL     1    -126.370  36.297   1.984  1.00  0.00    -0.011 A 
ATOM     13  C   UNL     1    -126.848  35.153   2.646  1.00  0.00     0.013 A 
ATOM     14  C   UNL     1    -127.662  34.235   1.975  1.00  0.00     0.047 A 
ATOM     15  C   UNL     1    -128.012  34.450   0.639  1.00  0.00     0.115 A 
ATOM     16  C   UNL     1    -126.732  36.511   0.641  1.00  0.00     0.013 A 
ATOM     17  C   UNL     1    -127.546  35.592  -0.027  1.00  0.00     0.047 A 
BRANCH  15  18
ATOM     18  O   UNL     1    -128.823  33.526  -0.017  1.00  0.00    -0.508 OA
ATOM     19  H   UNL     1    -129.391  32.862   0.497  1.00  0.00     0.293 HD
ENDBRANCH  15  18
ENDBRANCH   1  12
BRANCH  11  20
ATOM     20  C   UNL     1    -121.409  39.815   4.365  1.00  0.00     0.188 C 
ATOM     21  C   UNL     1    -120.755  38.875   5.398  1.00  0.00     0.179 C 
ATOM     22  O   UNL     1    -120.809  41.102   4.376  1.00  0.00    -0.362 OA
ATOM     23  C   UNL     1    -119.246  38.746   5.113  1.00  0.00     0.177 C 
ATOM     24  C   UNL     1    -119.434  41.073   4.011  1.00  0.00     0.176 C 
ATOM     25  C   UNL     1    -118.589  40.128   4.911  1.00  0.00     0.177 C 
BRANCH  21  26
ATOM     26  O   UNL     1    -120.968  39.360   6.700  1.00  0.00    -0.387 OA
ATOM     27  H   UNL     1    -121.699  38.817   7.095  1.00  0.00     0.211 HD
ENDBRANCH  21  26
BRANCH  23  28
ATOM     28  O   UNL     1    -119.040  37.958   3.968  1.00  0.00    -0.387 OA
ATOM     29  H   UNL     1    -118.381  38.439   3.401  1.00  0.00     0.211 HD
ENDBRANCH  23  28
BRANCH  24  30
ATOM     30  C   UNL     1    -119.224  40.831   2.498  1.00  0.00     0.191 C 
BRANCH  30  31
ATOM     31  O   UNL     1    -117.969  40.251   2.263  1.00  0.00    -0.394 OA
ATOM     32  H   UNL     1    -117.409  40.950   1.834  1.00  0.00     0.210 HD
ENDBRANCH  30  31
ENDBRANCH  24  30
BRANCH  25  33
ATOM     33  O   UNL     1    -118.318  40.728   6.155  1.00  0.00    -0.388 OA
ATOM     34  H   UNL     1    -117.835  40.071   6.719  1.00  0.00     0.211 HD
ENDBRANCH  25  33
ENDBRANCH  11  20
BRANCH  10  35
ATOM     35  O   UNL     1    -122.560  41.720   6.257  1.00  0.00    -0.507 OA
ATOM     36  H   UNL     1    -122.064  41.419   7.087  1.00  0.00     0.293 HD
ENDBRANCH  10  35
TORSDOF 9
ENDMDL
