MODEL 1
REMARK VINA RESULT:    -6.754      0.000      0.000
REMARK INTER + INTRA:          -7.662
REMARK INTER:                  -7.347
REMARK INTRA:                  -0.315
REMARK UNBOUND:                -0.315
REMARK SMILES C=C1C[C@]2(O)O[C@]3(C[C@H]2C(C)C)[C@H](C)CC[C@H]13
REMARK SMILES IDX 14 1 13 2 15 3 16 4 17 5 7 6 8 7 9 8 4 9 6 10 3 11 2 12 1 13
REMARK SMILES IDX 10 14 11 15 12 16 5 17
REMARK H PARENT 5 18
REMARK Flexibility Score: inf
ROOT
ATOM      1  C   UNL     1      81.409  60.349 289.451  1.00  0.00     0.011 C 
ATOM      2  C   UNL     1      81.348  60.848 288.000  1.00  0.00     0.019 C 
ATOM      3  C   UNL     1      82.132  59.943 287.037  1.00  0.00     0.007 C 
ATOM      4  C   UNL     1      82.836  60.862 286.034  1.00  0.00     0.011 C 
ATOM      5  C   UNL     1      82.328  62.276 286.313  1.00  0.00     0.047 C 
ATOM      6  C   UNL     1      81.929  62.256 287.798  1.00  0.00     0.081 C 
ATOM      7  C   UNL     1      80.964  63.396 288.146  1.00  0.00     0.046 C 
ATOM      8  C   UNL     1      81.900  64.498 288.643  1.00  0.00     0.054 C 
ATOM      9  C   UNL     1      83.306  63.839 288.521  1.00  0.00     0.173 C 
ATOM     10  O   UNL     1      83.087  62.452 288.584  1.00  0.00    -0.342 OA
ATOM     11  C   UNL     1      83.985  64.148 287.154  1.00  0.00     0.096 C 
ATOM     12  C   UNL     1      83.367  63.347 286.022  1.00  0.00    -0.066 C 
ATOM     13  C   UNL     1      83.749  63.586 284.760  1.00  0.00     0.008 C 
ENDROOT
BRANCH   8  14
ATOM     14  C   UNL     1      81.538  65.037 290.066  1.00  0.00    -0.009 C 
ATOM     15  C   UNL     1      80.602  64.121 290.881  1.00  0.00     0.008 C 
ATOM     16  C   UNL     1      80.950  66.454 289.987  1.00  0.00     0.008 C 
ENDBRANCH   8  14
BRANCH   9  17
ATOM     17  O   UNL     1      84.168  64.215 289.567  1.00  0.00    -0.365 OA
ATOM     18  H   UNL     1      85.004  63.688 289.469  1.00  0.00     0.214 HD
ENDBRANCH   9  17
TORSDOF 2
ENDMDL
MODEL 2
REMARK VINA RESULT:    -6.618      1.990      2.306
REMARK INTER + INTRA:          -7.514
REMARK INTER:                  -7.276
REMARK INTRA:                  -0.238
REMARK UNBOUND:                -0.315
REMARK SMILES C=C1C[C@]2(O)O[C@]3(C[C@H]2C(C)C)[C@H](C)CC[C@H]13
REMARK SMILES IDX 14 1 13 2 15 3 16 4 17 5 7 6 8 7 9 8 4 9 6 10 3 11 2 12 1 13
REMARK SMILES IDX 10 14 11 15 12 16 5 17
REMARK H PARENT 5 18
REMARK Flexibility Score: inf
ROOT
ATOM      1  C   UNL     1      80.136  61.976 287.958  1.00  0.00     0.011 C 
ATOM      2  C   UNL     1      80.609  61.876 286.501  1.00  0.00     0.019 C 
ATOM      3  C   UNL     1      81.251  60.515 286.187  1.00  0.00     0.007 C 
ATOM      4  C   UNL     1      82.450  60.787 285.274  1.00  0.00     0.011 C 
ATOM      5  C   UNL     1      82.400  62.275 284.927  1.00  0.00     0.047 C 
ATOM      6  C   UNL     1      81.664  62.922 286.112  1.00  0.00     0.081 C 
ATOM      7  C   UNL     1      81.089  64.296 285.746  1.00  0.00     0.046 C 
ATOM      8  C   UNL     1      82.191  65.258 286.193  1.00  0.00     0.054 C 
ATOM      9  C   UNL     1      83.273  64.300 286.773  1.00  0.00     0.173 C 
ATOM     10  O   UNL     1      82.587  63.135 287.160  1.00  0.00    -0.342 OA
ATOM     11  C   UNL     1      84.332  63.892 285.708  1.00  0.00     0.096 C 
ATOM     12  C   UNL     1      83.779  62.881 284.720  1.00  0.00    -0.066 C 
ATOM     13  C   UNL     1      84.518  62.518 283.663  1.00  0.00     0.008 C 
ENDROOT
BRANCH   8  14
ATOM     14  C   UNL     1      81.693  66.373 287.171  1.00  0.00    -0.009 C 
ATOM     15  C   UNL     1      80.160  66.476 287.300  1.00  0.00     0.008 C 
ATOM     16  C   UNL     1      82.284  67.741 286.796  1.00  0.00     0.008 C 
ENDBRANCH   8  14
BRANCH   9  17
ATOM     17  O   UNL     1      83.924  64.843 287.896  1.00  0.00    -0.365 OA
ATOM     18  H   UNL     1      84.346  64.091 288.389  1.00  0.00     0.214 HD
ENDBRANCH   9  17
TORSDOF 2
ENDMDL
MODEL 3
REMARK VINA RESULT:    -6.599      1.720      2.546
REMARK INTER + INTRA:          -7.493
REMARK INTER:                  -7.168
REMARK INTRA:                  -0.325
REMARK UNBOUND:                -0.315
REMARK SMILES C=C1C[C@]2(O)O[C@]3(C[C@H]2C(C)C)[C@H](C)CC[C@H]13
REMARK SMILES IDX 14 1 13 2 15 3 16 4 17 5 7 6 8 7 9 8 4 9 6 10 3 11 2 12 1 13
REMARK SMILES IDX 10 14 11 15 12 16 5 17
REMARK H PARENT 5 18
REMARK Flexibility Score: inf
ROOT
ATOM      1  C   UNL     1      81.608  59.829 285.740  1.00  0.00     0.011 C 
ATOM      2  C   UNL     1      81.576  61.327 285.405  1.00  0.00     0.019 C 
ATOM      3  C   UNL     1      82.528  61.688 284.254  1.00  0.00     0.007 C 
ATOM      4  C   UNL     1      83.172  63.031 284.611  1.00  0.00     0.011 C 
ATOM      5  C   UNL     1      82.472  63.522 285.879  1.00  0.00     0.047 C 
ATOM      6  C   UNL     1      81.986  62.238 286.572  1.00  0.00     0.081 C 
ATOM      7  C   UNL     1      80.864  62.522 287.578  1.00  0.00     0.046 C 
ATOM      8  C   UNL     1      81.620  62.682 288.898  1.00  0.00     0.054 C 
ATOM      9  C   UNL     1      83.103  62.460 288.476  1.00  0.00     0.173 C 
ATOM     10  O   UNL     1      83.057  61.683 287.306  1.00  0.00    -0.342 OA
ATOM     11  C   UNL     1      83.822  63.796 288.128  1.00  0.00     0.096 C 
ATOM     12  C   UNL     1      83.384  64.340 286.780  1.00  0.00    -0.066 C 
ATOM     13  C   UNL     1      83.811  65.546 286.384  1.00  0.00     0.008 C 
ENDROOT
BRANCH   8  14
ATOM     14  C   UNL     1      81.103  61.742 290.037  1.00  0.00    -0.009 C 
ATOM     15  C   UNL     1      80.496  60.412 289.546  1.00  0.00     0.008 C 
ATOM     16  C   UNL     1      80.103  62.474 290.946  1.00  0.00     0.008 C 
ENDBRANCH   8  14
BRANCH   9  17
ATOM     17  O   UNL     1      83.842  61.773 289.456  1.00  0.00    -0.365 OA
ATOM     18  H   UNL     1      84.431  62.435 289.904  1.00  0.00     0.214 HD
ENDBRANCH   9  17
TORSDOF 2
ENDMDL
MODEL 4
REMARK VINA RESULT:    -6.442      2.902      4.270
REMARK INTER + INTRA:          -7.322
REMARK INTER:                  -7.016
REMARK INTRA:                  -0.306
REMARK UNBOUND:                -0.315
REMARK SMILES C=C1C[C@]2(O)O[C@]3(C[C@H]2C(C)C)[C@H](C)CC[C@H]13
REMARK SMILES IDX 14 1 13 2 15 3 16 4 17 5 7 6 8 7 9 8 4 9 6 10 3 11 2 12 1 13
REMARK SMILES IDX 10 14 11 15 12 16 5 17
REMARK H PARENT 5 18
REMARK Flexibility Score: inf
ROOT
ATOM      1  C   UNL     1      78.230  62.904 285.942  1.00  0.00     0.011 C 
ATOM      2  C   UNL     1      79.477  63.697 285.524  1.00  0.00     0.019 C 
ATOM      3  C   UNL     1      79.398  64.186 284.070  1.00  0.00     0.007 C 
ATOM      4  C   UNL     1      80.798  64.028 283.469  1.00  0.00     0.011 C 
ATOM      5  C   UNL     1      81.716  63.608 284.616  1.00  0.00     0.047 C 
ATOM      6  C   UNL     1      80.786  62.896 285.613  1.00  0.00     0.081 C 
ATOM      7  C   UNL     1      81.396  62.833 287.019  1.00  0.00     0.046 C 
ATOM      8  C   UNL     1      82.085  61.468 287.032  1.00  0.00     0.054 C 
ATOM      9  C   UNL     1      81.774  60.910 285.611  1.00  0.00     0.173 C 
ATOM     10  O   UNL     1      80.601  61.561 285.191  1.00  0.00    -0.342 OA
ATOM     11  C   UNL     1      82.895  61.249 284.585  1.00  0.00     0.096 C 
ATOM     12  C   UNL     1      82.854  62.706 284.164  1.00  0.00    -0.066 C 
ATOM     13  C   UNL     1      83.826  63.195 283.383  1.00  0.00     0.008 C 
ENDROOT
BRANCH   8  14
ATOM     14  C   UNL     1      81.644  60.551 288.220  1.00  0.00    -0.009 C 
ATOM     15  C   UNL     1      80.407  61.053 288.992  1.00  0.00     0.008 C 
ATOM     16  C   UNL     1      82.809  60.308 289.192  1.00  0.00     0.008 C 
ENDBRANCH   8  14
BRANCH   9  17
ATOM     17  O   UNL     1      81.550  59.520 285.618  1.00  0.00    -0.365 OA
ATOM     18  H   UNL     1      81.350  59.246 284.684  1.00  0.00     0.214 HD
ENDBRANCH   9  17
TORSDOF 2
ENDMDL
MODEL 5
REMARK VINA RESULT:    -6.369      2.249      4.668
REMARK INTER + INTRA:          -7.243
REMARK INTER:                  -6.950
REMARK INTRA:                  -0.293
REMARK UNBOUND:                -0.315
REMARK SMILES C=C1C[C@]2(O)O[C@]3(C[C@H]2C(C)C)[C@H](C)CC[C@H]13
REMARK SMILES IDX 14 1 13 2 15 3 16 4 17 5 7 6 8 7 9 8 4 9 6 10 3 11 2 12 1 13
REMARK SMILES IDX 10 14 11 15 12 16 5 17
REMARK H PARENT 5 18
REMARK Flexibility Score: inf
ROOT
ATOM      1  C   UNL     1      79.049  64.182 285.631  1.00  0.00     0.011 C 
ATOM      2  C   UNL     1      79.168  62.851 286.388  1.00  0.00     0.019 C 
ATOM      3  C   UNL     1      78.475  62.894 287.758  1.00  0.00     0.007 C 
ATOM      4  C   UNL     1      79.367  62.124 288.736  1.00  0.00     0.011 C 
ATOM      5  C   UNL     1      80.483  61.499 287.899  1.00  0.00     0.047 C 
ATOM      6  C   UNL     1      80.615  62.424 286.679  1.00  0.00     0.081 C 
ATOM      7  C   UNL     1      81.318  61.728 285.506  1.00  0.00     0.046 C 
ATOM      8  C   UNL     1      82.780  62.135 285.693  1.00  0.00     0.054 C 
ATOM      9  C   UNL     1      82.729  63.033 286.965  1.00  0.00     0.173 C 
ATOM     10  O   UNL     1      81.417  63.532 287.031  1.00  0.00    -0.342 OA
ATOM     11  C   UNL     1      82.993  62.224 288.269  1.00  0.00     0.096 C 
ATOM     12  C   UNL     1      81.795  61.377 288.659  1.00  0.00    -0.066 C 
ATOM     13  C   UNL     1      81.898  60.522 289.686  1.00  0.00     0.008 C 
ENDROOT
BRANCH   8  14
ATOM     14  C   UNL     1      83.413  62.805 284.429  1.00  0.00    -0.009 C 
ATOM     15  C   UNL     1      82.424  63.053 283.271  1.00  0.00     0.008 C 
ATOM     16  C   UNL     1      84.623  62.004 283.926  1.00  0.00     0.008 C 
ENDBRANCH   8  14
BRANCH   9  17
ATOM     17  O   UNL     1      83.629  64.113 286.896  1.00  0.00    -0.365 OA
ATOM     18  H   UNL     1      84.476  63.771 286.506  1.00  0.00     0.214 HD
ENDBRANCH   9  17
TORSDOF 2
ENDMDL
MODEL 6
REMARK VINA RESULT:    -6.313      1.408      4.292
REMARK INTER + INTRA:          -7.182
REMARK INTER:                  -6.861
REMARK INTRA:                  -0.321
REMARK UNBOUND:                -0.315
REMARK SMILES C=C1C[C@]2(O)O[C@]3(C[C@H]2C(C)C)[C@H](C)CC[C@H]13
REMARK SMILES IDX 14 1 13 2 15 3 16 4 17 5 7 6 8 7 9 8 4 9 6 10 3 11 2 12 1 13
REMARK SMILES IDX 10 14 11 15 12 16 5 17
REMARK H PARENT 5 18
REMARK Flexibility Score: inf
ROOT
ATOM      1  C   UNL     1      80.788  66.152 289.239  1.00  0.00     0.011 C 
ATOM      2  C   UNL     1      80.184  64.753 289.048  1.00  0.00     0.019 C 
ATOM      3  C   UNL     1      79.501  64.233 290.323  1.00  0.00     0.007 C 
ATOM      4  C   UNL     1      79.827  62.740 290.427  1.00  0.00     0.011 C 
ATOM      5  C   UNL     1      80.552  62.366 289.134  1.00  0.00     0.047 C 
ATOM      6  C   UNL     1      81.210  63.675 288.668  1.00  0.00     0.081 C 
ATOM      7  C   UNL     1      81.565  63.636 287.176  1.00  0.00     0.046 C 
ATOM      8  C   UNL     1      83.021  63.169 287.183  1.00  0.00     0.054 C 
ATOM      9  C   UNL     1      83.323  63.001 288.702  1.00  0.00     0.173 C 
ATOM     10  O   UNL     1      82.423  63.850 289.369  1.00  0.00    -0.342 OA
ATOM     11  C   UNL     1      83.059  61.549 289.199  1.00  0.00     0.096 C 
ATOM     12  C   UNL     1      81.576  61.258 289.329  1.00  0.00    -0.066 C 
ATOM     13  C   UNL     1      81.170  60.015 289.624  1.00  0.00     0.008 C 
ENDROOT
BRANCH   8  14
ATOM     14  C   UNL     1      83.992  64.122 286.411  1.00  0.00    -0.009 C 
ATOM     15  C   UNL     1      83.614  65.616 286.481  1.00  0.00     0.008 C 
ATOM     16  C   UNL     1      84.147  63.685 284.947  1.00  0.00     0.008 C 
ENDBRANCH   8  14
BRANCH   9  17
ATOM     17  O   UNL     1      84.639  63.376 289.032  1.00  0.00    -0.365 OA
ATOM     18  H   UNL     1      84.582  64.080 289.730  1.00  0.00     0.214 HD
ENDBRANCH   9  17
TORSDOF 2
ENDMDL
MODEL 7
REMARK VINA RESULT:    -6.301      3.018      4.774
REMARK INTER + INTRA:          -7.169
REMARK INTER:                  -6.857
REMARK INTRA:                  -0.311
REMARK UNBOUND:                -0.315
REMARK SMILES C=C1C[C@]2(O)O[C@]3(C[C@H]2C(C)C)[C@H](C)CC[C@H]13
REMARK SMILES IDX 14 1 13 2 15 3 16 4 17 5 7 6 8 7 9 8 4 9 6 10 3 11 2 12 1 13
REMARK SMILES IDX 10 14 11 15 12 16 5 17
REMARK H PARENT 5 18
REMARK Flexibility Score: inf
ROOT
ATOM      1  C   UNL     1      81.524  66.478 287.074  1.00  0.00     0.011 C 
ATOM      2  C   UNL     1      82.446  65.250 287.032  1.00  0.00     0.019 C 
ATOM      3  C   UNL     1      83.889  65.615 286.649  1.00  0.00     0.007 C 
ATOM      4  C   UNL     1      84.400  64.507 285.725  1.00  0.00     0.011 C 
ATOM      5  C   UNL     1      83.320  63.426 285.710  1.00  0.00     0.047 C 
ATOM      6  C   UNL     1      82.016  64.179 286.019  1.00  0.00     0.081 C 
ATOM      7  C   UNL     1      80.916  63.236 286.522  1.00  0.00     0.046 C 
ATOM      8  C   UNL     1      80.151  62.889 285.245  1.00  0.00     0.054 C 
ATOM      9  C   UNL     1      80.917  63.695 284.153  1.00  0.00     0.173 C 
ATOM     10  O   UNL     1      81.533  64.763 284.827  1.00  0.00    -0.342 OA
ATOM     11  C   UNL     1      82.038  62.853 283.477  1.00  0.00     0.096 C 
ATOM     12  C   UNL     1      83.243  62.685 284.383  1.00  0.00    -0.066 C 
ATOM     13  C   UNL     1      84.246  61.881 284.006  1.00  0.00     0.008 C 
ENDROOT
BRANCH   8  14
ATOM     14  C   UNL     1      78.616  63.178 285.333  1.00  0.00    -0.009 C 
ATOM     15  C   UNL     1      78.198  64.070 286.520  1.00  0.00     0.008 C 
ATOM     16  C   UNL     1      77.808  61.872 285.344  1.00  0.00     0.008 C 
ENDBRANCH   8  14
BRANCH   9  17
ATOM     17  O   UNL     1      80.057  64.210 283.165  1.00  0.00    -0.365 OA
ATOM     18  H   UNL     1      79.314  64.676 283.630  1.00  0.00     0.214 HD
ENDBRANCH   9  17
TORSDOF 2
ENDMDL
MODEL 8
REMARK VINA RESULT:    -6.216      1.755      3.479
REMARK INTER + INTRA:          -7.076
REMARK INTER:                  -6.763
REMARK INTRA:                  -0.313
REMARK UNBOUND:                -0.315
REMARK SMILES C=C1C[C@]2(O)O[C@]3(C[C@H]2C(C)C)[C@H](C)CC[C@H]13
REMARK SMILES IDX 14 1 13 2 15 3 16 4 17 5 7 6 8 7 9 8 4 9 6 10 3 11 2 12 1 13
REMARK SMILES IDX 10 14 11 15 12 16 5 17
REMARK H PARENT 5 18
REMARK Flexibility Score: inf
ROOT
ATOM      1  C   UNL     1      83.726  65.545 286.600  1.00  0.00     0.011 C 
ATOM      2  C   UNL     1      83.878  64.024 286.454  1.00  0.00     0.019 C 
ATOM      3  C   UNL     1      84.121  63.597 284.999  1.00  0.00     0.007 C 
ATOM      4  C   UNL     1      83.325  62.309 284.771  1.00  0.00     0.011 C 
ATOM      5  C   UNL     1      82.761  61.904 286.133  1.00  0.00     0.047 C 
ATOM      6  C   UNL     1      82.648  63.225 286.911  1.00  0.00     0.081 C 
ATOM      7  C   UNL     1      82.570  62.992 288.426  1.00  0.00     0.046 C 
ATOM      8  C   UNL     1      81.065  62.965 288.691  1.00  0.00     0.054 C 
ATOM      9  C   UNL     1      80.459  63.196 287.275  1.00  0.00     0.173 C 
ATOM     10  O   UNL     1      81.449  63.872 286.540  1.00  0.00    -0.342 OA
ATOM     11  C   UNL     1      80.155  61.858 286.538  1.00  0.00     0.096 C 
ATOM     12  C   UNL     1      81.421  61.192 286.032  1.00  0.00    -0.066 C 
ATOM     13  C   UNL     1      81.352  59.971 285.486  1.00  0.00     0.008 C 
ENDROOT
BRANCH   8  14
ATOM     14  C   UNL     1      80.601  63.980 289.788  1.00  0.00    -0.009 C 
ATOM     15  C   UNL     1      81.637  65.069 290.133  1.00  0.00     0.008 C 
ATOM     16  C   UNL     1      80.159  63.249 291.065  1.00  0.00     0.008 C 
ENDBRANCH   8  14
BRANCH   9  17
ATOM     17  O   UNL     1      79.294  63.985 287.311  1.00  0.00    -0.365 OA
ATOM     18  H   UNL     1      79.426  64.678 288.010  1.00  0.00     0.214 HD
ENDBRANCH   9  17
TORSDOF 2
ENDMDL
MODEL 9
REMARK VINA RESULT:    -6.207      2.464      4.777
REMARK INTER + INTRA:          -7.067
REMARK INTER:                  -6.831
REMARK INTRA:                  -0.236
REMARK UNBOUND:                -0.315
REMARK SMILES C=C1C[C@]2(O)O[C@]3(C[C@H]2C(C)C)[C@H](C)CC[C@H]13
REMARK SMILES IDX 14 1 13 2 15 3 16 4 17 5 7 6 8 7 9 8 4 9 6 10 3 11 2 12 1 13
REMARK SMILES IDX 10 14 11 15 12 16 5 17
REMARK H PARENT 5 18
REMARK Flexibility Score: inf
ROOT
ATOM      1  C   UNL     1      82.850  59.033 287.584  1.00  0.00     0.011 C 
ATOM      2  C   UNL     1      82.489  60.313 288.351  1.00  0.00     0.019 C 
ATOM      3  C   UNL     1      81.548  60.040 289.534  1.00  0.00     0.007 C 
ATOM      4  C   UNL     1      80.538  61.191 289.577  1.00  0.00     0.011 C 
ATOM      5  C   UNL     1      80.996  62.206 288.530  1.00  0.00     0.047 C 
ATOM      6  C   UNL     1      81.772  61.372 287.498  1.00  0.00     0.081 C 
ATOM      7  C   UNL     1      82.709  62.241 286.649  1.00  0.00     0.046 C 
ATOM      8  C   UNL     1      81.857  62.560 285.419  1.00  0.00     0.054 C 
ATOM      9  C   UNL     1      80.522  61.817 285.721  1.00  0.00     0.173 C 
ATOM     10  O   UNL     1      80.852  60.777 286.607  1.00  0.00    -0.342 OA
ATOM     11  C   UNL     1      79.485  62.734 286.434  1.00  0.00     0.096 C 
ATOM     12  C   UNL     1      79.840  62.961 287.892  1.00  0.00    -0.066 C 
ATOM     13  C   UNL     1      79.123  63.827 288.619  1.00  0.00     0.008 C 
ENDROOT
BRANCH   8  14
ATOM     14  C   UNL     1      82.541  62.179 284.064  1.00  0.00    -0.009 C 
ATOM     15  C   UNL     1      84.035  61.815 284.180  1.00  0.00     0.008 C 
ATOM     16  C   UNL     1      82.347  63.286 283.017  1.00  0.00     0.008 C 
ENDBRANCH   8  14
BRANCH   9  17
ATOM     17  O   UNL     1      79.941  61.266 284.563  1.00  0.00    -0.365 OA
ATOM     18  H   UNL     1      80.659  61.174 283.884  1.00  0.00     0.214 HD
ENDBRANCH   9  17
TORSDOF 2
ENDMDL
