MODEL 1
REMARK VINA RESULT:    -4.769      0.000      0.000
REMARK INTER + INTRA:          -5.245
REMARK INTER:                  -5.187
REMARK INTRA:                  -0.057
REMARK UNBOUND:                -0.057
REMARK SMILES COc1cc2ccc(=O)oc2cc1O
REMARK SMILES IDX 3 1 13 2 12 3 11 4 5 5 4 6 6 7 7 8 8 9 9 10 10 11 2 12 1 13
REMARK SMILES IDX 14 14
REMARK H PARENT 14 15
REMARK Flexibility Score: inf
ROOT
ATOM      1  C   UNL     1      28.379  -7.641 -29.607  1.00  0.00     0.161 A 
ATOM      2  C   UNL     1      28.287  -7.672 -31.008  1.00  0.00     0.161 A 
ATOM      3  C   UNL     1      29.445  -7.784 -31.791  1.00  0.00     0.098 A 
ATOM      4  C   UNL     1      30.700  -7.865 -31.183  1.00  0.00     0.142 A 
ATOM      5  C   UNL     1      30.801  -7.834 -29.777  1.00  0.00     0.022 A 
ATOM      6  C   UNL     1      29.644  -7.722 -28.993  1.00  0.00     0.062 A 
ATOM      7  C   UNL     1      32.072  -7.916 -29.198  1.00  0.00     0.019 A 
ATOM      8  C   UNL     1      33.193  -8.026 -30.020  1.00  0.00     0.094 A 
ATOM      9  C   UNL     1      33.016  -8.051 -31.407  1.00  0.00     0.336 A 
ATOM     10  O   UNL     1      34.015  -8.149 -32.167  1.00  0.00    -0.246 OA
ATOM     11  O   UNL     1      31.796  -7.970 -31.932  1.00  0.00    -0.423 OA
ENDROOT
BRANCH   1  12
ATOM     12  O   UNL     1      27.193  -7.529 -28.863  1.00  0.00    -0.493 OA
ATOM     13  C   UNL     1      26.662  -6.302 -28.374  1.00  0.00     0.278 C 
ENDBRANCH   1  12
BRANCH   2  14
ATOM     14  O   UNL     1      27.035  -7.592 -31.616  1.00  0.00    -0.504 OA
ATOM     15  H   UNL     1      26.910  -7.796 -32.601  1.00  0.00     0.293 HD
ENDBRANCH   2  14
TORSDOF 2
ENDMDL
MODEL 2
REMARK VINA RESULT:    -4.555      2.090      5.211
REMARK INTER + INTRA:          -5.012
REMARK INTER:                  -4.967
REMARK INTRA:                  -0.045
REMARK UNBOUND:                -0.057
REMARK SMILES COc1cc2ccc(=O)oc2cc1O
REMARK SMILES IDX 3 1 13 2 12 3 11 4 5 5 4 6 6 7 7 8 8 9 9 10 10 11 2 12 1 13
REMARK SMILES IDX 14 14
REMARK H PARENT 14 15
REMARK Flexibility Score: inf
ROOT
ATOM      1  C   UNL     1      32.244  -6.110 -32.315  1.00  0.00     0.161 A 
ATOM      2  C   UNL     1      32.286  -7.510 -32.218  1.00  0.00     0.161 A 
ATOM      3  C   UNL     1      31.225  -8.210 -31.627  1.00  0.00     0.098 A 
ATOM      4  C   UNL     1      30.117  -7.520 -31.129  1.00  0.00     0.142 A 
ATOM      5  C   UNL     1      30.067  -6.114 -31.222  1.00  0.00     0.022 A 
ATOM      6  C   UNL     1      31.128  -5.413 -31.813  1.00  0.00     0.062 A 
ATOM      7  C   UNL     1      28.944  -5.452 -30.713  1.00  0.00     0.019 A 
ATOM      8  C   UNL     1      27.916  -6.194 -30.135  1.00  0.00     0.094 A 
ATOM      9  C   UNL     1      28.034  -7.586 -30.077  1.00  0.00     0.336 A 
ATOM     10  O   UNL     1      27.116  -8.274 -29.559  1.00  0.00    -0.246 OA
ATOM     11  O   UNL     1      29.113  -8.191 -30.567  1.00  0.00    -0.423 OA
ENDROOT
BRANCH   1  12
ATOM     12  O   UNL     1      33.329  -5.451 -32.915  1.00  0.00    -0.493 OA
ATOM     13  C   UNL     1      33.401  -4.044 -33.125  1.00  0.00     0.278 C 
ENDBRANCH   1  12
BRANCH   2  14
ATOM     14  O   UNL     1      33.390  -8.201 -32.715  1.00  0.00    -0.504 OA
ATOM     15  H   UNL     1      33.378  -8.630 -33.632  1.00  0.00     0.293 HD
ENDBRANCH   2  14
TORSDOF 2
ENDMDL
MODEL 3
REMARK VINA RESULT:    -4.511      2.495      5.540
REMARK INTER + INTRA:          -4.964
REMARK INTER:                  -4.919
REMARK INTRA:                  -0.045
REMARK UNBOUND:                -0.057
REMARK SMILES COc1cc2ccc(=O)oc2cc1O
REMARK SMILES IDX 3 1 13 2 12 3 11 4 5 5 4 6 6 7 7 8 8 9 9 10 10 11 2 12 1 13
REMARK SMILES IDX 14 14
REMARK H PARENT 14 15
REMARK Flexibility Score: inf
ROOT
ATOM      1  C   UNL     1      29.414  -6.589 -31.423  1.00  0.00     0.161 A 
ATOM      2  C   UNL     1      28.605  -7.725 -31.270  1.00  0.00     0.161 A 
ATOM      3  C   UNL     1      27.551  -7.724 -30.344  1.00  0.00     0.098 A 
ATOM      4  C   UNL     1      27.299  -6.592 -29.566  1.00  0.00     0.142 A 
ATOM      5  C   UNL     1      28.108  -5.446 -29.714  1.00  0.00     0.022 A 
ATOM      6  C   UNL     1      29.161  -5.446 -30.639  1.00  0.00     0.062 A 
ATOM      7  C   UNL     1      27.830  -4.328 -28.920  1.00  0.00     0.019 A 
ATOM      8  C   UNL     1      26.772  -4.377 -28.014  1.00  0.00     0.094 A 
ATOM      9  C   UNL     1      26.013  -5.547 -27.922  1.00  0.00     0.336 A 
ATOM     10  O   UNL     1      25.053  -5.612 -27.110  1.00  0.00    -0.246 OA
ATOM     11  O   UNL     1      26.299  -6.597 -28.688  1.00  0.00    -0.423 OA
ENDROOT
BRANCH   1  12
ATOM     12  O   UNL     1      30.457  -6.634 -32.363  1.00  0.00    -0.493 OA
ATOM     13  C   UNL     1      31.266  -5.520 -32.724  1.00  0.00     0.278 C 
ENDBRANCH   1  12
BRANCH   2  14
ATOM     14  O   UNL     1      28.854  -8.857 -32.045  1.00  0.00    -0.504 OA
ATOM     15  H   UNL     1      28.566  -8.909 -33.014  1.00  0.00     0.293 HD
ENDBRANCH   2  14
TORSDOF 2
ENDMDL
MODEL 4
REMARK VINA RESULT:    -4.408      1.362      5.365
REMARK INTER + INTRA:          -4.852
REMARK INTER:                  -4.791
REMARK INTRA:                  -0.061
REMARK UNBOUND:                -0.057
REMARK SMILES COc1cc2ccc(=O)oc2cc1O
REMARK SMILES IDX 3 1 13 2 12 3 11 4 5 5 4 6 6 7 7 8 8 9 9 10 10 11 2 12 1 13
REMARK SMILES IDX 14 14
REMARK H PARENT 14 15
REMARK Flexibility Score: inf
ROOT
ATOM      1  C   UNL     1      31.678  -8.006 -31.226  1.00  0.00     0.161 A 
ATOM      2  C   UNL     1      31.949  -8.048 -29.849  1.00  0.00     0.161 A 
ATOM      3  C   UNL     1      30.917  -7.864 -28.918  1.00  0.00     0.098 A 
ATOM      4  C   UNL     1      29.609  -7.635 -29.353  1.00  0.00     0.142 A 
ATOM      5  C   UNL     1      29.329  -7.590 -30.735  1.00  0.00     0.022 A 
ATOM      6  C   UNL     1      30.360  -7.775 -31.666  1.00  0.00     0.062 A 
ATOM      7  C   UNL     1      28.009  -7.359 -31.139  1.00  0.00     0.019 A 
ATOM      8  C   UNL     1      27.019  -7.181 -30.174  1.00  0.00     0.094 A 
ATOM      9  C   UNL     1      27.371  -7.238 -28.822  1.00  0.00     0.336 A 
ATOM     10  O   UNL     1      26.492  -7.080 -27.936  1.00  0.00    -0.246 OA
ATOM     11  O   UNL     1      28.634  -7.459 -28.465  1.00  0.00    -0.423 OA
ENDROOT
BRANCH   1  12
ATOM     12  O   UNL     1      32.742  -8.197 -32.122  1.00  0.00    -0.493 OA
ATOM     13  C   UNL     1      33.464  -7.144 -32.752  1.00  0.00     0.278 C 
ENDBRANCH   1  12
BRANCH   2  14
ATOM     14  O   UNL     1      33.253  -8.277 -29.412  1.00  0.00    -0.504 OA
ATOM     15  H   UNL     1      34.045  -8.186 -30.037  1.00  0.00     0.293 HD
ENDBRANCH   2  14
TORSDOF 2
ENDMDL
MODEL 5
REMARK VINA RESULT:    -4.287      2.424      2.634
REMARK INTER + INTRA:          -4.720
REMARK INTER:                  -4.656
REMARK INTRA:                  -0.064
REMARK UNBOUND:                -0.057
REMARK SMILES COc1cc2ccc(=O)oc2cc1O
REMARK SMILES IDX 3 1 13 2 12 3 11 4 5 5 4 6 6 7 7 8 8 9 9 10 10 11 2 12 1 13
REMARK SMILES IDX 14 14
REMARK H PARENT 14 15
REMARK Flexibility Score: inf
ROOT
ATOM      1  C   UNL     1      27.273  -6.701 -29.229  1.00  0.00     0.161 A 
ATOM      2  C   UNL     1      27.419  -7.739 -30.162  1.00  0.00     0.161 A 
ATOM      3  C   UNL     1      28.422  -7.675 -31.140  1.00  0.00     0.098 A 
ATOM      4  C   UNL     1      29.285  -6.578 -31.193  1.00  0.00     0.142 A 
ATOM      5  C   UNL     1      29.145  -5.531 -30.259  1.00  0.00     0.022 A 
ATOM      6  C   UNL     1      28.142  -5.593 -29.281  1.00  0.00     0.062 A 
ATOM      7  C   UNL     1      30.024  -4.445 -30.339  1.00  0.00     0.019 A 
ATOM      8  C   UNL     1      31.004  -4.429 -31.330  1.00  0.00     0.094 A 
ATOM      9  C   UNL     1      31.084  -5.503 -32.222  1.00  0.00     0.336 A 
ATOM     10  O   UNL     1      31.962  -5.508 -33.124  1.00  0.00    -0.246 OA
ATOM     11  O   UNL     1      30.234  -6.523 -32.125  1.00  0.00    -0.423 OA
ENDROOT
BRANCH   1  12
ATOM     12  O   UNL     1      26.255  -6.807 -28.267  1.00  0.00    -0.493 OA
ATOM     13  C   UNL     1      26.479  -7.004 -26.875  1.00  0.00     0.278 C 
ENDBRANCH   1  12
BRANCH   2  14
ATOM     14  O   UNL     1      26.560  -8.835 -30.111  1.00  0.00    -0.504 OA
ATOM     15  H   UNL     1      26.520  -9.440 -29.300  1.00  0.00     0.293 HD
ENDBRANCH   2  14
TORSDOF 2
ENDMDL
MODEL 6
REMARK VINA RESULT:    -4.259      1.764      5.080
REMARK INTER + INTRA:          -4.690
REMARK INTER:                  -4.638
REMARK INTRA:                  -0.052
REMARK UNBOUND:                -0.057
REMARK SMILES COc1cc2ccc(=O)oc2cc1O
REMARK SMILES IDX 3 1 13 2 12 3 11 4 5 5 4 6 6 7 7 8 8 9 9 10 10 11 2 12 1 13
REMARK SMILES IDX 14 14
REMARK H PARENT 14 15
REMARK Flexibility Score: inf
ROOT
ATOM      1  C   UNL     1      30.102  -7.695 -30.958  1.00  0.00     0.161 A 
ATOM      2  C   UNL     1      28.825  -8.078 -31.398  1.00  0.00     0.161 A 
ATOM      3  C   UNL     1      27.680  -7.484 -30.848  1.00  0.00     0.098 A 
ATOM      4  C   UNL     1      27.800  -6.507 -29.857  1.00  0.00     0.142 A 
ATOM      5  C   UNL     1      29.079  -6.117 -29.410  1.00  0.00     0.022 A 
ATOM      6  C   UNL     1      30.225  -6.709 -29.958  1.00  0.00     0.062 A 
ATOM      7  C   UNL     1      29.167  -5.136 -28.416  1.00  0.00     0.019 A 
ATOM      8  C   UNL     1      27.998  -4.576 -27.901  1.00  0.00     0.094 A 
ATOM      9  C   UNL     1      26.764  -5.012 -28.394  1.00  0.00     0.336 A 
ATOM     10  O   UNL     1      25.697  -4.520 -27.943  1.00  0.00    -0.246 OA
ATOM     11  O   UNL     1      26.709  -5.948 -29.339  1.00  0.00    -0.423 OA
ENDROOT
BRANCH   1  12
ATOM     12  O   UNL     1      31.221  -8.315 -31.537  1.00  0.00    -0.493 OA
ATOM     13  C   UNL     1      32.411  -7.635 -31.922  1.00  0.00     0.278 C 
ENDBRANCH   1  12
BRANCH   2  14
ATOM     14  O   UNL     1      28.702  -9.052 -32.387  1.00  0.00    -0.504 OA
ATOM     15  H   UNL     1      29.512  -9.533 -32.761  1.00  0.00     0.293 HD
ENDBRANCH   2  14
TORSDOF 2
ENDMDL
MODEL 7
REMARK VINA RESULT:    -4.149     14.493     16.296
REMARK INTER + INTRA:          -4.570
REMARK INTER:                  -4.516
REMARK INTRA:                  -0.054
REMARK UNBOUND:                -0.057
REMARK SMILES COc1cc2ccc(=O)oc2cc1O
REMARK SMILES IDX 3 1 13 2 12 3 11 4 5 5 4 6 6 7 7 8 8 9 9 10 10 11 2 12 1 13
REMARK SMILES IDX 14 14
REMARK H PARENT 14 15
REMARK Flexibility Score: inf
ROOT
ATOM      1  C   UNL     1      23.241   4.368 -25.711  1.00  0.00     0.161 A 
ATOM      2  C   UNL     1      23.739   5.431 -26.482  1.00  0.00     0.161 A 
ATOM      3  C   UNL     1      24.365   6.522 -25.862  1.00  0.00     0.098 A 
ATOM      4  C   UNL     1      24.499   6.561 -24.472  1.00  0.00     0.142 A 
ATOM      5  C   UNL     1      24.001   5.497 -23.691  1.00  0.00     0.022 A 
ATOM      6  C   UNL     1      23.375   4.406 -24.309  1.00  0.00     0.062 A 
ATOM      7  C   UNL     1      24.150   5.566 -22.301  1.00  0.00     0.019 A 
ATOM      8  C   UNL     1      24.780   6.672 -21.733  1.00  0.00     0.094 A 
ATOM      9  C   UNL     1      25.248   7.689 -22.571  1.00  0.00     0.336 A 
ATOM     10  O   UNL     1      25.819   8.696 -22.079  1.00  0.00    -0.246 OA
ATOM     11  O   UNL     1      25.093   7.599 -23.890  1.00  0.00    -0.423 OA
ENDROOT
BRANCH   1  12
ATOM     12  O   UNL     1      22.622   3.296 -26.374  1.00  0.00    -0.493 OA
ATOM     13  C   UNL     1      21.368   2.735 -26.002  1.00  0.00     0.278 C 
ENDBRANCH   1  12
BRANCH   2  14
ATOM     14  O   UNL     1      23.607   5.395 -27.869  1.00  0.00    -0.504 OA
ATOM     15  H   UNL     1      23.220   4.588 -28.344  1.00  0.00     0.293 HD
ENDBRANCH   2  14
TORSDOF 2
ENDMDL
MODEL 8
REMARK VINA RESULT:    -4.094      1.899      2.203
REMARK INTER + INTRA:          -4.511
REMARK INTER:                  -4.465
REMARK INTRA:                  -0.046
REMARK UNBOUND:                -0.057
REMARK SMILES COc1cc2ccc(=O)oc2cc1O
REMARK SMILES IDX 3 1 13 2 12 3 11 4 5 5 4 6 6 7 7 8 8 9 9 10 10 11 2 12 1 13
REMARK SMILES IDX 14 14
REMARK H PARENT 14 15
REMARK Flexibility Score: inf
ROOT
ATOM      1  C   UNL     1      28.277  -6.852 -30.407  1.00  0.00     0.161 A 
ATOM      2  C   UNL     1      28.582  -5.482 -30.455  1.00  0.00     0.161 A 
ATOM      3  C   UNL     1      29.850  -5.054 -30.873  1.00  0.00     0.098 A 
ATOM      4  C   UNL     1      30.822  -5.987 -31.243  1.00  0.00     0.142 A 
ATOM      5  C   UNL     1      30.523  -7.364 -31.197  1.00  0.00     0.022 A 
ATOM      6  C   UNL     1      29.256  -7.794 -30.780  1.00  0.00     0.062 A 
ATOM      7  C   UNL     1      31.518  -8.274 -31.573  1.00  0.00     0.019 A 
ATOM      8  C   UNL     1      32.763  -7.798 -31.981  1.00  0.00     0.094 A 
ATOM      9  C   UNL     1      32.987  -6.417 -32.002  1.00  0.00     0.336 A 
ATOM     10  O   UNL     1      34.104  -5.967 -32.366  1.00  0.00    -0.246 OA
ATOM     11  O   UNL     1      32.024  -5.574 -31.637  1.00  0.00    -0.423 OA
ENDROOT
BRANCH   1  12
ATOM     12  O   UNL     1      26.994  -7.235 -29.983  1.00  0.00    -0.493 OA
ATOM     13  C   UNL     1      26.633  -8.558 -29.601  1.00  0.00     0.278 C 
ENDBRANCH   1  12
BRANCH   2  14
ATOM     14  O   UNL     1      27.614  -4.549 -30.087  1.00  0.00    -0.504 OA
ATOM     15  H   UNL     1      27.830  -3.778 -29.467  1.00  0.00     0.293 HD
ENDBRANCH   2  14
TORSDOF 2
ENDMDL
MODEL 9
REMARK VINA RESULT:    -3.985      2.064      5.470
REMARK INTER + INTRA:          -4.392
REMARK INTER:                  -4.330
REMARK INTRA:                  -0.062
REMARK UNBOUND:                -0.057
REMARK SMILES COc1cc2ccc(=O)oc2cc1O
REMARK SMILES IDX 3 1 13 2 12 3 11 4 5 5 4 6 6 7 7 8 8 9 9 10 10 11 2 12 1 13
REMARK SMILES IDX 14 14
REMARK H PARENT 14 15
REMARK Flexibility Score: inf
ROOT
ATOM      1  C   UNL     1      31.387  -6.355 -31.829  1.00  0.00     0.161 A 
ATOM      2  C   UNL     1      31.378  -5.151 -31.106  1.00  0.00     0.161 A 
ATOM      3  C   UNL     1      30.282  -4.821 -30.295  1.00  0.00     0.098 A 
ATOM      4  C   UNL     1      29.190  -5.686 -30.202  1.00  0.00     0.142 A 
ATOM      5  C   UNL     1      29.191  -6.897 -30.925  1.00  0.00     0.022 A 
ATOM      6  C   UNL     1      30.286  -7.228 -31.735  1.00  0.00     0.062 A 
ATOM      7  C   UNL     1      28.082  -7.742 -30.811  1.00  0.00     0.019 A 
ATOM      8  C   UNL     1      27.017  -7.368 -29.992  1.00  0.00     0.094 A 
ATOM      9  C   UNL     1      27.086  -6.152 -29.304  1.00  0.00     0.336 A 
ATOM     10  O   UNL     1      26.135  -5.796 -28.560  1.00  0.00    -0.246 OA
ATOM     11  O   UNL     1      28.152  -5.367 -29.432  1.00  0.00    -0.423 OA
ENDROOT
BRANCH   1  12
ATOM     12  O   UNL     1      32.505  -6.645 -32.627  1.00  0.00    -0.493 OA
ATOM     13  C   UNL     1      33.391  -7.738 -32.407  1.00  0.00     0.278 C 
ENDBRANCH   1  12
BRANCH   2  14
ATOM     14  O   UNL     1      32.467  -4.286 -31.197  1.00  0.00    -0.504 OA
ATOM     15  H   UNL     1      33.218  -4.305 -30.518  1.00  0.00     0.293 HD
ENDBRANCH   2  14
TORSDOF 2
ENDMDL
