MODEL 1
REMARK VINA RESULT:    -4.749      0.000      0.000
REMARK INTER + INTRA:          -5.386
REMARK INTER:                  -5.166
REMARK INTRA:                  -0.220
REMARK UNBOUND:                -0.220
REMARK SMILES CC(C)(C)[C@H]1C=C[C@H](O)CC1
REMARK SMILES IDX 5 1 11 2 10 3 8 4 7 5 6 6 2 7 1 8 3 9 4 10 9 11
REMARK H PARENT 9 12
REMARK Flexibility Score: inf
ROOT
ATOM      1  C   UNL     1      12.530 -15.953  29.995  1.00  0.00     0.017 C 
ATOM      2  C   UNL     1      14.014 -15.768  29.578  1.00  0.00     0.011 C 
ATOM      3  C   UNL     1      14.119 -15.165  28.177  1.00  0.00     0.037 C 
ATOM      4  C   UNL     1      13.479 -13.775  28.154  1.00  0.00     0.137 C 
ATOM      5  C   UNL     1      12.090 -13.802  28.740  1.00  0.00     0.000 C 
ATOM      6  C   UNL     1      11.690 -14.733  29.624  1.00  0.00    -0.025 C 
ENDROOT
BRANCH   1   7
ATOM      7  C   UNL     1      12.350 -16.376  31.506  1.00  0.00    -0.032 C 
ATOM      8  C   UNL     1      11.155 -15.651  32.166  1.00  0.00     0.011 C 
ATOM      9  C   UNL     1      12.114 -17.904  31.605  1.00  0.00     0.011 C 
ATOM     10  C   UNL     1      13.628 -16.058  32.319  1.00  0.00     0.011 C 
ENDBRANCH   1   7
BRANCH   4  11
ATOM     11  O   UNL     1      13.428 -13.317  26.828  1.00  0.00    -0.389 OA
ATOM     12  H   UNL     1      13.361 -12.326  26.869  1.00  0.00     0.211 HD
ENDBRANCH   4  11
TORSDOF 2
ENDMDL
MODEL 2
REMARK VINA RESULT:    -4.648      2.303      4.584
REMARK INTER + INTRA:          -5.275
REMARK INTER:                  -5.052
REMARK INTRA:                  -0.224
REMARK UNBOUND:                -0.220
REMARK SMILES CC(C)(C)[C@H]1C=C[C@H](O)CC1
REMARK SMILES IDX 5 1 11 2 10 3 8 4 7 5 6 6 2 7 1 8 3 9 4 10 9 11
REMARK H PARENT 9 12
REMARK Flexibility Score: inf
ROOT
ATOM      1  C   UNL     1      12.557 -15.135  28.431  1.00  0.00     0.017 C 
ATOM      2  C   UNL     1      11.734 -14.880  29.722  1.00  0.00     0.011 C 
ATOM      3  C   UNL     1      11.917 -16.020  30.725  1.00  0.00     0.037 C 
ATOM      4  C   UNL     1      13.385 -16.114  31.150  1.00  0.00     0.137 C 
ATOM      5  C   UNL     1      14.300 -16.155  29.951  1.00  0.00     0.000 C 
ATOM      6  C   UNL     1      13.958 -15.647  28.755  1.00  0.00    -0.025 C 
ENDROOT
BRANCH   1   7
ATOM      7  C   UNL     1      12.575 -13.901  27.444  1.00  0.00    -0.032 C 
ATOM      8  C   UNL     1      11.542 -14.063  26.306  1.00  0.00     0.011 C 
ATOM      9  C   UNL     1      12.255 -12.598  28.217  1.00  0.00     0.011 C 
ATOM     10  C   UNL     1      13.978 -13.726  26.814  1.00  0.00     0.011 C 
ENDBRANCH   1   7
BRANCH   4  11
ATOM     11  O   UNL     1      13.564 -17.269  31.926  1.00  0.00    -0.389 OA
ATOM     12  H   UNL     1      13.408 -18.046  31.326  1.00  0.00     0.211 HD
ENDBRANCH   4  11
TORSDOF 2
ENDMDL
MODEL 3
REMARK VINA RESULT:    -4.627      2.549      4.349
REMARK INTER + INTRA:          -5.253
REMARK INTER:                  -5.026
REMARK INTRA:                  -0.227
REMARK UNBOUND:                -0.220
REMARK SMILES CC(C)(C)[C@H]1C=C[C@H](O)CC1
REMARK SMILES IDX 5 1 11 2 10 3 8 4 7 5 6 6 2 7 1 8 3 9 4 10 9 11
REMARK H PARENT 9 12
REMARK Flexibility Score: inf
ROOT
ATOM      1  C   UNL     1      12.966 -14.980  30.167  1.00  0.00     0.017 C 
ATOM      2  C   UNL     1      13.771 -16.305  30.242  1.00  0.00     0.011 C 
ATOM      3  C   UNL     1      13.400 -17.104  31.492  1.00  0.00     0.037 C 
ATOM      4  C   UNL     1      11.920 -17.491  31.447  1.00  0.00     0.137 C 
ATOM      5  C   UNL     1      11.049 -16.291  31.165  1.00  0.00     0.000 C 
ATOM      6  C   UNL     1      11.498 -15.199  30.523  1.00  0.00    -0.025 C 
ENDROOT
BRANCH   1   7
ATOM      7  C   UNL     1      13.150 -14.210  28.800  1.00  0.00    -0.032 C 
ATOM      8  C   UNL     1      14.591 -13.678  28.631  1.00  0.00     0.011 C 
ATOM      9  C   UNL     1      12.832 -15.152  27.612  1.00  0.00     0.011 C 
ATOM     10  C   UNL     1      12.170 -13.015  28.709  1.00  0.00     0.011 C 
ENDBRANCH   1   7
BRANCH   4  11
ATOM     11  O   UNL     1      11.559 -18.064  32.676  1.00  0.00    -0.389 OA
ATOM     12  H   UNL     1      10.574 -18.198  32.652  1.00  0.00     0.211 HD
ENDBRANCH   4  11
TORSDOF 2
ENDMDL
MODEL 4
REMARK VINA RESULT:    -4.578      2.359      4.209
REMARK INTER + INTRA:          -5.200
REMARK INTER:                  -4.985
REMARK INTRA:                  -0.215
REMARK UNBOUND:                -0.220
REMARK SMILES CC(C)(C)[C@H]1C=C[C@H](O)CC1
REMARK SMILES IDX 5 1 11 2 10 3 8 4 7 5 6 6 2 7 1 8 3 9 4 10 9 11
REMARK H PARENT 9 12
REMARK Flexibility Score: inf
ROOT
ATOM      1  C   UNL     1      13.525 -14.993  29.842  1.00  0.00     0.017 C 
ATOM      2  C   UNL     1      13.729 -16.195  30.804  1.00  0.00     0.011 C 
ATOM      3  C   UNL     1      12.791 -16.100  32.008  1.00  0.00     0.037 C 
ATOM      4  C   UNL     1      11.333 -16.151  31.542  1.00  0.00     0.137 C 
ATOM      5  C   UNL     1      11.074 -15.151  30.443  1.00  0.00     0.000 C 
ATOM      6  C   UNL     1      12.043 -14.692  29.632  1.00  0.00    -0.025 C 
ENDROOT
BRANCH   1   7
ATOM      7  C   UNL     1      14.313 -15.137  28.481  1.00  0.00    -0.032 C 
ATOM      8  C   UNL     1      13.415 -15.697  27.355  1.00  0.00     0.011 C 
ATOM      9  C   UNL     1      14.859 -13.758  28.035  1.00  0.00     0.011 C 
ATOM     10  C   UNL     1      15.532 -16.076  28.652  1.00  0.00     0.011 C 
ENDBRANCH   1   7
BRANCH   4  11
ATOM     11  O   UNL     1      10.494 -15.886  32.636  1.00  0.00    -0.389 OA
ATOM     12  H   UNL     1       9.564 -15.860  32.285  1.00  0.00     0.211 HD
ENDBRANCH   4  11
TORSDOF 2
ENDMDL
MODEL 5
REMARK VINA RESULT:    -4.545     10.577     11.702
REMARK INTER + INTRA:          -5.164
REMARK INTER:                  -4.942
REMARK INTRA:                  -0.222
REMARK UNBOUND:                -0.220
REMARK SMILES CC(C)(C)[C@H]1C=C[C@H](O)CC1
REMARK SMILES IDX 5 1 11 2 10 3 8 4 7 5 6 6 2 7 1 8 3 9 4 10 9 11
REMARK H PARENT 9 12
REMARK Flexibility Score: inf
ROOT
ATOM      1  C   UNL     1       5.300 -17.682  21.851  1.00  0.00     0.017 C 
ATOM      2  C   UNL     1       6.668 -17.427  22.538  1.00  0.00     0.011 C 
ATOM      3  C   UNL     1       7.481 -18.718  22.641  1.00  0.00     0.037 C 
ATOM      4  C   UNL     1       7.786 -19.259  21.242  1.00  0.00     0.137 C 
ATOM      5  C   UNL     1       6.534 -19.351  20.406  1.00  0.00     0.000 C 
ATOM      6  C   UNL     1       5.450 -18.588  20.631  1.00  0.00    -0.025 C 
ENDROOT
BRANCH   1   7
ATOM      7  C   UNL     1       4.502 -16.358  21.528  1.00  0.00    -0.032 C 
ATOM      8  C   UNL     1       5.401 -15.297  20.852  1.00  0.00     0.011 C 
ATOM      9  C   UNL     1       3.315 -16.670  20.583  1.00  0.00     0.011 C 
ATOM     10  C   UNL     1       3.908 -15.749  22.821  1.00  0.00     0.011 C 
ENDBRANCH   1   7
BRANCH   4  11
ATOM     11  O   UNL     1       8.374 -20.528  21.360  1.00  0.00    -0.389 OA
ATOM     12  H   UNL     1       9.272 -20.469  20.938  1.00  0.00     0.211 HD
ENDBRANCH   4  11
TORSDOF 2
ENDMDL
MODEL 6
REMARK VINA RESULT:    -4.481      2.671      5.526
REMARK INTER + INTRA:          -5.095
REMARK INTER:                  -4.868
REMARK INTRA:                  -0.226
REMARK UNBOUND:                -0.220
REMARK SMILES CC(C)(C)[C@H]1C=C[C@H](O)CC1
REMARK SMILES IDX 5 1 11 2 10 3 8 4 7 5 6 6 2 7 1 8 3 9 4 10 9 11
REMARK H PARENT 9 12
REMARK Flexibility Score: inf
ROOT
ATOM      1  C   UNL     1      12.437 -13.573  26.565  1.00  0.00     0.017 C 
ATOM      2  C   UNL     1      12.378 -13.064  28.030  1.00  0.00     0.011 C 
ATOM      3  C   UNL     1      11.801 -14.133  28.960  1.00  0.00     0.037 C 
ATOM      4  C   UNL     1      12.703 -15.370  28.960  1.00  0.00     0.137 C 
ATOM      5  C   UNL     1      13.000 -15.831  27.555  1.00  0.00     0.000 C 
ATOM      6  C   UNL     1      12.956 -15.007  26.493  1.00  0.00    -0.025 C 
ENDROOT
BRANCH   1   7
ATOM      7  C   UNL     1      13.211 -12.599  25.592  1.00  0.00    -0.032 C 
ATOM      8  C   UNL     1      12.262 -11.568  24.939  1.00  0.00     0.011 C 
ATOM      9  C   UNL     1      14.308 -11.832  26.371  1.00  0.00     0.011 C 
ATOM     10  C   UNL     1      13.920 -13.396  24.470  1.00  0.00     0.011 C 
ENDBRANCH   1   7
BRANCH   4  11
ATOM     11  O   UNL     1      12.069 -16.398  29.675  1.00  0.00    -0.389 OA
ATOM     12  H   UNL     1      11.167 -16.062  29.922  1.00  0.00     0.211 HD
ENDBRANCH   4  11
TORSDOF 2
ENDMDL
MODEL 7
REMARK VINA RESULT:    -4.481      0.907      1.771
REMARK INTER + INTRA:          -5.094
REMARK INTER:                  -4.878
REMARK INTRA:                  -0.216
REMARK UNBOUND:                -0.220
REMARK SMILES CC(C)(C)[C@H]1C=C[C@H](O)CC1
REMARK SMILES IDX 5 1 11 2 10 3 8 4 7 5 6 6 2 7 1 8 3 9 4 10 9 11
REMARK H PARENT 9 12
REMARK Flexibility Score: inf
ROOT
ATOM      1  C   UNL     1      13.042 -15.126  30.356  1.00  0.00     0.017 C 
ATOM      2  C   UNL     1      11.669 -14.813  29.703  1.00  0.00     0.011 C 
ATOM      3  C   UNL     1      11.849 -14.136  28.343  1.00  0.00     0.037 C 
ATOM      4  C   UNL     1      12.589 -15.074  27.385  1.00  0.00     0.137 C 
ATOM      5  C   UNL     1      13.852 -15.610  28.011  1.00  0.00     0.000 C 
ATOM      6  C   UNL     1      14.023 -15.705  29.341  1.00  0.00    -0.025 C 
ENDROOT
BRANCH   1   7
ATOM      7  C   UNL     1      12.930 -16.007  31.662  1.00  0.00    -0.032 C 
ATOM      8  C   UNL     1      11.548 -15.856  32.338  1.00  0.00     0.011 C 
ATOM      9  C   UNL     1      13.147 -17.501  31.315  1.00  0.00     0.011 C 
ATOM     10  C   UNL     1      14.023 -15.613  32.684  1.00  0.00     0.011 C 
ENDBRANCH   1   7
BRANCH   4  11
ATOM     11  O   UNL     1      12.900 -14.374  26.209  1.00  0.00    -0.389 OA
ATOM     12  H   UNL     1      13.506 -13.630  26.468  1.00  0.00     0.211 HD
ENDBRANCH   4  11
TORSDOF 2
ENDMDL
MODEL 8
REMARK VINA RESULT:    -4.456      9.342     10.764
REMARK INTER + INTRA:          -5.067
REMARK INTER:                  -4.844
REMARK INTRA:                  -0.223
REMARK UNBOUND:                -0.220
REMARK SMILES CC(C)(C)[C@H]1C=C[C@H](O)CC1
REMARK SMILES IDX 5 1 11 2 10 3 8 4 7 5 6 6 2 7 1 8 3 9 4 10 9 11
REMARK H PARENT 9 12
REMARK Flexibility Score: inf
ROOT
ATOM      1  C   UNL     1       5.475 -17.241  22.601  1.00  0.00     0.017 C 
ATOM      2  C   UNL     1       4.651 -17.622  23.860  1.00  0.00     0.011 C 
ATOM      3  C   UNL     1       5.369 -18.690  24.685  1.00  0.00     0.037 C 
ATOM      4  C   UNL     1       6.712 -18.151  25.186  1.00  0.00     0.137 C 
ATOM      5  C   UNL     1       7.518 -17.557  24.057  1.00  0.00     0.000 C 
ATOM      6  C   UNL     1       6.957 -17.079  22.934  1.00  0.00    -0.025 C 
ENDROOT
BRANCH   1   7
ATOM      7  C   UNL     1       4.890 -16.000  21.818  1.00  0.00    -0.032 C 
ATOM      8  C   UNL     1       5.998 -15.211  21.084  1.00  0.00     0.011 C 
ATOM      9  C   UNL     1       3.849 -16.474  20.774  1.00  0.00     0.011 C 
ATOM     10  C   UNL     1       4.160 -15.038  22.786  1.00  0.00     0.011 C 
ENDBRANCH   1   7
BRANCH   4  11
ATOM     11  O   UNL     1       7.430 -19.196  25.786  1.00  0.00    -0.389 OA
ATOM     12  H   UNL     1       8.096 -18.777  26.393  1.00  0.00     0.211 HD
ENDBRANCH   4  11
TORSDOF 2
ENDMDL
MODEL 9
REMARK VINA RESULT:    -4.382     10.616     11.670
REMARK INTER + INTRA:          -4.986
REMARK INTER:                  -4.767
REMARK INTRA:                  -0.219
REMARK UNBOUND:                -0.220
REMARK SMILES CC(C)(C)[C@H]1C=C[C@H](O)CC1
REMARK SMILES IDX 5 1 11 2 10 3 8 4 7 5 6 6 2 7 1 8 3 9 4 10 9 11
REMARK H PARENT 9 12
REMARK Flexibility Score: inf
ROOT
ATOM      1  C   UNL     1       5.359 -16.996  21.539  1.00  0.00     0.017 C 
ATOM      2  C   UNL     1       5.103 -18.065  20.443  1.00  0.00     0.011 C 
ATOM      3  C   UNL     1       6.417 -18.677  19.955  1.00  0.00     0.037 C 
ATOM      4  C   UNL     1       7.124 -19.392  21.110  1.00  0.00     0.137 C 
ATOM      5  C   UNL     1       7.239 -18.497  22.318  1.00  0.00     0.000 C 
ATOM      6  C   UNL     1       6.400 -17.472  22.549  1.00  0.00    -0.025 C 
ENDROOT
BRANCH   1   7
ATOM      7  C   UNL     1       4.037 -16.476  22.230  1.00  0.00    -0.032 C 
ATOM      8  C   UNL     1       4.153 -14.991  22.642  1.00  0.00     0.011 C 
ATOM      9  C   UNL     1       2.838 -16.626  21.261  1.00  0.00     0.011 C 
ATOM     10  C   UNL     1       3.713 -17.313  23.490  1.00  0.00     0.011 C 
ENDBRANCH   1   7
BRANCH   4  11
ATOM     11  O   UNL     1       8.401 -19.790  20.688  1.00  0.00    -0.389 OA
ATOM     12  H   UNL     1       9.053 -19.185  21.132  1.00  0.00     0.211 HD
ENDBRANCH   4  11
TORSDOF 2
ENDMDL
