MODEL 1
REMARK VINA RESULT:    -4.027      0.000      0.000
REMARK INTER + INTRA:          -4.446
REMARK INTER:                  -4.262
REMARK INTRA:                  -0.184
REMARK UNBOUND:                -0.184
REMARK SMILES C=C1CC=C(C(C)C)CC1
REMARK SMILES IDX 5 1 4 2 3 3 2 4 1 5 10 6 9 7 6 8 7 9 8 10
REMARK H PARENT
REMARK Flexibility Score: inf
ROOT
ATOM      1  C   UNL     1      11.758   5.884  17.030  1.00  0.00    -0.071 C 
ATOM      2  C   UNL     1      12.884   5.900  16.287  1.00  0.00    -0.023 C 
ATOM      3  C   UNL     1      13.812   4.711  16.250  1.00  0.00     0.057 C 
ATOM      4  C   UNL     1      13.878   4.037  17.605  1.00  0.00    -0.073 C 
ATOM      5  C   UNL     1      14.971   3.350  17.961  1.00  0.00     0.008 C 
ATOM      6  C   UNL     1      12.692   4.107  18.545  1.00  0.00     0.035 C 
ATOM      7  C   UNL     1      11.440   4.636  17.831  1.00  0.00     0.035 C 
ENDROOT
BRANCH   1   8
ATOM      8  C   UNL     1      10.875   7.119  17.109  1.00  0.00     0.008 C 
ATOM      9  C   UNL     1      11.085   8.017  15.885  1.00  0.00     0.012 C 
ATOM     10  C   UNL     1      11.119   7.893  18.410  1.00  0.00     0.012 C 
ENDBRANCH   1   8
TORSDOF 1
ENDMDL
MODEL 2
REMARK VINA RESULT:    -4.025      0.790      1.393
REMARK INTER + INTRA:          -4.444
REMARK INTER:                  -4.295
REMARK INTRA:                  -0.149
REMARK UNBOUND:                -0.184
REMARK SMILES C=C1CC=C(C(C)C)CC1
REMARK SMILES IDX 5 1 4 2 3 3 2 4 1 5 10 6 9 7 6 8 7 9 8 10
REMARK H PARENT
REMARK Flexibility Score: inf
ROOT
ATOM      1  C   UNL     1      12.542   5.615  17.126  1.00  0.00    -0.071 C 
ATOM      2  C   UNL     1      13.610   5.403  16.329  1.00  0.00    -0.023 C 
ATOM      3  C   UNL     1      14.358   4.094  16.358  1.00  0.00     0.057 C 
ATOM      4  C   UNL     1      14.415   3.537  17.765  1.00  0.00    -0.073 C 
ATOM      5  C   UNL     1      15.422   2.733  18.130  1.00  0.00     0.008 C 
ATOM      6  C   UNL     1      13.313   3.859  18.753  1.00  0.00     0.035 C 
ATOM      7  C   UNL     1      12.104   4.500  18.056  1.00  0.00     0.035 C 
ENDROOT
BRANCH   1   8
ATOM      8  C   UNL     1      11.846   6.967  17.132  1.00  0.00     0.008 C 
ATOM      9  C   UNL     1      11.008   7.142  18.403  1.00  0.00     0.012 C 
ATOM     10  C   UNL     1      10.989   7.155  15.875  1.00  0.00     0.012 C 
ENDBRANCH   1   8
TORSDOF 1
ENDMDL
MODEL 3
REMARK VINA RESULT:    -3.935      1.070      4.353
REMARK INTER + INTRA:          -4.349
REMARK INTER:                  -4.164
REMARK INTRA:                  -0.185
REMARK UNBOUND:                -0.184
REMARK SMILES C=C1CC=C(C(C)C)CC1
REMARK SMILES IDX 5 1 4 2 3 3 2 4 1 5 10 6 9 7 6 8 7 9 8 10
REMARK H PARENT
REMARK Flexibility Score: inf
ROOT
ATOM      1  C   UNL     1      12.999   4.239  17.824  1.00  0.00    -0.071 C 
ATOM      2  C   UNL     1      11.735   4.595  18.136  1.00  0.00    -0.023 C 
ATOM      3  C   UNL     1      10.875   5.357  17.160  1.00  0.00     0.057 C 
ATOM      4  C   UNL     1      11.705   6.349  16.372  1.00  0.00    -0.073 C 
ATOM      5  C   UNL     1      11.138   7.456  15.875  1.00  0.00     0.008 C 
ATOM      6  C   UNL     1      13.172   6.071  16.111  1.00  0.00     0.035 C 
ATOM      7  C   UNL     1      13.540   4.622  16.461  1.00  0.00     0.035 C 
ENDROOT
BRANCH   1   8
ATOM      8  C   UNL     1      13.871   3.533  18.850  1.00  0.00     0.008 C 
ATOM      9  C   UNL     1      14.158   4.450  20.043  1.00  0.00     0.012 C 
ATOM     10  C   UNL     1      15.173   3.028  18.217  1.00  0.00     0.012 C 
ENDBRANCH   1   8
TORSDOF 1
ENDMDL
MODEL 4
REMARK VINA RESULT:    -3.879      1.111      4.437
REMARK INTER + INTRA:          -4.290
REMARK INTER:                  -4.109
REMARK INTRA:                  -0.181
REMARK UNBOUND:                -0.184
REMARK SMILES C=C1CC=C(C(C)C)CC1
REMARK SMILES IDX 5 1 4 2 3 3 2 4 1 5 10 6 9 7 6 8 7 9 8 10
REMARK H PARENT
REMARK Flexibility Score: inf
ROOT
ATOM      1  C   UNL     1      11.907   5.391  18.086  1.00  0.00    -0.071 C 
ATOM      2  C   UNL     1      12.119   6.434  18.915  1.00  0.00    -0.023 C 
ATOM      3  C   UNL     1      11.359   7.726  18.756  1.00  0.00     0.057 C 
ATOM      4  C   UNL     1      11.122   8.035  17.293  1.00  0.00    -0.073 C 
ATOM      5  C   UNL     1      10.972   9.304  16.889  1.00  0.00     0.008 C 
ATOM      6  C   UNL     1      11.016   6.907  16.287  1.00  0.00     0.035 C 
ATOM      7  C   UNL     1      10.877   5.546  16.983  1.00  0.00     0.035 C 
ENDROOT
BRANCH   1   8
ATOM      8  C   UNL     1      12.735   4.124  18.219  1.00  0.00     0.008 C 
ATOM      9  C   UNL     1      13.194   3.925  19.668  1.00  0.00     0.012 C 
ATOM     10  C   UNL     1      13.930   4.139  17.259  1.00  0.00     0.012 C 
ENDBRANCH   1   8
TORSDOF 1
ENDMDL
MODEL 5
REMARK VINA RESULT:    -3.779      1.258      1.878
REMARK INTER + INTRA:          -4.183
REMARK INTER:                  -4.000
REMARK INTRA:                  -0.183
REMARK UNBOUND:                -0.184
REMARK SMILES C=C1CC=C(C(C)C)CC1
REMARK SMILES IDX 5 1 4 2 3 3 2 4 1 5 10 6 9 7 6 8 7 9 8 10
REMARK H PARENT
REMARK Flexibility Score: inf
ROOT
ATOM      1  C   UNL     1      12.885   5.004  16.938  1.00  0.00    -0.071 C 
ATOM      2  C   UNL     1      14.093   4.435  16.747  1.00  0.00    -0.023 C 
ATOM      3  C   UNL     1      14.565   3.294  17.613  1.00  0.00     0.057 C 
ATOM      4  C   UNL     1      14.096   3.473  19.042  1.00  0.00    -0.073 C 
ATOM      5  C   UNL     1      14.793   2.935  20.051  1.00  0.00     0.008 C 
ATOM      6  C   UNL     1      12.816   4.230  19.330  1.00  0.00     0.035 C 
ATOM      7  C   UNL     1      12.003   4.468  18.049  1.00  0.00     0.035 C 
ENDROOT
BRANCH   1   8
ATOM      8  C   UNL     1      12.459   6.199  16.100  1.00  0.00     0.008 C 
ATOM      9  C   UNL     1      13.208   7.463  16.535  1.00  0.00     0.012 C 
ATOM     10  C   UNL     1      10.942   6.407  16.162  1.00  0.00     0.012 C 
ENDBRANCH   1   8
TORSDOF 1
ENDMDL
MODEL 6
REMARK VINA RESULT:    -3.514      1.763      3.240
REMARK INTER + INTRA:          -3.903
REMARK INTER:                  -3.716
REMARK INTRA:                  -0.187
REMARK UNBOUND:                -0.184
REMARK SMILES C=C1CC=C(C(C)C)CC1
REMARK SMILES IDX 5 1 4 2 3 3 2 4 1 5 10 6 9 7 6 8 7 9 8 10
REMARK H PARENT
REMARK Flexibility Score: inf
ROOT
ATOM      1  C   UNL     1      13.787   4.215  17.553  1.00  0.00    -0.071 C 
ATOM      2  C   UNL     1      13.934   5.242  16.690  1.00  0.00    -0.023 C 
ATOM      3  C   UNL     1      15.193   5.402  15.875  1.00  0.00     0.057 C 
ATOM      4  C   UNL     1      16.409   4.980  16.674  1.00  0.00    -0.073 C 
ATOM      5  C   UNL     1      17.609   5.510  16.401  1.00  0.00     0.008 C 
ATOM      6  C   UNL     1      16.277   3.931  17.758  1.00  0.00     0.035 C 
ATOM      7  C   UNL     1      14.920   3.216  17.686  1.00  0.00     0.035 C 
ENDROOT
BRANCH   1   8
ATOM      8  C   UNL     1      12.540   4.113  18.417  1.00  0.00     0.008 C 
ATOM      9  C   UNL     1      11.430   5.022  17.879  1.00  0.00     0.012 C 
ATOM     10  C   UNL     1      12.853   4.433  19.883  1.00  0.00     0.012 C 
ENDBRANCH   1   8
TORSDOF 1
ENDMDL
MODEL 7
REMARK VINA RESULT:    -3.493      2.018      3.050
REMARK INTER + INTRA:          -3.881
REMARK INTER:                  -3.722
REMARK INTRA:                  -0.158
REMARK UNBOUND:                -0.184
REMARK SMILES C=C1CC=C(C(C)C)CC1
REMARK SMILES IDX 5 1 4 2 3 3 2 4 1 5 10 6 9 7 6 8 7 9 8 10
REMARK H PARENT
REMARK Flexibility Score: inf
ROOT
ATOM      1  C   UNL     1      13.411   6.064  16.763  1.00  0.00    -0.071 C 
ATOM      2  C   UNL     1      14.164   7.136  17.086  1.00  0.00    -0.023 C 
ATOM      3  C   UNL     1      15.579   7.276  16.583  1.00  0.00     0.057 C 
ATOM      4  C   UNL     1      16.269   5.929  16.533  1.00  0.00    -0.073 C 
ATOM      5  C   UNL     1      17.601   5.850  16.646  1.00  0.00     0.008 C 
ATOM      6  C   UNL     1      15.456   4.669  16.315  1.00  0.00     0.035 C 
ATOM      7  C   UNL     1      14.021   4.995  15.877  1.00  0.00     0.035 C 
ENDROOT
BRANCH   1   8
ATOM      8  C   UNL     1      12.013   5.909  17.339  1.00  0.00     0.008 C 
ATOM      9  C   UNL     1      11.845   4.535  17.997  1.00  0.00     0.012 C 
ATOM     10  C   UNL     1      10.943   6.142  16.267  1.00  0.00     0.012 C 
ENDBRANCH   1   8
TORSDOF 1
ENDMDL
MODEL 8
REMARK VINA RESULT:    -3.460      1.341      1.939
REMARK INTER + INTRA:          -3.846
REMARK INTER:                  -3.654
REMARK INTRA:                  -0.192
REMARK UNBOUND:                -0.184
REMARK SMILES C=C1CC=C(C(C)C)CC1
REMARK SMILES IDX 5 1 4 2 3 3 2 4 1 5 10 6 9 7 6 8 7 9 8 10
REMARK H PARENT
REMARK Flexibility Score: inf
ROOT
ATOM      1  C   UNL     1      11.247   7.022  18.283  1.00  0.00    -0.071 C 
ATOM      2  C   UNL     1      11.050   6.006  17.416  1.00  0.00    -0.023 C 
ATOM      3  C   UNL     1      11.476   4.599  17.753  1.00  0.00     0.057 C 
ATOM      4  C   UNL     1      12.767   4.602  18.544  1.00  0.00    -0.073 C 
ATOM      5  C   UNL     1      13.591   3.547  18.490  1.00  0.00     0.008 C 
ATOM      6  C   UNL     1      13.112   5.783  19.428  1.00  0.00     0.035 C 
ATOM      7  C   UNL     1      11.908   6.717  19.613  1.00  0.00     0.035 C 
ENDROOT
BRANCH   1   8
ATOM      8  C   UNL     1      10.875   8.443  17.894  1.00  0.00     0.008 C 
ATOM      9  C   UNL     1      11.139   8.687  16.404  1.00  0.00     0.012 C 
ATOM     10  C   UNL     1      11.617   9.467  18.761  1.00  0.00     0.012 C 
ENDBRANCH   1   8
TORSDOF 1
ENDMDL
MODEL 9
REMARK VINA RESULT:    -3.402      1.794      4.421
REMARK INTER + INTRA:          -3.785
REMARK INTER:                  -3.640
REMARK INTRA:                  -0.145
REMARK UNBOUND:                -0.184
REMARK SMILES C=C1CC=C(C(C)C)CC1
REMARK SMILES IDX 5 1 4 2 3 3 2 4 1 5 10 6 9 7 6 8 7 9 8 10
REMARK H PARENT
REMARK Flexibility Score: inf
ROOT
ATOM      1  C   UNL     1      13.132   4.389  19.357  1.00  0.00    -0.071 C 
ATOM      2  C   UNL     1      13.367   4.124  18.055  1.00  0.00    -0.023 C 
ATOM      3  C   UNL     1      12.973   5.100  16.975  1.00  0.00     0.057 C 
ATOM      4  C   UNL     1      11.670   5.790  17.322  1.00  0.00    -0.073 C 
ATOM      5  C   UNL     1      10.875   6.254  16.350  1.00  0.00     0.008 C 
ATOM      6  C   UNL     1      11.282   5.990  18.773  1.00  0.00     0.035 C 
ATOM      7  C   UNL     1      12.459   5.701  19.715  1.00  0.00     0.035 C 
ENDROOT
BRANCH   1   8
ATOM      8  C   UNL     1      13.472   3.360  20.422  1.00  0.00     0.008 C 
ATOM      9  C   UNL     1      13.074   3.865  21.813  1.00  0.00     0.012 C 
ATOM     10  C   UNL     1      14.958   2.985  20.376  1.00  0.00     0.012 C 
ENDBRANCH   1   8
TORSDOF 1
ENDMDL
