MODEL 1
REMARK VINA RESULT:    -5.310      0.000      0.000
REMARK INTER + INTRA:          -8.229
REMARK INTER:                  -7.173
REMARK INTRA:                  -1.056
REMARK UNBOUND:                -1.056
REMARK SMILES CC(=O)CCC=C(C)CCC=C(C)C
REMARK SMILES IDX 7 1 6 2 8 3 9 4 10 5 11 6 13 7 12 8 14 9 5 10 4 11 2 12 3 13
REMARK SMILES IDX 1 14
REMARK H PARENT
REMARK Flexibility Score: inf
ROOT
ATOM      1  C   UNL     1     121.237 179.097 126.799  1.00  0.00    -0.077 C 
ATOM      2  C   UNL     1     120.636 179.597 125.696  1.00  0.00    -0.028 C 
ATOM      3  C   UNL     1     120.445 178.500 127.939  1.00  0.00     0.039 C 
ENDROOT
BRANCH   1   4
ATOM      4  C   UNL     1     122.747 179.117 126.886  1.00  0.00     0.034 C 
BRANCH   4   5
ATOM      5  C   UNL     1     123.334 177.759 126.486  1.00  0.00     0.032 C 
BRANCH   5   6
ATOM      6  C   UNL     1     123.761 177.766 125.039  1.00  0.00    -0.028 C 
ATOM      7  C   UNL     1     123.681 177.176 122.655  1.00  0.00     0.039 C 
ATOM      8  C   UNL     1     123.114 177.111 124.049  1.00  0.00    -0.080 C 
ATOM      9  C   UNL     1     121.840 176.338 124.299  1.00  0.00     0.039 C 
ENDBRANCH   5   6
ENDBRANCH   4   5
ENDBRANCH   1   4
BRANCH   2  10
ATOM     10  C   UNL     1     119.142 179.670 125.495  1.00  0.00     0.035 C 
BRANCH  10  11
ATOM     11  C   UNL     1     118.651 178.504 124.632  1.00  0.00     0.079 C 
BRANCH  11  12
ATOM     12  C   UNL     1     117.174 178.285 124.823  1.00  0.00     0.130 C 
ATOM     13  O   UNL     1     116.412 178.478 123.888  1.00  0.00    -0.300 OA
ATOM     14  C   UNL     1     116.615 177.821 126.136  1.00  0.00     0.087 C 
ENDBRANCH  11  12
ENDBRANCH  10  11
ENDBRANCH   2  10
TORSDOF 6
ENDMDL
MODEL 2
REMARK VINA RESULT:    -5.152      2.590      6.221
REMARK INTER + INTRA:          -8.016
REMARK INTER:                  -6.961
REMARK INTRA:                  -1.055
REMARK UNBOUND:                -1.056
REMARK SMILES CC(=O)CCC=C(C)CCC=C(C)C
REMARK SMILES IDX 7 1 6 2 8 3 9 4 10 5 11 6 13 7 12 8 14 9 5 10 4 11 2 12 3 13
REMARK SMILES IDX 1 14
REMARK H PARENT
REMARK Flexibility Score: inf
ROOT
ATOM      1  C   UNL     1     118.568 177.859 125.953  1.00  0.00    -0.077 C 
ATOM      2  C   UNL     1     118.960 178.651 124.930  1.00  0.00    -0.028 C 
ATOM      3  C   UNL     1     119.477 177.551 127.119  1.00  0.00     0.039 C 
ENDROOT
BRANCH   1   4
ATOM      4  C   UNL     1     117.170 177.280 125.939  1.00  0.00     0.034 C 
BRANCH   4   5
ATOM      5  C   UNL     1     116.231 178.146 125.093  1.00  0.00     0.032 C 
BRANCH   5   6
ATOM      6  C   UNL     1     115.238 178.870 125.967  1.00  0.00    -0.028 C 
ATOM      7  C   UNL     1     114.206 180.784 127.112  1.00  0.00     0.039 C 
ATOM      8  C   UNL     1     115.238 180.205 126.179  1.00  0.00    -0.080 C 
ATOM      9  C   UNL     1     116.225 181.125 125.497  1.00  0.00     0.039 C 
ENDBRANCH   5   6
ENDBRANCH   4   5
ENDBRANCH   1   4
BRANCH   2  10
ATOM     10  C   UNL     1     120.334 179.263 124.802  1.00  0.00     0.035 C 
BRANCH  10  11
ATOM     11  C   UNL     1     121.162 178.525 123.747  1.00  0.00     0.079 C 
BRANCH  11  12
ATOM     12  C   UNL     1     121.927 177.388 124.370  1.00  0.00     0.130 C 
ATOM     13  O   UNL     1     122.899 177.630 125.071  1.00  0.00    -0.300 OA
ATOM     14  C   UNL     1     121.516 175.960 124.162  1.00  0.00     0.087 C 
ENDBRANCH  11  12
ENDBRANCH  10  11
ENDBRANCH   2  10
TORSDOF 6
ENDMDL
MODEL 3
REMARK VINA RESULT:    -5.152      1.305      1.951
REMARK INTER + INTRA:          -8.016
REMARK INTER:                  -6.937
REMARK INTRA:                  -1.079
REMARK UNBOUND:                -1.056
REMARK SMILES CC(=O)CCC=C(C)CCC=C(C)C
REMARK SMILES IDX 7 1 6 2 8 3 9 4 10 5 11 6 13 7 12 8 14 9 5 10 4 11 2 12 3 13
REMARK SMILES IDX 1 14
REMARK H PARENT
REMARK Flexibility Score: inf
ROOT
ATOM      1  C   UNL     1     120.106 178.754 126.438  1.00  0.00    -0.077 C 
ATOM      2  C   UNL     1     119.314 177.667 126.577  1.00  0.00    -0.028 C 
ATOM      3  C   UNL     1     119.848 179.802 125.381  1.00  0.00     0.039 C 
ENDROOT
BRANCH   1   4
ATOM      4  C   UNL     1     121.273 178.937 127.383  1.00  0.00     0.034 C 
BRANCH   4   5
ATOM      5  C   UNL     1     122.260 177.771 127.262  1.00  0.00     0.032 C 
BRANCH   5   6
ATOM      6  C   UNL     1     123.034 177.858 125.970  1.00  0.00    -0.028 C 
ATOM      7  C   UNL     1     123.863 177.123 123.776  1.00  0.00     0.039 C 
ATOM      8  C   UNL     1     123.004 176.919 124.997  1.00  0.00    -0.080 C 
ATOM      9  C   UNL     1     122.128 175.692 125.095  1.00  0.00     0.039 C 
ENDBRANCH   5   6
ENDBRANCH   4   5
ENDBRANCH   1   4
BRANCH   2  10
ATOM     10  C   UNL     1     118.141 177.346 125.683  1.00  0.00     0.035 C 
BRANCH  10  11
ATOM     11  C   UNL     1     116.817 177.640 126.396  1.00  0.00     0.079 C 
BRANCH  11  12
ATOM     12  C   UNL     1     115.917 178.475 125.525  1.00  0.00     0.130 C 
ATOM     13  O   UNL     1     114.992 179.090 126.032  1.00  0.00    -0.300 OA
ATOM     14  C   UNL     1     116.139 178.580 124.045  1.00  0.00     0.087 C 
ENDBRANCH  11  12
ENDBRANCH  10  11
ENDBRANCH   2  10
TORSDOF 6
ENDMDL
MODEL 4
REMARK VINA RESULT:    -5.140      1.784      3.306
REMARK INTER + INTRA:          -7.999
REMARK INTER:                  -7.030
REMARK INTRA:                  -0.969
REMARK UNBOUND:                -1.056
REMARK SMILES CC(=O)CCC=C(C)CCC=C(C)C
REMARK SMILES IDX 7 1 6 2 8 3 9 4 10 5 11 6 13 7 12 8 14 9 5 10 4 11 2 12 3 13
REMARK SMILES IDX 1 14
REMARK H PARENT
REMARK Flexibility Score: inf
ROOT
ATOM      1  C   UNL     1     119.276 177.881 125.289  1.00  0.00    -0.077 C 
ATOM      2  C   UNL     1     118.231 177.153 125.744  1.00  0.00    -0.028 C 
ATOM      3  C   UNL     1     119.285 179.390 125.350  1.00  0.00     0.039 C 
ENDROOT
BRANCH   1   4
ATOM      4  C   UNL     1     120.479 177.162 124.719  1.00  0.00     0.034 C 
BRANCH   4   5
ATOM      5  C   UNL     1     121.402 176.673 125.841  1.00  0.00     0.032 C 
BRANCH   5   6
ATOM      6  C   UNL     1     122.447 177.712 126.163  1.00  0.00    -0.028 C 
ATOM      7  C   UNL     1     123.520 179.523 127.431  1.00  0.00     0.039 C 
ATOM      8  C   UNL     1     122.427 178.501 127.262  1.00  0.00    -0.080 C 
ATOM      9  C   UNL     1     121.356 178.372 128.321  1.00  0.00     0.039 C 
ENDBRANCH   5   6
ENDBRANCH   4   5
ENDBRANCH   1   4
BRANCH   2  10
ATOM     10  C   UNL     1     116.959 177.742 126.303  1.00  0.00     0.035 C 
BRANCH  10  11
ATOM     11  C   UNL     1     115.985 178.101 125.176  1.00  0.00     0.079 C 
BRANCH  11  12
ATOM     12  C   UNL     1     115.189 179.328 125.531  1.00  0.00     0.130 C 
ATOM     13  O   UNL     1     113.995 179.222 125.772  1.00  0.00    -0.300 OA
ATOM     14  C   UNL     1     115.831 180.682 125.610  1.00  0.00     0.087 C 
ENDBRANCH  11  12
ENDBRANCH  10  11
ENDBRANCH   2  10
TORSDOF 6
ENDMDL
MODEL 5
REMARK VINA RESULT:    -5.137      2.678      6.279
REMARK INTER + INTRA:          -7.995
REMARK INTER:                  -7.052
REMARK INTRA:                  -0.942
REMARK UNBOUND:                -1.056
REMARK SMILES CC(=O)CCC=C(C)CCC=C(C)C
REMARK SMILES IDX 7 1 6 2 8 3 9 4 10 5 11 6 13 7 12 8 14 9 5 10 4 11 2 12 3 13
REMARK SMILES IDX 1 14
REMARK H PARENT
REMARK Flexibility Score: inf
ROOT
ATOM      1  C   UNL     1     119.575 178.260 126.474  1.00  0.00    -0.077 C 
ATOM      2  C   UNL     1     120.081 177.885 127.670  1.00  0.00    -0.028 C 
ATOM      3  C   UNL     1     120.020 179.526 125.779  1.00  0.00     0.039 C 
ENDROOT
BRANCH   1   4
ATOM      4  C   UNL     1     118.548 177.376 125.802  1.00  0.00     0.034 C 
BRANCH   4   5
ATOM      5  C   UNL     1     117.647 178.197 124.872  1.00  0.00     0.032 C 
BRANCH   5   6
ATOM      6  C   UNL     1     116.287 178.404 125.490  1.00  0.00    -0.028 C 
ATOM      7  C   UNL     1     114.378 179.665 126.387  1.00  0.00     0.039 C 
ATOM      8  C   UNL     1     115.731 179.614 125.725  1.00  0.00    -0.080 C 
ATOM      9  C   UNL     1     116.416 180.901 125.329  1.00  0.00     0.039 C 
ENDBRANCH   5   6
ENDBRANCH   4   5
ENDBRANCH   1   4
BRANCH   2  10
ATOM     10  C   UNL     1     121.083 178.689 128.463  1.00  0.00     0.035 C 
BRANCH  10  11
ATOM     11  C   UNL     1     122.483 178.079 128.348  1.00  0.00     0.079 C 
BRANCH  11  12
ATOM     12  C   UNL     1     123.259 178.734 127.238  1.00  0.00     0.130 C 
ATOM     13  O   UNL     1     123.690 179.867 127.392  1.00  0.00    -0.300 OA
ATOM     14  C   UNL     1     123.530 178.021 125.945  1.00  0.00     0.087 C 
ENDBRANCH  11  12
ENDBRANCH  10  11
ENDBRANCH   2  10
TORSDOF 6
ENDMDL
MODEL 6
REMARK VINA RESULT:    -5.063      1.974      3.781
REMARK INTER + INTRA:          -7.895
REMARK INTER:                  -7.028
REMARK INTRA:                  -0.868
REMARK UNBOUND:                -1.056
REMARK SMILES CC(=O)CCC=C(C)CCC=C(C)C
REMARK SMILES IDX 7 1 6 2 8 3 9 4 10 5 11 6 13 7 12 8 14 9 5 10 4 11 2 12 3 13
REMARK SMILES IDX 1 14
REMARK H PARENT
REMARK Flexibility Score: inf
ROOT
ATOM      1  C   UNL     1     123.877 177.332 124.606  1.00  0.00    -0.077 C 
ATOM      2  C   UNL     1     122.823 176.871 123.896  1.00  0.00    -0.028 C 
ATOM      3  C   UNL     1     123.705 178.001 125.949  1.00  0.00     0.039 C 
ENDROOT
BRANCH   1   4
ATOM      4  C   UNL     1     125.272 177.156 124.047  1.00  0.00     0.034 C 
BRANCH   4   5
ATOM      5  C   UNL     1     125.228 176.452 122.687  1.00  0.00     0.032 C 
BRANCH   5   6
ATOM      6  C   UNL     1     125.761 177.353 121.601  1.00  0.00    -0.028 C 
ATOM      7  C   UNL     1     125.697 178.702 119.548  1.00  0.00     0.039 C 
ATOM      8  C   UNL     1     125.018 177.844 120.583  1.00  0.00    -0.080 C 
ATOM      9  C   UNL     1     123.536 177.572 120.469  1.00  0.00     0.039 C 
ENDBRANCH   5   6
ENDBRANCH   4   5
ENDBRANCH   1   4
BRANCH   2  10
ATOM     10  C   UNL     1     121.381 177.012 124.319  1.00  0.00     0.035 C 
BRANCH  10  11
ATOM     11  C   UNL     1     120.776 178.306 123.768  1.00  0.00     0.079 C 
BRANCH  11  12
ATOM     12  C   UNL     1     119.780 178.884 124.737  1.00  0.00     0.130 C 
ATOM     13  O   UNL     1     118.679 178.365 124.848  1.00  0.00    -0.300 OA
ATOM     14  C   UNL     1     120.112 180.078 125.582  1.00  0.00     0.087 C 
ENDBRANCH  11  12
ENDBRANCH  10  11
ENDBRANCH   2  10
TORSDOF 6
ENDMDL
MODEL 7
REMARK VINA RESULT:    -5.054      3.487      6.658
REMARK INTER + INTRA:          -7.883
REMARK INTER:                  -7.101
REMARK INTRA:                  -0.782
REMARK UNBOUND:                -1.056
REMARK SMILES CC(=O)CCC=C(C)CCC=C(C)C
REMARK SMILES IDX 7 1 6 2 8 3 9 4 10 5 11 6 13 7 12 8 14 9 5 10 4 11 2 12 3 13
REMARK SMILES IDX 1 14
REMARK H PARENT
REMARK Flexibility Score: inf
ROOT
ATOM      1  C   UNL     1     123.963 176.920 123.642  1.00  0.00    -0.077 C 
ATOM      2  C   UNL     1     123.609 177.159 122.359  1.00  0.00    -0.028 C 
ATOM      3  C   UNL     1     125.323 177.299 124.179  1.00  0.00     0.039 C 
ENDROOT
BRANCH   1   4
ATOM      4  C   UNL     1     122.960 176.273 124.572  1.00  0.00     0.034 C 
BRANCH   4   5
ATOM      5  C   UNL     1     121.527 176.573 124.121  1.00  0.00     0.032 C 
BRANCH   5   6
ATOM      6  C   UNL     1     120.932 177.692 124.938  1.00  0.00    -0.028 C 
ATOM      7  C   UNL     1     120.097 179.956 125.404  1.00  0.00     0.039 C 
ATOM      8  C   UNL     1     120.654 178.925 124.457  1.00  0.00    -0.080 C 
ATOM      9  C   UNL     1     120.868 179.285 123.005  1.00  0.00     0.039 C 
ENDBRANCH   5   6
ENDBRANCH   4   5
ENDBRANCH   1   4
BRANCH   2  10
ATOM     10  C   UNL     1     124.521 177.765 121.320  1.00  0.00     0.035 C 
BRANCH  10  11
ATOM     11  C   UNL     1     124.189 177.227 119.925  1.00  0.00     0.079 C 
BRANCH  11  12
ATOM     12  C   UNL     1     125.052 177.885 118.882  1.00  0.00     0.130 C 
ATOM     13  O   UNL     1     124.551 178.249 117.828  1.00  0.00    -0.300 OA
ATOM     14  C   UNL     1     126.517 178.117 119.111  1.00  0.00     0.087 C 
ENDBRANCH  11  12
ENDBRANCH  10  11
ENDBRANCH   2  10
TORSDOF 6
ENDMDL
MODEL 8
REMARK VINA RESULT:    -5.048      3.118      6.083
REMARK INTER + INTRA:          -7.876
REMARK INTER:                  -6.934
REMARK INTRA:                  -0.941
REMARK UNBOUND:                -1.056
REMARK SMILES CC(=O)CCC=C(C)CCC=C(C)C
REMARK SMILES IDX 7 1 6 2 8 3 9 4 10 5 11 6 13 7 12 8 14 9 5 10 4 11 2 12 3 13
REMARK SMILES IDX 1 14
REMARK H PARENT
REMARK Flexibility Score: inf
ROOT
ATOM      1  C   UNL     1     121.147 177.468 124.142  1.00  0.00    -0.077 C 
ATOM      2  C   UNL     1     122.217 177.982 123.494  1.00  0.00    -0.028 C 
ATOM      3  C   UNL     1     121.100 176.025 124.586  1.00  0.00     0.039 C 
ENDROOT
BRANCH   1   4
ATOM      4  C   UNL     1     119.971 178.368 124.448  1.00  0.00     0.034 C 
BRANCH   4   5
ATOM      5  C   UNL     1     120.400 179.543 125.334  1.00  0.00     0.032 C 
BRANCH   5   6
ATOM      6  C   UNL     1     120.363 179.155 126.791  1.00  0.00    -0.028 C 
ATOM      7  C   UNL     1     121.264 178.509 128.984  1.00  0.00     0.039 C 
ATOM      8  C   UNL     1     121.459 178.929 127.550  1.00  0.00    -0.080 C 
ATOM      9  C   UNL     1     122.858 179.101 127.007  1.00  0.00     0.039 C 
ENDBRANCH   5   6
ENDBRANCH   4   5
ENDBRANCH   1   4
BRANCH   2  10
ATOM     10  C   UNL     1     123.437 177.189 123.097  1.00  0.00     0.035 C 
BRANCH  10  11
ATOM     11  C   UNL     1     123.772 177.408 121.619  1.00  0.00     0.079 C 
BRANCH  11  12
ATOM     12  C   UNL     1     125.230 177.144 121.358  1.00  0.00     0.130 C 
ATOM     13  O   UNL     1     125.551 176.331 120.504  1.00  0.00    -0.300 OA
ATOM     14  C   UNL     1     126.305 177.867 122.116  1.00  0.00     0.087 C 
ENDBRANCH  11  12
ENDBRANCH  10  11
ENDBRANCH   2  10
TORSDOF 6
ENDMDL
MODEL 9
REMARK VINA RESULT:    -5.021      2.468      3.140
REMARK INTER + INTRA:          -7.839
REMARK INTER:                  -6.322
REMARK INTRA:                  -1.517
REMARK UNBOUND:                -1.056
REMARK SMILES CC(=O)CCC=C(C)CCC=C(C)C
REMARK SMILES IDX 7 1 6 2 8 3 9 4 10 5 11 6 13 7 12 8 14 9 5 10 4 11 2 12 3 13
REMARK SMILES IDX 1 14
REMARK H PARENT
REMARK Flexibility Score: inf
ROOT
ATOM      1  C   UNL     1     121.541 177.459 128.388  1.00  0.00    -0.077 C 
ATOM      2  C   UNL     1     120.333 177.790 127.879  1.00  0.00    -0.028 C 
ATOM      3  C   UNL     1     121.864 176.050 128.826  1.00  0.00     0.039 C 
ENDROOT
BRANCH   1   4
ATOM      4  C   UNL     1     122.607 178.526 128.502  1.00  0.00     0.034 C 
BRANCH   4   5
ATOM      5  C   UNL     1     122.903 179.150 127.134  1.00  0.00     0.032 C 
BRANCH   5   6
ATOM      6  C   UNL     1     123.638 178.175 126.249  1.00  0.00    -0.028 C 
ATOM      7  C   UNL     1     123.987 176.683 124.328  1.00  0.00     0.039 C 
ATOM      8  C   UNL     1     123.154 177.683 125.087  1.00  0.00    -0.080 C 
ATOM      9  C   UNL     1     121.819 178.117 124.527  1.00  0.00     0.039 C 
ENDBRANCH   5   6
ENDBRANCH   4   5
ENDBRANCH   1   4
BRANCH   2  10
ATOM     10  C   UNL     1     119.173 176.835 127.742  1.00  0.00     0.035 C 
BRANCH  10  11
ATOM     11  C   UNL     1     119.030 176.357 126.294  1.00  0.00     0.079 C 
BRANCH  11  12
ATOM     12  C   UNL     1     119.555 174.955 126.142  1.00  0.00     0.130 C 
ATOM     13  O   UNL     1     118.909 174.019 126.589  1.00  0.00    -0.300 OA
ATOM     14  C   UNL     1     120.852 174.677 125.440  1.00  0.00     0.087 C 
ENDBRANCH  11  12
ENDBRANCH  10  11
ENDBRANCH   2  10
TORSDOF 6
ENDMDL
