MODEL 1
REMARK VINA RESULT:    -4.509      0.000      0.000
REMARK INTER + INTRA:         -10.050
REMARK INTER:                  -8.199
REMARK INTRA:                  -1.851
REMARK UNBOUND:                -1.851
REMARK SMILES CCCCCCCCCCCCCCCC(=O)[O-]
REMARK SMILES IDX 9 1 10 2 11 3 12 4 13 5 14 6 15 7 16 8 17 9 18 10 8 11 7 12
REMARK SMILES IDX 6 13 5 14 4 15 3 16 2 17 1 18
REMARK H PARENT
REMARK Flexibility Score: inf
ROOT
ATOM      1  C   UNL     1     -10.095   5.614   7.261  1.00  0.00     0.000 C 
ENDROOT
BRANCH   1   2
ATOM      2  C   UNL     1      -9.722   5.195   5.833  1.00  0.00     0.000 C 
BRANCH   2   3
ATOM      3  C   UNL     1      -9.754   6.397   4.881  1.00  0.00     0.000 C 
BRANCH   3   4
ATOM      4  C   UNL     1      -9.373   7.691   5.616  1.00  0.00     0.000 C 
BRANCH   4   5
ATOM      5  C   UNL     1      -9.854   8.954   4.883  1.00  0.00     0.000 C 
BRANCH   5   6
ATOM      6  C   UNL     1      -9.036  10.202   5.256  1.00  0.00     0.006 C 
BRANCH   6   7
ATOM      7  C   UNL     1      -7.524   9.955   5.156  1.00  0.00     0.053 C 
BRANCH   7   8
ATOM      8  C   UNL     1      -6.785  10.542   6.320  1.00  0.00     0.041 C 
ATOM      9  O   UNL     1      -5.549  10.762   6.239  1.00  0.00    -0.550 OA
ATOM     10  O   UNL     1      -7.458  10.819   7.504  1.00  0.00    -0.550 OA
ENDBRANCH   7   8
ENDBRANCH   6   7
ENDBRANCH   5   6
ENDBRANCH   4   5
ENDBRANCH   3   4
ENDBRANCH   2   3
ENDBRANCH   1   2
BRANCH   1  11
ATOM     11  C   UNL     1     -11.297   4.812   7.774  1.00  0.00     0.000 C 
BRANCH  11  12
ATOM     12  C   UNL     1     -11.263   3.371   7.244  1.00  0.00    -0.000 C 
BRANCH  12  13
ATOM     13  C   UNL     1     -12.541   2.995   6.476  1.00  0.00    -0.000 C 
BRANCH  13  14
ATOM     14  C   UNL     1     -12.401   3.205   4.958  1.00  0.00    -0.000 C 
BRANCH  14  15
ATOM     15  C   UNL     1     -13.153   4.452   4.457  1.00  0.00    -0.000 C 
BRANCH  15  16
ATOM     16  C   UNL     1     -13.973   5.188   5.531  1.00  0.00    -0.000 C 
BRANCH  16  17
ATOM     17  C   UNL     1     -14.150   6.683   5.229  1.00  0.00    -0.003 C 
ATOM     18  C   UNL     1     -13.160   7.527   6.026  1.00  0.00     0.004 C 
ENDBRANCH  16  17
ENDBRANCH  15  16
ENDBRANCH  14  15
ENDBRANCH  13  14
ENDBRANCH  12  13
ENDBRANCH  11  12
ENDBRANCH   1  11
TORSDOF 14
ENDMDL
MODEL 2
REMARK VINA RESULT:    -4.389      2.451      5.661
REMARK INTER + INTRA:          -9.831
REMARK INTER:                  -8.219
REMARK INTRA:                  -1.612
REMARK UNBOUND:                -1.851
REMARK SMILES CCCCCCCCCCCCCCCC(=O)[O-]
REMARK SMILES IDX 9 1 10 2 11 3 12 4 13 5 14 6 15 7 16 8 17 9 18 10 8 11 7 12
REMARK SMILES IDX 6 13 5 14 4 15 3 16 2 17 1 18
REMARK H PARENT
REMARK Flexibility Score: inf
ROOT
ATOM      1  C   UNL     1     -11.466   3.364   7.760  1.00  0.00     0.000 C 
ENDROOT
BRANCH   1   2
ATOM      2  C   UNL     1     -11.784   2.848   6.351  1.00  0.00     0.000 C 
BRANCH   2   3
ATOM      3  C   UNL     1     -13.133   3.386   5.859  1.00  0.00     0.000 C 
BRANCH   3   4
ATOM      4  C   UNL     1     -12.980   4.106   4.510  1.00  0.00     0.000 C 
BRANCH   4   5
ATOM      5  C   UNL     1     -14.006   5.233   4.319  1.00  0.00     0.000 C 
BRANCH   5   6
ATOM      6  C   UNL     1     -14.212   6.069   5.594  1.00  0.00     0.006 C 
BRANCH   6   7
ATOM      7  C   UNL     1     -13.084   7.087   5.808  1.00  0.00     0.053 C 
BRANCH   7   8
ATOM      8  C   UNL     1     -13.519   8.480   5.471  1.00  0.00     0.041 C 
ATOM      9  O   UNL     1     -12.989   9.466   6.045  1.00  0.00    -0.550 OA
ATOM     10  O   UNL     1     -14.532   8.688   4.542  1.00  0.00    -0.550 OA
ENDBRANCH   7   8
ENDBRANCH   6   7
ENDBRANCH   5   6
ENDBRANCH   4   5
ENDBRANCH   3   4
ENDBRANCH   2   3
ENDBRANCH   1   2
BRANCH   1  11
ATOM     11  C   UNL     1     -10.869   4.775   7.709  1.00  0.00     0.000 C 
BRANCH  11  12
ATOM     12  C   UNL     1     -10.048   4.979   6.427  1.00  0.00    -0.000 C 
BRANCH  12  13
ATOM     13  C   UNL     1      -9.431   6.385   6.340  1.00  0.00    -0.000 C 
BRANCH  13  14
ATOM     14  C   UNL     1      -9.431   6.941   4.905  1.00  0.00    -0.000 C 
BRANCH  14  15
ATOM     15  C   UNL     1      -9.682   8.460   4.853  1.00  0.00    -0.000 C 
BRANCH  15  16
ATOM     16  C   UNL     1      -8.823   9.290   5.824  1.00  0.00    -0.000 C 
BRANCH  16  17
ATOM     17  C   UNL     1      -7.740  10.113   5.111  1.00  0.00    -0.003 C 
ATOM     18  C   UNL     1      -6.457  10.164   5.935  1.00  0.00     0.004 C 
ENDBRANCH  16  17
ENDBRANCH  15  16
ENDBRANCH  14  15
ENDBRANCH  13  14
ENDBRANCH  12  13
ENDBRANCH  11  12
ENDBRANCH   1  11
TORSDOF 14
ENDMDL
MODEL 3
REMARK VINA RESULT:    -4.343      0.897      1.577
REMARK INTER + INTRA:          -9.748
REMARK INTER:                  -7.796
REMARK INTRA:                  -1.953
REMARK UNBOUND:                -1.851
REMARK SMILES CCCCCCCCCCCCCCCC(=O)[O-]
REMARK SMILES IDX 9 1 10 2 11 3 12 4 13 5 14 6 15 7 16 8 17 9 18 10 8 11 7 12
REMARK SMILES IDX 6 13 5 14 4 15 3 16 2 17 1 18
REMARK H PARENT
REMARK Flexibility Score: inf
ROOT
ATOM      1  C   UNL     1     -10.669   4.130   6.877  1.00  0.00     0.000 C 
ENDROOT
BRANCH   1   2
ATOM      2  C   UNL     1     -10.060   5.499   6.551  1.00  0.00     0.000 C 
BRANCH   2   3
ATOM      3  C   UNL     1      -9.881   5.677   5.039  1.00  0.00     0.000 C 
BRANCH   3   4
ATOM      4  C   UNL     1      -9.491   7.123   4.697  1.00  0.00     0.000 C 
BRANCH   4   5
ATOM      5  C   UNL     1      -9.023   7.918   5.926  1.00  0.00     0.000 C 
BRANCH   5   6
ATOM      6  C   UNL     1      -8.387   9.268   5.550  1.00  0.00     0.006 C 
BRANCH   6   7
ATOM      7  C   UNL     1      -8.266  10.207   6.758  1.00  0.00     0.053 C 
BRANCH   7   8
ATOM      8  C   UNL     1      -6.913  10.846   6.834  1.00  0.00     0.041 C 
ATOM      9  O   UNL     1      -6.639  11.640   7.771  1.00  0.00    -0.550 OA
ATOM     10  O   UNL     1      -5.964  10.585   5.853  1.00  0.00    -0.550 OA
ENDBRANCH   7   8
ENDBRANCH   6   7
ENDBRANCH   5   6
ENDBRANCH   4   5
ENDBRANCH   3   4
ENDBRANCH   2   3
ENDBRANCH   1   2
BRANCH   1  11
ATOM     11  C   UNL     1     -12.024   4.282   7.578  1.00  0.00     0.000 C 
BRANCH  11  12
ATOM     12  C   UNL     1     -13.137   3.590   6.778  1.00  0.00    -0.000 C 
BRANCH  12  13
ATOM     13  C   UNL     1     -12.807   3.483   5.280  1.00  0.00    -0.000 C 
BRANCH  13  14
ATOM     14  C   UNL     1     -13.470   4.596   4.449  1.00  0.00    -0.000 C 
BRANCH  14  15
ATOM     15  C   UNL     1     -14.283   5.581   5.310  1.00  0.00    -0.000 C 
BRANCH  15  16
ATOM     16  C   UNL     1     -13.951   7.066   5.082  1.00  0.00    -0.000 C 
BRANCH  16  17
ATOM     17  C   UNL     1     -13.001   7.637   6.144  1.00  0.00    -0.003 C 
ATOM     18  C   UNL     1     -12.557   9.051   5.782  1.00  0.00     0.004 C 
ENDBRANCH  16  17
ENDBRANCH  15  16
ENDBRANCH  14  15
ENDBRANCH  13  14
ENDBRANCH  12  13
ENDBRANCH  11  12
ENDBRANCH   1  11
TORSDOF 14
ENDMDL
MODEL 4
REMARK VINA RESULT:    -4.292      1.978      3.498
REMARK INTER + INTRA:          -9.656
REMARK INTER:                  -8.114
REMARK INTRA:                  -1.543
REMARK UNBOUND:                -1.851
REMARK SMILES CCCCCCCCCCCCCCCC(=O)[O-]
REMARK SMILES IDX 9 1 10 2 11 3 12 4 13 5 14 6 15 7 16 8 17 9 18 10 8 11 7 12
REMARK SMILES IDX 6 13 5 14 4 15 3 16 2 17 1 18
REMARK H PARENT
REMARK Flexibility Score: inf
ROOT
ATOM      1  C   UNL     1      -9.409   7.409   4.909  1.00  0.00     0.000 C 
ENDROOT
BRANCH   1   2
ATOM      2  C   UNL     1      -8.591   8.213   5.927  1.00  0.00     0.000 C 
BRANCH   2   3
ATOM      3  C   UNL     1      -7.792   9.325   5.237  1.00  0.00     0.000 C 
BRANCH   3   4
ATOM      4  C   UNL     1      -7.093  10.222   6.270  1.00  0.00     0.000 C 
BRANCH   4   5
ATOM      5  C   UNL     1      -7.998  10.571   7.463  1.00  0.00     0.000 C 
BRANCH   5   6
ATOM      6  C   UNL     1      -8.707  11.925   7.291  1.00  0.00     0.006 C 
BRANCH   6   7
ATOM      7  C   UNL     1     -10.235  11.786   7.317  1.00  0.00     0.053 C 
BRANCH   7   8
ATOM      8  C   UNL     1     -10.769  11.256   6.022  1.00  0.00     0.041 C 
ATOM      9  O   UNL     1     -11.489  10.224   6.008  1.00  0.00    -0.550 OA
ATOM     10  O   UNL     1     -10.447  11.886   4.826  1.00  0.00    -0.550 OA
ENDBRANCH   7   8
ENDBRANCH   6   7
ENDBRANCH   5   6
ENDBRANCH   4   5
ENDBRANCH   3   4
ENDBRANCH   2   3
ENDBRANCH   1   2
BRANCH   1  11
ATOM     11  C   UNL     1     -10.527   6.620   5.600  1.00  0.00     0.000 C 
BRANCH  11  12
ATOM     12  C   UNL     1      -9.978   5.341   6.249  1.00  0.00    -0.000 C 
BRANCH  12  13
ATOM     13  C   UNL     1     -10.357   5.223   7.734  1.00  0.00    -0.000 C 
BRANCH  13  14
ATOM     14  C   UNL     1     -11.191   3.965   8.032  1.00  0.00    -0.000 C 
BRANCH  14  15
ATOM     15  C   UNL     1     -11.665   3.246   6.755  1.00  0.00    -0.000 C 
BRANCH  15  16
ATOM     16  C   UNL     1     -13.177   3.336   6.486  1.00  0.00    -0.000 C 
BRANCH  16  17
ATOM     17  C   UNL     1     -13.554   4.513   5.574  1.00  0.00    -0.003 C 
ATOM     18  C   UNL     1     -13.127   4.252   4.133  1.00  0.00     0.004 C 
ENDBRANCH  16  17
ENDBRANCH  15  16
ENDBRANCH  14  15
ENDBRANCH  13  14
ENDBRANCH  12  13
ENDBRANCH  11  12
ENDBRANCH   1  11
TORSDOF 14
ENDMDL
MODEL 5
REMARK VINA RESULT:    -4.264      3.403      7.044
REMARK INTER + INTRA:          -9.604
REMARK INTER:                  -8.108
REMARK INTRA:                  -1.496
REMARK UNBOUND:                -1.851
REMARK SMILES CCCCCCCCCCCCCCCC(=O)[O-]
REMARK SMILES IDX 9 1 10 2 11 3 12 4 13 5 14 6 15 7 16 8 17 9 18 10 8 11 7 12
REMARK SMILES IDX 6 13 5 14 4 15 3 16 2 17 1 18
REMARK H PARENT
REMARK Flexibility Score: inf
ROOT
ATOM      1  C   UNL     1      -9.272   7.465   5.705  1.00  0.00     0.000 C 
ENDROOT
BRANCH   1   2
ATOM      2  C   UNL     1     -10.076   6.252   5.221  1.00  0.00     0.000 C 
BRANCH   2   3
ATOM      3  C   UNL     1      -9.845   5.039   6.131  1.00  0.00     0.000 C 
BRANCH   3   4
ATOM      4  C   UNL     1     -10.541   5.228   7.488  1.00  0.00     0.000 C 
BRANCH   4   5
ATOM      5  C   UNL     1     -11.327   3.984   7.930  1.00  0.00     0.000 C 
BRANCH   5   6
ATOM      6  C   UNL     1     -11.797   3.127   6.741  1.00  0.00     0.006 C 
BRANCH   6   7
ATOM      7  C   UNL     1     -13.251   3.425   6.351  1.00  0.00     0.053 C 
BRANCH   7   8
ATOM      8  C   UNL     1     -13.334   4.346   5.172  1.00  0.00     0.041 C 
ATOM      9  O   UNL     1     -13.765   5.520   5.314  1.00  0.00    -0.550 OA
ATOM     10  O   UNL     1     -12.963   3.898   3.910  1.00  0.00    -0.550 OA
ENDBRANCH   7   8
ENDBRANCH   6   7
ENDBRANCH   5   6
ENDBRANCH   4   5
ENDBRANCH   3   4
ENDBRANCH   2   3
ENDBRANCH   1   2
BRANCH   1  11
ATOM     11  C   UNL     1      -9.340   8.611   4.689  1.00  0.00     0.000 C 
BRANCH  11  12
ATOM     12  C   UNL     1      -8.375   9.743   5.072  1.00  0.00    -0.000 C 
BRANCH  12  13
ATOM     13  C   UNL     1      -7.593   9.440   6.361  1.00  0.00    -0.000 C 
BRANCH  13  14
ATOM     14  C   UNL     1      -7.911  10.435   7.492  1.00  0.00    -0.000 C 
BRANCH  14  15
ATOM     15  C   UNL     1      -8.655  11.688   6.993  1.00  0.00    -0.000 C 
BRANCH  15  16
ATOM     16  C   UNL     1      -9.939  12.029   7.770  1.00  0.00    -0.000 C 
BRANCH  16  17
ATOM     17  C   UNL     1     -11.169  12.171   6.861  1.00  0.00    -0.003 C 
ATOM     18  C   UNL     1     -11.720  10.805   6.464  1.00  0.00     0.004 C 
ENDBRANCH  16  17
ENDBRANCH  15  16
ENDBRANCH  14  15
ENDBRANCH  13  14
ENDBRANCH  12  13
ENDBRANCH  11  12
ENDBRANCH   1  11
TORSDOF 14
ENDMDL
MODEL 6
REMARK VINA RESULT:    -4.256      2.943      6.932
REMARK INTER + INTRA:          -9.589
REMARK INTER:                  -8.266
REMARK INTRA:                  -1.323
REMARK UNBOUND:                -1.851
REMARK SMILES CCCCCCCCCCCCCCCC(=O)[O-]
REMARK SMILES IDX 9 1 10 2 11 3 12 4 13 5 14 6 15 7 16 8 17 9 18 10 8 11 7 12
REMARK SMILES IDX 6 13 5 14 4 15 3 16 2 17 1 18
REMARK H PARENT
REMARK Flexibility Score: inf
ROOT
ATOM      1  C   UNL     1      -9.383   6.385   6.397  1.00  0.00     0.000 C 
ENDROOT
BRANCH   1   2
ATOM      2  C   UNL     1      -9.991   4.981   6.287  1.00  0.00     0.000 C 
BRANCH   2   3
ATOM      3  C   UNL     1     -10.723   4.595   7.578  1.00  0.00     0.000 C 
BRANCH   3   4
ATOM      4  C   UNL     1     -11.344   3.194   7.460  1.00  0.00     0.000 C 
BRANCH   4   5
ATOM      5  C   UNL     1     -12.106   2.991   6.142  1.00  0.00     0.000 C 
BRANCH   5   6
ATOM      6  C   UNL     1     -13.443   3.753   6.108  1.00  0.00     0.006 C 
BRANCH   6   7
ATOM      7  C   UNL     1     -13.510   4.752   4.945  1.00  0.00     0.053 C 
BRANCH   7   8
ATOM      8  C   UNL     1     -13.869   6.129   5.414  1.00  0.00     0.041 C 
ATOM      9  O   UNL     1     -15.024   6.587   5.210  1.00  0.00    -0.550 OA
ATOM     10  O   UNL     1     -12.919   6.918   6.050  1.00  0.00    -0.550 OA
ENDBRANCH   7   8
ENDBRANCH   6   7
ENDBRANCH   5   6
ENDBRANCH   4   5
ENDBRANCH   3   4
ENDBRANCH   2   3
ENDBRANCH   1   2
BRANCH   1  11
ATOM     11  C   UNL     1      -9.437   7.116   5.051  1.00  0.00     0.000 C 
BRANCH  11  12
ATOM     12  C   UNL     1      -9.569   8.633   5.254  1.00  0.00    -0.000 C 
BRANCH  12  13
ATOM     13  C   UNL     1      -8.279   9.390   4.897  1.00  0.00    -0.000 C 
BRANCH  13  14
ATOM     14  C   UNL     1      -7.288   9.455   6.073  1.00  0.00    -0.000 C 
BRANCH  14  15
ATOM     15  C   UNL     1      -7.129  10.877   6.641  1.00  0.00    -0.000 C 
BRANCH  15  16
ATOM     16  C   UNL     1      -7.953  11.163   7.909  1.00  0.00    -0.000 C 
BRANCH  16  17
ATOM     17  C   UNL     1      -9.399  11.579   7.603  1.00  0.00    -0.003 C 
ATOM     18  C   UNL     1      -9.446  12.648   6.515  1.00  0.00     0.004 C 
ENDBRANCH  16  17
ENDBRANCH  15  16
ENDBRANCH  14  15
ENDBRANCH  13  14
ENDBRANCH  12  13
ENDBRANCH  11  12
ENDBRANCH   1  11
TORSDOF 14
ENDMDL
MODEL 7
REMARK VINA RESULT:    -4.185      3.684      6.953
REMARK INTER + INTRA:          -9.461
REMARK INTER:                  -7.742
REMARK INTRA:                  -1.719
REMARK UNBOUND:                -1.851
REMARK SMILES CCCCCCCCCCCCCCCC(=O)[O-]
REMARK SMILES IDX 9 1 10 2 11 3 12 4 13 5 14 6 15 7 16 8 17 9 18 10 8 11 7 12
REMARK SMILES IDX 6 13 5 14 4 15 3 16 2 17 1 18
REMARK H PARENT
REMARK Flexibility Score: inf
ROOT
ATOM      1  C   UNL     1      -8.334   9.270   5.326  1.00  0.00     0.000 C 
ENDROOT
BRANCH   1   2
ATOM      2  C   UNL     1      -8.887   7.967   5.915  1.00  0.00     0.000 C 
BRANCH   2   3
ATOM      3  C   UNL     1      -9.447   7.058   4.814  1.00  0.00     0.000 C 
BRANCH   3   4
ATOM      4  C   UNL     1     -10.465   6.061   5.389  1.00  0.00     0.000 C 
BRANCH   4   5
ATOM      5  C   UNL     1      -9.862   5.155   6.473  1.00  0.00     0.000 C 
BRANCH   5   6
ATOM      6  C   UNL     1     -10.880   4.779   7.564  1.00  0.00     0.006 C 
BRANCH   6   7
ATOM      7  C   UNL     1     -11.285   3.300   7.493  1.00  0.00     0.053 C 
BRANCH   7   8
ATOM      8  C   UNL     1     -12.322   3.055   6.441  1.00  0.00     0.041 C 
ATOM      9  O   UNL     1     -13.491   3.497   6.589  1.00  0.00    -0.550 OA
ATOM     10  O   UNL     1     -12.006   2.313   5.310  1.00  0.00    -0.550 OA
ENDBRANCH   7   8
ENDBRANCH   6   7
ENDBRANCH   5   6
ENDBRANCH   4   5
ENDBRANCH   3   4
ENDBRANCH   2   3
ENDBRANCH   1   2
BRANCH   1  11
ATOM     11  C   UNL     1      -7.191   9.822   6.186  1.00  0.00     0.000 C 
BRANCH  11  12
ATOM     12  C   UNL     1      -7.715  10.839   7.210  1.00  0.00    -0.000 C 
BRANCH  12  13
ATOM     13  C   UNL     1      -8.820  11.740   6.634  1.00  0.00    -0.000 C 
BRANCH  13  14
ATOM     14  C   UNL     1     -10.073  11.781   7.526  1.00  0.00    -0.000 C 
BRANCH  14  15
ATOM     15  C   UNL     1     -11.357  11.389   6.772  1.00  0.00    -0.000 C 
BRANCH  15  16
ATOM     16  C   UNL     1     -11.296  11.583   5.247  1.00  0.00    -0.000 C 
BRANCH  16  17
ATOM     17  C   UNL     1     -11.749  10.341   4.466  1.00  0.00    -0.003 C 
ATOM     18  C   UNL     1     -12.369   9.302   5.396  1.00  0.00     0.004 C 
ENDBRANCH  16  17
ENDBRANCH  15  16
ENDBRANCH  14  15
ENDBRANCH  13  14
ENDBRANCH  12  13
ENDBRANCH  11  12
ENDBRANCH   1  11
TORSDOF 14
ENDMDL
MODEL 8
REMARK VINA RESULT:    -4.115      3.361      6.311
REMARK INTER + INTRA:          -9.333
REMARK INTER:                  -7.616
REMARK INTRA:                  -1.718
REMARK UNBOUND:                -1.851
REMARK SMILES CCCCCCCCCCCCCCCC(=O)[O-]
REMARK SMILES IDX 9 1 10 2 11 3 12 4 13 5 14 6 15 7 16 8 17 9 18 10 8 11 7 12
REMARK SMILES IDX 6 13 5 14 4 15 3 16 2 17 1 18
REMARK H PARENT
REMARK Flexibility Score: inf
ROOT
ATOM      1  C   UNL     1      -8.641   8.209   5.968  1.00  0.00     0.000 C 
ENDROOT
BRANCH   1   2
ATOM      2  C   UNL     1      -9.226   7.342   4.846  1.00  0.00     0.000 C 
BRANCH   2   3
ATOM      3  C   UNL     1     -10.296   6.387   5.389  1.00  0.00     0.000 C 
BRANCH   3   4
ATOM      4  C   UNL     1      -9.764   5.592   6.592  1.00  0.00     0.000 C 
BRANCH   4   5
ATOM      5  C   UNL     1     -10.882   4.900   7.388  1.00  0.00     0.000 C 
BRANCH   5   6
ATOM      6  C   UNL     1     -11.350   3.589   6.732  1.00  0.00     0.006 C 
BRANCH   6   7
ATOM      7  C   UNL     1     -12.707   3.745   6.032  1.00  0.00     0.053 C 
BRANCH   7   8
ATOM      8  C   UNL     1     -12.570   3.739   4.541  1.00  0.00     0.041 C 
ATOM      9  O   UNL     1     -11.528   3.281   4.002  1.00  0.00    -0.550 OA
ATOM     10  O   UNL     1     -13.580   4.266   3.746  1.00  0.00    -0.550 OA
ENDBRANCH   7   8
ENDBRANCH   6   7
ENDBRANCH   5   6
ENDBRANCH   4   5
ENDBRANCH   3   4
ENDBRANCH   2   3
ENDBRANCH   1   2
BRANCH   1  11
ATOM     11  C   UNL     1      -8.110   9.538   5.417  1.00  0.00     0.000 C 
BRANCH  11  12
ATOM     12  C   UNL     1      -8.867  10.727   6.026  1.00  0.00    -0.000 C 
BRANCH  12  13
ATOM     13  C   UNL     1     -10.126  11.097   5.225  1.00  0.00    -0.000 C 
BRANCH  13  14
ATOM     14  C   UNL     1     -11.425  10.761   5.980  1.00  0.00    -0.000 C 
BRANCH  14  15
ATOM     15  C   UNL     1     -12.188   9.578   5.356  1.00  0.00    -0.000 C 
BRANCH  15  16
ATOM     16  C   UNL     1     -13.153   8.854   6.312  1.00  0.00    -0.000 C 
BRANCH  16  17
ATOM     17  C   UNL     1     -13.456   7.412   5.879  1.00  0.00    -0.003 C 
ATOM     18  C   UNL     1     -14.767   7.335   5.103  1.00  0.00     0.004 C 
ENDBRANCH  16  17
ENDBRANCH  15  16
ENDBRANCH  14  15
ENDBRANCH  13  14
ENDBRANCH  12  13
ENDBRANCH  11  12
ENDBRANCH   1  11
TORSDOF 14
ENDMDL
MODEL 9
REMARK VINA RESULT:    -4.098      3.543      6.852
REMARK INTER + INTRA:          -9.302
REMARK INTER:                  -7.614
REMARK INTRA:                  -1.688
REMARK UNBOUND:                -1.851
REMARK SMILES CCCCCCCCCCCCCCCC(=O)[O-]
REMARK SMILES IDX 9 1 10 2 11 3 12 4 13 5 14 6 15 7 16 8 17 9 18 10 8 11 7 12
REMARK SMILES IDX 6 13 5 14 4 15 3 16 2 17 1 18
REMARK H PARENT
REMARK Flexibility Score: inf
ROOT
ATOM      1  C   UNL     1      -8.727   8.458   6.003  1.00  0.00     0.000 C 
ENDROOT
BRANCH   1   2
ATOM      2  C   UNL     1      -9.358   7.532   4.956  1.00  0.00     0.000 C 
BRANCH   2   3
ATOM      3  C   UNL     1     -10.438   6.644   5.586  1.00  0.00     0.000 C 
BRANCH   3   4
ATOM      4  C   UNL     1      -9.811   5.428   6.286  1.00  0.00     0.000 C 
BRANCH   4   5
ATOM      5  C   UNL     1     -10.742   4.801   7.336  1.00  0.00     0.000 C 
BRANCH   5   6
ATOM      6  C   UNL     1     -11.320   3.449   6.882  1.00  0.00     0.006 C 
BRANCH   6   7
ATOM      7  C   UNL     1     -12.732   3.590   6.297  1.00  0.00     0.053 C 
BRANCH   7   8
ATOM      8  C   UNL     1     -12.703   3.821   4.818  1.00  0.00     0.041 C 
ATOM      9  O   UNL     1     -13.641   4.442   4.254  1.00  0.00    -0.550 OA
ATOM     10  O   UNL     1     -11.652   3.325   4.056  1.00  0.00    -0.550 OA
ENDBRANCH   7   8
ENDBRANCH   6   7
ENDBRANCH   5   6
ENDBRANCH   4   5
ENDBRANCH   3   4
ENDBRANCH   2   3
ENDBRANCH   1   2
BRANCH   1  11
ATOM     11  C   UNL     1      -8.198   9.743   5.355  1.00  0.00     0.000 C 
BRANCH  11  12
ATOM     12  C   UNL     1      -7.954  10.831   6.411  1.00  0.00    -0.000 C 
BRANCH  12  13
ATOM     13  C   UNL     1      -9.044  11.915   6.403  1.00  0.00    -0.000 C 
BRANCH  13  14
ATOM     14  C   UNL     1     -10.231  11.566   7.317  1.00  0.00    -0.000 C 
BRANCH  14  15
ATOM     15  C   UNL     1     -11.591  11.692   6.605  1.00  0.00    -0.000 C 
BRANCH  15  16
ATOM     16  C   UNL     1     -12.423  10.399   6.567  1.00  0.00    -0.000 C 
BRANCH  16  17
ATOM     17  C   UNL     1     -12.416   9.723   5.188  1.00  0.00    -0.003 C 
ATOM     18  C   UNL     1     -11.742  10.608   4.144  1.00  0.00     0.004 C 
ENDBRANCH  16  17
ENDBRANCH  15  16
ENDBRANCH  14  15
ENDBRANCH  13  14
ENDBRANCH  12  13
ENDBRANCH  11  12
ENDBRANCH   1  11
TORSDOF 14
ENDMDL
