MODEL 1
REMARK VINA RESULT:    -5.127      0.000      0.000
REMARK INTER + INTRA:         -11.438
REMARK INTER:                  -9.623
REMARK INTRA:                  -1.815
REMARK UNBOUND:                -1.815
REMARK SMILES O=C([O-])CCCCCCCCCCCCCCC(=O)[O-]
REMARK SMILES IDX 10 1 9 2 8 3 7 4 6 5 5 6 4 7 2 8 1 9 3 10 11 11 12 12 13 13
REMARK SMILES IDX 14 14 15 15 16 16 17 17 18 18 19 19 20 20
REMARK H PARENT
REMARK Flexibility Score: inf
ROOT
ATOM      1  C   UNL     1       0.803  44.433   8.226  1.00  0.00     0.000 C 
ENDROOT
BRANCH   1   2
ATOM      2  C   UNL     1       1.646  43.952   9.417  1.00  0.00     0.000 C 
BRANCH   2   3
ATOM      3  C   UNL     1       1.254  44.637  10.737  1.00  0.00     0.000 C 
BRANCH   3   4
ATOM      4  C   UNL     1       2.222  44.303  11.885  1.00  0.00     0.000 C 
BRANCH   4   5
ATOM      5  C   UNL     1       3.641  43.964  11.392  1.00  0.00     0.000 C 
BRANCH   5   6
ATOM      6  C   UNL     1       4.122  42.533  11.706  1.00  0.00     0.006 C 
BRANCH   6   7
ATOM      7  C   UNL     1       3.001  41.485  11.784  1.00  0.00     0.053 C 
BRANCH   7   8
ATOM      8  C   UNL     1       3.446  40.242  12.490  1.00  0.00     0.041 C 
ATOM      9  O   UNL     1       2.627  39.311  12.712  1.00  0.00    -0.550 OA
ATOM     10  O   UNL     1       4.757  40.124  12.933  1.00  0.00    -0.550 OA
ENDBRANCH   7   8
ENDBRANCH   6   7
ENDBRANCH   5   6
ENDBRANCH   4   5
ENDBRANCH   3   4
ENDBRANCH   2   3
ENDBRANCH   1   2
BRANCH   1  11
ATOM     11  C   UNL     1       0.036  45.712   8.578  1.00  0.00     0.000 C 
BRANCH  11  12
ATOM     12  C   UNL     1       0.256  46.797   7.517  1.00  0.00     0.000 C 
BRANCH  12  13
ATOM     13  C   UNL     1       0.881  48.054   8.135  1.00  0.00     0.000 C 
BRANCH  13  14
ATOM     14  C   UNL     1       2.047  47.691   9.063  1.00  0.00     0.000 C 
BRANCH  14  15
ATOM     15  C   UNL     1       3.365  47.601   8.282  1.00  0.00     0.000 C 
BRANCH  15  16
ATOM     16  C   UNL     1       4.367  46.610   8.901  1.00  0.00     0.006 C 
BRANCH  16  17
ATOM     17  C   UNL     1       5.233  47.215  10.021  1.00  0.00     0.053 C 
BRANCH  17  18
ATOM     18  C   UNL     1       6.470  47.881   9.500  1.00  0.00     0.041 C 
ATOM     19  O   UNL     1       6.416  49.049   9.033  1.00  0.00    -0.550 OA
ATOM     20  O   UNL     1       7.680  47.198   9.501  1.00  0.00    -0.550 OA
ENDBRANCH  17  18
ENDBRANCH  16  17
ENDBRANCH  15  16
ENDBRANCH  14  15
ENDBRANCH  13  14
ENDBRANCH  12  13
ENDBRANCH  11  12
ENDBRANCH   1  11
TORSDOF 15
ENDMDL
MODEL 2
REMARK VINA RESULT:    -5.117      0.576      6.280
REMARK INTER + INTRA:         -11.418
REMARK INTER:                  -9.698
REMARK INTRA:                  -1.720
REMARK UNBOUND:                -1.815
REMARK SMILES O=C([O-])CCCCCCCCCCCCCCC(=O)[O-]
REMARK SMILES IDX 10 1 9 2 8 3 7 4 6 5 5 6 4 7 2 8 1 9 3 10 11 11 12 12 13 13
REMARK SMILES IDX 14 14 15 15 16 16 17 17 18 18 19 19 20 20
REMARK H PARENT
REMARK Flexibility Score: inf
ROOT
ATOM      1  C   UNL     1      -0.328  45.951   8.223  1.00  0.00     0.000 C 
ENDROOT
BRANCH   1   2
ATOM      2  C   UNL     1       0.246  46.985   7.242  1.00  0.00     0.000 C 
BRANCH   2   3
ATOM      3  C   UNL     1       1.018  48.112   7.950  1.00  0.00     0.000 C 
BRANCH   3   4
ATOM      4  C   UNL     1       2.539  47.883   7.937  1.00  0.00     0.000 C 
BRANCH   4   5
ATOM      5  C   UNL     1       3.049  47.181   9.208  1.00  0.00     0.000 C 
BRANCH   5   6
ATOM      6  C   UNL     1       4.409  46.469   9.064  1.00  0.00     0.006 C 
BRANCH   6   7
ATOM      7  C   UNL     1       5.478  46.923  10.070  1.00  0.00     0.053 C 
BRANCH   7   8
ATOM      8  C   UNL     1       6.513  47.797   9.430  1.00  0.00     0.041 C 
ATOM      9  O   UNL     1       6.175  48.870   8.864  1.00  0.00    -0.550 OA
ATOM     10  O   UNL     1       7.846  47.410   9.429  1.00  0.00    -0.550 OA
ENDBRANCH   7   8
ENDBRANCH   6   7
ENDBRANCH   5   6
ENDBRANCH   4   5
ENDBRANCH   3   4
ENDBRANCH   2   3
ENDBRANCH   1   2
BRANCH   1  11
ATOM     11  C   UNL     1       0.363  44.594   8.054  1.00  0.00     0.000 C 
BRANCH  11  12
ATOM     12  C   UNL     1       1.342  44.327   9.203  1.00  0.00     0.000 C 
BRANCH  12  13
ATOM     13  C   UNL     1       0.747  44.765  10.547  1.00  0.00     0.000 C 
BRANCH  13  14
ATOM     14  C   UNL     1       1.434  44.047  11.715  1.00  0.00     0.000 C 
BRANCH  14  15
ATOM     15  C   UNL     1       2.936  44.362  11.748  1.00  0.00     0.000 C 
BRANCH  15  16
ATOM     16  C   UNL     1       3.817  43.100  11.770  1.00  0.00     0.006 C 
BRANCH  16  17
ATOM     17  C   UNL     1       3.062  41.804  11.422  1.00  0.00     0.053 C 
BRANCH  17  18
ATOM     18  C   UNL     1       3.428  40.662  12.320  1.00  0.00     0.041 C 
ATOM     19  O   UNL     1       2.532  39.922  12.806  1.00  0.00    -0.550 OA
ATOM     20  O   UNL     1       4.759  40.433  12.645  1.00  0.00    -0.550 OA
ENDBRANCH  17  18
ENDBRANCH  16  17
ENDBRANCH  15  16
ENDBRANCH  14  15
ENDBRANCH  13  14
ENDBRANCH  12  13
ENDBRANCH  11  12
ENDBRANCH   1  11
TORSDOF 15
ENDMDL
MODEL 3
REMARK VINA RESULT:    -4.798      3.151      5.679
REMARK INTER + INTRA:         -10.821
REMARK INTER:                  -8.831
REMARK INTRA:                  -1.990
REMARK UNBOUND:                -1.815
REMARK SMILES O=C([O-])CCCCCCCCCCCCCCC(=O)[O-]
REMARK SMILES IDX 10 1 9 2 8 3 7 4 6 5 5 6 4 7 2 8 1 9 3 10 11 11 12 12 13 13
REMARK SMILES IDX 14 14 15 15 16 16 17 17 18 18 19 19 20 20
REMARK H PARENT
REMARK Flexibility Score: inf
ROOT
ATOM      1  C   UNL     1       1.596  43.987  12.011  1.00  0.00     0.000 C 
ENDROOT
BRANCH   1   2
ATOM      2  C   UNL     1       0.074  44.192  11.974  1.00  0.00     0.000 C 
BRANCH   2   3
ATOM      3  C   UNL     1      -0.362  45.207  10.903  1.00  0.00     0.000 C 
BRANCH   3   4
ATOM      4  C   UNL     1       0.807  45.672  10.020  1.00  0.00     0.000 C 
BRANCH   4   5
ATOM      5  C   UNL     1       0.651  45.248   8.548  1.00  0.00     0.000 C 
BRANCH   5   6
ATOM      6  C   UNL     1       0.177  46.360   7.590  1.00  0.00     0.006 C 
BRANCH   6   7
ATOM      7  C   UNL     1      -0.033  47.729   8.255  1.00  0.00     0.053 C 
BRANCH   7   8
ATOM      8  C   UNL     1       1.067  48.689   7.920  1.00  0.00     0.041 C 
ATOM      9  O   UNL     1       0.841  49.928   7.893  1.00  0.00    -0.550 OA
ATOM     10  O   UNL     1       2.332  48.214   7.605  1.00  0.00    -0.550 OA
ENDBRANCH   7   8
ENDBRANCH   6   7
ENDBRANCH   5   6
ENDBRANCH   4   5
ENDBRANCH   3   4
ENDBRANCH   2   3
ENDBRANCH   1   2
BRANCH   1  11
ATOM     11  C   UNL     1       1.946  42.498  12.102  1.00  0.00     0.000 C 
BRANCH  11  12
ATOM     12  C   UNL     1       3.109  42.147  11.165  1.00  0.00     0.000 C 
BRANCH  12  13
ATOM     13  C   UNL     1       2.728  42.388   9.699  1.00  0.00     0.000 C 
BRANCH  13  14
ATOM     14  C   UNL     1       3.784  43.243   8.989  1.00  0.00     0.000 C 
BRANCH  14  15
ATOM     15  C   UNL     1       4.322  44.339   9.919  1.00  0.00     0.000 C 
BRANCH  15  16
ATOM     16  C   UNL     1       4.296  45.739   9.281  1.00  0.00     0.006 C 
BRANCH  16  17
ATOM     17  C   UNL     1       4.942  46.834  10.149  1.00  0.00     0.053 C 
BRANCH  17  18
ATOM     18  C   UNL     1       5.940  47.659   9.394  1.00  0.00     0.041 C 
ATOM     19  O   UNL     1       5.553  48.552   8.595  1.00  0.00    -0.550 OA
ATOM     20  O   UNL     1       7.299  47.420   9.551  1.00  0.00    -0.550 OA
ENDBRANCH  17  18
ENDBRANCH  16  17
ENDBRANCH  15  16
ENDBRANCH  14  15
ENDBRANCH  13  14
ENDBRANCH  12  13
ENDBRANCH  11  12
ENDBRANCH   1  11
TORSDOF 15
ENDMDL
MODEL 4
REMARK VINA RESULT:    -4.757      3.077      5.931
REMARK INTER + INTRA:         -10.742
REMARK INTER:                  -8.965
REMARK INTRA:                  -1.777
REMARK UNBOUND:                -1.815
REMARK SMILES O=C([O-])CCCCCCCCCCCCCCC(=O)[O-]
REMARK SMILES IDX 10 1 9 2 8 3 7 4 6 5 5 6 4 7 2 8 1 9 3 10 11 11 12 12 13 13
REMARK SMILES IDX 14 14 15 15 16 16 17 17 18 18 19 19 20 20
REMARK H PARENT
REMARK Flexibility Score: inf
ROOT
ATOM      1  C   UNL     1       2.980  42.098  11.484  1.00  0.00     0.000 C 
ENDROOT
BRANCH   1   2
ATOM      2  C   UNL     1       3.016  42.495  10.001  1.00  0.00     0.000 C 
BRANCH   2   3
ATOM      3  C   UNL     1       4.107  43.533   9.689  1.00  0.00     0.000 C 
BRANCH   3   4
ATOM      4  C   UNL     1       4.477  44.386  10.915  1.00  0.00     0.000 C 
BRANCH   4   5
ATOM      5  C   UNL     1       4.491  45.895  10.611  1.00  0.00     0.000 C 
BRANCH   5   6
ATOM      6  C   UNL     1       4.541  46.264   9.115  1.00  0.00     0.006 C 
BRANCH   6   7
ATOM      7  C   UNL     1       4.740  47.761   8.833  1.00  0.00     0.053 C 
BRANCH   7   8
ATOM      8  C   UNL     1       6.139  48.206   9.131  1.00  0.00     0.041 C 
ATOM      9  O   UNL     1       6.436  49.429   9.101  1.00  0.00    -0.550 OA
ATOM     10  O   UNL     1       7.123  47.266   9.410  1.00  0.00    -0.550 OA
ENDBRANCH   7   8
ENDBRANCH   6   7
ENDBRANCH   5   6
ENDBRANCH   4   5
ENDBRANCH   3   4
ENDBRANCH   2   3
ENDBRANCH   1   2
BRANCH   1  11
ATOM     11  C   UNL     1       1.641  42.483  12.123  1.00  0.00     0.000 C 
BRANCH  11  12
ATOM     12  C   UNL     1       1.499  44.006  12.230  1.00  0.00     0.000 C 
BRANCH  12  13
ATOM     13  C   UNL     1       0.380  44.521  11.317  1.00  0.00     0.000 C 
BRANCH  13  14
ATOM     14  C   UNL     1       0.917  45.543  10.308  1.00  0.00     0.000 C 
BRANCH  14  15
ATOM     15  C   UNL     1       0.579  45.127   8.869  1.00  0.00     0.000 C 
BRANCH  15  16
ATOM     16  C   UNL     1       0.843  46.241   7.841  1.00  0.00     0.006 C 
BRANCH  16  17
ATOM     17  C   UNL     1      -0.316  47.242   7.692  1.00  0.00     0.053 C 
BRANCH  17  18
ATOM     18  C   UNL     1       0.057  48.629   8.118  1.00  0.00     0.041 C 
ATOM     19  O   UNL     1       1.035  48.816   8.889  1.00  0.00    -0.550 OA
ATOM     20  O   UNL     1      -0.694  49.715   7.687  1.00  0.00    -0.550 OA
ENDBRANCH  17  18
ENDBRANCH  16  17
ENDBRANCH  15  16
ENDBRANCH  14  15
ENDBRANCH  13  14
ENDBRANCH  12  13
ENDBRANCH  11  12
ENDBRANCH   1  11
TORSDOF 15
ENDMDL
MODEL 5
REMARK VINA RESULT:    -4.755      2.617      4.033
REMARK INTER + INTRA:         -10.740
REMARK INTER:                  -9.101
REMARK INTRA:                  -1.639
REMARK UNBOUND:                -1.815
REMARK SMILES O=C([O-])CCCCCCCCCCCCCCC(=O)[O-]
REMARK SMILES IDX 10 1 9 2 8 3 7 4 6 5 5 6 4 7 2 8 1 9 3 10 11 11 12 12 13 13
REMARK SMILES IDX 14 14 15 15 16 16 17 17 18 18 19 19 20 20
REMARK H PARENT
REMARK Flexibility Score: inf
ROOT
ATOM      1  C   UNL     1       4.608  46.240   9.482  1.00  0.00     0.000 C 
ENDROOT
BRANCH   1   2
ATOM      2  C   UNL     1       4.099  46.154  10.929  1.00  0.00     0.000 C 
BRANCH   2   3
ATOM      3  C   UNL     1       3.979  44.705  11.432  1.00  0.00     0.000 C 
BRANCH   3   4
ATOM      4  C   UNL     1       4.150  43.673  10.304  1.00  0.00     0.000 C 
BRANCH   4   5
ATOM      5  C   UNL     1       3.012  42.637  10.264  1.00  0.00     0.000 C 
BRANCH   5   6
ATOM      6  C   UNL     1       2.653  42.002  11.622  1.00  0.00     0.006 C 
BRANCH   6   7
ATOM      7  C   UNL     1       3.713  41.039  12.178  1.00  0.00     0.053 C 
BRANCH   7   8
ATOM      8  C   UNL     1       3.098  39.806  12.763  1.00  0.00     0.041 C 
ATOM      9  O   UNL     1       1.905  39.823  13.169  1.00  0.00    -0.550 OA
ATOM     10  O   UNL     1       3.851  38.646  12.891  1.00  0.00    -0.550 OA
ENDBRANCH   7   8
ENDBRANCH   6   7
ENDBRANCH   5   6
ENDBRANCH   4   5
ENDBRANCH   3   4
ENDBRANCH   2   3
ENDBRANCH   1   2
BRANCH   1  11
ATOM     11  C   UNL     1       5.591  47.403   9.314  1.00  0.00     0.000 C 
BRANCH  11  12
ATOM     12  C   UNL     1       5.027  48.470   8.368  1.00  0.00     0.000 C 
BRANCH  12  13
ATOM     13  C   UNL     1       3.761  47.966   7.662  1.00  0.00     0.000 C 
BRANCH  13  14
ATOM     14  C   UNL     1       2.794  49.121   7.374  1.00  0.00     0.000 C 
BRANCH  14  15
ATOM     15  C   UNL     1       1.373  48.781   7.843  1.00  0.00     0.000 C 
BRANCH  15  16
ATOM     16  C   UNL     1       1.136  47.268   8.001  1.00  0.00     0.006 C 
BRANCH  16  17
ATOM     17  C   UNL     1       0.863  46.825   9.449  1.00  0.00     0.053 C 
BRANCH  17  18
ATOM     18  C   UNL     1       0.613  45.353   9.568  1.00  0.00     0.041 C 
ATOM     19  O   UNL     1       0.690  44.611   8.553  1.00  0.00    -0.550 OA
ATOM     20  O   UNL     1       0.265  44.804  10.795  1.00  0.00    -0.550 OA
ENDBRANCH  17  18
ENDBRANCH  16  17
ENDBRANCH  15  16
ENDBRANCH  14  15
ENDBRANCH  13  14
ENDBRANCH  12  13
ENDBRANCH  11  12
ENDBRANCH   1  11
TORSDOF 15
ENDMDL
MODEL 6
REMARK VINA RESULT:    -4.741      1.108      1.841
REMARK INTER + INTRA:         -10.712
REMARK INTER:                  -9.125
REMARK INTRA:                  -1.587
REMARK UNBOUND:                -1.815
REMARK SMILES O=C([O-])CCCCCCCCCCCCCCC(=O)[O-]
REMARK SMILES IDX 10 1 9 2 8 3 7 4 6 5 5 6 4 7 2 8 1 9 3 10 11 11 12 12 13 13
REMARK SMILES IDX 14 14 15 15 16 16 17 17 18 18 19 19 20 20
REMARK H PARENT
REMARK Flexibility Score: inf
ROOT
ATOM      1  C   UNL     1       1.420  44.231   9.992  1.00  0.00     0.000 C 
ENDROOT
BRANCH   1   2
ATOM      2  C   UNL     1       1.928  44.687  11.368  1.00  0.00     0.000 C 
BRANCH   2   3
ATOM      3  C   UNL     1       3.434  44.435  11.559  1.00  0.00     0.000 C 
BRANCH   3   4
ATOM      4  C   UNL     1       3.894  43.108  10.932  1.00  0.00     0.000 C 
BRANCH   4   5
ATOM      5  C   UNL     1       4.153  42.010  11.980  1.00  0.00     0.000 C 
BRANCH   5   6
ATOM      6  C   UNL     1       3.100  40.885  12.027  1.00  0.00     0.006 C 
BRANCH   6   7
ATOM      7  C   UNL     1       3.491  39.680  12.896  1.00  0.00     0.053 C 
BRANCH   7   8
ATOM      8  C   UNL     1       2.689  38.461  12.557  1.00  0.00     0.041 C 
ATOM      9  O   UNL     1       1.501  38.350  12.962  1.00  0.00    -0.550 OA
ATOM     10  O   UNL     1       3.264  37.434  11.822  1.00  0.00    -0.550 OA
ENDBRANCH   7   8
ENDBRANCH   6   7
ENDBRANCH   5   6
ENDBRANCH   4   5
ENDBRANCH   3   4
ENDBRANCH   2   3
ENDBRANCH   1   2
BRANCH   1  11
ATOM     11  C   UNL     1       0.208  45.060   9.553  1.00  0.00     0.000 C 
BRANCH  11  12
ATOM     12  C   UNL     1       0.577  46.541   9.406  1.00  0.00     0.000 C 
BRANCH  12  13
ATOM     13  C   UNL     1       0.931  46.879   7.952  1.00  0.00     0.000 C 
BRANCH  13  14
ATOM     14  C   UNL     1       2.211  47.721   7.879  1.00  0.00     0.000 C 
BRANCH  14  15
ATOM     15  C   UNL     1       3.093  47.492   9.114  1.00  0.00     0.000 C 
BRANCH  15  16
ATOM     16  C   UNL     1       4.353  46.663   8.810  1.00  0.00     0.006 C 
BRANCH  16  17
ATOM     17  C   UNL     1       5.483  46.843   9.840  1.00  0.00     0.053 C 
BRANCH  17  18
ATOM     18  C   UNL     1       6.554  47.778   9.367  1.00  0.00     0.041 C 
ATOM     19  O   UNL     1       7.767  47.447   9.442  1.00  0.00    -0.550 OA
ATOM     20  O   UNL     1       6.214  49.030   8.871  1.00  0.00    -0.550 OA
ENDBRANCH  17  18
ENDBRANCH  16  17
ENDBRANCH  15  16
ENDBRANCH  14  15
ENDBRANCH  13  14
ENDBRANCH  12  13
ENDBRANCH  11  12
ENDBRANCH   1  11
TORSDOF 15
ENDMDL
MODEL 7
REMARK VINA RESULT:    -4.706      3.039      5.509
REMARK INTER + INTRA:         -10.647
REMARK INTER:                  -8.804
REMARK INTRA:                  -1.842
REMARK UNBOUND:                -1.815
REMARK SMILES O=C([O-])CCCCCCCCCCCCCCC(=O)[O-]
REMARK SMILES IDX 10 1 9 2 8 3 7 4 6 5 5 6 4 7 2 8 1 9 3 10 11 11 12 12 13 13
REMARK SMILES IDX 14 14 15 15 16 16 17 17 18 18 19 19 20 20
REMARK H PARENT
REMARK Flexibility Score: inf
ROOT
ATOM      1  C   UNL     1       2.552  42.666  10.284  1.00  0.00     0.000 C 
ENDROOT
BRANCH   1   2
ATOM      2  C   UNL     1       2.289  43.243   8.885  1.00  0.00     0.000 C 
BRANCH   2   3
ATOM      3  C   UNL     1       1.218  44.347   8.889  1.00  0.00     0.000 C 
BRANCH   3   4
ATOM      4  C   UNL     1       0.303  44.286   7.655  1.00  0.00     0.000 C 
BRANCH   4   5
ATOM      5  C   UNL     1      -0.164  45.677   7.186  1.00  0.00     0.000 C 
BRANCH   5   6
ATOM      6  C   UNL     1      -0.785  46.565   8.282  1.00  0.00     0.006 C 
BRANCH   6   7
ATOM      7  C   UNL     1      -0.419  48.054   8.182  1.00  0.00     0.053 C 
BRANCH   7   8
ATOM      8  C   UNL     1       1.040  48.289   8.428  1.00  0.00     0.041 C 
ATOM      9  O   UNL     1       1.583  47.863   9.481  1.00  0.00    -0.550 OA
ATOM     10  O   UNL     1       1.792  49.009   7.509  1.00  0.00    -0.550 OA
ENDBRANCH   7   8
ENDBRANCH   6   7
ENDBRANCH   5   6
ENDBRANCH   4   5
ENDBRANCH   3   4
ENDBRANCH   2   3
ENDBRANCH   1   2
BRANCH   1  11
ATOM     11  C   UNL     1       1.767  43.436  11.351  1.00  0.00     0.000 C 
BRANCH  11  12
ATOM     12  C   UNL     1       2.683  44.388  12.130  1.00  0.00     0.000 C 
BRANCH  12  13
ATOM     13  C   UNL     1       4.139  43.907  12.089  1.00  0.00     0.000 C 
BRANCH  13  14
ATOM     14  C   UNL     1       5.053  44.968  11.465  1.00  0.00     0.000 C 
BRANCH  14  15
ATOM     15  C   UNL     1       4.232  46.044  10.740  1.00  0.00     0.000 C 
BRANCH  15  16
ATOM     16  C   UNL     1       4.597  46.179   9.250  1.00  0.00     0.006 C 
BRANCH  16  17
ATOM     17  C   UNL     1       5.017  47.601   8.836  1.00  0.00     0.053 C 
BRANCH  17  18
ATOM     18  C   UNL     1       6.319  48.021   9.446  1.00  0.00     0.041 C 
ATOM     19  O   UNL     1       6.473  49.196   9.872  1.00  0.00    -0.550 OA
ATOM     20  O   UNL     1       7.375  47.121   9.517  1.00  0.00    -0.550 OA
ENDBRANCH  17  18
ENDBRANCH  16  17
ENDBRANCH  15  16
ENDBRANCH  14  15
ENDBRANCH  13  14
ENDBRANCH  12  13
ENDBRANCH  11  12
ENDBRANCH   1  11
TORSDOF 15
ENDMDL
MODEL 8
REMARK VINA RESULT:    -4.534      2.845      4.275
REMARK INTER + INTRA:         -10.324
REMARK INTER:                  -9.136
REMARK INTRA:                  -1.188
REMARK UNBOUND:                -1.815
REMARK SMILES O=C([O-])CCCCCCCCCCCCCCC(=O)[O-]
REMARK SMILES IDX 10 1 9 2 8 3 7 4 6 5 5 6 4 7 2 8 1 9 3 10 11 11 12 12 13 13
REMARK SMILES IDX 14 14 15 15 16 16 17 17 18 18 19 19 20 20
REMARK H PARENT
REMARK Flexibility Score: inf
ROOT
ATOM      1  C   UNL     1       4.378  44.935  10.709  1.00  0.00     0.000 C 
ENDROOT
BRANCH   1   2
ATOM      2  C   UNL     1       3.958  44.054   9.523  1.00  0.00     0.000 C 
BRANCH   2   3
ATOM      3  C   UNL     1       2.872  43.031   9.898  1.00  0.00     0.000 C 
BRANCH   3   4
ATOM      4  C   UNL     1       1.937  43.542  11.007  1.00  0.00     0.000 C 
BRANCH   4   5
ATOM      5  C   UNL     1       1.836  42.573  12.199  1.00  0.00     0.000 C 
BRANCH   5   6
ATOM      6  C   UNL     1       2.781  41.355  12.138  1.00  0.00     0.006 C 
BRANCH   6   7
ATOM      7  C   UNL     1       2.289  40.125  12.916  1.00  0.00     0.053 C 
BRANCH   7   8
ATOM      8  C   UNL     1       3.256  38.985  12.829  1.00  0.00     0.041 C 
ATOM      9  O   UNL     1       4.437  39.122  13.244  1.00  0.00    -0.550 OA
ATOM     10  O   UNL     1       2.862  37.782  12.260  1.00  0.00    -0.550 OA
ENDBRANCH   7   8
ENDBRANCH   6   7
ENDBRANCH   5   6
ENDBRANCH   4   5
ENDBRANCH   3   4
ENDBRANCH   2   3
ENDBRANCH   1   2
BRANCH   1  11
ATOM     11  C   UNL     1       4.259  46.422  10.357  1.00  0.00     0.000 C 
BRANCH  11  12
ATOM     12  C   UNL     1       3.030  46.684   9.479  1.00  0.00     0.000 C 
BRANCH  12  13
ATOM     13  C   UNL     1       3.392  47.555   8.269  1.00  0.00     0.000 C 
BRANCH  13  14
ATOM     14  C   UNL     1       2.138  48.171   7.638  1.00  0.00     0.000 C 
BRANCH  14  15
ATOM     15  C   UNL     1       1.077  48.475   8.705  1.00  0.00     0.000 C 
BRANCH  15  16
ATOM     16  C   UNL     1      -0.131  47.523   8.645  1.00  0.00     0.006 C 
BRANCH  16  17
ATOM     17  C   UNL     1      -0.377  46.913   7.253  1.00  0.00     0.053 C 
BRANCH  17  18
ATOM     18  C   UNL     1      -0.201  45.426   7.233  1.00  0.00     0.041 C 
ATOM     19  O   UNL     1       0.353  44.837   8.199  1.00  0.00    -0.550 OA
ATOM     20  O   UNL     1      -0.621  44.691   6.132  1.00  0.00    -0.550 OA
ENDBRANCH  17  18
ENDBRANCH  16  17
ENDBRANCH  15  16
ENDBRANCH  14  15
ENDBRANCH  13  14
ENDBRANCH  12  13
ENDBRANCH  11  12
ENDBRANCH   1  11
TORSDOF 15
ENDMDL
MODEL 9
REMARK VINA RESULT:    -4.436      2.839      6.994
REMARK INTER + INTRA:         -10.140
REMARK INTER:                  -8.939
REMARK INTRA:                  -1.202
REMARK UNBOUND:                -1.815
REMARK SMILES O=C([O-])CCCCCCCCCCCCCCC(=O)[O-]
REMARK SMILES IDX 10 1 9 2 8 3 7 4 6 5 5 6 4 7 2 8 1 9 3 10 11 11 12 12 13 13
REMARK SMILES IDX 14 14 15 15 16 16 17 17 18 18 19 19 20 20
REMARK H PARENT
REMARK Flexibility Score: inf
ROOT
ATOM      1  C   UNL     1       5.288  46.814   9.704  1.00  0.00     0.000 C 
ENDROOT
BRANCH   1   2
ATOM      2  C   UNL     1       4.888  47.910   8.705  1.00  0.00     0.000 C 
BRANCH   2   3
ATOM      3  C   UNL     1       3.648  47.534   7.876  1.00  0.00     0.000 C 
BRANCH   3   4
ATOM      4  C   UNL     1       2.705  48.728   7.653  1.00  0.00     0.000 C 
BRANCH   4   5
ATOM      5  C   UNL     1       1.251  48.428   8.063  1.00  0.00     0.000 C 
BRANCH   5   6
ATOM      6  C   UNL     1       0.892  46.932   8.162  1.00  0.00     0.006 C 
BRANCH   6   7
ATOM      7  C   UNL     1      -0.442  46.550   7.502  1.00  0.00     0.053 C 
BRANCH   7   8
ATOM      8  C   UNL     1      -0.402  45.173   6.914  1.00  0.00     0.041 C 
ATOM      9  O   UNL     1      -1.098  44.895   5.902  1.00  0.00    -0.550 OA
ATOM     10  O   UNL     1       0.378  44.188   7.504  1.00  0.00    -0.550 OA
ENDBRANCH   7   8
ENDBRANCH   6   7
ENDBRANCH   5   6
ENDBRANCH   4   5
ENDBRANCH   3   4
ENDBRANCH   2   3
ENDBRANCH   1   2
BRANCH   1  11
ATOM     11  C   UNL     1       4.163  46.552  10.711  1.00  0.00     0.000 C 
BRANCH  11  12
ATOM     12  C   UNL     1       3.555  45.159  10.509  1.00  0.00     0.000 C 
BRANCH  12  13
ATOM     13  C   UNL     1       2.085  45.131  10.943  1.00  0.00     0.000 C 
BRANCH  13  14
ATOM     14  C   UNL     1       1.512  43.710  10.859  1.00  0.00     0.000 C 
BRANCH  14  15
ATOM     15  C   UNL     1       1.917  42.880  12.084  1.00  0.00     0.000 C 
BRANCH  15  16
ATOM     16  C   UNL     1       2.827  41.689  11.733  1.00  0.00     0.006 C 
BRANCH  16  17
ATOM     17  C   UNL     1       2.611  40.453  12.624  1.00  0.00     0.053 C 
BRANCH  17  18
ATOM     18  C   UNL     1       3.861  39.649  12.814  1.00  0.00     0.041 C 
ATOM     19  O   UNL     1       3.818  38.391  12.791  1.00  0.00    -0.550 OA
ATOM     20  O   UNL     1       5.070  40.291  13.047  1.00  0.00    -0.550 OA
ENDBRANCH  17  18
ENDBRANCH  16  17
ENDBRANCH  15  16
ENDBRANCH  14  15
ENDBRANCH  13  14
ENDBRANCH  12  13
ENDBRANCH  11  12
ENDBRANCH   1  11
TORSDOF 15
ENDMDL
