MODEL 1
REMARK VINA RESULT:    -4.327      0.000      0.000
REMARK INTER + INTRA:         -12.067
REMARK INTER:                  -9.133
REMARK INTRA:                  -2.935
REMARK UNBOUND:                -2.935
REMARK SMILES CCC(=O)CCCCC[C@H]1NC(=O)[C@H]2CCCCN2C(=O)[C@@H]([C@@H](C)CC)NC(=O)[C@H](Cc2cn(OC)c3ccccc23)NC1=O
REMARK SMILES IDX 9 1 10 2 44 3 43 4 45 6 30 7 28 8 27 9 29 11 22 12 23 14
REMARK SMILES IDX 24 15 25 16 26 17 31 18 32 19 33 20 42 21 34 22 37 23 41 24
REMARK SMILES IDX 38 25 40 26 39 27 35 28 36 29 11 30 12 31 13 33 14 34 19 35
REMARK SMILES IDX 15 36 18 37 16 38 17 39 20 40 21 41 8 43 7 44 6 45 5 46 3 47
REMARK SMILES IDX 4 48 2 49 1 50
REMARK H PARENT 43 5 27 10 11 32
REMARK Flexibility Score: 80.00
ROOT
ATOM      1  C   UNL     1      64.456  28.748  49.333  1.00  0.00     0.035 C 
ENDROOT
BRANCH   1   2
ATOM      2  C   UNL     1      64.864  29.776  48.243  1.00  0.00     0.171 C 
BRANCH   2   3
ATOM      3  C   UNL     1      66.353  30.067  48.148  1.00  0.00     0.243 C 
ATOM      4  N   UNL     1      66.861  31.039  47.223  1.00  0.00    -0.342 N 
ATOM      5  H   UNL     1      66.199  31.789  46.935  1.00  0.00     0.164 HD
ATOM      6  O   UNL     1      67.144  29.475  48.939  1.00  0.00    -0.273 OA
BRANCH   4   7
ATOM      7  C   UNL     1      68.268  31.287  46.868  1.00  0.00     0.175 C 
BRANCH   7   8
ATOM      8  C   UNL     1      68.538  32.768  46.959  1.00  0.00     0.243 C 
ATOM      9  N   UNL     1      68.340  33.483  48.187  1.00  0.00    -0.342 N 
ATOM     10  H   UNL     1      69.092  33.382  48.898  1.00  0.00     0.164 HD
ATOM     11  O   UNL     1      68.876  33.399  45.912  1.00  0.00    -0.273 OA
BRANCH   9  12
ATOM     12  C   UNL     1      67.200  34.396  48.378  1.00  0.00     0.174 CG0
ATOM     13  G   UNL     1      66.473  34.062  49.684  1.00  0.00     0.000 G0
BRANCH  12  14
ATOM     14  C   UNL     1      67.571  35.883  48.040  1.00  0.00     0.018 C 
ATOM     15  C   UNL     1      69.093  36.142  48.091  1.00  0.00     0.010 C 
BRANCH  14  16
ATOM     16  C   UNL     1      66.839  36.455  46.799  1.00  0.00     0.002 C 
ATOM     17  C   UNL     1      66.039  35.411  46.021  1.00  0.00     0.004 C 
ENDBRANCH  14  16
ENDBRANCH  12  14
ENDBRANCH   9  12
ENDBRANCH   7   8
BRANCH   7  18
ATOM     18  C   UNL     1      68.647  30.739  45.463  1.00  0.00     0.073 C 
BRANCH  18  19
ATOM     19  C   UNL     1      69.231  29.355  45.488  1.00  0.00    -0.016 A 
ATOM     20  C   UNL     1      70.577  29.029  45.626  1.00  0.00     0.134 A 
ATOM     21  C   UNL     1      68.541  28.159  45.603  1.00  0.00     0.006 A 
ATOM     22  N   UNL     1      70.718  27.697  45.785  1.00  0.00    -0.191 N 
ATOM     23  C   UNL     1      69.469  27.166  45.804  1.00  0.00     0.087 A 
ATOM     24  C   UNL     1      67.171  27.898  45.608  1.00  0.00     0.011 A 
ATOM     25  C   UNL     1      69.083  25.856  46.093  1.00  0.00     0.030 A 
ATOM     26  C   UNL     1      66.754  26.577  45.843  1.00  0.00     0.001 A 
ATOM     27  C   UNL     1      67.707  25.567  46.098  1.00  0.00     0.002 A 
BRANCH  22  28
ATOM     28  O   UNL     1      71.939  27.074  46.022  1.00  0.00    -0.417 OA
ATOM     29  C   UNL     1      72.580  27.104  47.302  1.00  0.00     0.313 C 
ENDBRANCH  22  28
ENDBRANCH  18  19
ENDBRANCH   7  18
ENDBRANCH   4   7
ENDBRANCH   2   3
BRANCH   2  30
ATOM     30  N   UNL     1      64.127  31.025  48.428  1.00  0.00    -0.343 N 
ATOM     31  C   UNL     1      64.303  31.936  49.526  1.00  0.00     0.243 C 
ATOM     32  H   UNL     1      63.542  31.358  47.621  1.00  0.00     0.164 HD
ATOM     33  O   UNL     1      64.594  31.500  50.673  1.00  0.00    -0.273 OA
BRANCH  31  34
ATOM     34  C   UNL     1      64.039  33.399  49.313  1.00  0.00     0.174 C 
ATOM     35  N   UNL     1      65.072  34.225  50.012  1.00  0.00    -0.329 N 
ATOM     36  C   UNL     1      62.578  33.748  49.778  1.00  0.00     0.035 C 
ATOM     37  C   UNL     1      64.723  35.612  50.338  1.00  0.00     0.120 C 
ATOM     38  C   UNL     1      62.336  35.233  50.131  1.00  0.00     0.004 C 
ATOM     39  C   UNL     1      63.414  35.623  51.106  1.00  0.00     0.022 C 
BRANCH  35  40
ATOM     40  C   UNL     1      66.467  34.048  49.711  1.00  0.00     0.246 CG0
ATOM     41  O   UNL     1      67.216  33.640  50.648  1.00  0.00    -0.272 OA
ATOM     42  G   UNL     1      67.145  34.401  48.384  1.00  0.00     0.000 G0
ENDBRANCH  35  40
ENDBRANCH  31  34
ENDBRANCH   2  30
ENDBRANCH   1   2
BRANCH   1  43
ATOM     43  C   UNL     1      64.071  27.353  48.800  1.00  0.00     0.003 C 
BRANCH  43  44
ATOM     44  C   UNL     1      63.207  26.518  49.761  1.00  0.00     0.001 C 
BRANCH  44  45
ATOM     45  C   UNL     1      61.729  26.932  49.734  1.00  0.00     0.008 C 
BRANCH  45  46
ATOM     46  C   UNL     1      61.444  28.115  50.674  1.00  0.00     0.075 C 
BRANCH  46  47
ATOM     47  C   UNL     1      60.852  29.293  49.964  1.00  0.00     0.132 C 
ATOM     48  O   UNL     1      61.371  30.396  50.104  1.00  0.00    -0.300 OA
BRANCH  47  49
ATOM     49  C   UNL     1      59.701  29.136  49.008  1.00  0.00     0.072 C 
ATOM     50  C   UNL     1      58.366  29.188  49.749  1.00  0.00     0.012 C 
ENDBRANCH  47  49
ENDBRANCH  46  47
ENDBRANCH  45  46
ENDBRANCH  44  45
ENDBRANCH  43  44
ENDBRANCH   1  43
TORSDOF 12
ENDMDL
MODEL 2
REMARK VINA RESULT:    -4.101      3.818      8.263
REMARK INTER + INTRA:         -11.591
REMARK INTER:                  -8.023
REMARK INTRA:                  -3.568
REMARK UNBOUND:                -2.935
REMARK SMILES CCC(=O)CCCCC[C@H]1NC(=O)[C@H]2CCCCN2C(=O)[C@@H]([C@@H](C)CC)NC(=O)[C@H](Cc2cn(OC)c3ccccc23)NC1=O
REMARK SMILES IDX 9 1 10 2 44 3 43 4 45 6 30 7 28 8 27 9 29 11 22 12 23 14
REMARK SMILES IDX 24 15 25 16 26 17 31 18 32 19 33 20 42 21 34 22 37 23 41 24
REMARK SMILES IDX 38 25 40 26 39 27 35 28 36 29 11 30 12 31 13 33 14 34 19 35
REMARK SMILES IDX 15 36 18 37 16 38 17 39 20 40 21 41 8 43 7 44 6 45 5 46 3 47
REMARK SMILES IDX 4 48 2 49 1 50
REMARK H PARENT 43 5 27 10 11 32
REMARK Flexibility Score: 80.00
ROOT
ATOM      1  C   UNL     1      61.175  24.147  50.531  1.00  0.00     0.035 C 
ENDROOT
BRANCH   1   2
ATOM      2  C   UNL     1      60.962  25.542  49.882  1.00  0.00     0.171 C 
BRANCH   2   3
ATOM      3  C   UNL     1      61.414  26.725  50.722  1.00  0.00     0.243 C 
ATOM      4  N   UNL     1      61.695  27.997  50.120  1.00  0.00    -0.342 N 
ATOM      5  H   UNL     1      61.214  28.194  49.218  1.00  0.00     0.164 HD
ATOM      6  O   UNL     1      61.489  26.591  51.978  1.00  0.00    -0.273 OA
BRANCH   4   7
ATOM      7  C   UNL     1      62.329  29.166  50.752  1.00  0.00     0.175 C 
BRANCH   7   8
ATOM      8  C   UNL     1      61.405  29.701  51.818  1.00  0.00     0.243 C 
ATOM      9  N   UNL     1      60.081  29.175  51.982  1.00  0.00    -0.342 N 
ATOM     10  H   UNL     1      60.010  28.268  52.486  1.00  0.00     0.164 HD
ATOM     11  O   UNL     1      61.785  30.679  52.530  1.00  0.00    -0.273 OA
BRANCH   9  12
ATOM     12  C   UNL     1      58.888  29.933  51.565  1.00  0.00     0.174 CG0
ATOM     13  G   UNL     1      58.259  29.284  50.329  1.00  0.00     0.000 G0
BRANCH  12  14
ATOM     14  C   UNL     1      57.989  30.338  52.786  1.00  0.00     0.018 C 
ATOM     15  C   UNL     1      57.870  29.211  53.837  1.00  0.00     0.010 C 
BRANCH  14  16
ATOM     16  C   UNL     1      58.286  31.749  53.354  1.00  0.00     0.002 C 
ATOM     17  C   UNL     1      57.048  32.635  53.479  1.00  0.00     0.004 C 
ENDBRANCH  14  16
ENDBRANCH  12  14
ENDBRANCH   9  12
ENDBRANCH   7   8
BRANCH   7  18
ATOM     18  C   UNL     1      62.705  30.279  49.734  1.00  0.00     0.073 C 
BRANCH  18  19
ATOM     19  C   UNL     1      64.181  30.397  49.480  1.00  0.00    -0.016 A 
ATOM     20  C   UNL     1      65.077  31.205  50.174  1.00  0.00     0.134 A 
ATOM     21  C   UNL     1      64.959  29.578  48.678  1.00  0.00     0.006 A 
ATOM     22  N   UNL     1      66.342  30.926  49.799  1.00  0.00    -0.191 N 
ATOM     23  C   UNL     1      66.273  29.906  48.906  1.00  0.00     0.087 A 
ATOM     24  C   UNL     1      64.599  28.536  47.824  1.00  0.00     0.011 A 
ATOM     25  C   UNL     1      67.317  29.167  48.347  1.00  0.00     0.030 A 
ATOM     26  C   UNL     1      65.628  27.807  47.203  1.00  0.00     0.001 A 
ATOM     27  C   UNL     1      66.978  28.115  47.477  1.00  0.00     0.002 A 
BRANCH  22  28
ATOM     28  O   UNL     1      67.463  31.518  50.370  1.00  0.00    -0.417 OA
ATOM     29  C   UNL     1      68.185  32.574  49.725  1.00  0.00     0.313 C 
ENDBRANCH  22  28
ENDBRANCH  18  19
ENDBRANCH   7  18
ENDBRANCH   4   7
ENDBRANCH   2   3
BRANCH   2  30
ATOM     30  N   UNL     1      59.560  25.711  49.502  1.00  0.00    -0.343 N 
ATOM     31  C   UNL     1      58.530  26.244  50.352  1.00  0.00     0.243 C 
ATOM     32  H   UNL     1      59.322  25.583  48.486  1.00  0.00     0.164 HD
ATOM     33  O   UNL     1      58.558  26.030  51.594  1.00  0.00    -0.273 OA
BRANCH  31  34
ATOM     34  C   UNL     1      57.373  26.971  49.730  1.00  0.00     0.174 C 
ATOM     35  N   UNL     1      57.206  28.321  50.354  1.00  0.00    -0.329 N 
ATOM     36  C   UNL     1      56.072  26.094  49.844  1.00  0.00     0.035 C 
ATOM     37  C   UNL     1      55.888  28.955  50.253  1.00  0.00     0.120 C 
ATOM     38  C   UNL     1      54.741  26.875  49.761  1.00  0.00     0.004 C 
ATOM     39  C   UNL     1      54.834  27.990  50.767  1.00  0.00     0.022 C 
BRANCH  35  40
ATOM     40  C   UNL     1      58.291  29.264  50.343  1.00  0.00     0.246 CG0
ATOM     41  O   UNL     1      58.857  29.485  49.231  1.00  0.00    -0.272 OA
ATOM     42  G   UNL     1      58.885  29.954  51.574  1.00  0.00     0.000 G0
ENDBRANCH  35  40
ENDBRANCH  31  34
ENDBRANCH   2  30
ENDBRANCH   1   2
BRANCH   1  43
ATOM     43  C   UNL     1      62.508  23.459  50.171  1.00  0.00     0.003 C 
BRANCH  43  44
ATOM     44  C   UNL     1      63.531  23.410  51.319  1.00  0.00     0.001 C 
BRANCH  44  45
ATOM     45  C   UNL     1      64.897  23.983  50.914  1.00  0.00     0.008 C 
BRANCH  45  46
ATOM     46  C   UNL     1      64.797  25.451  50.469  1.00  0.00     0.075 C 
BRANCH  46  47
ATOM     47  C   UNL     1      66.079  26.205  50.657  1.00  0.00     0.132 C 
ATOM     48  O   UNL     1      67.080  25.838  50.051  1.00  0.00    -0.300 OA
BRANCH  47  49
ATOM     49  C   UNL     1      66.137  27.454  51.492  1.00  0.00     0.072 C 
ATOM     50  C   UNL     1      67.481  27.566  52.211  1.00  0.00     0.012 C 
ENDBRANCH  47  49
ENDBRANCH  46  47
ENDBRANCH  45  46
ENDBRANCH  44  45
ENDBRANCH  43  44
ENDBRANCH   1  43
TORSDOF 12
ENDMDL
MODEL 3
REMARK VINA RESULT:    -4.099     11.789     15.407
REMARK INTER + INTRA:         -11.587
REMARK INTER:                  -8.834
REMARK INTRA:                  -2.754
REMARK UNBOUND:                -2.935
REMARK SMILES CCC(=O)CCCCC[C@H]1NC(=O)[C@H]2CCCCN2C(=O)[C@@H]([C@@H](C)CC)NC(=O)[C@H](Cc2cn(OC)c3ccccc23)NC1=O
REMARK SMILES IDX 9 1 10 2 44 3 43 4 45 6 30 7 28 8 27 9 29 11 22 12 23 14
REMARK SMILES IDX 24 15 25 16 26 17 31 18 32 19 33 20 42 21 34 22 37 23 41 24
REMARK SMILES IDX 38 25 40 26 39 27 35 28 36 29 11 30 12 31 13 33 14 34 19 35
REMARK SMILES IDX 15 36 18 37 16 38 17 39 20 40 21 41 8 43 7 44 6 45 5 46 3 47
REMARK SMILES IDX 4 48 2 49 1 50
REMARK H PARENT 43 5 27 10 11 32
REMARK Flexibility Score: 80.00
ROOT
ATOM      1  C   UNL     1      59.961  30.492  58.103  1.00  0.00     0.035 C 
ENDROOT
BRANCH   1   2
ATOM      2  C   UNL     1      59.621  29.336  59.082  1.00  0.00     0.171 C 
BRANCH   2   3
ATOM      3  C   UNL     1      60.384  28.043  58.851  1.00  0.00     0.243 C 
ATOM      4  N   UNL     1      60.493  27.051  59.883  1.00  0.00    -0.342 N 
ATOM      5  H   UNL     1      59.739  27.051  60.601  1.00  0.00     0.164 HD
ATOM      6  O   UNL     1      60.882  27.821  57.709  1.00  0.00    -0.273 OA
BRANCH   4   7
ATOM      7  C   UNL     1      61.353  25.857  59.890  1.00  0.00     0.175 C 
BRANCH   7   8
ATOM      8  C   UNL     1      60.502  24.647  60.183  1.00  0.00     0.243 C 
ATOM      9  N   UNL     1      59.072  24.711  60.101  1.00  0.00    -0.342 N 
ATOM     10  H   UNL     1      58.668  24.666  59.144  1.00  0.00     0.164 HD
ATOM     11  O   UNL     1      61.062  23.579  60.577  1.00  0.00    -0.273 OA
BRANCH   9  12
ATOM     12  C   UNL     1      58.225  24.721  61.308  1.00  0.00     0.174 CG0
ATOM     13  G   UNL     1      57.246  25.896  61.252  1.00  0.00     0.000 G0
BRANCH  12  14
ATOM     14  C   UNL     1      57.714  23.284  61.682  1.00  0.00     0.018 C 
ATOM     15  C   UNL     1      57.511  22.385  60.442  1.00  0.00     0.010 C 
BRANCH  14  16
ATOM     16  C   UNL     1      58.470  22.628  62.865  1.00  0.00     0.002 C 
ATOM     17  C   UNL     1      59.385  23.591  63.620  1.00  0.00     0.004 C 
ENDBRANCH  14  16
ENDBRANCH  12  14
ENDBRANCH   9  12
ENDBRANCH   7   8
BRANCH   7  18
ATOM     18  C   UNL     1      62.533  25.963  60.897  1.00  0.00     0.073 C 
BRANCH  18  19
ATOM     19  C   UNL     1      63.750  26.645  60.338  1.00  0.00    -0.016 A 
ATOM     20  C   UNL     1      64.699  26.079  59.492  1.00  0.00     0.134 A 
ATOM     21  C   UNL     1      64.038  28.000  60.371  1.00  0.00     0.006 A 
ATOM     22  N   UNL     1      65.551  27.025  59.049  1.00  0.00    -0.191 N 
ATOM     23  C   UNL     1      65.127  28.209  59.561  1.00  0.00     0.087 A 
ATOM     24  C   UNL     1      63.378  29.053  61.003  1.00  0.00     0.011 A 
ATOM     25  C   UNL     1      65.586  29.496  59.274  1.00  0.00     0.030 A 
ATOM     26  C   UNL     1      63.851  30.357  60.776  1.00  0.00     0.001 A 
ATOM     27  C   UNL     1      64.940  30.574  59.905  1.00  0.00     0.002 A 
BRANCH  22  28
ATOM     28  O   UNL     1      66.564  26.781  58.128  1.00  0.00    -0.417 OA
ATOM     29  C   UNL     1      67.950  26.806  58.488  1.00  0.00     0.313 C 
ENDBRANCH  22  28
ENDBRANCH  18  19
ENDBRANCH   7  18
ENDBRANCH   4   7
ENDBRANCH   2   3
BRANCH   2  30
ATOM     30  N   UNL     1      58.183  29.072  59.068  1.00  0.00    -0.343 N 
ATOM     31  C   UNL     1      57.579  27.784  58.862  1.00  0.00     0.243 C 
ATOM     32  H   UNL     1      57.551  29.850  59.388  1.00  0.00     0.164 HD
ATOM     33  O   UNL     1      58.122  26.944  58.093  1.00  0.00    -0.273 OA
BRANCH  31  34
ATOM     34  C   UNL     1      56.249  27.490  59.493  1.00  0.00     0.174 C 
ATOM     35  N   UNL     1      56.283  26.170  60.197  1.00  0.00    -0.329 N 
ATOM     36  C   UNL     1      55.118  27.558  58.403  1.00  0.00     0.035 C 
ATOM     37  C   UNL     1      55.002  25.495  60.432  1.00  0.00     0.120 C 
ATOM     38  C   UNL     1      53.827  26.779  58.742  1.00  0.00     0.004 C 
ATOM     39  C   UNL     1      54.253  25.385  59.116  1.00  0.00     0.022 C 
BRANCH  35  40
ATOM     40  C   UNL     1      57.251  25.924  61.231  1.00  0.00     0.246 CG0
ATOM     41  O   UNL     1      57.392  26.818  62.118  1.00  0.00    -0.272 OA
ATOM     42  G   UNL     1      58.194  24.720  61.302  1.00  0.00     0.000 G0
ENDBRANCH  35  40
ENDBRANCH  31  34
ENDBRANCH   2  30
ENDBRANCH   1   2
BRANCH   1  43
ATOM     43  C   UNL     1      59.966  31.899  58.735  1.00  0.00     0.003 C 
BRANCH  43  44
ATOM     44  C   UNL     1      61.144  32.166  59.690  1.00  0.00     0.001 C 
BRANCH  44  45
ATOM     45  C   UNL     1      62.083  33.265  59.172  1.00  0.00     0.008 C 
BRANCH  45  46
ATOM     46  C   UNL     1      62.942  33.867  60.296  1.00  0.00     0.075 C 
BRANCH  46  47
ATOM     47  C   UNL     1      62.566  35.279  60.623  1.00  0.00     0.132 C 
ATOM     48  O   UNL     1      61.386  35.611  60.562  1.00  0.00    -0.300 OA
BRANCH  47  49
ATOM     49  C   UNL     1      63.586  36.267  61.119  1.00  0.00     0.072 C 
ATOM     50  C   UNL     1      64.958  35.610  61.259  1.00  0.00     0.012 C 
ENDBRANCH  47  49
ENDBRANCH  46  47
ENDBRANCH  45  46
ENDBRANCH  44  45
ENDBRANCH  43  44
ENDBRANCH   1  43
TORSDOF 12
ENDMDL
MODEL 4
REMARK VINA RESULT:    -4.076      3.219      6.489
REMARK INTER + INTRA:         -11.538
REMARK INTER:                  -8.627
REMARK INTRA:                  -2.911
REMARK UNBOUND:                -2.935
REMARK SMILES CCC(=O)CCCCC[C@H]1NC(=O)[C@H]2CCCCN2C(=O)[C@@H]([C@@H](C)CC)NC(=O)[C@H](Cc2cn(OC)c3ccccc23)NC1=O
REMARK SMILES IDX 9 1 10 2 44 3 43 4 45 6 30 7 28 8 27 9 29 11 22 12 23 14
REMARK SMILES IDX 24 15 25 16 26 17 31 18 32 19 33 20 42 21 34 22 37 23 41 24
REMARK SMILES IDX 38 25 40 26 39 27 35 28 36 29 11 30 12 31 13 33 14 34 19 35
REMARK SMILES IDX 15 36 18 37 16 38 17 39 20 40 21 41 8 43 7 44 6 45 5 46 3 47
REMARK SMILES IDX 4 48 2 49 1 50
REMARK H PARENT 43 5 27 10 11 32
REMARK Flexibility Score: 80.00
ROOT
ATOM      1  C   UNL     1      60.079  29.965  51.560  1.00  0.00     0.035 C 
ENDROOT
BRANCH   1   2
ATOM      2  C   UNL     1      60.990  29.482  50.399  1.00  0.00     0.171 C 
BRANCH   2   3
ATOM      3  C   UNL     1      62.210  28.679  50.820  1.00  0.00     0.243 C 
ATOM      4  N   UNL     1      63.230  28.329  49.874  1.00  0.00    -0.342 N 
ATOM      5  H   UNL     1      63.318  28.949  49.042  1.00  0.00     0.164 HD
ATOM      6  O   UNL     1      62.345  28.366  52.038  1.00  0.00    -0.273 OA
BRANCH   4   7
ATOM      7  C   UNL     1      64.353  27.397  50.072  1.00  0.00     0.175 C 
BRANCH   7   8
ATOM      8  C   UNL     1      65.608  28.026  49.520  1.00  0.00     0.243 C 
ATOM      9  N   UNL     1      66.105  29.266  50.042  1.00  0.00    -0.342 N 
ATOM     10  H   UNL     1      66.624  29.206  50.941  1.00  0.00     0.164 HD
ATOM     11  O   UNL     1      66.188  27.482  48.532  1.00  0.00    -0.273 OA
BRANCH   9  12
ATOM     12  C   UNL     1      65.989  30.527  49.288  1.00  0.00     0.174 CG0
ATOM     13  G   UNL     1      65.252  31.575  50.127  1.00  0.00     0.000 G0
BRANCH  12  14
ATOM     14  C   UNL     1      67.325  30.901  48.554  1.00  0.00     0.018 C 
ATOM     15  C   UNL     1      68.554  30.183  49.155  1.00  0.00     0.010 C 
BRANCH  14  16
ATOM     16  C   UNL     1      67.230  30.878  47.007  1.00  0.00     0.002 C 
ATOM     17  C   UNL     1      67.858  29.639  46.371  1.00  0.00     0.004 C 
ENDBRANCH  14  16
ENDBRANCH  12  14
ENDBRANCH   9  12
ENDBRANCH   7   8
BRANCH   7  18
ATOM     18  C   UNL     1      64.105  26.001  49.434  1.00  0.00     0.073 C 
BRANCH  18  19
ATOM     19  C   UNL     1      63.248  25.094  50.270  1.00  0.00    -0.016 A 
ATOM     20  C   UNL     1      63.677  24.294  51.325  1.00  0.00     0.134 A 
ATOM     21  C   UNL     1      61.863  25.048  50.305  1.00  0.00     0.006 A 
ATOM     22  N   UNL     1      62.617  23.753  51.960  1.00  0.00    -0.191 N 
ATOM     23  C   UNL     1      61.504  24.241  51.356  1.00  0.00     0.087 A 
ATOM     24  C   UNL     1      60.914  25.710  49.526  1.00  0.00     0.011 A 
ATOM     25  C   UNL     1      60.170  24.098  51.741  1.00  0.00     0.030 A 
ATOM     26  C   UNL     1      59.559  25.542  49.857  1.00  0.00     0.001 A 
ATOM     27  C   UNL     1      59.194  24.751  50.968  1.00  0.00     0.002 A 
BRANCH  22  28
ATOM     28  O   UNL     1      62.721  22.965  53.101  1.00  0.00    -0.417 OA
ATOM     29  C   UNL     1      63.679  23.230  54.132  1.00  0.00     0.313 C 
ENDBRANCH  22  28
ENDBRANCH  18  19
ENDBRANCH   7  18
ENDBRANCH   4   7
ENDBRANCH   2   3
BRANCH   2  30
ATOM     30  N   UNL     1      61.405  30.619  49.578  1.00  0.00    -0.343 N 
ATOM     31  C   UNL     1      62.213  31.717  50.032  1.00  0.00     0.243 C 
ATOM     32  H   UNL     1      61.232  30.548  48.543  1.00  0.00     0.164 HD
ATOM     33  O   UNL     1      62.116  32.128  51.221  1.00  0.00    -0.273 OA
BRANCH  31  34
ATOM     34  C   UNL     1      63.099  32.428  49.050  1.00  0.00     0.174 C 
ATOM     35  N   UNL     1      64.449  32.677  49.646  1.00  0.00    -0.329 N 
ATOM     36  C   UNL     1      62.403  33.755  48.572  1.00  0.00     0.035 C 
ATOM     37  C   UNL     1      65.256  33.756  49.068  1.00  0.00     0.120 C 
ATOM     38  C   UNL     1      63.356  34.836  48.016  1.00  0.00     0.004 C 
ATOM     39  C   UNL     1      64.433  35.032  49.049  1.00  0.00     0.022 C 
BRANCH  35  40
ATOM     40  C   UNL     1      65.238  31.579  50.136  1.00  0.00     0.246 CG0
ATOM     41  O   UNL     1      65.401  31.495  51.389  1.00  0.00    -0.272 OA
ATOM     42  G   UNL     1      65.979  30.557  49.268  1.00  0.00     0.000 G0
ENDBRANCH  35  40
ENDBRANCH  31  34
ENDBRANCH   2  30
ENDBRANCH   1   2
BRANCH   1  43
ATOM     43  C   UNL     1      58.578  30.052  51.215  1.00  0.00     0.003 C 
BRANCH  43  44
ATOM     44  C   UNL     1      57.961  28.735  50.710  1.00  0.00     0.001 C 
BRANCH  44  45
ATOM     45  C   UNL     1      56.621  28.416  51.389  1.00  0.00     0.008 C 
BRANCH  45  46
ATOM     46  C   UNL     1      56.587  26.986  51.954  1.00  0.00     0.075 C 
BRANCH  46  47
ATOM     47  C   UNL     1      55.685  26.076  51.178  1.00  0.00     0.132 C 
ATOM     48  O   UNL     1      55.008  25.250  51.783  1.00  0.00    -0.300 OA
BRANCH  47  49
ATOM     49  C   UNL     1      55.517  26.220  49.690  1.00  0.00     0.072 C 
ATOM     50  C   UNL     1      54.209  26.934  49.356  1.00  0.00     0.012 C 
ENDBRANCH  47  49
ENDBRANCH  46  47
ENDBRANCH  45  46
ENDBRANCH  44  45
ENDBRANCH  43  44
ENDBRANCH   1  43
TORSDOF 12
ENDMDL
MODEL 5
REMARK VINA RESULT:    -4.048      4.781      9.369
REMARK INTER + INTRA:         -11.479
REMARK INTER:                  -8.918
REMARK INTRA:                  -2.561
REMARK UNBOUND:                -2.935
REMARK SMILES CCC(=O)CCCCC[C@H]1NC(=O)[C@H]2CCCCN2C(=O)[C@@H]([C@@H](C)CC)NC(=O)[C@H](Cc2cn(OC)c3ccccc23)NC1=O
REMARK SMILES IDX 9 1 10 2 44 3 43 4 45 6 30 7 28 8 27 9 29 11 22 12 23 14
REMARK SMILES IDX 24 15 25 16 26 17 31 18 32 19 33 20 42 21 34 22 37 23 41 24
REMARK SMILES IDX 38 25 40 26 39 27 35 28 36 29 11 30 12 31 13 33 14 34 19 35
REMARK SMILES IDX 15 36 18 37 16 38 17 39 20 40 21 41 8 43 7 44 6 45 5 46 3 47
REMARK SMILES IDX 4 48 2 49 1 50
REMARK H PARENT 43 5 27 10 11 32
REMARK Flexibility Score: 80.00
ROOT
ATOM      1  C   UNL     1      60.628  24.094  50.682  1.00  0.00     0.035 C 
ENDROOT
BRANCH   1   2
ATOM      2  C   UNL     1      60.495  25.476  49.987  1.00  0.00     0.171 C 
BRANCH   2   3
ATOM      3  C   UNL     1      60.943  26.667  50.817  1.00  0.00     0.243 C 
ATOM      4  N   UNL     1      61.001  27.985  50.253  1.00  0.00    -0.342 N 
ATOM      5  H   UNL     1      60.373  28.164  49.441  1.00  0.00     0.164 HD
ATOM      6  O   UNL     1      61.217  26.493  52.040  1.00  0.00    -0.273 OA
BRANCH   4   7
ATOM      7  C   UNL     1      61.598  29.190  50.851  1.00  0.00     0.175 C 
BRANCH   7   8
ATOM      8  C   UNL     1      60.781  29.590  52.054  1.00  0.00     0.243 C 
ATOM      9  N   UNL     1      59.577  28.890  52.397  1.00  0.00    -0.342 N 
ATOM     10  H   UNL     1      59.702  27.980  52.883  1.00  0.00     0.164 HD
ATOM     11  O   UNL     1      61.131  30.606  52.728  1.00  0.00    -0.273 OA
BRANCH   9  12
ATOM     12  C   UNL     1      58.246  29.484  52.180  1.00  0.00     0.174 CG0
ATOM     13  G   UNL     1      57.700  29.062  50.813  1.00  0.00     0.000 G0
BRANCH  12  14
ATOM     14  C   UNL     1      57.339  29.384  53.457  1.00  0.00     0.018 C 
ATOM     15  C   UNL     1      57.901  28.402  54.509  1.00  0.00     0.010 C 
BRANCH  14  16
ATOM     16  C   UNL     1      56.864  30.752  54.009  1.00  0.00     0.002 C 
ATOM     17  C   UNL     1      55.835  31.450  53.121  1.00  0.00     0.004 C 
ENDBRANCH  14  16
ENDBRANCH  12  14
ENDBRANCH   9  12
ENDBRANCH   7   8
BRANCH   7  18
ATOM     18  C   UNL     1      61.721  30.371  49.847  1.00  0.00     0.073 C 
BRANCH  18  19
ATOM     19  C   UNL     1      63.138  30.783  49.565  1.00  0.00    -0.016 A 
ATOM     20  C   UNL     1      64.172  29.951  49.145  1.00  0.00     0.134 A 
ATOM     21  C   UNL     1      63.627  32.075  49.450  1.00  0.00     0.006 A 
ATOM     22  N   UNL     1      65.256  30.685  48.819  1.00  0.00    -0.191 N 
ATOM     23  C   UNL     1      64.912  31.988  48.974  1.00  0.00     0.087 A 
ATOM     24  C   UNL     1      63.004  33.303  49.671  1.00  0.00     0.011 A 
ATOM     25  C   UNL     1      65.636  33.128  48.621  1.00  0.00     0.030 A 
ATOM     26  C   UNL     1      63.729  34.470  49.375  1.00  0.00     0.001 A 
ATOM     27  C   UNL     1      65.032  34.379  48.841  1.00  0.00     0.002 A 
BRANCH  22  28
ATOM     28  O   UNL     1      66.424  30.143  48.294  1.00  0.00    -0.417 OA
ATOM     29  C   UNL     1      66.611  28.732  48.133  1.00  0.00     0.313 C 
ENDBRANCH  22  28
ENDBRANCH  18  19
ENDBRANCH   7  18
ENDBRANCH   4   7
ENDBRANCH   2   3
BRANCH   2  30
ATOM     30  N   UNL     1      59.120  25.679  49.531  1.00  0.00    -0.343 N 
ATOM     31  C   UNL     1      58.016  26.055  50.371  1.00  0.00     0.243 C 
ATOM     32  H   UNL     1      58.962  25.707  48.492  1.00  0.00     0.164 HD
ATOM     33  O   UNL     1      57.959  25.650  51.564  1.00  0.00    -0.273 OA
BRANCH  31  34
ATOM     34  C   UNL     1      56.887  26.851  49.782  1.00  0.00     0.174 C 
ATOM     35  N   UNL     1      56.643  28.089  50.587  1.00  0.00    -0.329 N 
ATOM     36  C   UNL     1      55.604  25.949  49.669  1.00  0.00     0.035 C 
ATOM     37  C   UNL     1      55.320  28.713  50.485  1.00  0.00     0.120 C 
ATOM     38  C   UNL     1      54.263  26.714  49.606  1.00  0.00     0.004 C 
ATOM     39  C   UNL     1      54.258  27.667  50.771  1.00  0.00     0.022 C 
BRANCH  35  40
ATOM     40  C   UNL     1      57.703  29.039  50.795  1.00  0.00     0.246 CG0
ATOM     41  O   UNL     1      58.290  29.489  49.766  1.00  0.00    -0.272 OA
ATOM     42  G   UNL     1      58.248  29.482  52.156  1.00  0.00     0.000 G0
ENDBRANCH  35  40
ENDBRANCH  31  34
ENDBRANCH   2  30
ENDBRANCH   1   2
BRANCH   1  43
ATOM     43  C   UNL     1      61.889  23.292  50.299  1.00  0.00     0.003 C 
BRANCH  43  44
ATOM     44  C   UNL     1      62.420  22.368  51.409  1.00  0.00     0.001 C 
BRANCH  44  45
ATOM     45  C   UNL     1      62.931  21.027  50.863  1.00  0.00     0.008 C 
BRANCH  45  46
ATOM     46  C   UNL     1      62.249  19.829  51.544  1.00  0.00     0.075 C 
BRANCH  46  47
ATOM     47  C   UNL     1      60.772  19.784  51.299  1.00  0.00     0.132 C 
ATOM     48  O   UNL     1      60.362  19.668  50.148  1.00  0.00    -0.300 OA
BRANCH  47  49
ATOM     49  C   UNL     1      59.788  19.776  52.437  1.00  0.00     0.072 C 
ATOM     50  C   UNL     1      58.920  21.033  52.415  1.00  0.00     0.012 C 
ENDBRANCH  47  49
ENDBRANCH  46  47
ENDBRANCH  45  46
ENDBRANCH  44  45
ENDBRANCH  43  44
ENDBRANCH   1  43
TORSDOF 12
ENDMDL
MODEL 6
REMARK VINA RESULT:    -4.039      5.038     10.931
REMARK INTER + INTRA:         -11.459
REMARK INTER:                  -8.890
REMARK INTRA:                  -2.569
REMARK UNBOUND:                -2.935
REMARK SMILES CCC(=O)CCCCC[C@H]1NC(=O)[C@H]2CCCCN2C(=O)[C@@H]([C@@H](C)CC)NC(=O)[C@H](Cc2cn(OC)c3ccccc23)NC1=O
REMARK SMILES IDX 9 1 10 2 44 3 43 4 45 6 30 7 28 8 27 9 29 11 22 12 23 14
REMARK SMILES IDX 24 15 25 16 26 17 31 18 32 19 33 20 42 21 34 22 37 23 41 24
REMARK SMILES IDX 38 25 40 26 39 27 35 28 36 29 11 30 12 31 13 33 14 34 19 35
REMARK SMILES IDX 15 36 18 37 16 38 17 39 20 40 21 41 8 43 7 44 6 45 5 46 3 47
REMARK SMILES IDX 4 48 2 49 1 50
REMARK H PARENT 43 5 27 10 11 32
REMARK Flexibility Score: 80.00
ROOT
ATOM      1  C   UNL     1      62.027  31.564  53.999  1.00  0.00     0.035 C 
ENDROOT
BRANCH   1   2
ATOM      2  C   UNL     1      61.330  31.209  52.658  1.00  0.00     0.171 C 
BRANCH   2   3
ATOM      3  C   UNL     1      60.467  29.958  52.684  1.00  0.00     0.243 C 
ATOM      4  N   UNL     1      59.742  29.532  51.521  1.00  0.00    -0.342 N 
ATOM      5  H   UNL     1      60.124  29.843  50.603  1.00  0.00     0.164 HD
ATOM      6  O   UNL     1      60.437  29.257  53.737  1.00  0.00    -0.273 OA
BRANCH   4   7
ATOM      7  C   UNL     1      58.718  28.478  51.441  1.00  0.00     0.175 C 
BRANCH   7   8
ATOM      8  C   UNL     1      59.396  27.135  51.543  1.00  0.00     0.243 C 
ATOM      9  N   UNL     1      60.826  27.026  51.549  1.00  0.00    -0.342 N 
ATOM     10  H   UNL     1      61.295  27.244  52.451  1.00  0.00     0.164 HD
ATOM     11  O   UNL     1      58.686  26.084  51.552  1.00  0.00    -0.273 OA
BRANCH   9  12
ATOM     12  C   UNL     1      61.571  26.522  50.382  1.00  0.00     0.174 CG0
ATOM     13  G   UNL     1      61.956  27.684  49.462  1.00  0.00     0.000 G0
BRANCH  12  14
ATOM     14  C   UNL     1      62.641  25.446  50.783  1.00  0.00     0.018 C 
ATOM     15  C   UNL     1      62.920  25.425  52.303  1.00  0.00     0.010 C 
BRANCH  14  16
ATOM     16  C   UNL     1      62.426  24.059  50.125  1.00  0.00     0.002 C 
ATOM     17  C   UNL     1      61.067  23.435  50.436  1.00  0.00     0.004 C 
ENDBRANCH  14  16
ENDBRANCH  12  14
ENDBRANCH   9  12
ENDBRANCH   7   8
BRANCH   7  18
ATOM     18  C   UNL     1      57.853  28.566  50.152  1.00  0.00     0.073 C 
BRANCH  18  19
ATOM     19  C   UNL     1      56.374  28.496  50.406  1.00  0.00    -0.016 A 
ATOM     20  C   UNL     1      55.571  29.521  50.897  1.00  0.00     0.134 A 
ATOM     21  C   UNL     1      55.502  27.498  50.000  1.00  0.00     0.006 A 
ATOM     22  N   UNL     1      54.271  29.166  50.831  1.00  0.00    -0.191 N 
ATOM     23  C   UNL     1      54.226  27.940  50.250  1.00  0.00     0.087 A 
ATOM     24  C   UNL     1      55.749  26.276  49.375  1.00  0.00     0.011 A 
ATOM     25  C   UNL     1      53.109  27.217  49.829  1.00  0.00     0.030 A 
ATOM     26  C   UNL     1      54.644  25.501  48.987  1.00  0.00     0.001 A 
ATOM     27  C   UNL     1      53.332  25.978  49.201  1.00  0.00     0.002 A 
BRANCH  22  28
ATOM     28  O   UNL     1      53.223  30.010  51.180  1.00  0.00    -0.417 OA
ATOM     29  C   UNL     1      53.438  31.307  51.749  1.00  0.00     0.313 C 
ENDBRANCH  22  28
ENDBRANCH  18  19
ENDBRANCH   7  18
ENDBRANCH   4   7
ENDBRANCH   2   3
BRANCH   2  30
ATOM     30  N   UNL     1      62.320  31.105  51.588  1.00  0.00    -0.343 N 
ATOM     31  C   UNL     1      63.028  29.906  51.227  1.00  0.00     0.243 C 
ATOM     32  H   UNL     1      62.405  31.924  50.934  1.00  0.00     0.164 HD
ATOM     33  O   UNL     1      63.342  29.064  52.113  1.00  0.00    -0.273 OA
BRANCH  31  34
ATOM     34  C   UNL     1      63.473  29.719  49.806  1.00  0.00     0.174 C 
ATOM     35  N   UNL     1      63.280  28.298  49.380  1.00  0.00    -0.329 N 
ATOM     36  C   UNL     1      64.963  30.193  49.649  1.00  0.00     0.035 C 
ATOM     37  C   UNL     1      64.084  27.813  48.253  1.00  0.00     0.120 C 
ATOM     38  C   UNL     1      65.725  29.589  48.448  1.00  0.00     0.004 C 
ATOM     39  C   UNL     1      65.549  28.097  48.535  1.00  0.00     0.022 C 
BRANCH  35  40
ATOM     40  C   UNL     1      61.978  27.690  49.448  1.00  0.00     0.246 CG0
ATOM     41  O   UNL     1      61.059  28.205  48.744  1.00  0.00    -0.272 OA
ATOM     42  G   UNL     1      61.581  26.535  50.372  1.00  0.00     0.000 G0
ENDBRANCH  35  40
ENDBRANCH  31  34
ENDBRANCH   2  30
ENDBRANCH   1   2
BRANCH   1  43
ATOM     43  C   UNL     1      61.538  32.869  54.661  1.00  0.00     0.003 C 
BRANCH  43  44
ATOM     44  C   UNL     1      60.862  33.859  53.696  1.00  0.00     0.001 C 
BRANCH  44  45
ATOM     45  C   UNL     1      59.735  34.657  54.369  1.00  0.00     0.008 C 
BRANCH  45  46
ATOM     46  C   UNL     1      58.815  35.334  53.340  1.00  0.00     0.075 C 
BRANCH  46  47
ATOM     47  C   UNL     1      57.379  34.933  53.490  1.00  0.00     0.132 C 
ATOM     48  O   UNL     1      56.981  34.543  54.583  1.00  0.00    -0.300 OA
BRANCH  47  49
ATOM     49  C   UNL     1      56.399  35.091  52.360  1.00  0.00     0.072 C 
ATOM     50  C   UNL     1      55.772  36.484  52.375  1.00  0.00     0.012 C 
ENDBRANCH  47  49
ENDBRANCH  46  47
ENDBRANCH  45  46
ENDBRANCH  44  45
ENDBRANCH  43  44
ENDBRANCH   1  43
TORSDOF 12
ENDMDL
MODEL 7
REMARK VINA RESULT:    -4.015     10.636     14.353
REMARK INTER + INTRA:         -11.409
REMARK INTER:                  -9.178
REMARK INTRA:                  -2.231
REMARK UNBOUND:                -2.935
REMARK SMILES CCC(=O)CCCCC[C@H]1NC(=O)[C@H]2CCCCN2C(=O)[C@@H]([C@@H](C)CC)NC(=O)[C@H](Cc2cn(OC)c3ccccc23)NC1=O
REMARK SMILES IDX 9 1 10 2 44 3 43 4 45 6 30 7 28 8 27 9 29 11 22 12 23 14
REMARK SMILES IDX 24 15 25 16 26 17 31 18 32 19 33 20 42 21 34 22 37 23 41 24
REMARK SMILES IDX 38 25 40 26 39 27 35 28 36 29 11 30 12 31 13 33 14 34 19 35
REMARK SMILES IDX 15 36 18 37 16 38 17 39 20 40 21 41 8 43 7 44 6 45 5 46 3 47
REMARK SMILES IDX 4 48 2 49 1 50
REMARK H PARENT 43 5 27 10 11 32
REMARK Flexibility Score: 80.00
ROOT
ATOM      1  C   UNL     1      65.984  29.334  59.309  1.00  0.00     0.035 C 
ENDROOT
BRANCH   1   2
ATOM      2  C   UNL     1      64.676  29.486  60.132  1.00  0.00     0.171 C 
BRANCH   2   3
ATOM      3  C   UNL     1      63.390  29.238  59.361  1.00  0.00     0.243 C 
ATOM      4  N   UNL     1      62.128  29.137  60.036  1.00  0.00    -0.342 N 
ATOM      5  H   UNL     1      62.059  29.620  60.956  1.00  0.00     0.164 HD
ATOM      6  O   UNL     1      63.436  29.176  58.098  1.00  0.00    -0.273 OA
BRANCH   4   7
ATOM      7  C   UNL     1      60.841  28.703  59.468  1.00  0.00     0.175 C 
BRANCH   7   8
ATOM      8  C   UNL     1      60.404  29.709  58.432  1.00  0.00     0.243 C 
ATOM      9  N   UNL     1      61.158  30.906  58.199  1.00  0.00    -0.342 N 
ATOM     10  H   UNL     1      62.015  30.798  57.620  1.00  0.00     0.164 HD
ATOM     11  O   UNL     1      59.314  29.521  57.812  1.00  0.00    -0.273 OA
BRANCH   9  12
ATOM     12  C   UNL     1      60.682  32.224  58.654  1.00  0.00     0.174 CG0
ATOM     13  G   UNL     1      61.322  32.579  59.999  1.00  0.00     0.000 G0
BRANCH  12  14
ATOM     14  C   UNL     1      60.657  33.277  57.490  1.00  0.00     0.018 C 
ATOM     15  C   UNL     1      61.276  32.732  56.183  1.00  0.00     0.010 C 
BRANCH  14  16
ATOM     16  C   UNL     1      59.303  34.015  57.329  1.00  0.00     0.002 C 
ATOM     17  C   UNL     1      59.121  34.674  55.963  1.00  0.00     0.004 C 
ENDBRANCH  14  16
ENDBRANCH  12  14
ENDBRANCH   9  12
ENDBRANCH   7   8
BRANCH   7  18
ATOM     18  C   UNL     1      59.738  28.500  60.545  1.00  0.00     0.073 C 
BRANCH  18  19
ATOM     19  C   UNL     1      59.431  27.058  60.837  1.00  0.00    -0.016 A 
ATOM     20  C   UNL     1      60.360  26.041  61.038  1.00  0.00     0.134 A 
ATOM     21  C   UNL     1      58.203  26.517  61.180  1.00  0.00     0.006 A 
ATOM     22  N   UNL     1      59.738  24.918  61.451  1.00  0.00    -0.191 N 
ATOM     23  C   UNL     1      58.420  25.218  61.570  1.00  0.00     0.087 A 
ATOM     24  C   UNL     1      56.938  27.100  61.232  1.00  0.00     0.011 A 
ATOM     25  C   UNL     1      57.394  24.438  62.105  1.00  0.00     0.030 A 
ATOM     26  C   UNL     1      55.873  26.321  61.717  1.00  0.00     0.001 A 
ATOM     27  C   UNL     1      56.107  25.002  62.164  1.00  0.00     0.002 A 
BRANCH  22  28
ATOM     28  O   UNL     1      60.407  23.752  61.805  1.00  0.00    -0.417 OA
ATOM     29  C   UNL     1      61.661  23.766  62.497  1.00  0.00     0.313 C 
ENDBRANCH  22  28
ENDBRANCH  18  19
ENDBRANCH   7  18
ENDBRANCH   4   7
ENDBRANCH   2   3
BRANCH   2  30
ATOM     30  N   UNL     1      64.628  30.805  60.763  1.00  0.00    -0.343 N 
ATOM     31  C   UNL     1      64.314  32.035  60.088  1.00  0.00     0.243 C 
ATOM     32  H   UNL     1      64.672  30.833  61.813  1.00  0.00     0.164 HD
ATOM     33  O   UNL     1      64.657  32.206  58.887  1.00  0.00    -0.273 OA
BRANCH  31  34
ATOM     34  C   UNL     1      63.662  33.146  60.860  1.00  0.00     0.174 C 
ATOM     35  N   UNL     1      62.373  33.547  60.213  1.00  0.00    -0.329 N 
ATOM     36  C   UNL     1      64.661  34.351  61.001  1.00  0.00     0.035 C 
ATOM     37  C   UNL     1      61.859  34.889  60.503  1.00  0.00     0.120 C 
ATOM     38  C   UNL     1      64.004  35.725  61.268  1.00  0.00     0.004 C 
ATOM     39  C   UNL     1      62.947  35.907  60.213  1.00  0.00     0.022 C 
BRANCH  35  40
ATOM     40  C   UNL     1      61.334  32.575  60.004  1.00  0.00     0.246 CG0
ATOM     41  O   UNL     1      60.983  31.877  61.001  1.00  0.00    -0.272 OA
ATOM     42  G   UNL     1      60.681  32.244  58.659  1.00  0.00     0.000 G0
ENDBRANCH  35  40
ENDBRANCH  31  34
ENDBRANCH   2  30
ENDBRANCH   1   2
BRANCH   1  43
ATOM     43  C   UNL     1      66.743  28.010  59.535  1.00  0.00     0.003 C 
BRANCH  43  44
ATOM     44  C   UNL     1      67.377  27.867  60.930  1.00  0.00     0.001 C 
BRANCH  44  45
ATOM     45  C   UNL     1      68.499  28.888  61.173  1.00  0.00     0.008 C 
BRANCH  45  46
ATOM     46  C   UNL     1      69.804  28.490  60.465  1.00  0.00     0.075 C 
BRANCH  46  47
ATOM     47  C   UNL     1      70.533  29.664  59.887  1.00  0.00     0.132 C 
ATOM     48  O   UNL     1      71.343  30.265  60.586  1.00  0.00    -0.300 OA
BRANCH  47  49
ATOM     49  C   UNL     1      70.369  30.057  58.444  1.00  0.00     0.072 C 
ATOM     50  C   UNL     1      71.728  30.256  57.776  1.00  0.00     0.012 C 
ENDBRANCH  47  49
ENDBRANCH  46  47
ENDBRANCH  45  46
ENDBRANCH  44  45
ENDBRANCH  43  44
ENDBRANCH   1  43
TORSDOF 12
ENDMDL
MODEL 8
REMARK VINA RESULT:    -4.004     11.114     14.761
REMARK INTER + INTRA:         -11.386
REMARK INTER:                  -7.999
REMARK INTRA:                  -3.387
REMARK UNBOUND:                -2.935
REMARK SMILES CCC(=O)CCCCC[C@H]1NC(=O)[C@H]2CCCCN2C(=O)[C@@H]([C@@H](C)CC)NC(=O)[C@H](Cc2cn(OC)c3ccccc23)NC1=O
REMARK SMILES IDX 9 1 10 2 44 3 43 4 45 6 30 7 28 8 27 9 29 11 22 12 23 14
REMARK SMILES IDX 24 15 25 16 26 17 31 18 32 19 33 20 42 21 34 22 37 23 41 24
REMARK SMILES IDX 38 25 40 26 39 27 35 28 36 29 11 30 12 31 13 33 14 34 19 35
REMARK SMILES IDX 15 36 18 37 16 38 17 39 20 40 21 41 8 43 7 44 6 45 5 46 3 47
REMARK SMILES IDX 4 48 2 49 1 50
REMARK H PARENT 43 5 27 10 11 32
REMARK Flexibility Score: 80.00
ROOT
ATOM      1  C   UNL     1      60.290  30.839  60.014  1.00  0.00     0.035 C 
ENDROOT
BRANCH   1   2
ATOM      2  C   UNL     1      60.617  29.447  60.619  1.00  0.00     0.171 C 
BRANCH   2   3
ATOM      3  C   UNL     1      61.464  28.540  59.742  1.00  0.00     0.243 C 
ATOM      4  N   UNL     1      62.184  27.430  60.300  1.00  0.00    -0.342 N 
ATOM      5  H   UNL     1      61.806  27.037  61.187  1.00  0.00     0.164 HD
ATOM      6  O   UNL     1      61.487  28.742  58.493  1.00  0.00    -0.273 OA
BRANCH   4   7
ATOM      7  C   UNL     1      63.196  26.593  59.634  1.00  0.00     0.175 C 
BRANCH   7   8
ATOM      8  C   UNL     1      62.743  25.156  59.681  1.00  0.00     0.243 C 
ATOM      9  N   UNL     1      61.411  24.812  60.086  1.00  0.00    -0.342 N 
ATOM     10  H   UNL     1      60.670  24.940  59.368  1.00  0.00     0.164 HD
ATOM     11  O   UNL     1      63.579  24.237  59.426  1.00  0.00    -0.273 OA
BRANCH   9  12
ATOM     12  C   UNL     1      61.131  24.204  61.399  1.00  0.00     0.174 CG0
ATOM     13  G   UNL     1      60.025  24.984  62.114  1.00  0.00     0.000 G0
BRANCH  12  14
ATOM     14  C   UNL     1      61.070  22.637  61.323  1.00  0.00     0.018 C 
ATOM     15  C   UNL     1      60.761  22.123  59.899  1.00  0.00     0.010 C 
BRANCH  14  16
ATOM     16  C   UNL     1      62.233  21.919  62.053  1.00  0.00     0.002 C 
ATOM     17  C   UNL     1      63.264  22.872  62.654  1.00  0.00     0.004 C 
ENDBRANCH  14  16
ENDBRANCH  12  14
ENDBRANCH   9  12
ENDBRANCH   7   8
BRANCH   7  18
ATOM     18  C   UNL     1      64.615  26.749  60.249  1.00  0.00     0.073 C 
BRANCH  18  19
ATOM     19  C   UNL     1      65.659  27.191  59.263  1.00  0.00    -0.016 A 
ATOM     20  C   UNL     1      65.479  27.372  57.894  1.00  0.00     0.134 A 
ATOM     21  C   UNL     1      66.912  27.710  59.548  1.00  0.00     0.006 A 
ATOM     22  N   UNL     1      66.574  27.943  57.353  1.00  0.00    -0.191 N 
ATOM     23  C   UNL     1      67.441  28.180  58.370  1.00  0.00     0.087 A 
ATOM     24  C   UNL     1      67.580  27.852  60.763  1.00  0.00     0.011 A 
ATOM     25  C   UNL     1      68.644  28.887  58.343  1.00  0.00     0.030 A 
ATOM     26  C   UNL     1      68.820  28.514  60.759  1.00  0.00     0.001 A 
ATOM     27  C   UNL     1      69.339  29.039  59.556  1.00  0.00     0.002 A 
BRANCH  22  28
ATOM     28  O   UNL     1      66.668  28.317  56.016  1.00  0.00    -0.417 OA
ATOM     29  C   UNL     1      67.368  27.529  55.047  1.00  0.00     0.313 C 
ENDBRANCH  22  28
ENDBRANCH  18  19
ENDBRANCH   7  18
ENDBRANCH   4   7
ENDBRANCH   2   3
BRANCH   2  30
ATOM     30  N   UNL     1      59.382  28.759  60.995  1.00  0.00    -0.343 N 
ATOM     31  C   UNL     1      59.028  27.420  60.608  1.00  0.00     0.243 C 
ATOM     32  H   UNL     1      58.785  29.218  61.729  1.00  0.00     0.164 HD
ATOM     33  O   UNL     1      59.381  26.971  59.483  1.00  0.00    -0.273 OA
BRANCH  31  34
ATOM     34  C   UNL     1      58.154  26.604  61.514  1.00  0.00     0.174 C 
ATOM     35  N   UNL     1      58.689  25.212  61.645  1.00  0.00    -0.329 N 
ATOM     36  C   UNL     1      56.673  26.628  60.987  1.00  0.00     0.035 C 
ATOM     37  C   UNL     1      57.752  24.162  62.056  1.00  0.00     0.120 C 
ATOM     38  C   UNL     1      55.787  25.451  61.455  1.00  0.00     0.004 C 
ATOM     39  C   UNL     1      56.545  24.191  61.136  1.00  0.00     0.022 C 
BRANCH  35  40
ATOM     40  C   UNL     1      60.030  24.992  62.118  1.00  0.00     0.246 CG0
ATOM     41  O   UNL     1      60.367  25.568  63.196  1.00  0.00    -0.272 OA
ATOM     42  G   UNL     1      61.116  24.201  61.383  1.00  0.00     0.000 G0
ENDBRANCH  35  40
ENDBRANCH  31  34
ENDBRANCH   2  30
ENDBRANCH   1   2
BRANCH   1  43
ATOM     43  C   UNL     1      61.306  31.949  60.354  1.00  0.00     0.003 C 
BRANCH  43  44
ATOM     44  C   UNL     1      61.210  33.198  59.459  1.00  0.00     0.001 C 
BRANCH  44  45
ATOM     45  C   UNL     1      62.589  33.762  59.087  1.00  0.00     0.008 C 
BRANCH  45  46
ATOM     46  C   UNL     1      63.718  33.105  59.897  1.00  0.00     0.075 C 
BRANCH  46  47
ATOM     47  C   UNL     1      64.763  32.472  59.029  1.00  0.00     0.132 C 
ATOM     48  O   UNL     1      65.353  33.165  58.206  1.00  0.00    -0.300 OA
BRANCH  47  49
ATOM     49  C   UNL     1      65.173  31.037  59.215  1.00  0.00     0.072 C 
ATOM     50  C   UNL     1      64.572  30.460  60.495  1.00  0.00     0.012 C 
ENDBRANCH  47  49
ENDBRANCH  46  47
ENDBRANCH  45  46
ENDBRANCH  44  45
ENDBRANCH  43  44
ENDBRANCH   1  43
TORSDOF 12
ENDMDL
MODEL 9
REMARK VINA RESULT:    -3.906     11.744     15.313
REMARK INTER + INTRA:         -11.180
REMARK INTER:                  -8.502
REMARK INTRA:                  -2.677
REMARK UNBOUND:                -2.935
REMARK SMILES CCC(=O)CCCCC[C@H]1NC(=O)[C@H]2CCCCN2C(=O)[C@@H]([C@@H](C)CC)NC(=O)[C@H](Cc2cn(OC)c3ccccc23)NC1=O
REMARK SMILES IDX 9 1 10 2 44 3 43 4 45 6 30 7 28 8 27 9 29 11 22 12 23 14
REMARK SMILES IDX 24 15 25 16 26 17 31 18 32 19 33 20 42 21 34 22 37 23 41 24
REMARK SMILES IDX 38 25 40 26 39 27 35 28 36 29 11 30 12 31 13 33 14 34 19 35
REMARK SMILES IDX 15 36 18 37 16 38 17 39 20 40 21 41 8 43 7 44 6 45 5 46 3 47
REMARK SMILES IDX 4 48 2 49 1 50
REMARK H PARENT 43 5 27 10 11 32
REMARK Flexibility Score: 80.00
ROOT
ATOM      1  C   UNL     1      56.535  26.762  60.450  1.00  0.00     0.035 C 
ENDROOT
BRANCH   1   2
ATOM      2  C   UNL     1      57.803  27.463  61.008  1.00  0.00     0.171 C 
BRANCH   2   3
ATOM      3  C   UNL     1      58.846  27.842  59.969  1.00  0.00     0.243 C 
ATOM      4  N   UNL     1      59.971  28.664  60.314  1.00  0.00    -0.342 N 
ATOM      5  H   UNL     1      60.261  28.650  61.314  1.00  0.00     0.164 HD
ATOM      6  O   UNL     1      58.742  27.375  58.798  1.00  0.00    -0.273 OA
BRANCH   4   7
ATOM      7  C   UNL     1      60.944  29.280  59.396  1.00  0.00     0.175 C 
BRANCH   7   8
ATOM      8  C   UNL     1      61.724  28.187  58.711  1.00  0.00     0.243 C 
ATOM      9  N   UNL     1      61.511  26.808  59.040  1.00  0.00    -0.342 N 
ATOM     10  H   UNL     1      60.670  26.364  58.619  1.00  0.00     0.164 HD
ATOM     11  O   UNL     1      62.631  28.503  57.883  1.00  0.00    -0.273 OA
BRANCH   9  12
ATOM     12  C   UNL     1      62.488  26.038  59.829  1.00  0.00     0.174 CG0
ATOM     13  G   UNL     1      62.088  26.041  61.307  1.00  0.00     0.000 G0
BRANCH  12  14
ATOM     14  C   UNL     1      62.892  24.695  59.123  1.00  0.00     0.018 C 
ATOM     15  C   UNL     1      62.171  24.495  57.771  1.00  0.00     0.010 C 
BRANCH  14  16
ATOM     16  C   UNL     1      64.416  24.414  59.114  1.00  0.00     0.002 C 
ATOM     17  C   UNL     1      65.273  25.674  58.999  1.00  0.00     0.004 C 
ENDBRANCH  14  16
ENDBRANCH  12  14
ENDBRANCH   9  12
ENDBRANCH   7   8
BRANCH   7  18
ATOM     18  C   UNL     1      61.898  30.283  60.105  1.00  0.00     0.073 C 
BRANCH  18  19
ATOM     19  C   UNL     1      61.736  31.704  59.646  1.00  0.00    -0.016 A 
ATOM     20  C   UNL     1      60.636  32.236  58.979  1.00  0.00     0.134 A 
ATOM     21  C   UNL     1      62.529  32.789  59.986  1.00  0.00     0.006 A 
ATOM     22  N   UNL     1      60.756  33.576  58.881  1.00  0.00    -0.191 N 
ATOM     23  C   UNL     1      61.899  33.919  59.527  1.00  0.00     0.087 A 
ATOM     24  C   UNL     1      63.715  32.852  60.717  1.00  0.00     0.011 A 
ATOM     25  C   UNL     1      62.380  35.194  59.829  1.00  0.00     0.030 A 
ATOM     26  C   UNL     1      64.252  34.121  60.992  1.00  0.00     0.001 A 
ATOM     27  C   UNL     1      63.578  35.284  60.561  1.00  0.00     0.002 A 
BRANCH  22  28
ATOM     28  O   UNL     1      59.779  34.399  58.332  1.00  0.00    -0.417 OA
ATOM     29  C   UNL     1      59.361  34.288  56.966  1.00  0.00     0.313 C 
ENDBRANCH  22  28
ENDBRANCH  18  19
ENDBRANCH   7  18
ENDBRANCH   4   7
ENDBRANCH   2   3
BRANCH   2  30
ATOM     30  N   UNL     1      58.417  26.640  62.049  1.00  0.00    -0.343 N 
ATOM     31  C   UNL     1      59.166  25.434  61.818  1.00  0.00     0.243 C 
ATOM     32  H   UNL     1      58.447  27.042  63.019  1.00  0.00     0.164 HD
ATOM     33  O   UNL     1      58.856  24.666  60.866  1.00  0.00    -0.273 OA
BRANCH  31  34
ATOM     34  C   UNL     1      60.255  25.055  62.779  1.00  0.00     0.174 C 
ATOM     35  N   UNL     1      61.564  24.928  62.065  1.00  0.00    -0.329 N 
ATOM     36  C   UNL     1      59.858  23.735  63.536  1.00  0.00     0.035 C 
ATOM     37  C   UNL     1      62.604  24.109  62.696  1.00  0.00     0.120 C 
ATOM     38  C   UNL     1      61.039  22.933  64.129  1.00  0.00     0.004 C 
ATOM     39  C   UNL     1      62.029  22.740  63.012  1.00  0.00     0.022 C 
BRANCH  35  40
ATOM     40  C   UNL     1      62.093  26.038  61.319  1.00  0.00     0.246 CG0
ATOM     41  O   UNL     1      62.169  27.154  61.914  1.00  0.00    -0.272 OA
ATOM     42  G   UNL     1      62.483  26.012  59.838  1.00  0.00     0.000 G0
ENDBRANCH  35  40
ENDBRANCH  31  34
ENDBRANCH   2  30
ENDBRANCH   1   2
BRANCH   1  43
ATOM     43  C   UNL     1      55.198  27.402  60.876  1.00  0.00     0.003 C 
BRANCH  43  44
ATOM     44  C   UNL     1      55.035  28.876  60.464  1.00  0.00     0.001 C 
BRANCH  44  45
ATOM     45  C   UNL     1      53.652  29.169  59.865  1.00  0.00     0.008 C 
BRANCH  45  46
ATOM     46  C   UNL     1      53.651  29.052  58.333  1.00  0.00     0.075 C 
BRANCH  46  47
ATOM     47  C   UNL     1      54.512  30.083  57.670  1.00  0.00     0.132 C 
ATOM     48  O   UNL     1      54.375  31.262  57.978  1.00  0.00    -0.300 OA
BRANCH  47  49
ATOM     49  C   UNL     1      55.606  29.693  56.713  1.00  0.00     0.072 C 
ATOM     50  C   UNL     1      56.002  28.230  56.907  1.00  0.00     0.012 C 
ENDBRANCH  47  49
ENDBRANCH  46  47
ENDBRANCH  45  46
ENDBRANCH  44  45
ENDBRANCH  43  44
ENDBRANCH   1  43
TORSDOF 12
ENDMDL
