MODEL 1
REMARK VINA RESULT:    -4.215      0.000      0.000
REMARK INTER + INTRA:          -4.976
REMARK INTER:                  -4.954
REMARK INTRA:                  -0.023
REMARK UNBOUND:                -0.023
REMARK SMILES CCCCC(=O)[O-]
REMARK SMILES IDX 4 1 5 2 6 3 7 4 3 5 2 6 1 7
REMARK H PARENT
REMARK Flexibility Score: inf
ROOT
ATOM      1  C   UNL     1      20.934  -0.754  27.993  1.00  0.00     0.053 C 
ENDROOT
BRANCH   1   2
ATOM      2  C   UNL     1      21.271  -1.759  29.050  1.00  0.00     0.041 C 
ATOM      3  O   UNL     1      20.888  -2.952  28.933  1.00  0.00    -0.550 OA
ATOM      4  O   UNL     1      22.037  -1.387  30.147  1.00  0.00    -0.550 OA
ENDBRANCH   1   2
BRANCH   1   5
ATOM      5  C   UNL     1      21.539  -1.124  26.630  1.00  0.00     0.006 C 
BRANCH   5   6
ATOM      6  C   UNL     1      22.211   0.051  25.898  1.00  0.00    -0.003 C 
ATOM      7  C   UNL     1      23.734  -0.072  25.851  1.00  0.00     0.004 C 
ENDBRANCH   5   6
ENDBRANCH   1   5
TORSDOF 3
ENDMDL
MODEL 2
REMARK VINA RESULT:    -4.039      2.635      3.877
REMARK INTER + INTRA:          -4.770
REMARK INTER:                  -4.744
REMARK INTRA:                  -0.026
REMARK UNBOUND:                -0.023
REMARK SMILES CCCCC(=O)[O-]
REMARK SMILES IDX 4 1 5 2 6 3 7 4 3 5 2 6 1 7
REMARK H PARENT
REMARK Flexibility Score: inf
ROOT
ATOM      1  C   UNL     1      21.512  -1.127  26.594  1.00  0.00     0.053 C 
ENDROOT
BRANCH   1   2
ATOM      2  C   UNL     1      22.445  -0.074  26.082  1.00  0.00     0.041 C 
ATOM      3  O   UNL     1      22.023   1.091  25.857  1.00  0.00    -0.550 OA
ATOM      4  O   UNL     1      23.789  -0.369  25.886  1.00  0.00    -0.550 OA
ENDBRANCH   1   2
BRANCH   1   5
ATOM      5  C   UNL     1      20.886  -0.738  27.942  1.00  0.00     0.006 C 
BRANCH   5   6
ATOM      6  C   UNL     1      20.921  -1.856  28.999  1.00  0.00    -0.003 C 
ATOM      7  C   UNL     1      21.999  -1.635  30.061  1.00  0.00     0.004 C 
ENDBRANCH   5   6
ENDBRANCH   1   5
TORSDOF 3
ENDMDL
MODEL 3
REMARK VINA RESULT:    -3.921     13.012     14.073
REMARK INTER + INTRA:          -4.631
REMARK INTER:                  -4.599
REMARK INTRA:                  -0.033
REMARK UNBOUND:                -0.023
REMARK SMILES CCCCC(=O)[O-]
REMARK SMILES IDX 4 1 5 2 6 3 7 4 3 5 2 6 1 7
REMARK H PARENT
REMARK Flexibility Score: inf
ROOT
ATOM      1  C   UNL     1      35.630  -1.218  31.492  1.00  0.00     0.053 C 
ENDROOT
BRANCH   1   2
ATOM      2  C   UNL     1      34.548  -1.377  30.469  1.00  0.00     0.041 C 
ATOM      3  O   UNL     1      33.833  -0.392  30.146  1.00  0.00    -0.550 OA
ATOM      4  O   UNL     1      34.351  -2.604  29.847  1.00  0.00    -0.550 OA
ENDBRANCH   1   2
BRANCH   1   5
ATOM      5  C   UNL     1      35.410   0.019  32.376  1.00  0.00     0.006 C 
BRANCH   5   6
ATOM      6  C   UNL     1      35.301  -0.293  33.879  1.00  0.00    -0.003 C 
ATOM      7  C   UNL     1      34.307   0.616  34.603  1.00  0.00     0.004 C 
ENDBRANCH   5   6
ENDBRANCH   1   5
TORSDOF 3
ENDMDL
MODEL 4
REMARK VINA RESULT:    -3.915      1.336      2.146
REMARK INTER + INTRA:          -4.625
REMARK INTER:                  -4.593
REMARK INTRA:                  -0.031
REMARK UNBOUND:                -0.023
REMARK SMILES CCCCC(=O)[O-]
REMARK SMILES IDX 4 1 5 2 6 3 7 4 3 5 2 6 1 7
REMARK H PARENT
REMARK Flexibility Score: inf
ROOT
ATOM      1  C   UNL     1      21.219  -2.497  29.192  1.00  0.00     0.053 C 
ENDROOT
BRANCH   1   2
ATOM      2  C   UNL     1      22.285  -2.436  30.243  1.00  0.00     0.041 C 
ATOM      3  O   UNL     1      22.793  -1.330  30.565  1.00  0.00    -0.550 OA
ATOM      4  O   UNL     1      22.692  -3.596  30.891  1.00  0.00    -0.550 OA
ENDBRANCH   1   2
BRANCH   1   5
ATOM      5  C   UNL     1      21.156  -1.208  28.360  1.00  0.00     0.006 C 
BRANCH   5   6
ATOM      6  C   UNL     1      21.230  -1.435  26.839  1.00  0.00    -0.003 C 
ATOM      7  C   UNL     1      22.135  -0.427  26.132  1.00  0.00     0.004 C 
ENDBRANCH   5   6
ENDBRANCH   1   5
TORSDOF 3
ENDMDL
MODEL 5
REMARK VINA RESULT:    -3.895      2.203      3.637
REMARK INTER + INTRA:          -4.601
REMARK INTER:                  -4.568
REMARK INTRA:                  -0.033
REMARK UNBOUND:                -0.023
REMARK SMILES CCCCC(=O)[O-]
REMARK SMILES IDX 4 1 5 2 6 3 7 4 3 5 2 6 1 7
REMARK H PARENT
REMARK Flexibility Score: inf
ROOT
ATOM      1  C   UNL     1      20.899  -0.668  28.069  1.00  0.00     0.053 C 
ENDROOT
BRANCH   1   2
ATOM      2  C   UNL     1      21.415  -1.104  26.732  1.00  0.00     0.041 C 
ATOM      3  O   UNL     1      21.141  -2.251  26.291  1.00  0.00    -0.550 OA
ATOM      4  O   UNL     1      22.171  -0.232  25.959  1.00  0.00    -0.550 OA
ENDBRANCH   1   2
BRANCH   1   5
ATOM      5  C   UNL     1      20.980  -1.793  29.113  1.00  0.00     0.006 C 
BRANCH   5   6
ATOM      6  C   UNL     1      22.078  -1.592  30.172  1.00  0.00    -0.003 C 
ATOM      7  C   UNL     1      22.670  -2.910  30.670  1.00  0.00     0.004 C 
ENDBRANCH   5   6
ENDBRANCH   1   5
TORSDOF 3
ENDMDL
MODEL 6
REMARK VINA RESULT:    -3.451     10.376     11.428
REMARK INTER + INTRA:          -4.079
REMARK INTER:                  -4.040
REMARK INTRA:                  -0.039
REMARK UNBOUND:                -0.023
REMARK SMILES CCCCC(=O)[O-]
REMARK SMILES IDX 4 1 5 2 6 3 7 4 3 5 2 6 1 7
REMARK H PARENT
REMARK Flexibility Score: inf
ROOT
ATOM      1  C   UNL     1      26.896   8.074  30.600  1.00  0.00     0.053 C 
ENDROOT
BRANCH   1   2
ATOM      2  C   UNL     1      26.561   9.429  30.056  1.00  0.00     0.041 C 
ATOM      3  O   UNL     1      25.574  10.066  30.509  1.00  0.00    -0.550 OA
ATOM      4  O   UNL     1      27.357  10.002  29.072  1.00  0.00    -0.550 OA
ENDBRANCH   1   2
BRANCH   1   5
ATOM      5  C   UNL     1      28.282   7.595  30.140  1.00  0.00     0.006 C 
BRANCH   5   6
ATOM      6  C   UNL     1      28.457   6.066  30.158  1.00  0.00    -0.003 C 
ATOM      7  C   UNL     1      27.126   5.317  30.204  1.00  0.00     0.004 C 
ENDBRANCH   5   6
ENDBRANCH   1   5
TORSDOF 3
ENDMDL
MODEL 7
REMARK VINA RESULT:    -3.412     10.554     10.980
REMARK INTER + INTRA:          -4.033
REMARK INTER:                  -3.922
REMARK INTRA:                  -0.111
REMARK UNBOUND:                -0.023
REMARK SMILES CCCCC(=O)[O-]
REMARK SMILES IDX 4 1 5 2 6 3 7 4 3 5 2 6 1 7
REMARK H PARENT
REMARK Flexibility Score: inf
ROOT
ATOM      1  C   UNL     1      28.649  -7.836  31.786  1.00  0.00     0.053 C 
ENDROOT
BRANCH   1   2
ATOM      2  C   UNL     1      28.812  -9.253  32.243  1.00  0.00     0.041 C 
ATOM      3  O   UNL     1      27.951  -9.778  32.996  1.00  0.00    -0.550 OA
ATOM      4  O   UNL     1      29.897 -10.005  31.810  1.00  0.00    -0.550 OA
ENDBRANCH   1   2
BRANCH   1   5
ATOM      5  C   UNL     1      29.479  -7.536  30.529  1.00  0.00     0.006 C 
BRANCH   5   6
ATOM      6  C   UNL     1      28.696  -7.668  29.210  1.00  0.00    -0.003 C 
ATOM      7  C   UNL     1      29.157  -8.854  28.363  1.00  0.00     0.004 C 
ENDBRANCH   5   6
ENDBRANCH   1   5
TORSDOF 3
ENDMDL
MODEL 8
REMARK VINA RESULT:    -3.399      8.908      9.875
REMARK INTER + INTRA:          -4.018
REMARK INTER:                  -3.992
REMARK INTRA:                  -0.025
REMARK UNBOUND:                -0.023
REMARK SMILES CCCCC(=O)[O-]
REMARK SMILES IDX 4 1 5 2 6 3 7 4 3 5 2 6 1 7
REMARK H PARENT
REMARK Flexibility Score: inf
ROOT
ATOM      1  C   UNL     1      27.313   5.848  30.457  1.00  0.00     0.053 C 
ENDROOT
BRANCH   1   2
ATOM      2  C   UNL     1      27.793   4.433  30.364  1.00  0.00     0.041 C 
ATOM      3  O   UNL     1      27.719   3.810  29.273  1.00  0.00    -0.550 OA
ATOM      4  O   UNL     1      28.355   3.813  31.474  1.00  0.00    -0.550 OA
ENDBRANCH   1   2
BRANCH   1   5
ATOM      5  C   UNL     1      28.400   6.855  30.052  1.00  0.00     0.006 C 
BRANCH   5   6
ATOM      6  C   UNL     1      28.035   8.324  30.331  1.00  0.00    -0.003 C 
ATOM      7  C   UNL     1      26.537   8.531  30.552  1.00  0.00     0.004 C 
ENDBRANCH   5   6
ENDBRANCH   1   5
TORSDOF 3
ENDMDL
MODEL 9
REMARK VINA RESULT:    -3.385     10.012     10.602
REMARK INTER + INTRA:          -4.001
REMARK INTER:                  -3.874
REMARK INTRA:                  -0.128
REMARK UNBOUND:                -0.023
REMARK SMILES CCCCC(=O)[O-]
REMARK SMILES IDX 4 1 5 2 6 3 7 4 3 5 2 6 1 7
REMARK H PARENT
REMARK Flexibility Score: inf
ROOT
ATOM      1  C   UNL     1      29.577  -8.814  30.612  1.00  0.00     0.053 C 
ENDROOT
BRANCH   1   2
ATOM      2  C   UNL     1      28.793  -9.127  29.375  1.00  0.00     0.041 C 
ATOM      3  O   UNL     1      27.782  -9.874  29.438  1.00  0.00    -0.550 OA
ATOM      4  O   UNL     1      29.159  -8.566  28.157  1.00  0.00    -0.550 OA
ENDBRANCH   1   2
BRANCH   1   5
ATOM      5  C   UNL     1      28.781  -7.940  31.593  1.00  0.00     0.006 C 
BRANCH   5   6
ATOM      6  C   UNL     1      28.553  -6.497  31.110  1.00  0.00    -0.003 C 
ATOM      7  C   UNL     1      29.847  -5.803  30.683  1.00  0.00     0.004 C 
ENDBRANCH   5   6
ENDBRANCH   1   5
TORSDOF 3
ENDMDL
