MODEL 1
REMARK VINA RESULT:    13.529      0.000      0.000
REMARK INTER + INTRA:          16.769
REMARK INTER:                  16.298
REMARK INTRA:                   0.471
REMARK UNBOUND:                 0.471
REMARK SMILES O=c1c(O)c(-c2ccc(O)c(O)c2)oc2cc(O)cc(O)c12
REMARK SMILES IDX 5 1 3 2 2 3 1 4 22 5 20 6 19 7 17 8 16 9 15 10 14 11 6 12
REMARK SMILES IDX 7 13 8 14 9 15 13 16 11 17 10 18 12 20 4 22 21 24 18 26
REMARK H PARENT 10 19 12 21 4 23 21 25 18 27
REMARK Flexibility Score: inf
ROOT
ATOM      1  C   UNL     1      13.265   7.497 127.314  1.00  0.00     0.180 A 
ATOM      2  C   UNL     1      13.608   8.613 126.530  1.00  0.00     0.208 A 
ATOM      3  C   UNL     1      13.309   8.599 125.159  1.00  0.00     0.238 A 
ATOM      4  O   UNL     1      13.568   9.623 124.473  1.00  0.00    -0.285 OA
ATOM      5  C   UNL     1      12.687   7.465 124.584  1.00  0.00     0.111 A 
ATOM      6  C   UNL     1      12.375   7.326 123.198  1.00  0.00     0.134 A 
ATOM      7  C   UNL     1      11.642   6.215 122.763  1.00  0.00     0.093 A 
ATOM      8  C   UNL     1      11.267   5.206 123.653  1.00  0.00     0.123 A 
ATOM      9  C   UNL     1      11.618   5.303 124.997  1.00  0.00     0.094 A 
ATOM     10  C   UNL     1      12.318   6.418 125.468  1.00  0.00     0.146 A 
ATOM     11  O   UNL     1      12.624   6.476 126.759  1.00  0.00    -0.452 OA
ENDROOT
BRANCH   1  12
ATOM     12  C   UNL     1      13.570   7.427 128.761  1.00  0.00     0.025 A 
ATOM     13  C   UNL     1      14.182   8.500 129.433  1.00  0.00     0.016 A 
ATOM     14  C   UNL     1      14.482   8.402 130.794  1.00  0.00     0.051 A 
ATOM     15  C   UNL     1      14.189   7.228 131.500  1.00  0.00     0.157 A 
ATOM     16  C   UNL     1      13.298   6.245 129.469  1.00  0.00     0.062 A 
ATOM     17  C   UNL     1      13.597   6.144 130.833  1.00  0.00     0.158 A 
BRANCH  15  18
ATOM     18  O   UNL     1      14.489   7.134 132.859  1.00  0.00    -0.504 OA
ATOM     19  H   UNL     1      15.415   6.884 133.182  1.00  0.00     0.293 HD
ENDBRANCH  15  18
BRANCH  17  20
ATOM     20  O   UNL     1      13.300   4.959 131.504  1.00  0.00    -0.504 OA
ATOM     21  H   UNL     1      13.989   4.229 131.639  1.00  0.00     0.293 HD
ENDBRANCH  17  20
ENDBRANCH   1  12
BRANCH   2  22
ATOM     22  O   UNL     1      14.201   9.732 127.122  1.00  0.00    -0.502 OA
ATOM     23  H   UNL     1      14.448   9.761 128.104  1.00  0.00     0.293 HD
ENDBRANCH   2  22
BRANCH   6  24
ATOM     24  O   UNL     1      12.782   8.230 122.212  1.00  0.00    -0.507 OA
ATOM     25  H   UNL     1      12.276   8.419 121.360  1.00  0.00     0.293 HD
ENDBRANCH   6  24
BRANCH   8  26
ATOM     26  O   UNL     1      10.551   4.096 123.209  1.00  0.00    -0.508 OA
ATOM     27  H   UNL     1       9.795   4.186 122.540  1.00  0.00     0.293 HD
ENDBRANCH   8  26
TORSDOF 6
ENDMDL
MODEL 2
REMARK VINA RESULT:    14.401      8.394     13.852
REMARK INTER + INTRA:          17.819
REMARK INTER:                  17.348
REMARK INTRA:                   0.471
REMARK UNBOUND:                 0.471
REMARK SMILES O=c1c(O)c(-c2ccc(O)c(O)c2)oc2cc(O)cc(O)c12
REMARK SMILES IDX 5 1 3 2 2 3 1 4 22 5 20 6 19 7 17 8 16 9 15 10 14 11 6 12
REMARK SMILES IDX 7 13 8 14 9 15 13 16 11 17 10 18 12 20 4 22 21 24 18 26
REMARK H PARENT 10 19 12 21 4 23 21 25 18 27
REMARK Flexibility Score: inf
ROOT
ATOM      1  C   UNL     1      19.713   7.695 136.417  1.00  0.00     0.180 A 
ATOM      2  C   UNL     1      18.948   8.250 137.458  1.00  0.00     0.208 A 
ATOM      3  C   UNL     1      19.307   7.977 138.787  1.00  0.00     0.238 A 
ATOM      4  O   UNL     1      18.652   8.522 139.714  1.00  0.00    -0.285 OA
ATOM      5  C   UNL     1      20.415   7.139 139.060  1.00  0.00     0.111 A 
ATOM      6  C   UNL     1      20.843   6.762 140.369  1.00  0.00     0.134 A 
ATOM      7  C   UNL     1      22.030   6.035 140.524  1.00  0.00     0.093 A 
ATOM      8  C   UNL     1      22.768   5.615 139.415  1.00  0.00     0.123 A 
ATOM      9  C   UNL     1      22.326   5.927 138.132  1.00  0.00     0.094 A 
ATOM     10  C   UNL     1      21.165   6.683 137.946  1.00  0.00     0.146 A 
ATOM     11  O   UNL     1      20.785   6.967 136.706  1.00  0.00    -0.452 OA
ENDROOT
BRANCH   1  12
ATOM     12  C   UNL     1      19.383   7.917 134.991  1.00  0.00     0.025 A 
ATOM     13  C   UNL     1      18.287   8.711 134.608  1.00  0.00     0.016 A 
ATOM     14  C   UNL     1      17.980   8.887 133.257  1.00  0.00     0.051 A 
ATOM     15  C   UNL     1      18.753   8.263 132.269  1.00  0.00     0.157 A 
ATOM     16  C   UNL     1      20.141   7.277 133.997  1.00  0.00     0.062 A 
ATOM     17  C   UNL     1      19.837   7.451 132.642  1.00  0.00     0.158 A 
BRANCH  15  18
ATOM     18  O   UNL     1      18.445   8.442 130.921  1.00  0.00    -0.504 OA
ATOM     19  H   UNL     1      18.041   7.697 130.366  1.00  0.00     0.293 HD
ENDBRANCH  15  18
BRANCH  17  20
ATOM     20  O   UNL     1      20.621   6.811 131.684  1.00  0.00    -0.504 OA
ATOM     21  H   UNL     1      20.239   6.491 130.802  1.00  0.00     0.293 HD
ENDBRANCH  17  20
ENDBRANCH   1  12
BRANCH   2  22
ATOM     22  O   UNL     1      17.872   9.093 137.166  1.00  0.00    -0.502 OA
ATOM     23  H   UNL     1      17.836  10.057 137.477  1.00  0.00     0.293 HD
ENDBRANCH   2  22
BRANCH   6  24
ATOM     24  O   UNL     1      20.131   7.051 141.536  1.00  0.00    -0.507 OA
ATOM     25  H   UNL     1      20.080   6.447 142.343  1.00  0.00     0.293 HD
ENDBRANCH   6  24
BRANCH   8  26
ATOM     26  O   UNL     1      23.940   4.879 139.578  1.00  0.00    -0.508 OA
ATOM     27  H   UNL     1      24.852   5.297 139.439  1.00  0.00     0.293 HD
ENDBRANCH   8  26
TORSDOF 6
ENDMDL
MODEL 3
REMARK VINA RESULT:    15.117      1.565      7.426
REMARK INTER + INTRA:          18.681
REMARK INTER:                  18.137
REMARK INTRA:                   0.544
REMARK UNBOUND:                 0.471
REMARK SMILES O=c1c(O)c(-c2ccc(O)c(O)c2)oc2cc(O)cc(O)c12
REMARK SMILES IDX 5 1 3 2 2 3 1 4 22 5 20 6 19 7 17 8 16 9 15 10 14 11 6 12
REMARK SMILES IDX 7 13 8 14 9 15 13 16 11 17 10 18 12 20 4 22 21 24 18 26
REMARK H PARENT 10 19 12 21 4 23 21 25 18 27
REMARK Flexibility Score: inf
ROOT
ATOM      1  C   UNL     1      13.590   7.554 128.298  1.00  0.00     0.180 A 
ATOM      2  C   UNL     1      13.147   6.545 129.171  1.00  0.00     0.208 A 
ATOM      3  C   UNL     1      13.550   6.581 130.515  1.00  0.00     0.238 A 
ATOM      4  O   UNL     1      13.105   5.706 131.303  1.00  0.00    -0.285 OA
ATOM      5  C   UNL     1      14.404   7.616 130.967  1.00  0.00     0.111 A 
ATOM      6  C   UNL     1      14.907   7.728 132.298  1.00  0.00     0.134 A 
ATOM      7  C   UNL     1      15.639   8.863 132.666  1.00  0.00     0.093 A 
ATOM      8  C   UNL     1      15.941   9.859 131.734  1.00  0.00     0.123 A 
ATOM      9  C   UNL     1      15.505   9.730 130.418  1.00  0.00     0.094 A 
ATOM     10  C   UNL     1      14.741   8.626 130.030  1.00  0.00     0.146 A 
ATOM     11  O   UNL     1      14.337   8.547 128.767  1.00  0.00    -0.452 OA
ENDROOT
BRANCH   1  12
ATOM     12  C   UNL     1      13.228   7.570 126.863  1.00  0.00     0.025 A 
ATOM     13  C   UNL     1      13.566   8.654 126.034  1.00  0.00     0.016 A 
ATOM     14  C   UNL     1      13.192   8.658 124.688  1.00  0.00     0.051 A 
ATOM     15  C   UNL     1      12.465   7.587 124.153  1.00  0.00     0.157 A 
ATOM     16  C   UNL     1      12.480   6.509 126.326  1.00  0.00     0.062 A 
ATOM     17  C   UNL     1      12.105   6.509 124.978  1.00  0.00     0.158 A 
BRANCH  15  18
ATOM     18  O   UNL     1      12.095   7.593 122.809  1.00  0.00    -0.504 OA
ATOM     19  H   UNL     1      12.382   6.855 122.177  1.00  0.00     0.293 HD
ENDBRANCH  15  18
BRANCH  17  20
ATOM     20  O   UNL     1      11.375   5.431 124.479  1.00  0.00    -0.504 OA
ATOM     21  H   UNL     1      10.555   5.071 124.954  1.00  0.00     0.293 HD
ENDBRANCH  17  20
ENDBRANCH   1  12
BRANCH   2  22
ATOM     22  O   UNL     1      12.286   5.545 128.709  1.00  0.00    -0.502 OA
ATOM     23  H   UNL     1      12.402   4.570 128.957  1.00  0.00     0.293 HD
ENDBRANCH   2  22
BRANCH   6  24
ATOM     24  O   UNL     1      14.742   6.747 133.280  1.00  0.00    -0.507 OA
ATOM     25  H   UNL     1      15.294   5.905 133.350  1.00  0.00     0.293 HD
ENDBRANCH   6  24
BRANCH   8  26
ATOM     26  O   UNL     1      16.682  10.979 132.105  1.00  0.00    -0.508 OA
ATOM     27  H   UNL     1      16.755  11.790 131.502  1.00  0.00     0.293 HD
ENDBRANCH   8  26
TORSDOF 6
ENDMDL
MODEL 4
REMARK VINA RESULT:    15.274      1.298      6.833
REMARK INTER + INTRA:          18.871
REMARK INTER:                  18.547
REMARK INTRA:                   0.324
REMARK UNBOUND:                 0.471
REMARK SMILES O=c1c(O)c(-c2ccc(O)c(O)c2)oc2cc(O)cc(O)c12
REMARK SMILES IDX 5 1 3 2 2 3 1 4 22 5 20 6 19 7 17 8 16 9 15 10 14 11 6 12
REMARK SMILES IDX 7 13 8 14 9 15 13 16 11 17 10 18 12 20 4 22 21 24 18 26
REMARK H PARENT 10 19 12 21 4 23 21 25 18 27
REMARK Flexibility Score: inf
ROOT
ATOM      1  C   UNL     1      13.342   7.380 127.548  1.00  0.00     0.180 A 
ATOM      2  C   UNL     1      13.771   8.596 128.110  1.00  0.00     0.208 A 
ATOM      3  C   UNL     1      14.101   8.636 129.474  1.00  0.00     0.238 A 
ATOM      4  O   UNL     1      14.537   9.713 129.958  1.00  0.00    -0.285 OA
ATOM      5  C   UNL     1      13.983   7.467 130.263  1.00  0.00     0.111 A 
ATOM      6  C   UNL     1      14.252   7.403 131.663  1.00  0.00     0.134 A 
ATOM      7  C   UNL     1      14.227   6.164 132.315  1.00  0.00     0.093 A 
ATOM      8  C   UNL     1      13.879   4.997 131.631  1.00  0.00     0.123 A 
ATOM      9  C   UNL     1      13.557   5.058 130.278  1.00  0.00     0.094 A 
ATOM     10  C   UNL     1      13.608   6.274 129.591  1.00  0.00     0.146 A 
ATOM     11  O   UNL     1      13.304   6.286 128.299  1.00  0.00    -0.452 OA
ENDROOT
BRANCH   1  12
ATOM     12  C   UNL     1      12.953   7.264 126.124  1.00  0.00     0.025 A 
ATOM     13  C   UNL     1      12.006   6.316 125.698  1.00  0.00     0.016 A 
ATOM     14  C   UNL     1      11.672   6.209 124.346  1.00  0.00     0.051 A 
ATOM     15  C   UNL     1      12.289   7.036 123.398  1.00  0.00     0.157 A 
ATOM     16  C   UNL     1      13.583   8.076 125.166  1.00  0.00     0.062 A 
ATOM     17  C   UNL     1      13.251   7.972 123.811  1.00  0.00     0.158 A 
BRANCH  15  18
ATOM     18  O   UNL     1      11.952   6.928 122.049  1.00  0.00    -0.504 OA
ATOM     19  H   UNL     1      11.050   7.231 121.701  1.00  0.00     0.293 HD
ENDBRANCH  15  18
BRANCH  17  20
ATOM     20  O   UNL     1      13.888   8.805 122.892  1.00  0.00    -0.504 OA
ATOM     21  H   UNL     1      13.404   9.191 122.090  1.00  0.00     0.293 HD
ENDBRANCH  17  20
ENDBRANCH   1  12
BRANCH   2  22
ATOM     22  O   UNL     1      13.902   9.733 127.308  1.00  0.00    -0.502 OA
ATOM     23  H   UNL     1      13.103  10.260 126.976  1.00  0.00     0.293 HD
ENDBRANCH   2  22
BRANCH   6  24
ATOM     24  O   UNL     1      14.518   8.521 132.458  1.00  0.00    -0.507 OA
ATOM     25  H   UNL     1      14.082   9.424 132.345  1.00  0.00     0.293 HD
ENDBRANCH   6  24
BRANCH   8  26
ATOM     26  O   UNL     1      13.842   3.770 132.291  1.00  0.00    -0.508 OA
ATOM     27  H   UNL     1      13.417   2.953 131.868  1.00  0.00     0.293 HD
ENDBRANCH   8  26
TORSDOF 6
ENDMDL
MODEL 5
REMARK VINA RESULT:    16.421      7.182     10.508
REMARK INTER + INTRA:          20.252
REMARK INTER:                  19.728
REMARK INTRA:                   0.524
REMARK UNBOUND:                 0.471
REMARK SMILES O=c1c(O)c(-c2ccc(O)c(O)c2)oc2cc(O)cc(O)c12
REMARK SMILES IDX 5 1 3 2 2 3 1 4 22 5 20 6 19 7 17 8 16 9 15 10 14 11 6 12
REMARK SMILES IDX 7 13 8 14 9 15 13 16 11 17 10 18 12 20 4 22 21 24 18 26
REMARK H PARENT 10 19 12 21 4 23 21 25 18 27
REMARK Flexibility Score: inf
ROOT
ATOM      1  C   UNL     1      19.337   7.868 135.463  1.00  0.00     0.180 A 
ATOM      2  C   UNL     1      20.152   7.505 134.376  1.00  0.00     0.208 A 
ATOM      3  C   UNL     1      19.688   7.735 133.071  1.00  0.00     0.238 A 
ATOM      4  O   UNL     1      20.446   7.459 132.103  1.00  0.00    -0.285 OA
ATOM      5  C   UNL     1      18.411   8.309 132.867  1.00  0.00     0.111 A 
ATOM      6  C   UNL     1      17.824   8.549 131.588  1.00  0.00     0.134 A 
ATOM      7  C   UNL     1      16.610   9.241 131.504  1.00  0.00     0.093 A 
ATOM      8  C   UNL     1      15.929   9.643 132.656  1.00  0.00     0.123 A 
ATOM      9  C   UNL     1      16.464   9.361 133.910  1.00  0.00     0.094 A 
ATOM     10  C   UNL     1      17.692   8.704 134.025  1.00  0.00     0.146 A 
ATOM     11  O   UNL     1      18.171   8.464 135.240  1.00  0.00    -0.452 OA
ENDROOT
BRANCH   1  12
ATOM     12  C   UNL     1      19.745   7.634 136.866  1.00  0.00     0.025 A 
ATOM     13  C   UNL     1      19.036   8.202 137.940  1.00  0.00     0.016 A 
ATOM     14  C   UNL     1      19.455   7.988 139.255  1.00  0.00     0.051 A 
ATOM     15  C   UNL     1      20.594   7.216 139.518  1.00  0.00     0.157 A 
ATOM     16  C   UNL     1      20.899   6.880 137.135  1.00  0.00     0.062 A 
ATOM     17  C   UNL     1      21.321   6.662 138.451  1.00  0.00     0.158 A 
BRANCH  15  18
ATOM     18  O   UNL     1      21.008   7.002 140.831  1.00  0.00    -0.504 OA
ATOM     19  H   UNL     1      20.840   6.123 141.305  1.00  0.00     0.293 HD
ENDBRANCH  15  18
BRANCH  17  20
ATOM     20  O   UNL     1      22.463   5.896 138.678  1.00  0.00    -0.504 OA
ATOM     21  H   UNL     1      23.396   6.268 138.545  1.00  0.00     0.293 HD
ENDBRANCH  17  20
ENDBRANCH   1  12
BRANCH   2  22
ATOM     22  O   UNL     1      21.419   6.960 134.599  1.00  0.00    -0.502 OA
ATOM     23  H   UNL     1      21.674   6.029 134.291  1.00  0.00     0.293 HD
ENDBRANCH   2  22
BRANCH   6  24
ATOM     24  O   UNL     1      18.376   8.108 130.382  1.00  0.00    -0.507 OA
ATOM     25  H   UNL     1      19.037   8.630 129.826  1.00  0.00     0.293 HD
ENDBRANCH   6  24
BRANCH   8  26
ATOM     26  O   UNL     1      14.713  10.318 132.563  1.00  0.00    -0.508 OA
ATOM     27  H   UNL     1      13.846   9.891 132.867  1.00  0.00     0.293 HD
ENDBRANCH   8  26
TORSDOF 6
ENDMDL
