MODEL 1
REMARK VINA RESULT:    -5.026      0.000      0.000
REMARK INTER + INTRA:          -6.715
REMARK INTER:                  -6.494
REMARK INTRA:                  -0.220
REMARK UNBOUND:                -0.220
REMARK SMILES CCCCCCC(=O)[O-]
REMARK SMILES IDX 5 1 6 2 7 3 8 4 9 5 4 6 3 7 2 8 1 9
REMARK H PARENT
REMARK Flexibility Score: inf
ROOT
ATOM      1  C   UNL     1      -3.522  29.451  56.398  1.00  0.00     0.006 C 
ENDROOT
BRANCH   1   2
ATOM      2  C   UNL     1      -3.049  29.927  57.780  1.00  0.00     0.053 C 
BRANCH   2   3
ATOM      3  C   UNL     1      -4.051  30.829  58.432  1.00  0.00     0.041 C 
ATOM      4  O   UNL     1      -4.187  32.016  58.039  1.00  0.00    -0.550 OA
ATOM      5  O   UNL     1      -4.813  30.366  59.498  1.00  0.00    -0.550 OA
ENDBRANCH   2   3
ENDBRANCH   1   2
BRANCH   1   6
ATOM      6  C   UNL     1      -4.780  28.558  56.426  1.00  0.00     0.000 C 
BRANCH   6   7
ATOM      7  C   UNL     1      -4.805  27.429  55.376  1.00  0.00    -0.000 C 
BRANCH   7   8
ATOM      8  C   UNL     1      -3.454  26.733  55.139  1.00  0.00    -0.003 C 
ATOM      9  C   UNL     1      -3.203  26.404  53.668  1.00  0.00     0.004 C 
ENDBRANCH   7   8
ENDBRANCH   6   7
ENDBRANCH   1   6
TORSDOF 5
ENDMDL
MODEL 2
REMARK VINA RESULT:    -4.851      3.685      5.308
REMARK INTER + INTRA:          -6.489
REMARK INTER:                  -6.303
REMARK INTRA:                  -0.185
REMARK UNBOUND:                -0.220
REMARK SMILES CCCCCCC(=O)[O-]
REMARK SMILES IDX 5 1 6 2 7 3 8 4 9 5 4 6 3 7 2 8 1 9
REMARK H PARENT
REMARK Flexibility Score: inf
ROOT
ATOM      1  C   UNL     1      -4.444  27.391  55.280  1.00  0.00     0.006 C 
ENDROOT
BRANCH   1   2
ATOM      2  C   UNL     1      -3.207  26.481  55.296  1.00  0.00     0.053 C 
BRANCH   2   3
ATOM      3  C   UNL     1      -2.586  26.359  53.939  1.00  0.00     0.041 C 
ATOM      4  O   UNL     1      -3.306  26.384  52.907  1.00  0.00    -0.550 OA
ATOM      5  O   UNL     1      -1.212  26.186  53.816  1.00  0.00    -0.550 OA
ENDBRANCH   2   3
ENDBRANCH   1   2
BRANCH   1   6
ATOM      6  C   UNL     1      -4.367  28.591  56.246  1.00  0.00     0.000 C 
BRANCH   6   7
ATOM      7  C   UNL     1      -2.940  29.011  56.655  1.00  0.00    -0.000 C 
BRANCH   7   8
ATOM      8  C   UNL     1      -2.870  30.087  57.752  1.00  0.00    -0.003 C 
ATOM      9  C   UNL     1      -4.249  30.537  58.233  1.00  0.00     0.004 C 
ENDBRANCH   7   8
ENDBRANCH   6   7
ENDBRANCH   1   6
TORSDOF 5
ENDMDL
MODEL 3
REMARK VINA RESULT:    -4.841      1.264      1.532
REMARK INTER + INTRA:          -6.476
REMARK INTER:                  -6.333
REMARK INTRA:                  -0.143
REMARK UNBOUND:                -0.220
REMARK SMILES CCCCCCC(=O)[O-]
REMARK SMILES IDX 5 1 6 2 7 3 8 4 9 5 4 6 3 7 2 8 1 9
REMARK H PARENT
REMARK Flexibility Score: inf
ROOT
ATOM      1  C   UNL     1      -3.852  28.708  56.138  1.00  0.00     0.006 C 
ENDROOT
BRANCH   1   2
ATOM      2  C   UNL     1      -4.616  29.403  57.275  1.00  0.00     0.053 C 
BRANCH   2   3
ATOM      3  C   UNL     1      -3.812  30.504  57.896  1.00  0.00     0.041 C 
ATOM      4  O   UNL     1      -4.357  31.600  58.190  1.00  0.00    -0.550 OA
ATOM      5  O   UNL     1      -2.452  30.331  58.119  1.00  0.00    -0.550 OA
ENDBRANCH   2   3
ENDBRANCH   1   2
BRANCH   1   6
ATOM      6  C   UNL     1      -4.650  27.604  55.416  1.00  0.00     0.000 C 
BRANCH   6   7
ATOM      7  C   UNL     1      -3.826  26.723  54.454  1.00  0.00    -0.000 C 
BRANCH   7   8
ATOM      8  C   UNL     1      -2.598  26.045  55.087  1.00  0.00    -0.003 C 
ATOM      9  C   UNL     1      -1.352  26.130  54.207  1.00  0.00     0.004 C 
ENDBRANCH   7   8
ENDBRANCH   6   7
ENDBRANCH   1   6
TORSDOF 5
ENDMDL
MODEL 4
REMARK VINA RESULT:    -4.772      2.238      3.687
REMARK INTER + INTRA:          -6.388
REMARK INTER:                  -6.265
REMARK INTRA:                  -0.123
REMARK UNBOUND:                -0.220
REMARK SMILES CCCCCCC(=O)[O-]
REMARK SMILES IDX 5 1 6 2 7 3 8 4 9 5 4 6 3 7 2 8 1 9
REMARK H PARENT
REMARK Flexibility Score: inf
ROOT
ATOM      1  C   UNL     1      -3.302  26.327  55.191  1.00  0.00     0.006 C 
ENDROOT
BRANCH   1   2
ATOM      2  C   UNL     1      -4.411  27.390  55.158  1.00  0.00     0.053 C 
BRANCH   2   3
ATOM      3  C   UNL     1      -4.200  28.449  56.196  1.00  0.00     0.041 C 
ATOM      4  O   UNL     1      -5.171  28.876  56.873  1.00  0.00    -0.550 OA
ATOM      5  O   UNL     1      -2.934  28.987  56.392  1.00  0.00    -0.550 OA
ENDBRANCH   2   3
ENDBRANCH   1   2
BRANCH   1   6
ATOM      6  C   UNL     1      -2.302  26.413  54.021  1.00  0.00     0.000 C 
BRANCH   6   7
ATOM      7  C   UNL     1      -2.927  26.304  52.615  1.00  0.00    -0.000 C 
BRANCH   7   8
ATOM      8  C   UNL     1      -1.915  26.283  51.456  1.00  0.00    -0.003 C 
ATOM      9  C   UNL     1      -2.392  27.067  50.235  1.00  0.00     0.004 C 
ENDBRANCH   7   8
ENDBRANCH   6   7
ENDBRANCH   1   6
TORSDOF 5
ENDMDL
MODEL 5
REMARK VINA RESULT:    -4.703      0.815      1.398
REMARK INTER + INTRA:          -6.298
REMARK INTER:                  -6.193
REMARK INTRA:                  -0.104
REMARK UNBOUND:                -0.220
REMARK SMILES CCCCCCC(=O)[O-]
REMARK SMILES IDX 5 1 6 2 7 3 8 4 9 5 4 6 3 7 2 8 1 9
REMARK H PARENT
REMARK Flexibility Score: inf
ROOT
ATOM      1  C   UNL     1      -4.216  29.218  56.951  1.00  0.00     0.006 C 
ENDROOT
BRANCH   1   2
ATOM      2  C   UNL     1      -3.307  30.090  57.832  1.00  0.00     0.053 C 
BRANCH   2   3
ATOM      3  C   UNL     1      -4.083  31.137  58.570  1.00  0.00     0.041 C 
ATOM      4  O   UNL     1      -4.567  30.885  59.704  1.00  0.00    -0.550 OA
ATOM      5  O   UNL     1      -4.299  32.380  57.989  1.00  0.00    -0.550 OA
ENDBRANCH   2   3
ENDBRANCH   1   2
BRANCH   1   6
ATOM      6  C   UNL     1      -3.478  28.452  55.835  1.00  0.00     0.000 C 
BRANCH   6   7
ATOM      7  C   UNL     1      -4.288  27.318  55.173  1.00  0.00    -0.000 C 
BRANCH   7   8
ATOM      8  C   UNL     1      -3.485  26.422  54.214  1.00  0.00    -0.003 C 
ATOM      9  C   UNL     1      -2.046  26.195  54.675  1.00  0.00     0.004 C 
ENDBRANCH   7   8
ENDBRANCH   6   7
ENDBRANCH   1   6
TORSDOF 5
ENDMDL
MODEL 6
REMARK VINA RESULT:    -4.615      4.480      6.062
REMARK INTER + INTRA:          -6.185
REMARK INTER:                  -6.026
REMARK INTRA:                  -0.158
REMARK UNBOUND:                -0.220
REMARK SMILES CCCCCCC(=O)[O-]
REMARK SMILES IDX 5 1 6 2 7 3 8 4 9 5 4 6 3 7 2 8 1 9
REMARK H PARENT
REMARK Flexibility Score: inf
ROOT
ATOM      1  C   UNL     1      -3.560  26.368  53.883  1.00  0.00     0.006 C 
ENDROOT
BRANCH   1   2
ATOM      2  C   UNL     1      -2.208  26.364  53.153  1.00  0.00     0.053 C 
BRANCH   2   3
ATOM      3  C   UNL     1      -2.378  26.305  51.666  1.00  0.00     0.041 C 
ATOM      4  O   UNL     1      -1.370  26.313  50.912  1.00  0.00    -0.550 OA
ATOM      5  O   UNL     1      -3.652  26.275  51.112  1.00  0.00    -0.550 OA
ENDBRANCH   2   3
ENDBRANCH   1   2
BRANCH   1   6
ATOM      6  C   UNL     1      -3.502  26.904  55.328  1.00  0.00     0.000 C 
BRANCH   6   7
ATOM      7  C   UNL     1      -4.630  27.885  55.708  1.00  0.00    -0.000 C 
BRANCH   7   8
ATOM      8  C   UNL     1      -4.192  29.064  56.595  1.00  0.00    -0.003 C 
ATOM      9  C   UNL     1      -2.676  29.154  56.759  1.00  0.00     0.004 C 
ENDBRANCH   7   8
ENDBRANCH   6   7
ENDBRANCH   1   6
TORSDOF 5
ENDMDL
MODEL 7
REMARK VINA RESULT:    -4.195      4.242      5.506
REMARK INTER + INTRA:          -5.641
REMARK INTER:                  -5.502
REMARK INTRA:                  -0.139
REMARK UNBOUND:                -0.220
REMARK SMILES CCCCCCC(=O)[O-]
REMARK SMILES IDX 5 1 6 2 7 3 8 4 9 5 4 6 3 7 2 8 1 9
REMARK H PARENT
REMARK Flexibility Score: inf
ROOT
ATOM      1  C   UNL     1      -2.071  26.107  55.204  1.00  0.00     0.006 C 
ENDROOT
BRANCH   1   2
ATOM      2  C   UNL     1      -0.824  25.770  54.373  1.00  0.00     0.053 C 
BRANCH   2   3
ATOM      3  C   UNL     1       0.440  26.046  55.127  1.00  0.00     0.041 C 
ATOM      4  O   UNL     1       1.547  25.647  54.679  1.00  0.00    -0.550 OA
ATOM      5  O   UNL     1       0.392  26.716  56.344  1.00  0.00    -0.550 OA
ENDBRANCH   2   3
ENDBRANCH   1   2
BRANCH   1   6
ATOM      6  C   UNL     1      -3.308  26.496  54.368  1.00  0.00     0.000 C 
BRANCH   6   7
ATOM      7  C   UNL     1      -4.365  27.335  55.115  1.00  0.00    -0.000 C 
BRANCH   7   8
ATOM      8  C   UNL     1      -3.800  28.502  55.943  1.00  0.00    -0.003 C 
ATOM      9  C   UNL     1      -4.795  29.040  56.970  1.00  0.00     0.004 C 
ENDBRANCH   7   8
ENDBRANCH   6   7
ENDBRANCH   1   6
TORSDOF 5
ENDMDL
MODEL 8
REMARK VINA RESULT:    -4.188      1.929      2.557
REMARK INTER + INTRA:          -5.633
REMARK INTER:                  -5.308
REMARK INTRA:                  -0.325
REMARK UNBOUND:                -0.220
REMARK SMILES CCCCCCC(=O)[O-]
REMARK SMILES IDX 5 1 6 2 7 3 8 4 9 5 4 6 3 7 2 8 1 9
REMARK H PARENT
REMARK Flexibility Score: inf
ROOT
ATOM      1  C   UNL     1      -1.714  28.322  56.979  1.00  0.00     0.006 C 
ENDROOT
BRANCH   1   2
ATOM      2  C   UNL     1      -2.673  29.348  56.356  1.00  0.00     0.053 C 
BRANCH   2   3
ATOM      3  C   UNL     1      -4.007  29.350  57.037  1.00  0.00     0.041 C 
ATOM      4  O   UNL     1      -4.175  29.998  58.103  1.00  0.00    -0.550 OA
ATOM      5  O   UNL     1      -5.057  28.607  56.510  1.00  0.00    -0.550 OA
ENDBRANCH   2   3
ENDBRANCH   1   2
BRANCH   1   6
ATOM      6  C   UNL     1      -1.899  26.881  56.464  1.00  0.00     0.000 C 
BRANCH   6   7
ATOM      7  C   UNL     1      -1.004  26.492  55.269  1.00  0.00    -0.000 C 
BRANCH   7   8
ATOM      8  C   UNL     1      -1.760  26.207  53.960  1.00  0.00    -0.003 C 
ATOM      9  C   UNL     1      -3.259  26.480  54.066  1.00  0.00     0.004 C 
ENDBRANCH   7   8
ENDBRANCH   6   7
ENDBRANCH   1   6
TORSDOF 5
ENDMDL
MODEL 9
REMARK VINA RESULT:    -4.131      3.164      4.185
REMARK INTER + INTRA:          -5.559
REMARK INTER:                  -5.436
REMARK INTRA:                  -0.122
REMARK UNBOUND:                -0.220
REMARK SMILES CCCCCCC(=O)[O-]
REMARK SMILES IDX 5 1 6 2 7 3 8 4 9 5 4 6 3 7 2 8 1 9
REMARK H PARENT
REMARK Flexibility Score: inf
ROOT
ATOM      1  C   UNL     1      -2.927  26.296  54.723  1.00  0.00     0.006 C 
ENDROOT
BRANCH   1   2
ATOM      2  C   UNL     1      -3.004  27.105  56.026  1.00  0.00     0.053 C 
BRANCH   2   3
ATOM      3  C   UNL     1      -4.105  28.120  55.990  1.00  0.00     0.041 C 
ATOM      4  O   UNL     1      -3.902  29.292  56.402  1.00  0.00    -0.550 OA
ATOM      5  O   UNL     1      -5.366  27.761  55.530  1.00  0.00    -0.550 OA
ENDBRANCH   2   3
ENDBRANCH   1   2
BRANCH   1   6
ATOM      6  C   UNL     1      -1.510  26.178  54.127  1.00  0.00     0.000 C 
BRANCH   6   7
ATOM      7  C   UNL     1      -0.387  25.928  55.155  1.00  0.00    -0.000 C 
BRANCH   7   8
ATOM      8  C   UNL     1       0.946  25.447  54.555  1.00  0.00    -0.003 C 
ATOM      9  C   UNL     1       0.870  24.024  54.002  1.00  0.00     0.004 C 
ENDBRANCH   7   8
ENDBRANCH   6   7
ENDBRANCH   1   6
TORSDOF 5
ENDMDL
