MODEL 1
REMARK VINA RESULT:    -6.317      0.000      0.000
REMARK INTER + INTRA:          -6.317
REMARK INTER:                  -6.317
REMARK INTRA:                   0.000
REMARK UNBOUND:                 0.000
REMARK SMILES C=C1CCC[C@@]2(C)CC(=O)C(=C(C)C)C[C@@H]12
REMARK SMILES IDX 13 1 12 2 11 3 15 4 16 5 2 6 1 7 3 8 4 9 5 10 6 11 8 12 9 13
REMARK SMILES IDX 10 14 7 15 14 16
REMARK H PARENT
REMARK Flexibility Score: inf
ROOT
ATOM      1  C   UNL     1     -11.587  13.916 -32.934  1.00  0.00     0.039 C 
ATOM      2  C   UNL     1     -12.109  13.014 -31.840  1.00  0.00    -0.070 C 
ATOM      3  C   UNL     1     -13.363  13.171 -31.327  1.00  0.00    -0.006 C 
ATOM      4  C   UNL     1     -13.915  12.253 -30.253  1.00  0.00     0.047 C 
ATOM      5  C   UNL     1     -15.441  12.005 -30.382  1.00  0.00     0.025 C 
ATOM      6  C   UNL     1     -15.922  11.282 -29.134  1.00  0.00    -0.073 C 
ATOM      7  C   UNL     1     -16.084   9.950 -29.137  1.00  0.00     0.008 C 
ATOM      8  C   UNL     1     -16.062  12.068 -27.847  1.00  0.00     0.031 C 
ATOM      9  C   UNL     1     -16.800  13.395 -28.071  1.00  0.00     0.005 C 
ATOM     10  C   UNL     1     -16.279  14.166 -29.298  1.00  0.00     0.008 C 
ATOM     11  C   UNL     1     -16.278  13.307 -30.597  1.00  0.00    -0.018 C 
ATOM     12  C   UNL     1     -15.700  14.129 -31.779  1.00  0.00     0.088 C 
ATOM     13  C   UNL     1     -14.222  14.325 -31.676  1.00  0.00     0.159 C 
ATOM     14  O   UNL     1     -13.732  15.467 -31.888  1.00  0.00    -0.295 OA
ATOM     15  C   UNL     1     -17.734  12.933 -30.981  1.00  0.00     0.012 C 
ATOM     16  C   UNL     1     -11.199  11.904 -31.366  1.00  0.00     0.039 C 
ENDROOT
TORSDOF 0
ENDMDL
MODEL 2
REMARK VINA RESULT:    -5.627      9.180     11.800
REMARK INTER + INTRA:          -5.627
REMARK INTER:                  -5.627
REMARK INTRA:                   0.000
REMARK UNBOUND:                 0.000
REMARK SMILES C=C1CCC[C@@]2(C)CC(=O)C(=C(C)C)C[C@@H]12
REMARK SMILES IDX 13 1 12 2 11 3 15 4 16 5 2 6 1 7 3 8 4 9 5 10 6 11 8 12 9 13
REMARK SMILES IDX 10 14 7 15 14 16
REMARK H PARENT
REMARK Flexibility Score: inf
ROOT
ATOM      1  C   UNL     1     -22.458  14.005 -30.086  1.00  0.00     0.039 C 
ATOM      2  C   UNL     1     -23.958  14.059 -30.268  1.00  0.00    -0.070 C 
ATOM      3  C   UNL     1     -24.760  13.033 -29.865  1.00  0.00    -0.006 C 
ATOM      4  C   UNL     1     -26.269  13.087 -30.008  1.00  0.00     0.047 C 
ATOM      5  C   UNL     1     -27.022  12.366 -28.859  1.00  0.00     0.025 C 
ATOM      6  C   UNL     1     -28.494  12.271 -29.227  1.00  0.00    -0.073 C 
ATOM      7  C   UNL     1     -29.376  13.160 -28.744  1.00  0.00     0.008 C 
ATOM      8  C   UNL     1     -28.920  11.258 -30.269  1.00  0.00     0.031 C 
ATOM      9  C   UNL     1     -28.296   9.880 -30.008  1.00  0.00     0.005 C 
ATOM     10  C   UNL     1     -26.790   9.958 -29.694  1.00  0.00     0.008 C 
ATOM     11  C   UNL     1     -26.465  10.943 -28.532  1.00  0.00    -0.018 C 
ATOM     12  C   UNL     1     -24.931  11.005 -28.301  1.00  0.00     0.088 C 
ATOM     13  C   UNL     1     -24.215  11.743 -29.386  1.00  0.00     0.159 C 
ATOM     14  O   UNL     1     -23.161  11.254 -29.876  1.00  0.00    -0.295 OA
ATOM     15  C   UNL     1     -27.096  10.426 -27.212  1.00  0.00     0.012 C 
ATOM     16  C   UNL     1     -24.535  15.315 -30.880  1.00  0.00     0.039 C 
ENDROOT
TORSDOF 0
ENDMDL
MODEL 3
REMARK VINA RESULT:    -5.595      1.763      3.271
REMARK INTER + INTRA:          -5.595
REMARK INTER:                  -5.595
REMARK INTRA:                   0.000
REMARK UNBOUND:                 0.000
REMARK SMILES C=C1CCC[C@@]2(C)CC(=O)C(=C(C)C)C[C@@H]12
REMARK SMILES IDX 13 1 12 2 11 3 15 4 16 5 2 6 1 7 3 8 4 9 5 10 6 11 8 12 9 13
REMARK SMILES IDX 10 14 7 15 14 16
REMARK H PARENT
REMARK Flexibility Score: inf
ROOT
ATOM      1  C   UNL     1     -11.050  13.757 -32.133  1.00  0.00     0.039 C 
ATOM      2  C   UNL     1     -12.510  13.905 -31.775  1.00  0.00    -0.070 C 
ATOM      3  C   UNL     1     -13.136  13.010 -30.958  1.00  0.00    -0.006 C 
ATOM      4  C   UNL     1     -14.592  13.162 -30.561  1.00  0.00     0.047 C 
ATOM      5  C   UNL     1     -14.893  12.665 -29.123  1.00  0.00     0.025 C 
ATOM      6  C   UNL     1     -16.400  12.638 -28.923  1.00  0.00    -0.073 C 
ATOM      7  C   UNL     1     -17.023  13.651 -28.301  1.00  0.00     0.008 C 
ATOM      8  C   UNL     1     -17.200  11.530 -29.574  1.00  0.00     0.031 C 
ATOM      9  C   UNL     1     -16.558  10.155 -29.341  1.00  0.00     0.005 C 
ATOM     10  C   UNL     1     -15.040  10.156 -29.601  1.00  0.00     0.008 C 
ATOM     11  C   UNL     1     -14.290  11.261 -28.799  1.00  0.00    -0.018 C 
ATOM     12  C   UNL     1     -12.776  11.232 -29.142  1.00  0.00     0.088 C 
ATOM     13  C   UNL     1     -12.486  11.757 -30.511  1.00  0.00     0.159 C 
ATOM     14  O   UNL     1     -11.695  11.125 -31.262  1.00  0.00    -0.295 OA
ATOM     15  C   UNL     1     -14.409  10.980 -27.277  1.00  0.00     0.012 C 
ATOM     16  C   UNL     1     -13.240  15.107 -32.328  1.00  0.00     0.039 C 
ENDROOT
TORSDOF 0
ENDMDL
MODEL 4
REMARK VINA RESULT:    -5.464      2.052      4.705
REMARK INTER + INTRA:          -5.464
REMARK INTER:                  -5.464
REMARK INTRA:                   0.000
REMARK UNBOUND:                 0.000
REMARK SMILES C=C1CCC[C@@]2(C)CC(=O)C(=C(C)C)C[C@@H]12
REMARK SMILES IDX 13 1 12 2 11 3 15 4 16 5 2 6 1 7 3 8 4 9 5 10 6 11 8 12 9 13
REMARK SMILES IDX 10 14 7 15 14 16
REMARK H PARENT
REMARK Flexibility Score: inf
ROOT
ATOM      1  C   UNL     1     -19.789  12.040 -29.746  1.00  0.00     0.039 C 
ATOM      2  C   UNL     1     -18.435  11.504 -29.342  1.00  0.00    -0.070 C 
ATOM      3  C   UNL     1     -17.282  12.120 -29.728  1.00  0.00    -0.006 C 
ATOM      4  C   UNL     1     -15.917  11.615 -29.303  1.00  0.00     0.047 C 
ATOM      5  C   UNL     1     -14.883  12.750 -29.082  1.00  0.00     0.025 C 
ATOM      6  C   UNL     1     -13.508  12.126 -28.901  1.00  0.00    -0.073 C 
ATOM      7  C   UNL     1     -13.002  11.935 -27.672  1.00  0.00     0.008 C 
ATOM      8  C   UNL     1     -12.791  11.580 -30.118  1.00  0.00     0.031 C 
ATOM      9  C   UNL     1     -12.829  12.571 -31.290  1.00  0.00     0.005 C 
ATOM     10  C   UNL     1     -14.232  13.164 -31.522  1.00  0.00     0.008 C 
ATOM     11  C   UNL     1     -14.840  13.801 -30.237  1.00  0.00    -0.018 C 
ATOM     12  C   UNL     1     -16.267  14.336 -30.532  1.00  0.00     0.088 C 
ATOM     13  C   UNL     1     -17.269  13.240 -30.696  1.00  0.00     0.159 C 
ATOM     14  O   UNL     1     -18.086  13.287 -31.656  1.00  0.00    -0.295 OA
ATOM     15  C   UNL     1     -13.986  15.021 -29.800  1.00  0.00     0.012 C 
ATOM     16  C   UNL     1     -18.413  10.277 -28.460  1.00  0.00     0.039 C 
ENDROOT
TORSDOF 0
ENDMDL
MODEL 5
REMARK VINA RESULT:    -5.428      2.801      4.605
REMARK INTER + INTRA:          -5.428
REMARK INTER:                  -5.428
REMARK INTRA:                   0.000
REMARK UNBOUND:                 0.000
REMARK SMILES C=C1CCC[C@@]2(C)CC(=O)C(=C(C)C)C[C@@H]12
REMARK SMILES IDX 13 1 12 2 11 3 15 4 16 5 2 6 1 7 3 8 4 9 5 10 6 11 8 12 9 13
REMARK SMILES IDX 10 14 7 15 14 16
REMARK H PARENT
REMARK Flexibility Score: inf
ROOT
ATOM      1  C   UNL     1     -13.193   9.878 -25.796  1.00  0.00     0.039 C 
ATOM      2  C   UNL     1     -12.899  10.728 -27.011  1.00  0.00    -0.070 C 
ATOM      3  C   UNL     1     -13.898  11.334 -27.713  1.00  0.00    -0.006 C 
ATOM      4  C   UNL     1     -13.619  12.218 -28.914  1.00  0.00     0.047 C 
ATOM      5  C   UNL     1     -14.613  13.400 -29.051  1.00  0.00     0.025 C 
ATOM      6  C   UNL     1     -14.392  14.065 -30.401  1.00  0.00    -0.073 C 
ATOM      7  C   UNL     1     -13.642  15.174 -30.500  1.00  0.00     0.008 C 
ATOM      8  C   UNL     1     -14.901  13.370 -31.646  1.00  0.00     0.031 C 
ATOM      9  C   UNL     1     -16.343  12.876 -31.470  1.00  0.00     0.005 C 
ATOM     10  C   UNL     1     -16.563  12.146 -30.132  1.00  0.00     0.008 C 
ATOM     11  C   UNL     1     -16.112  12.988 -28.902  1.00  0.00    -0.018 C 
ATOM     12  C   UNL     1     -16.320  12.176 -27.595  1.00  0.00     0.088 C 
ATOM     13  C   UNL     1     -15.330  11.067 -27.444  1.00  0.00     0.159 C 
ATOM     14  O   UNL     1     -15.728   9.925 -27.090  1.00  0.00    -0.295 OA
ATOM     15  C   UNL     1     -16.994  14.260 -28.783  1.00  0.00     0.012 C 
ATOM     16  C   UNL     1     -11.448  10.910 -27.393  1.00  0.00     0.039 C 
ENDROOT
TORSDOF 0
ENDMDL
MODEL 6
REMARK VINA RESULT:    -5.356      9.960     12.565
REMARK INTER + INTRA:          -5.356
REMARK INTER:                  -5.356
REMARK INTRA:                   0.000
REMARK UNBOUND:                 0.000
REMARK SMILES C=C1CCC[C@@]2(C)CC(=O)C(=C(C)C)C[C@@H]12
REMARK SMILES IDX 13 1 12 2 11 3 15 4 16 5 2 6 1 7 3 8 4 9 5 10 6 11 8 12 9 13
REMARK SMILES IDX 10 14 7 15 14 16
REMARK H PARENT
REMARK Flexibility Score: inf
ROOT
ATOM      1  C   UNL     1     -23.540  10.141 -26.751  1.00  0.00     0.039 C 
ATOM      2  C   UNL     1     -23.948  10.159 -28.206  1.00  0.00    -0.070 C 
ATOM      3  C   UNL     1     -25.225  10.453 -28.583  1.00  0.00    -0.006 C 
ATOM      4  C   UNL     1     -25.643  10.508 -30.040  1.00  0.00     0.047 C 
ATOM      5  C   UNL     1     -26.726  11.580 -30.328  1.00  0.00     0.025 C 
ATOM      6  C   UNL     1     -27.237  11.384 -31.747  1.00  0.00    -0.073 C 
ATOM      7  C   UNL     1     -26.761  12.134 -32.753  1.00  0.00     0.008 C 
ATOM      8  C   UNL     1     -28.172  10.227 -32.029  1.00  0.00     0.031 C 
ATOM      9  C   UNL     1     -29.297  10.140 -30.988  1.00  0.00     0.005 C 
ATOM     10  C   UNL     1     -28.782  10.276 -29.543  1.00  0.00     0.008 C 
ATOM     11  C   UNL     1     -27.923  11.556 -29.325  1.00  0.00    -0.018 C 
ATOM     12  C   UNL     1     -27.402  11.605 -27.864  1.00  0.00     0.088 C 
ATOM     13  C   UNL     1     -26.324  10.603 -27.603  1.00  0.00     0.159 C 
ATOM     14  O   UNL     1     -26.370   9.903 -26.556  1.00  0.00    -0.295 OA
ATOM     15  C   UNL     1     -28.800  12.820 -29.530  1.00  0.00     0.012 C 
ATOM     16  C   UNL     1     -22.872   9.875 -29.229  1.00  0.00     0.039 C 
ENDROOT
TORSDOF 0
ENDMDL
MODEL 7
REMARK VINA RESULT:    -4.959      2.912      5.799
REMARK INTER + INTRA:          -4.959
REMARK INTER:                  -4.959
REMARK INTRA:                   0.000
REMARK UNBOUND:                 0.000
REMARK SMILES C=C1CCC[C@@]2(C)CC(=O)C(=C(C)C)C[C@@H]12
REMARK SMILES IDX 13 1 12 2 11 3 15 4 16 5 2 6 1 7 3 8 4 9 5 10 6 11 8 12 9 13
REMARK SMILES IDX 10 14 7 15 14 16
REMARK H PARENT
REMARK Flexibility Score: inf
ROOT
ATOM      1  C   UNL     1     -20.316   9.879 -28.259  1.00  0.00     0.039 C 
ATOM      2  C   UNL     1     -19.638  11.008 -29.001  1.00  0.00    -0.070 C 
ATOM      3  C   UNL     1     -18.281  11.146 -29.000  1.00  0.00    -0.006 C 
ATOM      4  C   UNL     1     -17.582  12.252 -29.767  1.00  0.00     0.047 C 
ATOM      5  C   UNL     1     -16.207  11.827 -30.344  1.00  0.00     0.025 C 
ATOM      6  C   UNL     1     -15.499  13.064 -30.873  1.00  0.00    -0.073 C 
ATOM      7  C   UNL     1     -15.534  13.363 -32.181  1.00  0.00     0.008 C 
ATOM      8  C   UNL     1     -14.889  14.033 -29.882  1.00  0.00     0.031 C 
ATOM      9  C   UNL     1     -14.065  13.305 -28.810  1.00  0.00     0.005 C 
ATOM     10  C   UNL     1     -14.799  12.085 -28.223  1.00  0.00     0.008 C 
ATOM     11  C   UNL     1     -15.290  11.090 -29.316  1.00  0.00    -0.018 C 
ATOM     12  C   UNL     1     -16.057   9.912 -28.657  1.00  0.00     0.088 C 
ATOM     13  C   UNL     1     -17.402  10.315 -28.146  1.00  0.00     0.159 C 
ATOM     14  O   UNL     1     -17.765   9.943 -26.997  1.00  0.00    -0.295 OA
ATOM     15  C   UNL     1     -14.070  10.474 -30.052  1.00  0.00     0.012 C 
ATOM     16  C   UNL     1     -20.523  11.957 -29.776  1.00  0.00     0.039 C 
ENDROOT
TORSDOF 0
ENDMDL
MODEL 8
REMARK VINA RESULT:    -4.679      1.701      2.854
REMARK INTER + INTRA:          -4.679
REMARK INTER:                  -4.679
REMARK INTRA:                   0.000
REMARK UNBOUND:                 0.000
REMARK SMILES C=C1CCC[C@@]2(C)CC(=O)C(=C(C)C)C[C@@H]12
REMARK SMILES IDX 13 1 12 2 11 3 15 4 16 5 2 6 1 7 3 8 4 9 5 10 6 11 8 12 9 13
REMARK SMILES IDX 10 14 7 15 14 16
REMARK H PARENT
REMARK Flexibility Score: inf
ROOT
ATOM      1  C   UNL     1     -12.893  15.530 -32.400  1.00  0.00     0.039 C 
ATOM      2  C   UNL     1     -13.872  15.490 -31.249  1.00  0.00    -0.070 C 
ATOM      3  C   UNL     1     -14.646  14.393 -31.012  1.00  0.00    -0.006 C 
ATOM      4  C   UNL     1     -15.608  14.323 -29.842  1.00  0.00     0.047 C 
ATOM      5  C   UNL     1     -15.741  12.900 -29.239  1.00  0.00     0.025 C 
ATOM      6  C   UNL     1     -16.895  12.898 -28.249  1.00  0.00    -0.073 C 
ATOM      7  C   UNL     1     -16.664  13.027 -26.933  1.00  0.00     0.008 C 
ATOM      8  C   UNL     1     -18.312  12.907 -28.783  1.00  0.00     0.031 C 
ATOM      9  C   UNL     1     -18.503  11.871 -29.900  1.00  0.00     0.005 C 
ATOM     10  C   UNL     1     -17.370  11.906 -30.943  1.00  0.00     0.008 C 
ATOM     11  C   UNL     1     -15.955  11.778 -30.305  1.00  0.00    -0.018 C 
ATOM     12  C   UNL     1     -14.865  11.866 -31.406  1.00  0.00     0.088 C 
ATOM     13  C   UNL     1     -14.707  13.249 -31.950  1.00  0.00     0.159 C 
ATOM     14  O   UNL     1     -14.629  13.419 -33.197  1.00  0.00    -0.295 OA
ATOM     15  C   UNL     1     -15.804  10.386 -29.635  1.00  0.00     0.012 C 
ATOM     16  C   UNL     1     -13.930  16.702 -30.349  1.00  0.00     0.039 C 
ENDROOT
TORSDOF 0
ENDMDL
MODEL 9
REMARK VINA RESULT:    -4.584      1.864      3.333
REMARK INTER + INTRA:          -4.584
REMARK INTER:                  -4.584
REMARK INTRA:                   0.000
REMARK UNBOUND:                 0.000
REMARK SMILES C=C1CCC[C@@]2(C)CC(=O)C(=C(C)C)C[C@@H]12
REMARK SMILES IDX 13 1 12 2 11 3 15 4 16 5 2 6 1 7 3 8 4 9 5 10 6 11 8 12 9 13
REMARK SMILES IDX 10 14 7 15 14 16
REMARK H PARENT
REMARK Flexibility Score: inf
ROOT
ATOM      1  C   UNL     1     -12.689  13.111 -31.985  1.00  0.00     0.039 C 
ATOM      2  C   UNL     1     -14.170  12.817 -31.937  1.00  0.00    -0.070 C 
ATOM      3  C   UNL     1     -14.774  12.390 -30.791  1.00  0.00    -0.006 C 
ATOM      4  C   UNL     1     -16.265  12.123 -30.717  1.00  0.00     0.047 C 
ATOM      5  C   UNL     1     -16.884  12.468 -29.338  1.00  0.00     0.025 C 
ATOM      6  C   UNL     1     -18.309  11.940 -29.299  1.00  0.00    -0.073 C 
ATOM      7  C   UNL     1     -19.345  12.756 -29.548  1.00  0.00     0.008 C 
ATOM      8  C   UNL     1     -18.529  10.451 -29.130  1.00  0.00     0.031 C 
ATOM      9  C   UNL     1     -17.664   9.875 -28.000  1.00  0.00     0.005 C 
ATOM     10  C   UNL     1     -16.202  10.355 -28.066  1.00  0.00     0.008 C 
ATOM     11  C   UNL     1     -16.077  11.907 -28.123  1.00  0.00    -0.018 C 
ATOM     12  C   UNL     1     -14.584  12.316 -28.233  1.00  0.00     0.088 C 
ATOM     13  C   UNL     1     -14.005  12.026 -29.580  1.00  0.00     0.159 C 
ATOM     14  O   UNL     1     -12.874  11.476 -29.662  1.00  0.00    -0.295 OA
ATOM     15  C   UNL     1     -16.616  12.527 -26.807  1.00  0.00     0.012 C 
ATOM     16  C   UNL     1     -14.963  13.051 -33.202  1.00  0.00     0.039 C 
ENDROOT
TORSDOF 0
ENDMDL
