MODEL 1
REMARK VINA RESULT:    -2.015      0.000      0.000
REMARK INTER + INTRA:          -2.888
REMARK INTER:                  -3.075
REMARK INTRA:                   0.187
REMARK UNBOUND:                 0.187
REMARK SMILES CC1=CCC[C@H](C)C(=O)C[C@H](C(C)C)C(=O)C1
REMARK SMILES IDX 8 1 9 2 6 3 7 4 5 5 4 6 3 7 2 8 1 9 10 11 11 12 15 13 16 14
REMARK SMILES IDX 17 15 12 17 13 18 14 19
REMARK H PARENT
REMARK Flexibility Score: 70.00
ROOT
ATOM      1  C   UNL     1      79.143  14.085   2.512  1.00  0.00     0.136 C 
ATOM      2  O   UNL     1      80.339  13.952   2.294  1.00  0.00    -0.299 OA
ENDROOT
BRANCH   1   3
ATOM      3  C   UNL     1      78.170  13.931   1.356  1.00  0.00     0.053 C 
ATOM      4  C   UNL     1      76.722  14.108   1.827  1.00  0.00     0.016 C 
BRANCH   3   5
ATOM      5  C   UNL     1      78.503  14.900   0.207  1.00  0.00     0.015 C 
BRANCH   5   6
ATOM      6  C   UNL     1      78.013  16.330   0.500  1.00  0.00     0.028 C 
BRANCH   6   7
ATOM      7  C   UNL     1      79.155  17.226   0.901  1.00  0.00    -0.028 C 
ATOM      8  C   UNL     1      79.398  17.641   2.166  1.00  0.00    -0.070 CG0
ATOM      9  C   UNL     1      80.561  18.573   2.396  1.00  0.00     0.039 C 
ATOM     10  G   UNL     1      78.560  17.202   3.359  1.00  0.00     0.000 G0
ENDBRANCH   6   7
ENDBRANCH   5   6
ENDBRANCH   3   5
ENDBRANCH   1   3
BRANCH   1  11
ATOM     11  C   UNL     1      78.690  14.363   3.929  1.00  0.00     0.087 C 
BRANCH  11  12
ATOM     12  C   UNL     1      79.701  15.250   4.707  1.00  0.00     0.066 C 
BRANCH  12  13
ATOM     13  C   UNL     1      79.317  16.712   4.540  1.00  0.00     0.140 C 
ATOM     14  O   UNL     1      79.730  17.537   5.344  1.00  0.00    -0.299 OA
BRANCH  13  15
ATOM     15  C   UNL     1      78.535  17.177   3.337  1.00  0.00     0.106 CG0
ATOM     16  G   UNL     1      79.441  17.630   2.201  1.00  0.00     0.000 G0
ENDBRANCH  13  15
ENDBRANCH  12  13
BRANCH  12  17
ATOM     17  C   UNL     1      79.785  14.874   6.224  1.00  0.00    -0.006 C 
ATOM     18  C   UNL     1      78.473  14.254   6.745  1.00  0.00     0.008 C 
ATOM     19  C   UNL     1      80.935  13.882   6.494  1.00  0.00     0.008 C 
ENDBRANCH  12  17
ENDBRANCH  11  12
ENDBRANCH   1  11
TORSDOF 1
ENDMDL
MODEL 2
REMARK VINA RESULT:    -0.571      1.947      3.424
REMARK INTER + INTRA:          -0.684
REMARK INTER:                  -2.411
REMARK INTRA:                   1.728
REMARK UNBOUND:                 0.187
REMARK SMILES CC1=CCC[C@H](C)C(=O)C[C@H](C(C)C)C(=O)C1
REMARK SMILES IDX 8 1 9 2 6 3 7 4 5 5 4 6 3 7 2 8 1 9 10 11 11 12 15 13 16 14
REMARK SMILES IDX 17 15 12 17 13 18 14 19
REMARK H PARENT
REMARK Flexibility Score: 70.00
ROOT
ATOM      1  C   UNL     1      79.787  17.233   2.359  1.00  0.00     0.136 C 
ATOM      2  O   UNL     1      80.308  18.336   2.452  1.00  0.00    -0.299 OA
ENDROOT
BRANCH   1   3
ATOM      3  C   UNL     1      78.624  17.055   1.400  1.00  0.00     0.053 C 
ATOM      4  C   UNL     1      77.976  18.403   1.062  1.00  0.00     0.016 C 
BRANCH   3   5
ATOM      5  C   UNL     1      79.055  16.309   0.124  1.00  0.00     0.015 C 
BRANCH   5   6
ATOM      6  C   UNL     1      78.767  14.799   0.215  1.00  0.00     0.028 C 
BRANCH   6   7
ATOM      7  C   UNL     1      77.321  14.540   0.547  1.00  0.00    -0.028 C 
ATOM      8  C   UNL     1      76.868  14.161   1.765  1.00  0.00    -0.070 CG0
ATOM      9  C   UNL     1      75.391  13.899   1.923  1.00  0.00     0.039 C 
ATOM     10  G   UNL     1      77.778  13.997   2.974  1.00  0.00     0.000 G0
ENDBRANCH   6   7
ENDBRANCH   5   6
ENDBRANCH   3   5
ENDBRANCH   1   3
BRANCH   1  11
ATOM     11  C   UNL     1      80.352  16.094   3.180  1.00  0.00     0.087 C 
BRANCH  11  12
ATOM     12  C   UNL     1      79.371  15.626   4.290  1.00  0.00     0.066 C 
BRANCH  12  13
ATOM     13  C   UNL     1      78.018  15.320   3.667  1.00  0.00     0.140 C 
ATOM     14  O   UNL     1      77.159  16.191   3.637  1.00  0.00    -0.299 OA
BRANCH  13  15
ATOM     15  C   UNL     1      77.759  14.000   2.984  1.00  0.00     0.106 CG0
ATOM     16  G   UNL     1      76.861  14.150   1.764  1.00  0.00     0.000 G0
ENDBRANCH  13  15
ENDBRANCH  12  13
BRANCH  12  17
ATOM     17  C   UNL     1      79.906  14.383   5.078  1.00  0.00    -0.006 C 
ATOM     18  C   UNL     1      81.359  14.032   4.697  1.00  0.00     0.008 C 
ATOM     19  C   UNL     1      79.844  14.614   6.601  1.00  0.00     0.008 C 
ENDBRANCH  12  17
ENDBRANCH  11  12
ENDBRANCH   1  11
TORSDOF 1
ENDMDL
