MODEL 1
REMARK VINA RESULT:    -4.164      0.000      0.000
REMARK INTER + INTRA:          -5.216
REMARK INTER:                  -5.016
REMARK INTRA:                  -0.200
REMARK UNBOUND:                -0.200
REMARK SMILES OCC(O)CO
REMARK SMILES IDX 3 1 5 2 6 3 2 5 1 6 4 8
REMARK H PARENT 6 4 1 7 4 9
REMARK Flexibility Score: inf
ROOT
ATOM      1  C   UNL     1      37.573  34.250  48.997  1.00  0.00     0.165 C 
ENDROOT
BRANCH   1   2
ATOM      2  C   UNL     1      37.417  35.388  50.017  1.00  0.00     0.190 C 
BRANCH   2   3
ATOM      3  O   UNL     1      38.179  36.507  49.650  1.00  0.00    -0.394 OA
ATOM      4  H   UNL     1      38.504  36.342  48.727  1.00  0.00     0.210 HD
ENDBRANCH   2   3
ENDBRANCH   1   2
BRANCH   1   5
ATOM      5  C   UNL     1      38.512  34.658  47.849  1.00  0.00     0.190 C 
BRANCH   5   6
ATOM      6  O   UNL     1      37.792  35.285  46.823  1.00  0.00    -0.394 OA
ATOM      7  H   UNL     1      38.295  36.108  46.586  1.00  0.00     0.210 HD
ENDBRANCH   5   6
ENDBRANCH   1   5
BRANCH   1   8
ATOM      8  O   UNL     1      36.310  33.902  48.490  1.00  0.00    -0.388 OA
ATOM      9  H   UNL     1      36.176  32.939  48.686  1.00  0.00     0.211 HD
ENDBRANCH   1   8
TORSDOF 5
ENDMDL
MODEL 2
REMARK VINA RESULT:    -4.138      1.472      1.971
REMARK INTER + INTRA:          -5.184
REMARK INTER:                  -5.019
REMARK INTRA:                  -0.165
REMARK UNBOUND:                -0.200
REMARK SMILES OCC(O)CO
REMARK SMILES IDX 3 1 5 2 6 3 2 5 1 6 4 8
REMARK H PARENT 6 4 1 7 4 9
REMARK Flexibility Score: inf
ROOT
ATOM      1  C   UNL     1      38.335  34.159  48.765  1.00  0.00     0.165 C 
ENDROOT
BRANCH   1   2
ATOM      2  C   UNL     1      36.828  34.382  48.959  1.00  0.00     0.190 C 
BRANCH   2   3
ATOM      3  O   UNL     1      36.231  34.870  47.787  1.00  0.00    -0.394 OA
ATOM      4  H   UNL     1      36.950  34.936  47.106  1.00  0.00     0.210 HD
ENDBRANCH   2   3
ENDBRANCH   1   2
BRANCH   1   5
ATOM      5  C   UNL     1      38.834  34.828  47.472  1.00  0.00     0.190 C 
BRANCH   5   6
ATOM      6  O   UNL     1      39.149  36.174  47.705  1.00  0.00    -0.394 OA
ATOM      7  H   UNL     1      39.743  36.192  48.501  1.00  0.00     0.210 HD
ENDBRANCH   5   6
ENDBRANCH   1   5
BRANCH   1   8
ATOM      8  O   UNL     1      38.602  32.781  48.732  1.00  0.00    -0.388 OA
ATOM      9  H   UNL     1      38.384  32.423  49.632  1.00  0.00     0.211 HD
ENDBRANCH   1   8
TORSDOF 5
ENDMDL
MODEL 3
REMARK VINA RESULT:    -4.118      1.097      2.564
REMARK INTER + INTRA:          -5.160
REMARK INTER:                  -5.014
REMARK INTRA:                  -0.146
REMARK UNBOUND:                -0.200
REMARK SMILES OCC(O)CO
REMARK SMILES IDX 3 1 5 2 6 3 2 5 1 6 4 8
REMARK H PARENT 6 4 1 7 4 9
REMARK Flexibility Score: inf
ROOT
ATOM      1  C   UNL     1      37.918  34.138  48.516  1.00  0.00     0.165 C 
ENDROOT
BRANCH   1   2
ATOM      2  C   UNL     1      38.821  34.893  47.529  1.00  0.00     0.190 C 
BRANCH   2   3
ATOM      3  O   UNL     1      38.071  35.466  46.490  1.00  0.00    -0.394 OA
ATOM      4  H   UNL     1      37.213  35.766  46.889  1.00  0.00     0.210 HD
ENDBRANCH   2   3
ENDBRANCH   1   2
BRANCH   1   5
ATOM      5  C   UNL     1      37.623  34.990  49.762  1.00  0.00     0.190 C 
BRANCH   5   6
ATOM      6  O   UNL     1      38.182  36.269  49.628  1.00  0.00    -0.394 OA
ATOM      7  H   UNL     1      38.893  36.196  48.939  1.00  0.00     0.210 HD
ENDBRANCH   5   6
ENDBRANCH   1   5
BRANCH   1   8
ATOM      8  O   UNL     1      38.538  32.934  48.887  1.00  0.00    -0.388 OA
ATOM      9  H   UNL     1      38.673  32.969  49.869  1.00  0.00     0.211 HD
ENDBRANCH   1   8
TORSDOF 5
ENDMDL
MODEL 4
REMARK VINA RESULT:    -4.067      1.028      2.848
REMARK INTER + INTRA:          -5.099
REMARK INTER:                  -4.910
REMARK INTRA:                  -0.189
REMARK UNBOUND:                -0.200
REMARK SMILES OCC(O)CO
REMARK SMILES IDX 3 1 5 2 6 3 2 5 1 6 4 8
REMARK H PARENT 6 4 1 7 4 9
REMARK Flexibility Score: inf
ROOT
ATOM      1  C   UNL     1      38.881  35.073  48.258  1.00  0.00     0.165 C 
ENDROOT
BRANCH   1   2
ATOM      2  C   UNL     1      38.792  34.816  46.747  1.00  0.00     0.190 C 
BRANCH   2   3
ATOM      3  O   UNL     1      38.340  35.954  46.063  1.00  0.00    -0.394 OA
ATOM      4  H   UNL     1      38.722  36.740  46.532  1.00  0.00     0.210 HD
ENDBRANCH   2   3
ENDBRANCH   1   2
BRANCH   1   5
ATOM      5  C   UNL     1      37.672  34.471  48.996  1.00  0.00     0.190 C 
BRANCH   5   6
ATOM      6  O   UNL     1      36.510  34.596  48.221  1.00  0.00    -0.394 OA
ATOM      7  H   UNL     1      36.389  33.731  47.749  1.00  0.00     0.210 HD
ENDBRANCH   5   6
ENDBRANCH   1   5
BRANCH   1   8
ATOM      8  O   UNL     1      38.952  36.455  48.492  1.00  0.00    -0.388 OA
ATOM      9  H   UNL     1      38.744  36.905  47.632  1.00  0.00     0.211 HD
ENDBRANCH   1   8
TORSDOF 5
ENDMDL
MODEL 5
REMARK VINA RESULT:    -3.650      1.389      2.264
REMARK INTER + INTRA:          -4.596
REMARK INTER:                  -4.573
REMARK INTRA:                  -0.024
REMARK UNBOUND:                -0.200
REMARK SMILES OCC(O)CO
REMARK SMILES IDX 3 1 5 2 6 3 2 5 1 6 4 8
REMARK H PARENT 6 4 1 7 4 9
REMARK Flexibility Score: inf
ROOT
ATOM      1  C   UNL     1      37.984  35.332  48.508  1.00  0.00     0.165 C 
ENDROOT
BRANCH   1   2
ATOM      2  C   UNL     1      37.664  33.914  49.003  1.00  0.00     0.190 C 
BRANCH   2   3
ATOM      3  O   UNL     1      38.711  33.026  48.712  1.00  0.00    -0.394 OA
ATOM      4  H   UNL     1      39.509  33.581  48.512  1.00  0.00     0.210 HD
ENDBRANCH   2   3
ENDBRANCH   1   2
BRANCH   1   5
ATOM      5  C   UNL     1      39.040  35.306  47.390  1.00  0.00     0.190 C 
BRANCH   5   6
ATOM      6  O   UNL     1      38.493  35.767  46.185  1.00  0.00    -0.394 OA
ATOM      7  H   UNL     1      37.583  36.104  46.397  1.00  0.00     0.210 HD
ENDBRANCH   5   6
ENDBRANCH   1   5
BRANCH   1   8
ATOM      8  O   UNL     1      38.437  36.110  49.585  1.00  0.00    -0.388 OA
ATOM      9  H   UNL     1      39.174  35.604  50.017  1.00  0.00     0.211 HD
ENDBRANCH   1   8
TORSDOF 5
ENDMDL
MODEL 6
REMARK VINA RESULT:    -3.222      1.741      3.062
REMARK INTER + INTRA:          -4.081
REMARK INTER:                  -4.046
REMARK INTRA:                  -0.035
REMARK UNBOUND:                -0.200
REMARK SMILES OCC(O)CO
REMARK SMILES IDX 3 1 5 2 6 3 2 5 1 6 4 8
REMARK H PARENT 6 4 1 7 4 9
REMARK Flexibility Score: inf
ROOT
ATOM      1  C   UNL     1      38.515  35.204  49.125  1.00  0.00     0.165 C 
ENDROOT
BRANCH   1   2
ATOM      2  C   UNL     1      37.896  33.936  48.518  1.00  0.00     0.190 C 
BRANCH   2   3
ATOM      3  O   UNL     1      38.662  32.801  48.823  1.00  0.00    -0.394 OA
ATOM      4  H   UNL     1      39.435  32.801  48.199  1.00  0.00     0.210 HD
ENDBRANCH   2   3
ENDBRANCH   1   2
BRANCH   1   5
ATOM      5  C   UNL     1      37.518  35.918  50.055  1.00  0.00     0.190 C 
BRANCH   5   6
ATOM      6  O   UNL     1      36.660  34.990  50.661  1.00  0.00    -0.394 OA
ATOM      7  H   UNL     1      36.969  34.889  51.600  1.00  0.00     0.210 HD
ENDBRANCH   5   6
ENDBRANCH   1   5
BRANCH   1   8
ATOM      8  O   UNL     1      38.918  36.066  48.093  1.00  0.00    -0.388 OA
ATOM      9  H   UNL     1      39.886  36.240  48.224  1.00  0.00     0.211 HD
ENDBRANCH   1   8
TORSDOF 5
ENDMDL
MODEL 7
REMARK VINA RESULT:    -3.125      1.682      2.237
REMARK INTER + INTRA:          -3.964
REMARK INTER:                  -3.962
REMARK INTRA:                  -0.002
REMARK UNBOUND:                -0.200
REMARK SMILES OCC(O)CO
REMARK SMILES IDX 3 1 5 2 6 3 2 5 1 6 4 8
REMARK H PARENT 6 4 1 7 4 9
REMARK Flexibility Score: inf
ROOT
ATOM      1  C   UNL     1      38.101  34.486  48.566  1.00  0.00     0.165 C 
ENDROOT
BRANCH   1   2
ATOM      2  C   UNL     1      38.912  35.501  47.747  1.00  0.00     0.190 C 
BRANCH   2   3
ATOM      3  O   UNL     1      39.054  36.714  48.437  1.00  0.00    -0.394 OA
ATOM      4  H   UNL     1      38.335  37.315  48.109  1.00  0.00     0.210 HD
ENDBRANCH   2   3
ENDBRANCH   1   2
BRANCH   1   5
ATOM      5  C   UNL     1      38.484  33.042  48.199  1.00  0.00     0.190 C 
BRANCH   5   6
ATOM      6  O   UNL     1      38.866  32.328  49.343  1.00  0.00    -0.394 OA
ATOM      7  H   UNL     1      39.230  31.459  49.028  1.00  0.00     0.210 HD
ENDBRANCH   5   6
ENDBRANCH   1   5
BRANCH   1   8
ATOM      8  O   UNL     1      36.731  34.696  48.344  1.00  0.00    -0.388 OA
ATOM      9  H   UNL     1      36.352  33.831  48.038  1.00  0.00     0.211 HD
ENDBRANCH   1   8
TORSDOF 5
ENDMDL
MODEL 8
REMARK VINA RESULT:    -3.036      1.417      2.225
REMARK INTER + INTRA:          -3.857
REMARK INTER:                  -3.676
REMARK INTRA:                  -0.181
REMARK UNBOUND:                -0.200
REMARK SMILES OCC(O)CO
REMARK SMILES IDX 3 1 5 2 6 3 2 5 1 6 4 8
REMARK H PARENT 6 4 1 7 4 9
REMARK Flexibility Score: inf
ROOT
ATOM      1  C   UNL     1      38.193  35.196  48.636  1.00  0.00     0.165 C 
ENDROOT
BRANCH   1   2
ATOM      2  C   UNL     1      37.874  35.883  49.972  1.00  0.00     0.190 C 
BRANCH   2   3
ATOM      3  O   UNL     1      36.898  35.174  50.688  1.00  0.00    -0.394 OA
ATOM      4  H   UNL     1      36.911  35.527  51.615  1.00  0.00     0.210 HD
ENDBRANCH   2   3
ENDBRANCH   1   2
BRANCH   1   5
ATOM      5  C   UNL     1      37.958  33.677  48.722  1.00  0.00     0.190 C 
BRANCH   5   6
ATOM      6  O   UNL     1      36.587  33.389  48.682  1.00  0.00    -0.394 OA
ATOM      7  H   UNL     1      36.158  33.952  49.378  1.00  0.00     0.210 HD
ENDBRANCH   5   6
ENDBRANCH   1   5
BRANCH   1   8
ATOM      8  O   UNL     1      39.525  35.461  48.282  1.00  0.00    -0.388 OA
ATOM      9  H   UNL     1      39.996  34.588  48.253  1.00  0.00     0.211 HD
ENDBRANCH   1   8
TORSDOF 5
ENDMDL
MODEL 9
REMARK VINA RESULT:    -2.030     16.722     17.684
REMARK INTER + INTRA:          -2.645
REMARK INTER:                  -2.643
REMARK INTRA:                  -0.003
REMARK UNBOUND:                -0.200
REMARK SMILES OCC(O)CO
REMARK SMILES IDX 3 1 5 2 6 3 2 5 1 6 4 8
REMARK H PARENT 6 4 1 7 4 9
REMARK Flexibility Score: inf
ROOT
ATOM      1  C   UNL     1      40.545  34.998  31.664  1.00  0.00     0.165 C 
ENDROOT
BRANCH   1   2
ATOM      2  C   UNL     1      41.280  33.903  30.876  1.00  0.00     0.190 C 
BRANCH   2   3
ATOM      3  O   UNL     1      42.666  34.122  30.875  1.00  0.00    -0.394 OA
ATOM      4  H   UNL     1      43.082  33.324  31.294  1.00  0.00     0.210 HD
ENDBRANCH   2   3
ENDBRANCH   1   2
BRANCH   1   5
ATOM      5  C   UNL     1      40.706  36.371  30.990  1.00  0.00     0.190 C 
BRANCH   5   6
ATOM      6  O   UNL     1      39.612  37.196  31.285  1.00  0.00    -0.394 OA
ATOM      7  H   UNL     1      39.072  36.717  31.968  1.00  0.00     0.210 HD
ENDBRANCH   5   6
ENDBRANCH   1   5
BRANCH   1   8
ATOM      8  O   UNL     1      41.040  35.040  32.977  1.00  0.00    -0.388 OA
ATOM      9  H   UNL     1      40.291  34.788  33.577  1.00  0.00     0.211 HD
ENDBRANCH   1   8
TORSDOF 5
ENDMDL
