MODEL 1
REMARK VINA RESULT:    17.599      0.000      0.000
REMARK INTER + INTRA:          29.075
REMARK INTER:                  26.859
REMARK INTRA:                   2.216
REMARK UNBOUND:                 2.216
REMARK SMILES CC1=CCC[C@H](C)C(=O)C[C@@H](C(C)C)C(=O)C1
REMARK SMILES IDX 8 1 9 2 6 3 7 4 5 5 4 6 3 7 2 8 1 9 10 11 11 12 15 13 16 14
REMARK SMILES IDX 17 15 12 17 13 18 14 19
REMARK H PARENT
REMARK Flexibility Score: 70.00
ROOT
ATOM      1  C   UNL     1      36.507  11.408  40.152  1.00  0.00     0.136 C 
ATOM      2  O   UNL     1      37.098  12.183  39.415  1.00  0.00    -0.299 OA
ENDROOT
BRANCH   1   3
ATOM      3  C   UNL     1      36.092  10.055  39.602  1.00  0.00     0.053 C 
ATOM      4  C   UNL     1      36.141   8.976  40.690  1.00  0.00     0.016 C 
BRANCH   3   5
ATOM      5  C   UNL     1      34.704  10.107  38.935  1.00  0.00     0.015 C 
BRANCH   5   6
ATOM      6  C   UNL     1      33.702   9.123  39.581  1.00  0.00     0.028 C 
BRANCH   6   7
ATOM      7  C   UNL     1      32.871   9.813  40.634  1.00  0.00    -0.028 C 
ATOM      8  C   UNL     1      32.762  11.155  40.794  1.00  0.00    -0.070 CG0
ATOM      9  C   UNL     1      31.941  11.661  41.952  1.00  0.00     0.039 C 
ATOM     10  G   UNL     1      33.400  12.164  39.849  1.00  0.00     0.000 G0
ENDBRANCH   6   7
ENDBRANCH   5   6
ENDBRANCH   3   5
ENDBRANCH   1   3
BRANCH   1  11
ATOM     11  C   UNL     1      36.233  11.835  41.581  1.00  0.00     0.087 C 
BRANCH  11  12
ATOM     12  C   UNL     1      35.131  12.925  41.725  1.00  0.00     0.066 C 
BRANCH  12  13
ATOM     13  C   UNL     1      34.396  13.136  40.406  1.00  0.00     0.140 C 
ATOM     14  O   UNL     1      34.618  14.161  39.777  1.00  0.00    -0.299 OA
BRANCH  13  15
ATOM     15  C   UNL     1      33.376  12.171  39.832  1.00  0.00     0.106 CG0
ATOM     16  G   UNL     1      32.766  11.187  40.821  1.00  0.00     0.000 G0
ENDBRANCH  13  15
ENDBRANCH  12  13
BRANCH  12  17
ATOM     17  C   UNL     1      35.725  14.277  42.235  1.00  0.00    -0.006 C 
ATOM     18  C   UNL     1      36.978  14.070  43.105  1.00  0.00     0.008 C 
ATOM     19  C   UNL     1      34.688  15.079  43.041  1.00  0.00     0.008 C 
ENDBRANCH  12  17
ENDBRANCH  11  12
ENDBRANCH   1  11
TORSDOF 1
ENDMDL
MODEL 2
REMARK VINA RESULT:    18.479      1.408      2.034
REMARK INTER + INTRA:          30.418
REMARK INTER:                  27.822
REMARK INTRA:                   2.596
REMARK UNBOUND:                 2.216
REMARK SMILES CC1=CCC[C@H](C)C(=O)C[C@@H](C(C)C)C(=O)C1
REMARK SMILES IDX 8 1 9 2 6 3 7 4 5 5 4 6 3 7 2 8 1 9 10 11 11 12 15 13 16 14
REMARK SMILES IDX 17 15 12 17 13 18 14 19
REMARK H PARENT
REMARK Flexibility Score: 70.00
ROOT
ATOM      1  C   UNL     1      34.719  12.394  39.805  1.00  0.00     0.136 C 
ATOM      2  O   UNL     1      33.547  12.516  39.479  1.00  0.00    -0.299 OA
ENDROOT
BRANCH   1   3
ATOM      3  C   UNL     1      35.503  11.211  39.266  1.00  0.00     0.053 C 
ATOM      4  C   UNL     1      36.491  10.679  40.311  1.00  0.00     0.016 C 
BRANCH   3   5
ATOM      5  C   UNL     1      34.575  10.090  38.759  1.00  0.00     0.015 C 
BRANCH   5   6
ATOM      6  C   UNL     1      33.881   9.331  39.913  1.00  0.00     0.028 C 
BRANCH   6   7
ATOM      7  C   UNL     1      32.608  10.026  40.328  1.00  0.00    -0.028 C 
ATOM      8  C   UNL     1      32.442  10.745  41.466  1.00  0.00    -0.070 CG0
ATOM      9  C   UNL     1      31.073  11.308  41.749  1.00  0.00     0.039 C 
ATOM     10  G   UNL     1      33.571  11.034  42.445  1.00  0.00     0.000 G0
ENDBRANCH   6   7
ENDBRANCH   5   6
ENDBRANCH   3   5
ENDBRANCH   1   3
BRANCH   1  11
ATOM     11  C   UNL     1      35.330  13.439  40.718  1.00  0.00     0.087 C 
BRANCH  11  12
ATOM     12  C   UNL     1      35.259  13.089  42.232  1.00  0.00     0.066 C 
BRANCH  12  13
ATOM     13  C   UNL     1      33.897  12.503  42.593  1.00  0.00     0.140 C 
ATOM     14  O   UNL     1      33.049  13.252  43.055  1.00  0.00    -0.299 OA
BRANCH  13  15
ATOM     15  C   UNL     1      33.533  11.037  42.450  1.00  0.00     0.106 CG0
ATOM     16  G   UNL     1      32.425  10.725  41.454  1.00  0.00     0.000 G0
ENDBRANCH  13  15
ENDBRANCH  12  13
BRANCH  12  17
ATOM     17  C   UNL     1      35.563  14.335  43.124  1.00  0.00    -0.006 C 
ATOM     18  C   UNL     1      34.954  15.626  42.546  1.00  0.00     0.008 C 
ATOM     19  C   UNL     1      37.078  14.540  43.306  1.00  0.00     0.008 C 
ENDBRANCH  12  17
ENDBRANCH  11  12
ENDBRANCH   1  11
TORSDOF 1
ENDMDL
MODEL 3
REMARK VINA RESULT:    19.554      2.037      4.978
REMARK INTER + INTRA:          32.059
REMARK INTER:                  31.222
REMARK INTRA:                   0.837
REMARK UNBOUND:                 2.216
REMARK SMILES CC1=CCC[C@H](C)C(=O)C[C@@H](C(C)C)C(=O)C1
REMARK SMILES IDX 8 1 9 2 6 3 7 4 5 5 4 6 3 7 2 8 1 9 10 11 11 12 15 13 16 14
REMARK SMILES IDX 17 15 12 17 13 18 14 19
REMARK H PARENT
REMARK Flexibility Score: 70.00
ROOT
ATOM      1  C   UNL     1      35.984  13.378  42.268  1.00  0.00     0.136 C 
ATOM      2  O   UNL     1      36.966  13.514  41.554  1.00  0.00    -0.299 OA
ENDROOT
BRANCH   1   3
ATOM      3  C   UNL     1      35.863  14.244  43.510  1.00  0.00     0.053 C 
ATOM      4  C   UNL     1      36.761  13.723  44.638  1.00  0.00     0.016 C 
BRANCH   3   5
ATOM      5  C   UNL     1      36.157  15.726  43.207  1.00  0.00     0.015 C 
BRANCH   5   6
ATOM      6  C   UNL     1      34.867  16.565  43.059  1.00  0.00     0.028 C 
BRANCH   6   7
ATOM      7  C   UNL     1      34.672  17.009  41.630  1.00  0.00    -0.028 C 
ATOM      8  C   UNL     1      34.175  16.240  40.631  1.00  0.00    -0.070 CG0
ATOM      9  C   UNL     1      34.122  16.835  39.246  1.00  0.00     0.039 C 
ATOM     10  G   UNL     1      33.645  14.830  40.845  1.00  0.00     0.000 G0
ENDBRANCH   6   7
ENDBRANCH   5   6
ENDBRANCH   3   5
ENDBRANCH   1   3
BRANCH   1  11
ATOM     11  C   UNL     1      34.932  12.362  41.868  1.00  0.00     0.087 C 
BRANCH  11  12
ATOM     12  C   UNL     1      34.588  12.359  40.350  1.00  0.00     0.066 C 
BRANCH  12  13
ATOM     13  C   UNL     1      33.981  13.693  39.925  1.00  0.00     0.140 C 
ATOM     14  O   UNL     1      33.799  13.892  38.733  1.00  0.00    -0.299 OA
BRANCH  13  15
ATOM     15  C   UNL     1      33.618  14.810  40.885  1.00  0.00     0.106 CG0
ATOM     16  G   UNL     1      34.211  16.175  40.566  1.00  0.00     0.000 G0
ENDBRANCH  13  15
ENDBRANCH  12  13
BRANCH  12  17
ATOM     17  C   UNL     1      33.623  11.186  39.983  1.00  0.00    -0.006 C 
ATOM     18  C   UNL     1      32.609  10.895  41.104  1.00  0.00     0.008 C 
ATOM     19  C   UNL     1      34.401   9.895  39.670  1.00  0.00     0.008 C 
ENDBRANCH  12  17
ENDBRANCH  11  12
ENDBRANCH   1  11
TORSDOF 1
ENDMDL
MODEL 4
REMARK VINA RESULT:    20.116      1.814      4.868
REMARK INTER + INTRA:          32.916
REMARK INTER:                  32.221
REMARK INTRA:                   0.696
REMARK UNBOUND:                 2.216
REMARK SMILES CC1=CCC[C@H](C)C(=O)C[C@@H](C(C)C)C(=O)C1
REMARK SMILES IDX 8 1 9 2 6 3 7 4 5 5 4 6 3 7 2 8 1 9 10 11 11 12 15 13 16 14
REMARK SMILES IDX 17 15 12 17 13 18 14 19
REMARK H PARENT
REMARK Flexibility Score: 70.00
ROOT
ATOM      1  C   UNL     1      33.099  11.298  39.975  1.00  0.00     0.136 C 
ATOM      2  O   UNL     1      32.813  12.106  39.105  1.00  0.00    -0.299 OA
ENDROOT
BRANCH   1   3
ATOM      3  C   UNL     1      32.887  11.689  41.427  1.00  0.00     0.053 C 
ATOM      4  C   UNL     1      31.754  10.873  42.061  1.00  0.00     0.016 C 
BRANCH   3   5
ATOM      5  C   UNL     1      34.185  11.569  42.250  1.00  0.00     0.015 C 
BRANCH   5   6
ATOM      6  C   UNL     1      34.974  12.897  42.305  1.00  0.00     0.028 C 
BRANCH   6   7
ATOM      7  C   UNL     1      35.282  13.401  40.917  1.00  0.00    -0.028 C 
ATOM      8  C   UNL     1      36.120  12.804  40.034  1.00  0.00    -0.070 CG0
ATOM      9  C   UNL     1      36.362  13.495  38.716  1.00  0.00     0.039 C 
ATOM     10  G   UNL     1      36.797  11.467  40.297  1.00  0.00     0.000 G0
ENDBRANCH   6   7
ENDBRANCH   5   6
ENDBRANCH   3   5
ENDBRANCH   1   3
BRANCH   1  11
ATOM     11  C   UNL     1      33.636   9.942  39.559  1.00  0.00     0.087 C 
BRANCH  11  12
ATOM     12  C   UNL     1      34.947   9.521  40.284  1.00  0.00     0.066 C 
BRANCH  12  13
ATOM     13  C   UNL     1      36.158  10.216  39.670  1.00  0.00     0.140 C 
ATOM     14  O   UNL     1      36.645   9.742  38.654  1.00  0.00    -0.299 OA
BRANCH  13  15
ATOM     15  C   UNL     1      36.825  11.446  40.258  1.00  0.00     0.106 CG0
ATOM     16  G   UNL     1      36.105  12.766  40.023  1.00  0.00     0.000 G0
ENDBRANCH  13  15
ENDBRANCH  12  13
BRANCH  12  17
ATOM     17  C   UNL     1      35.144   7.971  40.258  1.00  0.00    -0.006 C 
ATOM     18  C   UNL     1      33.811   7.219  40.095  1.00  0.00     0.008 C 
ATOM     19  C   UNL     1      35.843   7.472  41.535  1.00  0.00     0.008 C 
ENDBRANCH  12  17
ENDBRANCH  11  12
ENDBRANCH   1  11
TORSDOF 1
ENDMDL
MODEL 5
REMARK VINA RESULT:    20.583      1.596      2.299
REMARK INTER + INTRA:          33.628
REMARK INTER:                  29.117
REMARK INTRA:                   4.511
REMARK UNBOUND:                 2.216
REMARK SMILES CC1=CCC[C@H](C)C(=O)C[C@@H](C(C)C)C(=O)C1
REMARK SMILES IDX 8 1 9 2 6 3 7 4 5 5 4 6 3 7 2 8 1 9 10 11 11 12 15 13 16 14
REMARK SMILES IDX 17 15 12 17 13 18 14 19
REMARK H PARENT
REMARK Flexibility Score: 70.00
ROOT
ATOM      1  C   UNL     1      33.758  11.065  41.955  1.00  0.00     0.136 C 
ATOM      2  O   UNL     1      32.693  10.882  42.524  1.00  0.00    -0.299 OA
ENDROOT
BRANCH   1   3
ATOM      3  C   UNL     1      34.049  10.279  40.688  1.00  0.00     0.053 C 
ATOM      4  C   UNL     1      35.104   9.195  40.938  1.00  0.00     0.016 C 
BRANCH   3   5
ATOM      5  C   UNL     1      32.768   9.676  40.080  1.00  0.00     0.015 C 
BRANCH   5   6
ATOM      6  C   UNL     1      32.657   9.934  38.560  1.00  0.00     0.028 C 
BRANCH   6   7
ATOM      7  C   UNL     1      32.277  11.367  38.282  1.00  0.00    -0.028 C 
ATOM      8  C   UNL     1      32.904  12.458  38.786  1.00  0.00    -0.070 CG0
ATOM      9  C   UNL     1      32.335  13.814  38.454  1.00  0.00     0.039 C 
ATOM     10  G   UNL     1      34.163  12.379  39.638  1.00  0.00     0.000 G0
ENDBRANCH   6   7
ENDBRANCH   5   6
ENDBRANCH   3   5
ENDBRANCH   1   3
BRANCH   1  11
ATOM     11  C   UNL     1      34.727  12.076  42.536  1.00  0.00     0.087 C 
BRANCH  11  12
ATOM     12  C   UNL     1      34.518  13.531  42.024  1.00  0.00     0.066 C 
BRANCH  12  13
ATOM     13  C   UNL     1      34.452  13.570  40.501  1.00  0.00     0.140 C 
ATOM     14  O   UNL     1      34.591  14.649  39.942  1.00  0.00    -0.299 OA
BRANCH  13  15
ATOM     15  C   UNL     1      34.190  12.358  39.626  1.00  0.00     0.106 CG0
ATOM     16  G   UNL     1      32.980  12.454  38.709  1.00  0.00     0.000 G0
ENDBRANCH  13  15
ENDBRANCH  12  13
BRANCH  12  17
ATOM     17  C   UNL     1      35.641  14.487  42.540  1.00  0.00    -0.006 C 
ATOM     18  C   UNL     1      36.721  13.736  43.340  1.00  0.00     0.008 C 
ATOM     19  C   UNL     1      35.063  15.610  43.421  1.00  0.00     0.008 C 
ENDBRANCH  12  17
ENDBRANCH  11  12
ENDBRANCH   1  11
TORSDOF 1
ENDMDL
