MODEL 1
REMARK VINA RESULT:    -6.909      0.000      0.000
REMARK INTER + INTRA:         -10.512
REMARK INTER:                  -9.534
REMARK INTRA:                  -0.978
REMARK UNBOUND:                -0.978
REMARK SMILES C=C(CC[C@@H](C(=O)[O-])[C@@H]1CC[C@@]2(C)C3=C(CC[C@]12C)[C@]1(C)CC[C@H](O)C(C)(C)[C@H]1CC3)C(C)C
REMARK SMILES IDX 4 1 5 2 6 3 7 4 8 5 9 6 10 7 18 8 11 9 12 10 17 11 19 12
REMARK SMILES IDX 13 13 14 14 16 15 15 16 31 17 20 18 30 19 29 20 22 21 21 22
REMARK SMILES IDX 26 23 23 24 24 25 27 26 28 27 25 28 3 30 2 31 1 32 32 33
REMARK SMILES IDX 33 34 34 35
REMARK H PARENT 25 29
REMARK Flexibility Score: inf
ROOT
ATOM      1  C   UNL     1      18.656 -14.501   6.771  1.00  0.00     0.014 C 
ENDROOT
BRANCH   1   2
ATOM      2  C   UNL     1      19.840 -14.998   5.891  1.00  0.00     0.039 C 
BRANCH   2   3
ATOM      3  C   UNL     1      19.380 -16.231   5.145  1.00  0.00     0.045 C 
ATOM      4  O   UNL     1      19.974 -17.332   5.292  1.00  0.00    -0.550 OA
ATOM      5  O   UNL     1      18.369 -16.137   4.198  1.00  0.00    -0.550 OA
ENDBRANCH   2   3
BRANCH   2   6
ATOM      6  C   UNL     1      20.443 -13.853   4.997  1.00  0.00     0.004 C 
ATOM      7  C   UNL     1      21.420 -14.290   3.875  1.00  0.00     0.006 C 
ATOM      8  C   UNL     1      21.134 -12.616   5.682  1.00  0.00    -0.020 C 
ATOM      9  C   UNL     1      22.581 -13.279   3.875  1.00  0.00     0.012 C 
ATOM     10  C   UNL     1      22.642 -12.758   5.319  1.00  0.00    -0.006 C 
ATOM     11  C   UNL     1      21.036 -12.443   7.209  1.00  0.00     0.012 C 
ATOM     12  C   UNL     1      20.486 -11.336   5.033  1.00  0.00     0.012 C 
ATOM     13  C   UNL     1      23.459 -13.803   6.141  1.00  0.00     0.017 C 
ATOM     14  C   UNL     1      23.340 -11.435   5.586  1.00  0.00    -0.064 C 
ATOM     15  C   UNL     1      21.940 -11.277   7.711  1.00  0.00     0.032 C 
ATOM     16  C   UNL     1      23.068 -10.780   6.767  1.00  0.00    -0.064 C 
ATOM     17  C   UNL     1      24.308 -10.898   4.545  1.00  0.00     0.032 C 
ATOM     18  C   UNL     1      23.988  -9.632   7.248  1.00  0.00    -0.008 C 
ATOM     19  C   UNL     1      25.266  -9.819   5.055  1.00  0.00     0.009 C 
ATOM     20  C   UNL     1      24.523  -8.851   5.994  1.00  0.00     0.007 C 
ATOM     21  C   UNL     1      23.205  -8.636   8.150  1.00  0.00     0.014 C 
ATOM     22  C   UNL     1      25.096 -10.327   8.087  1.00  0.00     0.016 C 
ATOM     23  C   UNL     1      25.268  -7.475   6.257  1.00  0.00    -0.006 C 
ATOM     24  C   UNL     1      24.015  -7.387   8.509  1.00  0.00     0.033 C 
ATOM     25  C   UNL     1      24.432  -6.606   7.253  1.00  0.00     0.120 C 
ATOM     26  C   UNL     1      25.381  -6.687   4.919  1.00  0.00     0.014 C 
ATOM     27  C   UNL     1      26.721  -7.632   6.791  1.00  0.00     0.014 C 
BRANCH  25  28
ATOM     28  O   UNL     1      23.277  -6.109   6.618  1.00  0.00    -0.393 OA
ATOM     29  H   UNL     1      22.529  -6.714   6.857  1.00  0.00     0.210 HD
ENDBRANCH  25  28
ENDBRANCH   2   6
ENDBRANCH   1   2
BRANCH   1  30
ATOM     30  C   UNL     1      18.734 -14.843   8.275  1.00  0.00     0.031 C 
BRANCH  30  31
ATOM     31  C   UNL     1      18.420 -13.678   9.195  1.00  0.00    -0.075 C 
ATOM     32  C   UNL     1      17.603 -12.694   8.774  1.00  0.00     0.008 C 
BRANCH  31  33
ATOM     33  C   UNL     1      19.120 -13.579  10.546  1.00  0.00     0.008 C 
ATOM     34  C   UNL     1      18.936 -14.855  11.374  1.00  0.00     0.012 C 
ATOM     35  C   UNL     1      18.645 -12.346  11.326  1.00  0.00     0.012 C 
ENDBRANCH  31  33
ENDBRANCH  30  31
ENDBRANCH   1  30
TORSDOF 7
ENDMDL
MODEL 2
REMARK VINA RESULT:    -6.540      1.393      2.019
REMARK INTER + INTRA:         -10.003
REMARK INTER:                  -8.521
REMARK INTRA:                  -1.482
REMARK UNBOUND:                -0.978
REMARK SMILES C=C(CC[C@@H](C(=O)[O-])[C@@H]1CC[C@@]2(C)C3=C(CC[C@]12C)[C@]1(C)CC[C@H](O)C(C)(C)[C@H]1CC3)C(C)C
REMARK SMILES IDX 4 1 5 2 6 3 7 4 8 5 9 6 10 7 18 8 11 9 12 10 17 11 19 12
REMARK SMILES IDX 13 13 14 14 16 15 15 16 31 17 20 18 30 19 29 20 22 21 21 22
REMARK SMILES IDX 26 23 23 24 24 25 27 26 28 27 25 28 3 30 2 31 1 32 32 33
REMARK SMILES IDX 33 34 34 35
REMARK H PARENT 25 29
REMARK Flexibility Score: inf
ROOT
ATOM      1  C   UNL     1      18.613 -16.123   7.072  1.00  0.00     0.014 C 
ENDROOT
BRANCH   1   2
ATOM      2  C   UNL     1      19.642 -15.546   6.057  1.00  0.00     0.039 C 
BRANCH   2   3
ATOM      3  C   UNL     1      19.626 -16.428   4.828  1.00  0.00     0.045 C 
ATOM      4  O   UNL     1      20.699 -16.741   4.246  1.00  0.00    -0.550 OA
ATOM      5  O   UNL     1      18.419 -16.805   4.255  1.00  0.00    -0.550 OA
ENDBRANCH   2   3
BRANCH   2   6
ATOM      6  C   UNL     1      19.424 -14.011   5.790  1.00  0.00     0.004 C 
ATOM      7  C   UNL     1      18.915 -13.617   4.379  1.00  0.00     0.006 C 
ATOM      8  C   UNL     1      20.586 -12.997   6.103  1.00  0.00    -0.020 C 
ATOM      9  C   UNL     1      19.708 -12.370   3.950  1.00  0.00     0.012 C 
ATOM     10  C   UNL     1      21.041 -12.477   4.707  1.00  0.00    -0.006 C 
ATOM     11  C   UNL     1      21.840 -13.488   6.849  1.00  0.00     0.012 C 
ATOM     12  C   UNL     1      19.948 -11.856   6.982  1.00  0.00     0.012 C 
ATOM     13  C   UNL     1      21.955 -13.430   3.875  1.00  0.00     0.017 C 
ATOM     14  C   UNL     1      21.874 -11.220   4.896  1.00  0.00    -0.064 C 
ATOM     15  C   UNL     1      22.947 -12.392   6.890  1.00  0.00     0.032 C 
ATOM     16  C   UNL     1      22.840 -11.219   5.878  1.00  0.00    -0.064 C 
ATOM     17  C   UNL     1      21.610 -10.028   3.992  1.00  0.00     0.032 C 
ATOM     18  C   UNL     1      23.933 -10.125   5.890  1.00  0.00    -0.008 C 
ATOM     19  C   UNL     1      22.735  -8.992   3.952  1.00  0.00     0.009 C 
ATOM     20  C   UNL     1      23.313  -8.780   5.364  1.00  0.00     0.007 C 
ATOM     21  C   UNL     1      24.464  -9.888   7.332  1.00  0.00     0.014 C 
ATOM     22  C   UNL     1      25.078 -10.688   5.004  1.00  0.00     0.016 C 
ATOM     23  C   UNL     1      24.177  -7.461   5.539  1.00  0.00    -0.006 C 
ATOM     24  C   UNL     1      25.419  -8.695   7.433  1.00  0.00     0.033 C 
ATOM     25  C   UNL     1      24.735  -7.389   6.998  1.00  0.00     0.120 C 
ATOM     26  C   UNL     1      23.267  -6.217   5.317  1.00  0.00     0.014 C 
ATOM     27  C   UNL     1      25.347  -7.329   4.523  1.00  0.00     0.014 C 
BRANCH  25  28
ATOM     28  O   UNL     1      23.698  -7.091   7.904  1.00  0.00    -0.393 OA
ATOM     29  H   UNL     1      23.490  -6.126   7.805  1.00  0.00     0.210 HD
ENDBRANCH  25  28
ENDBRANCH   2   6
ENDBRANCH   1   2
BRANCH   1  30
ATOM     30  C   UNL     1      18.015 -15.119   8.082  1.00  0.00     0.031 C 
BRANCH  30  31
ATOM     31  C   UNL     1      18.799 -14.995   9.376  1.00  0.00    -0.075 C 
ATOM     32  C   UNL     1      19.426 -13.840   9.669  1.00  0.00     0.008 C 
BRANCH  31  33
ATOM     33  C   UNL     1      18.960 -16.215  10.276  1.00  0.00     0.008 C 
ATOM     34  C   UNL     1      17.617 -16.904  10.541  1.00  0.00     0.012 C 
ATOM     35  C   UNL     1      19.653 -15.842  11.593  1.00  0.00     0.012 C 
ENDBRANCH  31  33
ENDBRANCH  30  31
ENDBRANCH   1  30
TORSDOF 7
ENDMDL
MODEL 3
REMARK VINA RESULT:    -6.172     12.313     15.627
REMARK INTER + INTRA:          -9.494
REMARK INTER:                  -9.302
REMARK INTRA:                  -0.193
REMARK UNBOUND:                -0.978
REMARK SMILES C=C(CC[C@@H](C(=O)[O-])[C@@H]1CC[C@@]2(C)C3=C(CC[C@]12C)[C@]1(C)CC[C@H](O)C(C)(C)[C@H]1CC3)C(C)C
REMARK SMILES IDX 4 1 5 2 6 3 7 4 8 5 9 6 10 7 18 8 11 9 12 10 17 11 19 12
REMARK SMILES IDX 13 13 14 14 16 15 15 16 31 17 20 18 30 19 29 20 22 21 21 22
REMARK SMILES IDX 26 23 23 24 24 25 27 26 28 27 25 28 3 30 2 31 1 32 32 33
REMARK SMILES IDX 33 34 34 35
REMARK H PARENT 25 29
REMARK Flexibility Score: inf
ROOT
ATOM      1  C   UNL     1      16.337  -5.892  16.884  1.00  0.00     0.014 C 
ENDROOT
BRANCH   1   2
ATOM      2  C   UNL     1      15.073  -4.994  17.018  1.00  0.00     0.039 C 
BRANCH   2   3
ATOM      3  C   UNL     1      13.942  -5.858  17.529  1.00  0.00     0.045 C 
ATOM      4  O   UNL     1      13.141  -6.411  16.729  1.00  0.00    -0.550 OA
ATOM      5  O   UNL     1      13.699  -5.957  18.893  1.00  0.00    -0.550 OA
ENDBRANCH   2   3
BRANCH   2   6
ATOM      6  C   UNL     1      15.353  -3.688  17.848  1.00  0.00     0.004 C 
ATOM      7  C   UNL     1      15.357  -2.352  17.060  1.00  0.00     0.006 C 
ATOM      8  C   UNL     1      16.620  -3.616  18.778  1.00  0.00    -0.020 C 
ATOM      9  C   UNL     1      16.539  -1.522  17.591  1.00  0.00     0.012 C 
ATOM     10  C   UNL     1      17.547  -2.564  18.100  1.00  0.00    -0.006 C 
ATOM     11  C   UNL     1      17.455  -4.887  19.020  1.00  0.00     0.012 C 
ATOM     12  C   UNL     1      16.105  -3.132  20.186  1.00  0.00     0.012 C 
ATOM     13  C   UNL     1      18.357  -3.051  16.857  1.00  0.00     0.017 C 
ATOM     14  C   UNL     1      18.608  -2.125  19.096  1.00  0.00    -0.064 C 
ATOM     15  C   UNL     1      18.765  -4.570  19.803  1.00  0.00     0.032 C 
ATOM     16  C   UNL     1      19.246  -3.093  19.839  1.00  0.00    -0.064 C 
ATOM     17  C   UNL     1      18.920  -0.643  19.223  1.00  0.00     0.032 C 
ATOM     18  C   UNL     1      20.550  -2.755  20.599  1.00  0.00    -0.008 C 
ATOM     19  C   UNL     1      20.251  -0.324  19.905  1.00  0.00     0.009 C 
ATOM     20  C   UNL     1      20.474  -1.268  21.102  1.00  0.00     0.007 C 
ATOM     21  C   UNL     1      20.728  -3.683  21.834  1.00  0.00     0.014 C 
ATOM     22  C   UNL     1      21.692  -3.026  19.581  1.00  0.00     0.016 C 
ATOM     23  C   UNL     1      21.583  -0.790  22.131  1.00  0.00    -0.006 C 
ATOM     24  C   UNL     1      21.907  -3.278  22.724  1.00  0.00     0.033 C 
ATOM     25  C   UNL     1      21.738  -1.851  23.269  1.00  0.00     0.120 C 
ATOM     26  C   UNL     1      21.132   0.548  22.788  1.00  0.00     0.014 C 
ATOM     27  C   UNL     1      22.970  -0.509  21.484  1.00  0.00     0.014 C 
BRANCH  25  28
ATOM     28  O   UNL     1      20.619  -1.817  24.125  1.00  0.00    -0.393 OA
ATOM     29  H   UNL     1      20.696  -0.995  24.674  1.00  0.00     0.210 HD
ENDBRANCH  25  28
ENDBRANCH   2   6
ENDBRANCH   1   2
BRANCH   1  30
ATOM     30  C   UNL     1      16.879  -6.097  15.452  1.00  0.00     0.031 C 
BRANCH  30  31
ATOM     31  C   UNL     1      16.489  -7.421  14.822  1.00  0.00    -0.075 C 
ATOM     32  C   UNL     1      15.221  -7.619  14.413  1.00  0.00     0.008 C 
BRANCH  31  33
ATOM     33  C   UNL     1      17.509  -8.551  14.758  1.00  0.00     0.008 C 
ATOM     34  C   UNL     1      18.940  -8.017  14.636  1.00  0.00     0.012 C 
ATOM     35  C   UNL     1      17.188  -9.522  13.613  1.00  0.00     0.012 C 
ENDBRANCH  31  33
ENDBRANCH  30  31
ENDBRANCH   1  30
TORSDOF 7
ENDMDL
MODEL 4
REMARK VINA RESULT:    -5.517     11.867     15.233
REMARK INTER + INTRA:          -8.591
REMARK INTER:                  -9.590
REMARK INTRA:                   0.999
REMARK UNBOUND:                -0.978
REMARK SMILES C=C(CC[C@@H](C(=O)[O-])[C@@H]1CC[C@@]2(C)C3=C(CC[C@]12C)[C@]1(C)CC[C@H](O)C(C)(C)[C@H]1CC3)C(C)C
REMARK SMILES IDX 4 1 5 2 6 3 7 4 8 5 9 6 10 7 18 8 11 9 12 10 17 11 19 12
REMARK SMILES IDX 13 13 14 14 16 15 15 16 31 17 20 18 30 19 29 20 22 21 21 22
REMARK SMILES IDX 26 23 23 24 24 25 27 26 28 27 25 28 3 30 2 31 1 32 32 33
REMARK SMILES IDX 33 34 34 35
REMARK H PARENT 25 29
REMARK Flexibility Score: inf
ROOT
ATOM      1  C   UNL     1      17.799  -6.467  15.873  1.00  0.00     0.014 C 
ENDROOT
BRANCH   1   2
ATOM      2  C   UNL     1      16.498  -5.636  16.074  1.00  0.00     0.039 C 
BRANCH   2   3
ATOM      3  C   UNL     1      15.338  -6.454  15.551  1.00  0.00     0.045 C 
ATOM      4  O   UNL     1      15.364  -6.940  14.389  1.00  0.00    -0.550 OA
ATOM      5  O   UNL     1      14.178  -6.580  16.304  1.00  0.00    -0.550 OA
ENDBRANCH   2   3
BRANCH   2   6
ATOM      6  C   UNL     1      16.345  -5.111  17.548  1.00  0.00     0.004 C 
ATOM      7  C   UNL     1      15.202  -4.096  17.809  1.00  0.00     0.006 C 
ATOM      8  C   UNL     1      17.597  -4.516  18.294  1.00  0.00    -0.020 C 
ATOM      9  C   UNL     1      15.771  -3.011  18.741  1.00  0.00     0.012 C 
ATOM     10  C   UNL     1      17.279  -2.999  18.447  1.00  0.00    -0.006 C 
ATOM     11  C   UNL     1      18.990  -4.638  17.651  1.00  0.00     0.012 C 
ATOM     12  C   UNL     1      17.669  -5.250  19.686  1.00  0.00     0.012 C 
ATOM     13  C   UNL     1      17.483  -2.115  17.177  1.00  0.00     0.017 C 
ATOM     14  C   UNL     1      18.217  -2.400  19.482  1.00  0.00    -0.064 C 
ATOM     15  C   UNL     1      20.058  -3.824  18.442  1.00  0.00     0.032 C 
ATOM     16  C   UNL     1      19.553  -2.727  19.419  1.00  0.00    -0.064 C 
ATOM     17  C   UNL     1      17.641  -1.466  20.534  1.00  0.00     0.032 C 
ATOM     18  C   UNL     1      20.594  -1.897  20.206  1.00  0.00    -0.008 C 
ATOM     19  C   UNL     1      18.674  -0.592  21.250  1.00  0.00     0.009 C 
ATOM     20  C   UNL     1      19.943  -1.410  21.552  1.00  0.00     0.007 C 
ATOM     21  C   UNL     1      21.844  -2.757  20.549  1.00  0.00     0.014 C 
ATOM     22  C   UNL     1      21.006  -0.748  19.245  1.00  0.00     0.016 C 
ATOM     23  C   UNL     1      20.907  -0.768  22.637  1.00  0.00    -0.006 C 
ATOM     24  C   UNL     1      22.828  -2.042  21.480  1.00  0.00     0.033 C 
ATOM     25  C   UNL     1      22.169  -1.672  22.819  1.00  0.00     0.120 C 
ATOM     26  C   UNL     1      20.168  -0.703  24.006  1.00  0.00     0.014 C 
ATOM     27  C   UNL     1      21.347   0.688  22.313  1.00  0.00     0.014 C 
BRANCH  25  28
ATOM     28  O   UNL     1      21.829  -2.856  23.504  1.00  0.00    -0.393 OA
ATOM     29  H   UNL     1      20.961  -2.694  23.954  1.00  0.00     0.210 HD
ENDBRANCH  25  28
ENDBRANCH   2   6
ENDBRANCH   1   2
BRANCH   1  30
ATOM     30  C   UNL     1      17.647  -7.795  15.100  1.00  0.00     0.031 C 
BRANCH  30  31
ATOM     31  C   UNL     1      18.947  -8.346  14.545  1.00  0.00    -0.075 C 
ATOM     32  C   UNL     1      20.114  -8.034  15.141  1.00  0.00     0.008 C 
BRANCH  31  33
ATOM     33  C   UNL     1      18.929  -9.157  13.254  1.00  0.00     0.008 C 
ATOM     34  C   UNL     1      17.627  -9.949  13.102  1.00  0.00     0.012 C 
ATOM     35  C   UNL     1      20.148 -10.085  13.167  1.00  0.00     0.012 C 
ENDBRANCH  31  33
ENDBRANCH  30  31
ENDBRANCH   1  30
TORSDOF 7
ENDMDL
MODEL 5
REMARK VINA RESULT:    -5.376      2.058      7.733
REMARK INTER + INTRA:          -8.397
REMARK INTER:                  -6.804
REMARK INTRA:                  -1.592
REMARK UNBOUND:                -0.978
REMARK SMILES C=C(CC[C@@H](C(=O)[O-])[C@@H]1CC[C@@]2(C)C3=C(CC[C@]12C)[C@]1(C)CC[C@H](O)C(C)(C)[C@H]1CC3)C(C)C
REMARK SMILES IDX 4 1 5 2 6 3 7 4 8 5 9 6 10 7 18 8 11 9 12 10 17 11 19 12
REMARK SMILES IDX 13 13 14 14 16 15 15 16 31 17 20 18 30 19 29 20 22 21 21 22
REMARK SMILES IDX 26 23 23 24 24 25 27 26 28 27 25 28 3 30 2 31 1 32 32 33
REMARK SMILES IDX 33 34 34 35
REMARK H PARENT 25 29
REMARK Flexibility Score: inf
ROOT
ATOM      1  C   UNL     1      26.614  -8.607   7.570  1.00  0.00     0.014 C 
ENDROOT
BRANCH   1   2
ATOM      2  C   UNL     1      25.649  -8.899   6.383  1.00  0.00     0.039 C 
BRANCH   2   3
ATOM      3  C   UNL     1      26.161  -8.151   5.173  1.00  0.00     0.045 C 
ATOM      4  O   UNL     1      25.361  -7.619   4.359  1.00  0.00    -0.550 OA
ATOM      5  O   UNL     1      27.518  -8.144   4.879  1.00  0.00    -0.550 OA
ENDBRANCH   2   3
BRANCH   2   6
ATOM      6  C   UNL     1      25.408 -10.439   6.174  1.00  0.00     0.004 C 
ATOM      7  C   UNL     1      25.974 -11.059   4.870  1.00  0.00     0.006 C 
ATOM      8  C   UNL     1      23.952 -11.021   6.304  1.00  0.00    -0.020 C 
ATOM      9  C   UNL     1      24.902 -12.024   4.331  1.00  0.00     0.012 C 
ATOM     10  C   UNL     1      23.573 -11.460   4.858  1.00  0.00    -0.006 C 
ATOM     11  C   UNL     1      22.819 -10.119   6.828  1.00  0.00     0.012 C 
ATOM     12  C   UNL     1      24.055 -12.247   7.288  1.00  0.00     0.012 C 
ATOM     13  C   UNL     1      23.145 -10.325   3.877  1.00  0.00     0.017 C 
ATOM     14  C   UNL     1      22.366 -12.382   4.922  1.00  0.00    -0.064 C 
ATOM     15  C   UNL     1      21.429 -10.813   6.700  1.00  0.00     0.032 C 
ATOM     16  C   UNL     1      21.313 -12.023   5.733  1.00  0.00    -0.064 C 
ATOM     17  C   UNL     1      22.374 -13.652   4.088  1.00  0.00     0.032 C 
ATOM     18  C   UNL     1      19.941 -12.720   5.578  1.00  0.00    -0.008 C 
ATOM     19  C   UNL     1      20.999 -14.289   3.875  1.00  0.00     0.009 C 
ATOM     20  C   UNL     1      20.177 -14.221   5.176  1.00  0.00     0.007 C 
ATOM     21  C   UNL     1      19.150 -12.690   6.916  1.00  0.00     0.014 C 
ATOM     22  C   UNL     1      19.181 -11.886   4.510  1.00  0.00     0.016 C 
ATOM     23  C   UNL     1      18.923 -15.193   5.222  1.00  0.00    -0.006 C 
ATOM     24  C   UNL     1      17.863 -13.519   6.872  1.00  0.00     0.033 C 
ATOM     25  C   UNL     1      18.156 -14.998   6.570  1.00  0.00     0.120 C 
ATOM     26  C   UNL     1      19.415 -16.670   5.166  1.00  0.00     0.014 C 
ATOM     27  C   UNL     1      17.940 -15.019   4.030  1.00  0.00     0.014 C 
BRANCH  25  28
ATOM     28  O   UNL     1      18.895 -15.545   7.638  1.00  0.00    -0.393 OA
ATOM     29  H   UNL     1      18.246 -15.973   8.253  1.00  0.00     0.210 HD
ENDBRANCH  25  28
ENDBRANCH   2   6
ENDBRANCH   1   2
BRANCH   1  30
ATOM     30  C   UNL     1      26.182  -9.150   8.949  1.00  0.00     0.031 C 
BRANCH  30  31
ATOM     31  C   UNL     1      25.733  -8.081   9.928  1.00  0.00    -0.075 C 
ATOM     32  C   UNL     1      26.638  -7.234  10.454  1.00  0.00     0.008 C 
BRANCH  31  33
ATOM     33  C   UNL     1      24.280  -8.047  10.388  1.00  0.00     0.008 C 
ATOM     34  C   UNL     1      23.794  -9.430  10.831  1.00  0.00     0.012 C 
ATOM     35  C   UNL     1      23.368  -7.469   9.298  1.00  0.00     0.012 C 
ENDBRANCH  31  33
ENDBRANCH  30  31
ENDBRANCH   1  30
TORSDOF 7
ENDMDL
MODEL 6
REMARK VINA RESULT:    -5.243      7.039     13.223
REMARK INTER + INTRA:          -8.214
REMARK INTER:                  -7.287
REMARK INTRA:                  -0.926
REMARK UNBOUND:                -0.978
REMARK SMILES C=C(CC[C@@H](C(=O)[O-])[C@@H]1CC[C@@]2(C)C3=C(CC[C@]12C)[C@]1(C)CC[C@H](O)C(C)(C)[C@H]1CC3)C(C)C
REMARK SMILES IDX 4 1 5 2 6 3 7 4 8 5 9 6 10 7 18 8 11 9 12 10 17 11 19 12
REMARK SMILES IDX 13 13 14 14 16 15 15 16 31 17 20 18 30 19 29 20 22 21 21 22
REMARK SMILES IDX 26 23 23 24 24 25 27 26 28 27 25 28 3 30 2 31 1 32 32 33
REMARK SMILES IDX 33 34 34 35
REMARK H PARENT 25 29
REMARK Flexibility Score: inf
ROOT
ATOM      1  C   UNL     1      18.287 -16.237  11.743  1.00  0.00     0.014 C 
ENDROOT
BRANCH   1   2
ATOM      2  C   UNL     1      17.235 -17.108  10.995  1.00  0.00     0.039 C 
BRANCH   2   3
ATOM      3  C   UNL     1      17.951 -17.853   9.890  1.00  0.00     0.045 C 
ATOM      4  O   UNL     1      17.737 -17.573   8.681  1.00  0.00    -0.550 OA
ATOM      5  O   UNL     1      18.764 -18.938  10.192  1.00  0.00    -0.550 OA
ENDBRANCH   2   3
BRANCH   2   6
ATOM      6  C   UNL     1      16.392 -18.002  11.977  1.00  0.00     0.004 C 
ATOM      7  C   UNL     1      15.538 -19.125  11.333  1.00  0.00     0.006 C 
ATOM      8  C   UNL     1      15.441 -17.317  13.026  1.00  0.00    -0.020 C 
ATOM      9  C   UNL     1      14.180 -19.125  12.058  1.00  0.00     0.012 C 
ATOM     10  C   UNL     1      14.003 -17.681  12.551  1.00  0.00    -0.006 C 
ATOM     11  C   UNL     1      15.497 -15.790  13.216  1.00  0.00     0.012 C 
ATOM     12  C   UNL     1      15.787 -17.964  14.420  1.00  0.00     0.012 C 
ATOM     13  C   UNL     1      13.441 -16.860  11.349  1.00  0.00     0.017 C 
ATOM     14  C   UNL     1      13.026 -17.413  13.684  1.00  0.00    -0.064 C 
ATOM     15  C   UNL     1      14.355 -15.287  14.149  1.00  0.00     0.032 C 
ATOM     16  C   UNL     1      13.144 -16.232  14.382  1.00  0.00    -0.064 C 
ATOM     17  C   UNL     1      11.963 -18.455  13.991  1.00  0.00     0.032 C 
ATOM     18  C   UNL     1      11.991 -15.750  15.294  1.00  0.00    -0.008 C 
ATOM     19  C   UNL     1      10.788 -17.944  14.827  1.00  0.00     0.009 C 
ATOM     20  C   UNL     1      11.295 -17.004  15.937  1.00  0.00     0.007 C 
ATOM     21  C   UNL     1      12.530 -14.848  16.439  1.00  0.00     0.014 C 
ATOM     22  C   UNL     1      11.066 -14.912  14.368  1.00  0.00     0.016 C 
ATOM     23  C   UNL     1      10.260 -16.740  17.110  1.00  0.00    -0.006 C 
ATOM     24  C   UNL     1      11.461 -14.488  17.475  1.00  0.00     0.033 C 
ATOM     25  C   UNL     1      10.879 -15.744  18.144  1.00  0.00     0.120 C 
ATOM     26  C   UNL     1       9.974 -18.078  17.855  1.00  0.00     0.014 C 
ATOM     27  C   UNL     1       8.879 -16.208  16.632  1.00  0.00     0.014 C 
BRANCH  25  28
ATOM     28  O   UNL     1      11.894 -16.378  18.888  1.00  0.00    -0.393 OA
ATOM     29  H   UNL     1      11.969 -17.307  18.548  1.00  0.00     0.210 HD
ENDBRANCH  25  28
ENDBRANCH   2   6
ENDBRANCH   1   2
BRANCH   1  30
ATOM     30  C   UNL     1      19.212 -15.375  10.856  1.00  0.00     0.031 C 
BRANCH  30  31
ATOM     31  C   UNL     1      18.588 -14.075  10.383  1.00  0.00    -0.075 C 
ATOM     32  C   UNL     1      18.440 -13.052  11.246  1.00  0.00     0.008 C 
BRANCH  31  33
ATOM     33  C   UNL     1      18.036 -13.980   8.965  1.00  0.00     0.008 C 
ATOM     34  C   UNL     1      19.080 -14.394   7.923  1.00  0.00     0.012 C 
ATOM     35  C   UNL     1      17.499 -12.572   8.675  1.00  0.00     0.012 C 
ENDBRANCH  31  33
ENDBRANCH  30  31
ENDBRANCH   1  30
TORSDOF 7
ENDMDL
MODEL 7
REMARK VINA RESULT:    -4.500      3.709      7.438
REMARK INTER + INTRA:          -7.187
REMARK INTER:                  -6.706
REMARK INTRA:                  -0.481
REMARK UNBOUND:                -0.978
REMARK SMILES C=C(CC[C@@H](C(=O)[O-])[C@@H]1CC[C@@]2(C)C3=C(CC[C@]12C)[C@]1(C)CC[C@H](O)C(C)(C)[C@H]1CC3)C(C)C
REMARK SMILES IDX 4 1 5 2 6 3 7 4 8 5 9 6 10 7 18 8 11 9 12 10 17 11 19 12
REMARK SMILES IDX 13 13 14 14 16 15 15 16 31 17 20 18 30 19 29 20 22 21 21 22
REMARK SMILES IDX 26 23 23 24 24 25 27 26 28 27 25 28 3 30 2 31 1 32 32 33
REMARK SMILES IDX 33 34 34 35
REMARK H PARENT 25 29
REMARK Flexibility Score: inf
ROOT
ATOM      1  C   UNL     1      15.397 -16.507  11.426  1.00  0.00     0.014 C 
ENDROOT
BRANCH   1   2
ATOM      2  C   UNL     1      16.727 -17.044  12.031  1.00  0.00     0.039 C 
BRANCH   2   3
ATOM      3  C   UNL     1      16.865 -18.497  11.632  1.00  0.00     0.045 C 
ATOM      4  O   UNL     1      17.936 -19.125  11.846  1.00  0.00    -0.550 OA
ATOM      5  O   UNL     1      15.853 -19.124  10.917  1.00  0.00    -0.550 OA
ENDBRANCH   2   3
BRANCH   2   6
ATOM      6  C   UNL     1      17.957 -16.128  11.681  1.00  0.00     0.004 C 
ATOM      7  C   UNL     1      17.893 -14.660  12.177  1.00  0.00     0.006 C 
ATOM      8  C   UNL     1      18.455 -16.034  10.191  1.00  0.00    -0.020 C 
ATOM      9  C   UNL     1      18.419 -13.778  11.031  1.00  0.00     0.012 C 
ATOM     10  C   UNL     1      18.117 -14.578   9.754  1.00  0.00    -0.006 C 
ATOM     11  C   UNL     1      17.867 -16.986   9.134  1.00  0.00     0.012 C 
ATOM     12  C   UNL     1      20.008 -16.296  10.230  1.00  0.00     0.012 C 
ATOM     13  C   UNL     1      16.628 -14.292   9.385  1.00  0.00     0.017 C 
ATOM     14  C   UNL     1      18.892 -14.249   8.489  1.00  0.00    -0.064 C 
ATOM     15  C   UNL     1      18.340 -16.609   7.697  1.00  0.00     0.032 C 
ATOM     16  C   UNL     1      18.920 -15.185   7.479  1.00  0.00    -0.064 C 
ATOM     17  C   UNL     1      19.595 -12.905   8.393  1.00  0.00     0.032 C 
ATOM     18  C   UNL     1      19.384 -14.781   6.059  1.00  0.00    -0.008 C 
ATOM     19  C   UNL     1      19.978 -12.481   6.973  1.00  0.00     0.009 C 
ATOM     20  C   UNL     1      20.510 -13.692   6.184  1.00  0.00     0.007 C 
ATOM     21  C   UNL     1      19.968 -16.006   5.299  1.00  0.00     0.014 C 
ATOM     22  C   UNL     1      18.099 -14.291   5.337  1.00  0.00     0.016 C 
ATOM     23  C   UNL     1      21.318 -13.326   4.868  1.00  0.00    -0.006 C 
ATOM     24  C   UNL     1      20.606 -15.632   3.958  1.00  0.00     0.033 C 
ATOM     25  C   UNL     1      21.764 -14.638   4.144  1.00  0.00     0.120 C 
ATOM     26  C   UNL     1      22.603 -12.538   5.257  1.00  0.00     0.014 C 
ATOM     27  C   UNL     1      20.537 -12.419   3.875  1.00  0.00     0.014 C 
BRANCH  25  28
ATOM     28  O   UNL     1      22.798 -15.268   4.865  1.00  0.00    -0.393 OA
ATOM     29  H   UNL     1      23.654 -14.880   4.548  1.00  0.00     0.210 HD
ENDBRANCH  25  28
ENDBRANCH   2   6
ENDBRANCH   1   2
BRANCH   1  30
ATOM     30  C   UNL     1      14.343 -16.004  12.436  1.00  0.00     0.031 C 
BRANCH  30  31
ATOM     31  C   UNL     1      13.653 -17.107  13.217  1.00  0.00    -0.075 C 
ATOM     32  C   UNL     1      13.177 -18.187  12.569  1.00  0.00     0.008 C 
BRANCH  31  33
ATOM     33  C   UNL     1      13.410 -16.929  14.711  1.00  0.00     0.008 C 
ATOM     34  C   UNL     1      12.253 -17.805  15.204  1.00  0.00     0.012 C 
ATOM     35  C   UNL     1      13.168 -15.455  15.061  1.00  0.00     0.012 C 
ENDBRANCH  31  33
ENDBRANCH  30  31
ENDBRANCH   1  30
TORSDOF 7
ENDMDL
MODEL 8
REMARK VINA RESULT:    -4.280      2.062      8.230
REMARK INTER + INTRA:          -6.884
REMARK INTER:                  -6.893
REMARK INTRA:                   0.009
REMARK UNBOUND:                -0.978
REMARK SMILES C=C(CC[C@@H](C(=O)[O-])[C@@H]1CC[C@@]2(C)C3=C(CC[C@]12C)[C@]1(C)CC[C@H](O)C(C)(C)[C@H]1CC3)C(C)C
REMARK SMILES IDX 4 1 5 2 6 3 7 4 8 5 9 6 10 7 18 8 11 9 12 10 17 11 19 12
REMARK SMILES IDX 13 13 14 14 16 15 15 16 31 17 20 18 30 19 29 20 22 21 21 22
REMARK SMILES IDX 26 23 23 24 24 25 27 26 28 27 25 28 3 30 2 31 1 32 32 33
REMARK SMILES IDX 33 34 34 35
REMARK H PARENT 25 29
REMARK Flexibility Score: inf
ROOT
ATOM      1  C   UNL     1      24.240  -8.328   7.522  1.00  0.00     0.014 C 
ENDROOT
BRANCH   1   2
ATOM      2  C   UNL     1      25.279  -8.902   6.515  1.00  0.00     0.039 C 
BRANCH   2   3
ATOM      3  C   UNL     1      26.651  -8.433   6.946  1.00  0.00     0.045 C 
ATOM      4  O   UNL     1      26.996  -7.231   6.801  1.00  0.00    -0.550 OA
ATOM      5  O   UNL     1      27.592  -9.349   7.399  1.00  0.00    -0.550 OA
ENDBRANCH   2   3
BRANCH   2   6
ATOM      6  C   UNL     1      25.127 -10.455   6.318  1.00  0.00     0.004 C 
ATOM      7  C   UNL     1      25.786 -11.062   5.052  1.00  0.00     0.006 C 
ATOM      8  C   UNL     1      23.698 -11.109   6.389  1.00  0.00    -0.020 C 
ATOM      9  C   UNL     1      24.791 -12.087   4.479  1.00  0.00     0.012 C 
ATOM     10  C   UNL     1      23.412 -11.586   4.934  1.00  0.00    -0.006 C 
ATOM     11  C   UNL     1      22.498 -10.261   6.846  1.00  0.00     0.012 C 
ATOM     12  C   UNL     1      23.816 -12.315   7.396  1.00  0.00     0.012 C 
ATOM     13  C   UNL     1      22.973 -10.487   3.917  1.00  0.00     0.017 C 
ATOM     14  C   UNL     1      22.251 -12.568   4.956  1.00  0.00    -0.064 C 
ATOM     15  C   UNL     1      21.153 -11.027   6.663  1.00  0.00     0.032 C 
ATOM     16  C   UNL     1      21.143 -12.253   5.711  1.00  0.00    -0.064 C 
ATOM     17  C   UNL     1      22.363 -13.847   4.142  1.00  0.00     0.032 C 
ATOM     18  C   UNL     1      19.818 -13.022   5.502  1.00  0.00    -0.008 C 
ATOM     19  C   UNL     1      21.034 -14.556   3.875  1.00  0.00     0.009 C 
ATOM     20  C   UNL     1      20.148 -14.514   5.135  1.00  0.00     0.007 C 
ATOM     21  C   UNL     1      18.963 -13.015   6.802  1.00  0.00     0.014 C 
ATOM     22  C   UNL     1      19.068 -12.242   4.387  1.00  0.00     0.016 C 
ATOM     23  C   UNL     1      18.945 -15.549   5.138  1.00  0.00    -0.006 C 
ATOM     24  C   UNL     1      17.724 -13.910   6.710  1.00  0.00     0.033 C 
ATOM     25  C   UNL     1      18.106 -15.375   6.445  1.00  0.00     0.120 C 
ATOM     26  C   UNL     1      19.514 -16.998   5.127  1.00  0.00     0.014 C 
ATOM     27  C   UNL     1      18.012 -15.441   3.898  1.00  0.00     0.014 C 
BRANCH  25  28
ATOM     28  O   UNL     1      18.820 -15.870   7.554  1.00  0.00    -0.393 OA
ATOM     29  H   UNL     1      18.344 -15.565   8.369  1.00  0.00     0.210 HD
ENDBRANCH  25  28
ENDBRANCH   2   6
ENDBRANCH   1   2
BRANCH   1  30
ATOM     30  C   UNL     1      23.555  -7.005   7.116  1.00  0.00     0.031 C 
BRANCH  30  31
ATOM     31  C   UNL     1      23.639  -6.690   5.634  1.00  0.00    -0.075 C 
ATOM     32  C   UNL     1      23.041  -7.504   4.743  1.00  0.00     0.008 C 
BRANCH  31  33
ATOM     33  C   UNL     1      24.490  -5.517   5.162  1.00  0.00     0.008 C 
ATOM     34  C   UNL     1      24.774  -4.531   6.300  1.00  0.00     0.012 C 
ATOM     35  C   UNL     1      23.838  -4.805   3.970  1.00  0.00     0.012 C 
ENDBRANCH  31  33
ENDBRANCH  30  31
ENDBRANCH   1  30
TORSDOF 7
ENDMDL
