MODEL 1
REMARK VINA RESULT:    -3.226      0.000      0.000
REMARK INTER + INTRA:          -3.687
REMARK INTER:                  -3.415
REMARK INTRA:                  -0.272
REMARK UNBOUND:                -0.272
REMARK SMILES C=C(C)[C@H]1CC=C(C)CC1
REMARK SMILES IDX 8 1 7 2 6 3 5 4 4 5 10 6 9 7 2 8 1 9 3 10
REMARK H PARENT
REMARK Flexibility Score: inf
ROOT
ATOM      1  C   UNL     1      25.881  18.480  64.501  1.00  0.00     0.039 C 
ATOM      2  C   UNL     1      25.741  19.772  63.742  1.00  0.00    -0.077 C 
ATOM      3  C   UNL     1      24.752  20.625  64.079  1.00  0.00    -0.027 C 
ATOM      4  C   UNL     1      24.535  21.961  63.410  1.00  0.00     0.035 C 
ATOM      5  C   UNL     1      25.282  22.125  62.067  1.00  0.00     0.018 C 
ATOM      6  C   UNL     1      26.680  21.488  62.129  1.00  0.00     0.013 C 
ATOM      7  C   UNL     1      26.629  20.014  62.540  1.00  0.00     0.031 C 
ENDROOT
BRANCH   5   8
ATOM      8  C   UNL     1      24.483  21.655  60.850  1.00  0.00    -0.077 C 
ATOM      9  C   UNL     1      23.170  21.376  60.915  1.00  0.00     0.008 C 
ATOM     10  C   UNL     1      25.182  21.485  59.526  1.00  0.00     0.039 C 
ENDBRANCH   5   8
TORSDOF 1
ENDMDL
MODEL 2
REMARK VINA RESULT:    -2.780      1.431      4.081
REMARK INTER + INTRA:          -3.214
REMARK INTER:                  -2.964
REMARK INTRA:                  -0.250
REMARK UNBOUND:                -0.272
REMARK SMILES C=C(C)[C@H]1CC=C(C)CC1
REMARK SMILES IDX 8 1 7 2 6 3 5 4 4 5 10 6 9 7 2 8 1 9 3 10
REMARK H PARENT
REMARK Flexibility Score: inf
ROOT
ATOM      1  C   UNL     1      26.519  19.805  57.892  1.00  0.00     0.039 C 
ATOM      2  C   UNL     1      26.314  20.683  59.096  1.00  0.00    -0.077 C 
ATOM      3  C   UNL     1      27.393  21.147  59.759  1.00  0.00    -0.027 C 
ATOM      4  C   UNL     1      27.307  22.060  60.960  1.00  0.00     0.035 C 
ATOM      5  C   UNL     1      25.906  22.125  61.609  1.00  0.00     0.018 C 
ATOM      6  C   UNL     1      24.801  22.117  60.540  1.00  0.00     0.013 C 
ATOM      7  C   UNL     1      24.906  20.910  59.605  1.00  0.00     0.031 C 
ENDROOT
BRANCH   5   8
ATOM      8  C   UNL     1      25.674  21.072  62.693  1.00  0.00    -0.077 C 
ATOM      9  C   UNL     1      26.608  20.165  63.028  1.00  0.00     0.008 C 
ATOM     10  C   UNL     1      24.351  21.030  63.413  1.00  0.00     0.039 C 
ENDBRANCH   5   8
TORSDOF 1
ENDMDL
MODEL 3
REMARK VINA RESULT:    -2.668      1.911      3.586
REMARK INTER + INTRA:          -3.095
REMARK INTER:                  -2.971
REMARK INTRA:                  -0.125
REMARK UNBOUND:                -0.272
REMARK SMILES C=C(C)[C@H]1CC=C(C)CC1
REMARK SMILES IDX 8 1 7 2 6 3 5 4 4 5 10 6 9 7 2 8 1 9 3 10
REMARK H PARENT
REMARK Flexibility Score: inf
ROOT
ATOM      1  C   UNL     1      26.616  21.038  62.651  1.00  0.00     0.039 C 
ATOM      2  C   UNL     1      26.373  21.357  61.201  1.00  0.00    -0.077 C 
ATOM      3  C   UNL     1      25.142  21.748  60.813  1.00  0.00    -0.027 C 
ATOM      4  C   UNL     1      24.792  22.123  59.393  1.00  0.00     0.035 C 
ATOM      5  C   UNL     1      25.832  21.671  58.343  1.00  0.00     0.018 C 
ATOM      6  C   UNL     1      27.265  21.839  58.876  1.00  0.00     0.013 C 
ATOM      7  C   UNL     1      27.481  21.103  60.201  1.00  0.00     0.031 C 
ENDROOT
BRANCH   5   8
ATOM      8  C   UNL     1      25.581  20.272  57.782  1.00  0.00    -0.077 C 
ATOM      9  C   UNL     1      26.582  19.440  57.446  1.00  0.00     0.008 C 
ATOM     10  C   UNL     1      24.164  19.797  57.581  1.00  0.00     0.039 C 
ENDBRANCH   5   8
TORSDOF 1
ENDMDL
MODEL 4
REMARK VINA RESULT:    -2.520      4.123      7.076
REMARK INTER + INTRA:          -2.939
REMARK INTER:                  -2.722
REMARK INTRA:                  -0.217
REMARK UNBOUND:                -0.272
REMARK SMILES C=C(C)[C@H]1CC=C(C)CC1
REMARK SMILES IDX 8 1 7 2 6 3 5 4 4 5 10 6 9 7 2 8 1 9 3 10
REMARK H PARENT
REMARK Flexibility Score: inf
ROOT
ATOM      1  C   UNL     1      24.096  21.756  53.759  1.00  0.00     0.039 C 
ATOM      2  C   UNL     1      24.851  20.989  54.810  1.00  0.00    -0.077 C 
ATOM      3  C   UNL     1      24.217  20.013  55.492  1.00  0.00    -0.027 C 
ATOM      4  C   UNL     1      24.883  19.158  56.544  1.00  0.00     0.035 C 
ATOM      5  C   UNL     1      26.229  19.719  57.057  1.00  0.00     0.018 C 
ATOM      6  C   UNL     1      27.043  20.340  55.910  1.00  0.00     0.013 C 
ATOM      7  C   UNL     1      26.259  21.422  55.161  1.00  0.00     0.031 C 
ENDROOT
BRANCH   5   8
ATOM      8  C   UNL     1      26.094  20.663  58.252  1.00  0.00    -0.077 C 
ATOM      9  C   UNL     1      27.159  21.132  58.923  1.00  0.00     0.008 C 
ATOM     10  C   UNL     1      24.721  21.084  58.712  1.00  0.00     0.039 C 
ENDBRANCH   5   8
TORSDOF 1
ENDMDL
MODEL 5
REMARK VINA RESULT:    -2.493      3.892      5.594
REMARK INTER + INTRA:          -2.911
REMARK INTER:                  -2.640
REMARK INTRA:                  -0.271
REMARK UNBOUND:                -0.272
REMARK SMILES C=C(C)[C@H]1CC=C(C)CC1
REMARK SMILES IDX 8 1 7 2 6 3 5 4 4 5 10 6 9 7 2 8 1 9 3 10
REMARK H PARENT
REMARK Flexibility Score: inf
ROOT
ATOM      1  C   UNL     1      27.357  20.765  59.599  1.00  0.00     0.039 C 
ATOM      2  C   UNL     1      26.469  20.767  58.385  1.00  0.00    -0.077 C 
ATOM      3  C   UNL     1      25.343  21.508  58.399  1.00  0.00    -0.027 C 
ATOM      4  C   UNL     1      24.395  21.611  57.228  1.00  0.00     0.035 C 
ATOM      5  C   UNL     1      24.597  20.521  56.151  1.00  0.00     0.018 C 
ATOM      6  C   UNL     1      26.090  20.225  55.936  1.00  0.00     0.013 C 
ATOM      7  C   UNL     1      26.797  19.835  57.237  1.00  0.00     0.031 C 
ENDROOT
BRANCH   5   8
ATOM      8  C   UNL     1      23.781  19.250  56.393  1.00  0.00    -0.077 C 
ATOM      9  C   UNL     1      22.875  19.153  57.380  1.00  0.00     0.008 C 
ATOM     10  C   UNL     1      23.998  18.051  55.506  1.00  0.00     0.039 C 
ENDBRANCH   5   8
TORSDOF 1
ENDMDL
MODEL 6
REMARK VINA RESULT:    -2.389      3.332      5.759
REMARK INTER + INTRA:          -2.801
REMARK INTER:                  -2.547
REMARK INTRA:                  -0.254
REMARK UNBOUND:                -0.272
REMARK SMILES C=C(C)[C@H]1CC=C(C)CC1
REMARK SMILES IDX 8 1 7 2 6 3 5 4 4 5 10 6 9 7 2 8 1 9 3 10
REMARK H PARENT
REMARK Flexibility Score: inf
ROOT
ATOM      1  C   UNL     1      25.556  22.071  60.117  1.00  0.00     0.039 C 
ATOM      2  C   UNL     1      25.460  21.125  58.952  1.00  0.00    -0.077 C 
ATOM      3  C   UNL     1      26.580  20.518  58.508  1.00  0.00    -0.027 C 
ATOM      4  C   UNL     1      26.599  19.527  57.368  1.00  0.00     0.035 C 
ATOM      5  C   UNL     1      25.320  19.535  56.500  1.00  0.00     0.018 C 
ATOM      6  C   UNL     1      24.064  19.721  57.367  1.00  0.00     0.013 C 
ATOM      7  C   UNL     1      24.137  20.983  58.231  1.00  0.00     0.031 C 
ENDROOT
BRANCH   5   8
ATOM      8  C   UNL     1      25.370  20.517  55.330  1.00  0.00    -0.077 C 
ATOM      9  C   UNL     1      24.343  20.675  54.478  1.00  0.00     0.008 C 
ATOM     10  C   UNL     1      26.614  21.338  55.104  1.00  0.00     0.039 C 
ENDBRANCH   5   8
TORSDOF 1
ENDMDL
MODEL 7
REMARK VINA RESULT:    -2.374      2.808      5.578
REMARK INTER + INTRA:          -2.785
REMARK INTER:                  -2.518
REMARK INTRA:                  -0.267
REMARK UNBOUND:                -0.272
REMARK SMILES C=C(C)[C@H]1CC=C(C)CC1
REMARK SMILES IDX 8 1 7 2 6 3 5 4 4 5 10 6 9 7 2 8 1 9 3 10
REMARK H PARENT
REMARK Flexibility Score: inf
ROOT
ATOM      1  C   UNL     1      24.366  18.410  56.368  1.00  0.00     0.039 C 
ATOM      2  C   UNL     1      24.948  19.675  56.936  1.00  0.00    -0.077 C 
ATOM      3  C   UNL     1      26.237  19.978  56.675  1.00  0.00    -0.027 C 
ATOM      4  C   UNL     1      26.916  21.234  57.166  1.00  0.00     0.035 C 
ATOM      5  C   UNL     1      26.157  21.965  58.296  1.00  0.00     0.018 C 
ATOM      6  C   UNL     1      24.639  21.928  58.058  1.00  0.00     0.013 C 
ATOM      7  C   UNL     1      24.112  20.501  57.891  1.00  0.00     0.031 C 
ENDROOT
BRANCH   5   8
ATOM      8  C   UNL     1      26.536  21.498  59.702  1.00  0.00    -0.077 C 
ATOM      9  C   UNL     1      27.636  20.766  59.946  1.00  0.00     0.008 C 
ATOM     10  C   UNL     1      25.646  21.855  60.866  1.00  0.00     0.039 C 
ENDBRANCH   5   8
TORSDOF 1
ENDMDL
MODEL 8
REMARK VINA RESULT:    -2.330      5.502      7.845
REMARK INTER + INTRA:          -2.738
REMARK INTER:                  -2.470
REMARK INTRA:                  -0.267
REMARK UNBOUND:                -0.272
REMARK SMILES C=C(C)[C@H]1CC=C(C)CC1
REMARK SMILES IDX 8 1 7 2 6 3 5 4 4 5 10 6 9 7 2 8 1 9 3 10
REMARK H PARENT
REMARK Flexibility Score: inf
ROOT
ATOM      1  C   UNL     1      22.968  19.052  52.929  1.00  0.00     0.039 C 
ATOM      2  C   UNL     1      23.479  19.709  54.183  1.00  0.00    -0.077 C 
ATOM      3  C   UNL     1      23.924  20.981  54.121  1.00  0.00    -0.027 C 
ATOM      4  C   UNL     1      24.429  21.749  55.319  1.00  0.00     0.035 C 
ATOM      5  C   UNL     1      24.755  20.867  56.546  1.00  0.00     0.018 C 
ATOM      6  C   UNL     1      23.724  19.738  56.707  1.00  0.00     0.013 C 
ATOM      7  C   UNL     1      23.601  18.881  55.445  1.00  0.00     0.031 C 
ENDROOT
BRANCH   5   8
ATOM      8  C   UNL     1      26.194  20.349  56.573  1.00  0.00    -0.077 C 
ATOM      9  C   UNL     1      27.105  20.705  55.652  1.00  0.00     0.008 C 
ATOM     10  C   UNL     1      26.617  19.395  57.661  1.00  0.00     0.039 C 
ENDBRANCH   5   8
TORSDOF 1
ENDMDL
