MODEL 1
REMARK VINA RESULT:    -2.958      0.000      0.000
REMARK INTER + INTRA:          -4.220
REMARK INTER:                  -3.823
REMARK INTRA:                  -0.397
REMARK UNBOUND:                -0.397
REMARK SMILES CCCCCCC(C)=O
REMARK SMILES IDX 4 1 3 2 2 3 1 4 5 5 6 6 7 7 9 8 8 9
REMARK H PARENT
REMARK Flexibility Score: inf
ROOT
ATOM      1  C   UNL     1     140.583 139.713 128.635  1.00  0.00     0.000 C 
ENDROOT
BRANCH   1   2
ATOM      2  C   UNL     1     140.059 140.462 129.873  1.00  0.00    -0.000 C 
BRANCH   2   3
ATOM      3  C   UNL     1     138.630 140.046 130.251  1.00  0.00    -0.003 C 
ATOM      4  C   UNL     1     137.586 140.555 129.257  1.00  0.00     0.004 C 
ENDBRANCH   2   3
ENDBRANCH   1   2
BRANCH   1   5
ATOM      5  C   UNL     1     141.250 138.374 128.990  1.00  0.00     0.008 C 
BRANCH   5   6
ATOM      6  C   UNL     1     140.323 137.169 128.747  1.00  0.00     0.075 C 
BRANCH   6   7
ATOM      7  C   UNL     1     140.224 136.213 129.915  1.00  0.00     0.129 C 
ATOM      8  O   UNL     1     140.710 135.099 129.795  1.00  0.00    -0.300 OA
ATOM      9  C   UNL     1     139.554 136.570 131.213  1.00  0.00     0.087 C 
ENDBRANCH   6   7
ENDBRANCH   5   6
ENDBRANCH   1   5
TORSDOF 5
ENDMDL
MODEL 2
REMARK VINA RESULT:    -2.949      3.052      4.458
REMARK INTER + INTRA:          -4.207
REMARK INTER:                  -3.732
REMARK INTRA:                  -0.475
REMARK UNBOUND:                -0.397
REMARK SMILES CCCCCCC(C)=O
REMARK SMILES IDX 4 1 3 2 2 3 1 4 5 5 6 6 7 7 9 8 8 9
REMARK H PARENT
REMARK Flexibility Score: inf
ROOT
ATOM      1  C   UNL     1     139.794 134.570 128.626  1.00  0.00     0.000 C 
ENDROOT
BRANCH   1   2
ATOM      2  C   UNL     1     140.364 135.400 129.790  1.00  0.00    -0.000 C 
BRANCH   2   3
ATOM      3  C   UNL     1     140.439 136.899 129.461  1.00  0.00    -0.003 C 
ATOM      4  C   UNL     1     139.588 137.752 130.401  1.00  0.00     0.004 C 
ENDBRANCH   2   3
ENDBRANCH   1   2
BRANCH   1   5
ATOM      5  C   UNL     1     138.432 133.939 128.959  1.00  0.00     0.008 C 
BRANCH   5   6
ATOM      6  C   UNL     1     137.263 134.922 128.769  1.00  0.00     0.075 C 
BRANCH   6   7
ATOM      7  C   UNL     1     136.302 134.983 129.936  1.00  0.00     0.129 C 
ATOM      8  O   UNL     1     135.191 134.493 129.798  1.00  0.00    -0.300 OA
ATOM      9  C   UNL     1     136.651 135.617 131.254  1.00  0.00     0.087 C 
ENDBRANCH   6   7
ENDBRANCH   5   6
ENDBRANCH   1   5
TORSDOF 5
ENDMDL
MODEL 3
REMARK VINA RESULT:    -2.927      3.480      5.024
REMARK INTER + INTRA:          -4.180
REMARK INTER:                  -3.920
REMARK INTRA:                  -0.260
REMARK UNBOUND:                -0.397
REMARK SMILES CCCCCCC(C)=O
REMARK SMILES IDX 4 1 3 2 2 3 1 4 5 5 6 6 7 7 9 8 8 9
REMARK H PARENT
REMARK Flexibility Score: inf
ROOT
ATOM      1  C   UNL     1     137.966 140.559 129.567  1.00  0.00     0.000 C 
ENDROOT
BRANCH   1   2
ATOM      2  C   UNL     1     138.878 139.819 128.573  1.00  0.00    -0.000 C 
BRANCH   2   3
ATOM      3  C   UNL     1     140.356 139.855 128.992  1.00  0.00    -0.003 C 
ATOM      4  C   UNL     1     141.293 139.358 127.892  1.00  0.00     0.004 C 
ENDBRANCH   2   3
ENDBRANCH   1   2
BRANCH   1   5
ATOM      5  C   UNL     1     136.858 141.365 128.868  1.00  0.00     0.008 C 
BRANCH   5   6
ATOM      6  C   UNL     1     135.745 140.467 128.297  1.00  0.00     0.075 C 
BRANCH   6   7
ATOM      7  C   UNL     1     134.999 139.661 129.337  1.00  0.00     0.129 C 
ATOM      8  O   UNL     1     134.372 140.263 130.197  1.00  0.00    -0.300 OA
ATOM      9  C   UNL     1     134.994 138.158 129.363  1.00  0.00     0.087 C 
ENDBRANCH   6   7
ENDBRANCH   5   6
ENDBRANCH   1   5
TORSDOF 5
ENDMDL
MODEL 4
REMARK VINA RESULT:    -2.922      3.898      4.839
REMARK INTER + INTRA:          -4.173
REMARK INTER:                  -3.914
REMARK INTRA:                  -0.259
REMARK UNBOUND:                -0.397
REMARK SMILES CCCCCCC(C)=O
REMARK SMILES IDX 4 1 3 2 2 3 1 4 5 5 6 6 7 7 9 8 8 9
REMARK H PARENT
REMARK Flexibility Score: inf
ROOT
ATOM      1  C   UNL     1     136.595 135.190 129.403  1.00  0.00     0.000 C 
ENDROOT
BRANCH   1   2
ATOM      2  C   UNL     1     135.066 135.028 129.451  1.00  0.00    -0.000 C 
BRANCH   2   3
ATOM      3  C   UNL     1     134.325 136.339 129.142  1.00  0.00    -0.003 C 
ATOM      4  C   UNL     1     133.446 136.238 127.896  1.00  0.00     0.004 C 
ENDBRANCH   2   3
ENDBRANCH   1   2
BRANCH   1   5
ATOM      5  C   UNL     1     137.126 135.386 127.973  1.00  0.00     0.008 C 
BRANCH   5   6
ATOM      6  C   UNL     1     138.591 135.857 127.947  1.00  0.00     0.075 C 
BRANCH   6   7
ATOM      7  C   UNL     1     139.579 134.854 128.499  1.00  0.00     0.129 C 
ATOM      8  O   UNL     1     139.675 133.769 127.944  1.00  0.00    -0.300 OA
ATOM      9  C   UNL     1     140.445 135.129 129.697  1.00  0.00     0.087 C 
ENDBRANCH   6   7
ENDBRANCH   5   6
ENDBRANCH   1   5
TORSDOF 5
ENDMDL
MODEL 5
REMARK VINA RESULT:    -2.920      2.846      4.451
REMARK INTER + INTRA:          -4.170
REMARK INTER:                  -3.824
REMARK INTRA:                  -0.345
REMARK UNBOUND:                -0.397
REMARK SMILES CCCCCCC(C)=O
REMARK SMILES IDX 4 1 3 2 2 3 1 4 5 5 6 6 7 7 9 8 8 9
REMARK H PARENT
REMARK Flexibility Score: inf
ROOT
ATOM      1  C   UNL     1     135.398 140.489 128.751  1.00  0.00     0.000 C 
ENDROOT
BRANCH   1   2
ATOM      2  C   UNL     1     134.618 140.229 130.052  1.00  0.00    -0.000 C 
BRANCH   2   3
ATOM      3  C   UNL     1     135.512 140.308 131.299  1.00  0.00    -0.003 C 
ATOM      4  C   UNL     1     134.830 141.015 132.470  1.00  0.00     0.004 C 
ENDBRANCH   2   3
ENDBRANCH   1   2
BRANCH   1   5
ATOM      5  C   UNL     1     136.833 140.980 129.008  1.00  0.00     0.008 C 
BRANCH   5   6
ATOM      6  C   UNL     1     137.894 140.030 128.426  1.00  0.00     0.075 C 
BRANCH   6   7
ATOM      7  C   UNL     1     139.167 139.944 129.239  1.00  0.00     0.129 C 
ATOM      8  O   UNL     1     140.234 139.906 128.643  1.00  0.00    -0.300 OA
ATOM      9  C   UNL     1     139.180 139.902 130.742  1.00  0.00     0.087 C 
ENDBRANCH   6   7
ENDBRANCH   5   6
ENDBRANCH   1   5
TORSDOF 5
ENDMDL
MODEL 6
REMARK VINA RESULT:    -2.886      3.474      4.941
REMARK INTER + INTRA:          -4.126
REMARK INTER:                  -3.597
REMARK INTRA:                  -0.529
REMARK UNBOUND:                -0.397
REMARK SMILES CCCCCCC(C)=O
REMARK SMILES IDX 4 1 3 2 2 3 1 4 5 5 6 6 7 7 9 8 8 9
REMARK H PARENT
REMARK Flexibility Score: inf
ROOT
ATOM      1  C   UNL     1     135.456 140.548 128.597  1.00  0.00     0.000 C 
ENDROOT
BRANCH   1   2
ATOM      2  C   UNL     1     136.793 141.206 128.984  1.00  0.00    -0.000 C 
BRANCH   2   3
ATOM      3  C   UNL     1     137.998 140.293 128.711  1.00  0.00    -0.003 C 
ATOM      4  C   UNL     1     138.727 139.882 129.990  1.00  0.00     0.004 C 
ENDBRANCH   2   3
ENDBRANCH   1   2
BRANCH   1   5
ATOM      5  C   UNL     1     134.663 140.055 129.819  1.00  0.00     0.008 C 
BRANCH   5   6
ATOM      6  C   UNL     1     135.158 138.691 130.333  1.00  0.00     0.075 C 
BRANCH   6   7
ATOM      7  C   UNL     1     135.051 137.569 129.324  1.00  0.00     0.129 C 
ATOM      8  O   UNL     1     133.940 137.148 129.040  1.00  0.00    -0.300 OA
ATOM      9  C   UNL     1     136.248 136.948 128.658  1.00  0.00     0.087 C 
ENDBRANCH   6   7
ENDBRANCH   5   6
ENDBRANCH   1   5
TORSDOF 5
ENDMDL
MODEL 7
REMARK VINA RESULT:    -2.886      3.169      4.220
REMARK INTER + INTRA:          -4.126
REMARK INTER:                  -3.530
REMARK INTRA:                  -0.595
REMARK UNBOUND:                -0.397
REMARK SMILES CCCCCCC(C)=O
REMARK SMILES IDX 4 1 3 2 2 3 1 4 5 5 6 6 7 7 9 8 8 9
REMARK H PARENT
REMARK Flexibility Score: inf
ROOT
ATOM      1  C   UNL     1     137.254 135.058 128.661  1.00  0.00     0.000 C 
ENDROOT
BRANCH   1   2
ATOM      2  C   UNL     1     136.171 134.886 129.740  1.00  0.00    -0.000 C 
BRANCH   2   3
ATOM      3  C   UNL     1     136.539 135.584 131.059  1.00  0.00    -0.003 C 
ATOM      4  C   UNL     1     137.029 137.016 130.851  1.00  0.00     0.004 C 
ENDBRANCH   2   3
ENDBRANCH   1   2
BRANCH   1   5
ATOM      5  C   UNL     1     138.350 133.982 128.745  1.00  0.00     0.008 C 
BRANCH   5   6
ATOM      6  C   UNL     1     139.766 134.569 128.606  1.00  0.00     0.075 C 
BRANCH   6   7
ATOM      7  C   UNL     1     140.213 135.405 129.785  1.00  0.00     0.129 C 
ATOM      8  O   UNL     1     140.570 136.555 129.579  1.00  0.00    -0.300 OA
ATOM      9  C   UNL     1     140.238 134.885 131.196  1.00  0.00     0.087 C 
ENDBRANCH   6   7
ENDBRANCH   5   6
ENDBRANCH   1   5
TORSDOF 5
ENDMDL
MODEL 8
REMARK VINA RESULT:    -2.859      3.550      4.903
REMARK INTER + INTRA:          -4.092
REMARK INTER:                  -3.503
REMARK INTRA:                  -0.589
REMARK UNBOUND:                -0.397
REMARK SMILES CCCCCCC(C)=O
REMARK SMILES IDX 4 1 3 2 2 3 1 4 5 5 6 6 7 7 9 8 8 9
REMARK H PARENT
REMARK Flexibility Score: inf
ROOT
ATOM      1  C   UNL     1     137.940 140.250 128.671  1.00  0.00     0.000 C 
ENDROOT
BRANCH   1   2
ATOM      2  C   UNL     1     138.844 140.218 129.916  1.00  0.00    -0.000 C 
BRANCH   2   3
ATOM      3  C   UNL     1     138.512 139.047 130.853  1.00  0.00    -0.003 C 
ATOM      4  C   UNL     1     137.870 139.503 132.163  1.00  0.00     0.004 C 
ENDBRANCH   2   3
ENDBRANCH   1   2
BRANCH   1   5
ATOM      5  C   UNL     1     136.771 141.240 128.811  1.00  0.00     0.008 C 
BRANCH   5   6
ATOM      6  C   UNL     1     135.402 140.570 128.595  1.00  0.00     0.075 C 
BRANCH   6   7
ATOM      7  C   UNL     1     134.935 139.719 129.755  1.00  0.00     0.129 C 
ATOM      8  O   UNL     1     134.551 140.281 130.770  1.00  0.00    -0.300 OA
ATOM      9  C   UNL     1     134.922 138.216 129.717  1.00  0.00     0.087 C 
ENDBRANCH   6   7
ENDBRANCH   5   6
ENDBRANCH   1   5
TORSDOF 5
ENDMDL
MODEL 9
REMARK VINA RESULT:    -2.846      4.119      5.081
REMARK INTER + INTRA:          -4.075
REMARK INTER:                  -3.835
REMARK INTRA:                  -0.240
REMARK UNBOUND:                -0.397
REMARK SMILES CCCCCCC(C)=O
REMARK SMILES IDX 4 1 3 2 2 3 1 4 5 5 6 6 7 7 9 8 8 9
REMARK H PARENT
REMARK Flexibility Score: inf
ROOT
ATOM      1  C   UNL     1     134.983 137.906 128.394  1.00  0.00     0.000 C 
ENDROOT
BRANCH   1   2
ATOM      2  C   UNL     1     135.078 138.923 129.545  1.00  0.00    -0.000 C 
BRANCH   2   3
ATOM      3  C   UNL     1     135.352 140.350 129.048  1.00  0.00    -0.003 C 
ATOM      4  C   UNL     1     136.759 140.835 129.395  1.00  0.00     0.004 C 
ENDBRANCH   2   3
ENDBRANCH   1   2
BRANCH   1   5
ATOM      5  C   UNL     1     133.968 136.785 128.675  1.00  0.00     0.008 C 
BRANCH   5   6
ATOM      6  C   UNL     1     134.595 135.383 128.579  1.00  0.00     0.075 C 
BRANCH   6   7
ATOM      7  C   UNL     1     135.433 134.991 129.775  1.00  0.00     0.129 C 
ATOM      8  O   UNL     1     136.580 134.615 129.582  1.00  0.00    -0.300 OA
ATOM      9  C   UNL     1     134.921 135.042 131.188  1.00  0.00     0.087 C 
ENDBRANCH   6   7
ENDBRANCH   5   6
ENDBRANCH   1   5
TORSDOF 5
ENDMDL
