MODEL 1
REMARK VINA RESULT:    -3.956      0.000      0.000
REMARK INTER + INTRA:          -9.633
REMARK INTER:                  -7.656
REMARK INTRA:                  -1.977
REMARK UNBOUND:                -1.977
REMARK SMILES CCCCCCCCCCCCCCCCCC(=O)[O-]
REMARK SMILES IDX 10 1 11 2 12 3 13 4 14 5 15 6 16 7 17 8 18 9 19 10 20 11
REMARK SMILES IDX 9 12 8 13 7 14 6 15 5 16 4 17 3 18 2 19 1 20
REMARK H PARENT
REMARK Flexibility Score: inf
ROOT
ATOM      1  C   UNL     1      -3.268  -7.361 -45.611  1.00  0.00     0.000 C 
ENDROOT
BRANCH   1   2
ATOM      2  C   UNL     1      -4.347  -6.921 -44.608  1.00  0.00     0.000 C 
BRANCH   2   3
ATOM      3  C   UNL     1      -4.297  -7.726 -43.297  1.00  0.00     0.000 C 
BRANCH   3   4
ATOM      4  C   UNL     1      -3.240  -8.840 -43.329  1.00  0.00     0.000 C 
BRANCH   4   5
ATOM      5  C   UNL     1      -2.170  -8.674 -42.236  1.00  0.00     0.000 C 
BRANCH   5   6
ATOM      6  C   UNL     1      -1.133  -9.817 -42.258  1.00  0.00     0.000 C 
BRANCH   6   7
ATOM      7  C   UNL     1       0.213  -9.439 -41.619  1.00  0.00     0.006 C 
BRANCH   7   8
ATOM      8  C   UNL     1       1.360  -9.381 -42.633  1.00  0.00     0.053 C 
BRANCH   8   9
ATOM      9  C   UNL     1       2.154 -10.648 -42.598  1.00  0.00     0.041 C 
ATOM     10  O   UNL     1       1.856 -11.603 -43.361  1.00  0.00    -0.550 OA
ATOM     11  O   UNL     1       3.255 -10.755 -41.756  1.00  0.00    -0.550 OA
ENDBRANCH   8   9
ENDBRANCH   7   8
ENDBRANCH   6   7
ENDBRANCH   5   6
ENDBRANCH   4   5
ENDBRANCH   3   4
ENDBRANCH   2   3
ENDBRANCH   1   2
BRANCH   1  12
ATOM     12  C   UNL     1      -3.606  -6.961 -47.056  1.00  0.00     0.000 C 
BRANCH  12  13
ATOM     13  C   UNL     1      -3.424  -8.146 -48.011  1.00  0.00    -0.000 C 
BRANCH  13  14
ATOM     14  C   UNL     1      -4.740  -8.481 -48.730  1.00  0.00    -0.000 C 
BRANCH  14  15
ATOM     15  C   UNL     1      -5.571  -9.549 -47.996  1.00  0.00    -0.000 C 
BRANCH  15  16
ATOM     16  C   UNL     1      -6.912  -9.056 -47.421  1.00  0.00    -0.000 C 
BRANCH  16  17
ATOM     17  C   UNL     1      -6.984  -9.167 -45.888  1.00  0.00    -0.000 C 
BRANCH  17  18
ATOM     18  C   UNL     1      -6.034 -10.240 -45.331  1.00  0.00    -0.000 C 
BRANCH  18  19
ATOM     19  C   UNL     1      -6.563 -10.887 -44.043  1.00  0.00    -0.003 C 
ATOM     20  C   UNL     1      -5.476 -11.709 -43.356  1.00  0.00     0.004 C 
ENDBRANCH  18  19
ENDBRANCH  17  18
ENDBRANCH  16  17
ENDBRANCH  15  16
ENDBRANCH  14  15
ENDBRANCH  13  14
ENDBRANCH  12  13
ENDBRANCH   1  12
TORSDOF 16
ENDMDL
MODEL 2
REMARK VINA RESULT:    -3.939      4.564      7.196
REMARK INTER + INTRA:          -9.599
REMARK INTER:                  -7.163
REMARK INTRA:                  -2.436
REMARK UNBOUND:                -1.977
REMARK SMILES CCCCCCCCCCCCCCCCCC(=O)[O-]
REMARK SMILES IDX 10 1 11 2 12 3 13 4 14 5 15 6 16 7 17 8 18 9 19 10 20 11
REMARK SMILES IDX 9 12 8 13 7 14 6 15 5 16 4 17 3 18 2 19 1 20
REMARK H PARENT
REMARK Flexibility Score: inf
ROOT
ATOM      1  C   UNL     1      -2.518  -8.425 -41.749  1.00  0.00     0.000 C 
ENDROOT
BRANCH   1   2
ATOM      2  C   UNL     1      -2.554  -8.264 -40.221  1.00  0.00     0.000 C 
BRANCH   2   3
ATOM      3  C   UNL     1      -1.151  -8.296 -39.590  1.00  0.00     0.000 C 
BRANCH   3   4
ATOM      4  C   UNL     1      -1.050  -7.421 -38.331  1.00  0.00     0.000 C 
BRANCH   4   5
ATOM      5  C   UNL     1      -0.793  -8.244 -37.057  1.00  0.00     0.000 C 
BRANCH   5   6
ATOM      6  C   UNL     1      -0.730  -9.759 -37.345  1.00  0.00     0.000 C 
BRANCH   6   7
ATOM      7  C   UNL     1      -1.441 -10.618 -36.286  1.00  0.00     0.006 C 
BRANCH   7   8
ATOM      8  C   UNL     1      -1.159 -10.152 -34.853  1.00  0.00     0.053 C 
BRANCH   8   9
ATOM      9  C   UNL     1      -0.417 -11.208 -34.097  1.00  0.00     0.041 C 
ATOM     10  O   UNL     1      -0.960 -11.788 -33.120  1.00  0.00    -0.550 OA
ATOM     11  O   UNL     1       0.856 -11.588 -34.503  1.00  0.00    -0.550 OA
ENDBRANCH   8   9
ENDBRANCH   7   8
ENDBRANCH   6   7
ENDBRANCH   5   6
ENDBRANCH   4   5
ENDBRANCH   3   4
ENDBRANCH   2   3
ENDBRANCH   1   2
BRANCH   1  12
ATOM     12  C   UNL     1      -3.662  -9.303 -42.278  1.00  0.00     0.000 C 
BRANCH  12  13
ATOM     13  C   UNL     1      -4.046 -10.379 -41.256  1.00  0.00    -0.000 C 
BRANCH  13  14
ATOM     14  C   UNL     1      -3.776 -11.787 -41.809  1.00  0.00    -0.000 C 
BRANCH  14  15
ATOM     15  C   UNL     1      -2.283 -12.165 -41.785  1.00  0.00    -0.000 C 
BRANCH  15  16
ATOM     16  C   UNL     1      -1.580 -11.970 -40.429  1.00  0.00    -0.000 C 
BRANCH  16  17
ATOM     17  C   UNL     1      -0.077 -11.671 -40.570  1.00  0.00    -0.000 C 
BRANCH  17  18
ATOM     18  C   UNL     1       0.275 -11.067 -41.940  1.00  0.00    -0.000 C 
BRANCH  18  19
ATOM     19  C   UNL     1       1.268  -9.900 -41.834  1.00  0.00    -0.003 C 
ATOM     20  C   UNL     1       1.236  -9.037 -43.092  1.00  0.00     0.004 C 
ENDBRANCH  18  19
ENDBRANCH  17  18
ENDBRANCH  16  17
ENDBRANCH  15  16
ENDBRANCH  14  15
ENDBRANCH  13  14
ENDBRANCH  12  13
ENDBRANCH   1  12
TORSDOF 16
ENDMDL
MODEL 3
REMARK VINA RESULT:    -3.885      1.345      2.341
REMARK INTER + INTRA:          -9.496
REMARK INTER:                  -6.935
REMARK INTRA:                  -2.561
REMARK UNBOUND:                -1.977
REMARK SMILES CCCCCCCCCCCCCCCCCC(=O)[O-]
REMARK SMILES IDX 10 1 11 2 12 3 13 4 14 5 15 6 16 7 17 8 18 9 19 10 20 11
REMARK SMILES IDX 9 12 8 13 7 14 6 15 5 16 4 17 3 18 2 19 1 20
REMARK H PARENT
REMARK Flexibility Score: inf
ROOT
ATOM      1  C   UNL     1      -3.639  -7.521 -45.813  1.00  0.00     0.000 C 
ENDROOT
BRANCH   1   2
ATOM      2  C   UNL     1      -3.766  -8.320 -44.505  1.00  0.00     0.000 C 
BRANCH   2   3
ATOM      3  C   UNL     1      -4.528  -7.548 -43.414  1.00  0.00     0.000 C 
BRANCH   3   4
ATOM      4  C   UNL     1      -3.947  -7.782 -42.011  1.00  0.00     0.000 C 
BRANCH   4   5
ATOM      5  C   UNL     1      -2.569  -8.466 -42.047  1.00  0.00     0.000 C 
BRANCH   5   6
ATOM      6  C   UNL     1      -1.972  -8.647 -40.635  1.00  0.00     0.000 C 
BRANCH   6   7
ATOM      7  C   UNL     1      -0.574  -9.286 -40.635  1.00  0.00     0.006 C 
BRANCH   7   8
ATOM      8  C   UNL     1      -0.200  -9.903 -41.987  1.00  0.00     0.053 C 
BRANCH   8   9
ATOM      9  C   UNL     1       1.202  -9.536 -42.358  1.00  0.00     0.041 C 
ATOM     10  O   UNL     1       2.172  -9.983 -41.693  1.00  0.00    -0.550 OA
ATOM     11  O   UNL     1       1.439  -8.739 -43.472  1.00  0.00    -0.550 OA
ENDBRANCH   8   9
ENDBRANCH   7   8
ENDBRANCH   6   7
ENDBRANCH   5   6
ENDBRANCH   4   5
ENDBRANCH   3   4
ENDBRANCH   2   3
ENDBRANCH   1   2
BRANCH   1  12
ATOM     12  C   UNL     1      -4.795  -7.797 -46.788  1.00  0.00     0.000 C 
BRANCH  12  13
ATOM     13  C   UNL     1      -5.329  -9.224 -46.617  1.00  0.00    -0.000 C 
BRANCH  13  14
ATOM     14  C   UNL     1      -6.865  -9.238 -46.593  1.00  0.00    -0.000 C 
BRANCH  14  15
ATOM     15  C   UNL     1      -7.440  -9.851 -45.303  1.00  0.00    -0.000 C 
BRANCH  15  16
ATOM     16  C   UNL     1      -6.466 -10.742 -44.510  1.00  0.00    -0.000 C 
BRANCH  16  17
ATOM     17  C   UNL     1      -6.602 -10.573 -42.987  1.00  0.00    -0.000 C 
BRANCH  17  18
ATOM     18  C   UNL     1      -5.492 -11.301 -42.212  1.00  0.00    -0.000 C 
BRANCH  18  19
ATOM     19  C   UNL     1      -4.358 -11.792 -43.124  1.00  0.00    -0.003 C 
ATOM     20  C   UNL     1      -3.121 -12.161 -42.310  1.00  0.00     0.004 C 
ENDBRANCH  18  19
ENDBRANCH  17  18
ENDBRANCH  16  17
ENDBRANCH  15  16
ENDBRANCH  14  15
ENDBRANCH  13  14
ENDBRANCH  12  13
ENDBRANCH   1  12
TORSDOF 16
ENDMDL
MODEL 4
REMARK VINA RESULT:    -3.844      3.401      7.188
REMARK INTER + INTRA:          -9.416
REMARK INTER:                  -7.331
REMARK INTRA:                  -2.085
REMARK UNBOUND:                -1.977
REMARK SMILES CCCCCCCCCCCCCCCCCC(=O)[O-]
REMARK SMILES IDX 10 1 11 2 12 3 13 4 14 5 15 6 16 7 17 8 18 9 19 10 20 11
REMARK SMILES IDX 9 12 8 13 7 14 6 15 5 16 4 17 3 18 2 19 1 20
REMARK H PARENT
REMARK Flexibility Score: inf
ROOT
ATOM      1  C   UNL     1      -2.506  -8.392 -42.001  1.00  0.00     0.000 C 
ENDROOT
BRANCH   1   2
ATOM      2  C   UNL     1      -3.807  -8.055 -42.747  1.00  0.00     0.000 C 
BRANCH   2   3
ATOM      3  C   UNL     1      -3.736  -8.402 -44.244  1.00  0.00     0.000 C 
BRANCH   3   4
ATOM      4  C   UNL     1      -4.205  -7.245 -45.140  1.00  0.00     0.000 C 
BRANCH   4   5
ATOM      5  C   UNL     1      -3.233  -6.961 -46.299  1.00  0.00     0.000 C 
BRANCH   5   6
ATOM      6  C   UNL     1      -3.858  -7.282 -47.674  1.00  0.00     0.000 C 
BRANCH   6   7
ATOM      7  C   UNL     1      -3.876  -8.782 -48.007  1.00  0.00     0.006 C 
BRANCH   7   8
ATOM      8  C   UNL     1      -5.216  -9.249 -48.587  1.00  0.00     0.053 C 
BRANCH   8   9
ATOM      9  C   UNL     1      -6.228  -9.415 -47.498  1.00  0.00     0.041 C 
ATOM     10  O   UNL     1      -5.925 -10.025 -46.440  1.00  0.00    -0.550 OA
ATOM     11  O   UNL     1      -7.491  -8.851 -47.632  1.00  0.00    -0.550 OA
ENDBRANCH   8   9
ENDBRANCH   7   8
ENDBRANCH   6   7
ENDBRANCH   5   6
ENDBRANCH   4   5
ENDBRANCH   3   4
ENDBRANCH   2   3
ENDBRANCH   1   2
BRANCH   1  12
ATOM     12  C   UNL     1      -2.659  -8.303 -40.475  1.00  0.00     0.000 C 
BRANCH  12  13
ATOM     13  C   UNL     1      -1.306  -8.473 -39.775  1.00  0.00    -0.000 C 
BRANCH  13  14
ATOM     14  C   UNL     1      -1.012  -9.955 -39.498  1.00  0.00    -0.000 C 
BRANCH  14  15
ATOM     15  C   UNL     1       0.092 -10.529 -40.404  1.00  0.00    -0.000 C 
BRANCH  15  16
ATOM     16  C   UNL     1      -0.402 -11.443 -41.541  1.00  0.00    -0.000 C 
BRANCH  16  17
ATOM     17  C   UNL     1      -1.777 -12.071 -41.251  1.00  0.00    -0.000 C 
BRANCH  17  18
ATOM     18  C   UNL     1      -2.728 -11.985 -42.456  1.00  0.00    -0.000 C 
BRANCH  18  19
ATOM     19  C   UNL     1      -4.188 -11.752 -42.042  1.00  0.00    -0.003 C 
ATOM     20  C   UNL     1      -5.104 -11.713 -43.262  1.00  0.00     0.004 C 
ENDBRANCH  18  19
ENDBRANCH  17  18
ENDBRANCH  16  17
ENDBRANCH  15  16
ENDBRANCH  14  15
ENDBRANCH  13  14
ENDBRANCH  12  13
ENDBRANCH   1  12
TORSDOF 16
ENDMDL
MODEL 5
REMARK VINA RESULT:    -3.831      5.347      7.353
REMARK INTER + INTRA:          -9.391
REMARK INTER:                  -7.377
REMARK INTRA:                  -2.013
REMARK UNBOUND:                -1.977
REMARK SMILES CCCCCCCCCCCCCCCCCC(=O)[O-]
REMARK SMILES IDX 10 1 11 2 12 3 13 4 14 5 15 6 16 7 17 8 18 9 19 10 20 11
REMARK SMILES IDX 9 12 8 13 7 14 6 15 5 16 4 17 3 18 2 19 1 20
REMARK H PARENT
REMARK Flexibility Score: inf
ROOT
ATOM      1  C   UNL     1      -1.287  -9.583 -38.892  1.00  0.00     0.000 C 
ENDROOT
BRANCH   1   2
ATOM      2  C   UNL     1      -1.382  -8.099 -39.285  1.00  0.00     0.000 C 
BRANCH   2   3
ATOM      3  C   UNL     1      -0.935  -7.159 -38.152  1.00  0.00     0.000 C 
BRANCH   3   4
ATOM      4  C   UNL     1      -0.324  -7.916 -36.963  1.00  0.00     0.000 C 
BRANCH   4   5
ATOM      5  C   UNL     1      -1.194  -7.835 -35.697  1.00  0.00     0.000 C 
BRANCH   5   6
ATOM      6  C   UNL     1      -1.415  -9.220 -35.052  1.00  0.00     0.000 C 
BRANCH   6   7
ATOM      7  C   UNL     1      -0.274 -10.214 -35.324  1.00  0.00     0.006 C 
BRANCH   7   8
ATOM      8  C   UNL     1      -0.454 -11.545 -34.588  1.00  0.00     0.053 C 
BRANCH   8   9
ATOM      9  C   UNL     1      -1.365 -11.374 -33.413  1.00  0.00     0.041 C 
ATOM     10  O   UNL     1      -0.901 -11.019 -32.299  1.00  0.00    -0.550 OA
ATOM     11  O   UNL     1      -2.734 -11.557 -33.564  1.00  0.00    -0.550 OA
ENDBRANCH   8   9
ENDBRANCH   7   8
ENDBRANCH   6   7
ENDBRANCH   5   6
ENDBRANCH   4   5
ENDBRANCH   3   4
ENDBRANCH   2   3
ENDBRANCH   1   2
BRANCH   1  12
ATOM     12  C   UNL     1      -0.437 -10.401 -39.876  1.00  0.00     0.000 C 
BRANCH  12  13
ATOM     13  C   UNL     1       0.027  -9.536 -41.054  1.00  0.00    -0.000 C 
BRANCH  13  14
ATOM     14  C   UNL     1      -0.713  -9.920 -42.344  1.00  0.00    -0.000 C 
BRANCH  14  15
ATOM     15  C   UNL     1      -1.780  -8.888 -42.754  1.00  0.00    -0.000 C 
BRANCH  15  16
ATOM     16  C   UNL     1      -3.198  -9.455 -42.952  1.00  0.00    -0.000 C 
BRANCH  16  17
ATOM     17  C   UNL     1      -3.331 -10.914 -42.482  1.00  0.00    -0.000 C 
BRANCH  17  18
ATOM     18  C   UNL     1      -4.038 -11.032 -41.122  1.00  0.00    -0.000 C 
BRANCH  18  19
ATOM     19  C   UNL     1      -3.672 -12.321 -40.373  1.00  0.00    -0.003 C 
ATOM     20  C   UNL     1      -2.700 -13.171 -41.186  1.00  0.00     0.004 C 
ENDBRANCH  18  19
ENDBRANCH  17  18
ENDBRANCH  16  17
ENDBRANCH  15  16
ENDBRANCH  14  15
ENDBRANCH  13  14
ENDBRANCH  12  13
ENDBRANCH   1  12
TORSDOF 16
ENDMDL
MODEL 6
REMARK VINA RESULT:    -3.785      2.066      3.573
REMARK INTER + INTRA:          -9.303
REMARK INTER:                  -6.770
REMARK INTRA:                  -2.533
REMARK UNBOUND:                -1.977
REMARK SMILES CCCCCCCCCCCCCCCCCC(=O)[O-]
REMARK SMILES IDX 10 1 11 2 12 3 13 4 14 5 15 6 16 7 17 8 18 9 19 10 20 11
REMARK SMILES IDX 9 12 8 13 7 14 6 15 5 16 4 17 3 18 2 19 1 20
REMARK H PARENT
REMARK Flexibility Score: inf
ROOT
ATOM      1  C   UNL     1      -2.450  -8.583 -42.024  1.00  0.00     0.000 C 
ENDROOT
BRANCH   1   2
ATOM      2  C   UNL     1      -2.300  -8.446 -40.501  1.00  0.00     0.000 C 
BRANCH   2   3
ATOM      3  C   UNL     1      -0.844  -8.617 -40.033  1.00  0.00     0.000 C 
BRANCH   3   4
ATOM      4  C   UNL     1      -0.662  -9.823 -39.099  1.00  0.00     0.000 C 
BRANCH   4   5
ATOM      5  C   UNL     1      -1.337 -11.096 -39.637  1.00  0.00     0.000 C 
BRANCH   5   6
ATOM      6  C   UNL     1      -0.405 -11.898 -40.571  1.00  0.00     0.000 C 
BRANCH   6   7
ATOM      7  C   UNL     1      -0.476 -11.453 -42.041  1.00  0.00     0.006 C 
BRANCH   7   8
ATOM      8  C   UNL     1       0.884 -11.498 -42.745  1.00  0.00     0.053 C 
BRANCH   8   9
ATOM      9  C   UNL     1       1.667 -10.257 -42.448  1.00  0.00     0.041 C 
ATOM     10  O   UNL     1       2.767 -10.332 -41.843  1.00  0.00    -0.550 OA
ATOM     11  O   UNL     1       1.203  -9.023 -42.886  1.00  0.00    -0.550 OA
ENDBRANCH   8   9
ENDBRANCH   7   8
ENDBRANCH   6   7
ENDBRANCH   5   6
ENDBRANCH   4   5
ENDBRANCH   3   4
ENDBRANCH   2   3
ENDBRANCH   1   2
BRANCH   1  12
ATOM     12  C   UNL     1      -3.766  -7.985 -42.544  1.00  0.00     0.000 C 
BRANCH  12  13
ATOM     13  C   UNL     1      -3.806  -7.994 -44.077  1.00  0.00    -0.000 C 
BRANCH  13  14
ATOM     14  C   UNL     1      -5.244  -8.171 -44.590  1.00  0.00    -0.000 C 
BRANCH  14  15
ATOM     15  C   UNL     1      -5.603  -9.641 -44.874  1.00  0.00    -0.000 C 
BRANCH  15  16
ATOM     16  C   UNL     1      -6.530 -10.302 -43.836  1.00  0.00    -0.000 C 
BRANCH  16  17
ATOM     17  C   UNL     1      -6.003 -11.660 -43.340  1.00  0.00    -0.000 C 
BRANCH  17  18
ATOM     18  C   UNL     1      -4.508 -11.616 -42.983  1.00  0.00    -0.000 C 
BRANCH  18  19
ATOM     19  C   UNL     1      -4.231 -12.063 -41.540  1.00  0.00    -0.003 C 
ATOM     20  C   UNL     1      -4.918 -11.140 -40.538  1.00  0.00     0.004 C 
ENDBRANCH  18  19
ENDBRANCH  17  18
ENDBRANCH  16  17
ENDBRANCH  15  16
ENDBRANCH  14  15
ENDBRANCH  13  14
ENDBRANCH  12  13
ENDBRANCH   1  12
TORSDOF 16
ENDMDL
MODEL 7
REMARK VINA RESULT:    -3.725      4.737      6.785
REMARK INTER + INTRA:          -9.187
REMARK INTER:                  -7.084
REMARK INTRA:                  -2.103
REMARK UNBOUND:                -1.977
REMARK SMILES CCCCCCCCCCCCCCCCCC(=O)[O-]
REMARK SMILES IDX 10 1 11 2 12 3 13 4 14 5 15 6 16 7 17 8 18 9 19 10 20 11
REMARK SMILES IDX 9 12 8 13 7 14 6 15 5 16 4 17 3 18 2 19 1 20
REMARK H PARENT
REMARK Flexibility Score: inf
ROOT
ATOM      1  C   UNL     1      -1.873 -10.411 -38.938  1.00  0.00     0.000 C 
ENDROOT
BRANCH   1   2
ATOM      2  C   UNL     1      -0.703  -9.418 -38.861  1.00  0.00     0.000 C 
BRANCH   2   3
ATOM      3  C   UNL     1      -1.160  -7.954 -38.997  1.00  0.00     0.000 C 
BRANCH   3   4
ATOM      4  C   UNL     1      -0.689  -7.079 -37.825  1.00  0.00     0.000 C 
BRANCH   4   5
ATOM      5  C   UNL     1      -0.305  -7.905 -36.585  1.00  0.00     0.000 C 
BRANCH   5   6
ATOM      6  C   UNL     1      -1.459  -7.993 -35.563  1.00  0.00     0.000 C 
BRANCH   6   7
ATOM      7  C   UNL     1      -1.517  -9.333 -34.813  1.00  0.00     0.006 C 
BRANCH   7   8
ATOM      8  C   UNL     1      -0.396 -10.294 -35.221  1.00  0.00     0.053 C 
BRANCH   8   9
ATOM      9  C   UNL     1      -0.275 -11.408 -34.229  1.00  0.00     0.041 C 
ATOM     10  O   UNL     1       0.384 -12.441 -34.513  1.00  0.00    -0.550 OA
ATOM     11  O   UNL     1      -0.850 -11.281 -32.970  1.00  0.00    -0.550 OA
ENDBRANCH   8   9
ENDBRANCH   7   8
ENDBRANCH   6   7
ENDBRANCH   5   6
ENDBRANCH   4   5
ENDBRANCH   3   4
ENDBRANCH   2   3
ENDBRANCH   1   2
BRANCH   1  12
ATOM     12  C   UNL     1      -1.667 -11.486 -40.016  1.00  0.00     0.000 C 
BRANCH  12  13
ATOM     13  C   UNL     1      -2.445 -11.142 -41.291  1.00  0.00    -0.000 C 
BRANCH  13  14
ATOM     14  C   UNL     1      -1.524 -10.511 -42.345  1.00  0.00    -0.000 C 
BRANCH  14  15
ATOM     15  C   UNL     1      -1.813  -9.017 -42.580  1.00  0.00    -0.000 C 
BRANCH  15  16
ATOM     16  C   UNL     1      -3.137  -8.504 -41.983  1.00  0.00    -0.000 C 
BRANCH  16  17
ATOM     17  C   UNL     1      -4.123  -8.002 -43.052  1.00  0.00    -0.000 C 
BRANCH  17  18
ATOM     18  C   UNL     1      -5.430  -8.812 -43.072  1.00  0.00    -0.000 C 
BRANCH  18  19
ATOM     19  C   UNL     1      -5.446  -9.883 -44.172  1.00  0.00    -0.003 C 
ATOM     20  C   UNL     1      -5.380 -11.285 -43.574  1.00  0.00     0.004 C 
ENDBRANCH  18  19
ENDBRANCH  17  18
ENDBRANCH  16  17
ENDBRANCH  15  16
ENDBRANCH  14  15
ENDBRANCH  13  14
ENDBRANCH  12  13
ENDBRANCH   1  12
TORSDOF 16
ENDMDL
MODEL 8
REMARK VINA RESULT:    -3.724      2.552      3.830
REMARK INTER + INTRA:          -9.184
REMARK INTER:                  -6.466
REMARK INTRA:                  -2.718
REMARK UNBOUND:                -1.977
REMARK SMILES CCCCCCCCCCCCCCCCCC(=O)[O-]
REMARK SMILES IDX 10 1 11 2 12 3 13 4 14 5 15 6 16 7 17 8 18 9 19 10 20 11
REMARK SMILES IDX 9 12 8 13 7 14 6 15 5 16 4 17 3 18 2 19 1 20
REMARK H PARENT
REMARK Flexibility Score: inf
ROOT
ATOM      1  C   UNL     1      -4.743  -8.061 -41.780  1.00  0.00     0.000 C 
ENDROOT
BRANCH   1   2
ATOM      2  C   UNL     1      -3.208  -7.984 -41.734  1.00  0.00     0.000 C 
BRANCH   2   3
ATOM      3  C   UNL     1      -2.541  -8.841 -42.824  1.00  0.00     0.000 C 
BRANCH   3   4
ATOM      4  C   UNL     1      -1.634  -9.935 -42.241  1.00  0.00     0.000 C 
BRANCH   4   5
ATOM      5  C   UNL     1      -1.363  -9.743 -40.738  1.00  0.00     0.000 C 
BRANCH   5   6
ATOM      6  C   UNL     1       0.077 -10.141 -40.351  1.00  0.00     0.000 C 
BRANCH   6   7
ATOM      7  C   UNL     1       0.772 -11.030 -41.395  1.00  0.00     0.006 C 
BRANCH   7   8
ATOM      8  C   UNL     1       2.046 -10.398 -41.963  1.00  0.00     0.053 C 
BRANCH   8   9
ATOM      9  C   UNL     1       1.826  -9.957 -43.376  1.00  0.00     0.041 C 
ATOM     10  O   UNL     1       2.051 -10.748 -44.329  1.00  0.00    -0.550 OA
ATOM     11  O   UNL     1       1.323  -8.688 -43.637  1.00  0.00    -0.550 OA
ENDBRANCH   8   9
ENDBRANCH   7   8
ENDBRANCH   6   7
ENDBRANCH   5   6
ENDBRANCH   4   5
ENDBRANCH   3   4
ENDBRANCH   2   3
ENDBRANCH   1   2
BRANCH   1  12
ATOM     12  C   UNL     1      -5.295  -7.996 -43.212  1.00  0.00     0.000 C 
BRANCH  12  13
ATOM     13  C   UNL     1      -6.316  -9.113 -43.458  1.00  0.00    -0.000 C 
BRANCH  13  14
ATOM     14  C   UNL     1      -5.709 -10.237 -44.311  1.00  0.00    -0.000 C 
BRANCH  14  15
ATOM     15  C   UNL     1      -5.210 -11.427 -43.470  1.00  0.00    -0.000 C 
BRANCH  15  16
ATOM     16  C   UNL     1      -6.301 -12.177 -42.684  1.00  0.00    -0.000 C 
BRANCH  16  17
ATOM     17  C   UNL     1      -5.956 -12.348 -41.194  1.00  0.00    -0.000 C 
BRANCH  17  18
ATOM     18  C   UNL     1      -4.678 -11.592 -40.796  1.00  0.00    -0.000 C 
BRANCH  18  19
ATOM     19  C   UNL     1      -3.640 -12.499 -40.120  1.00  0.00    -0.003 C 
ATOM     20  C   UNL     1      -2.825 -13.267 -41.156  1.00  0.00     0.004 C 
ENDBRANCH  18  19
ENDBRANCH  17  18
ENDBRANCH  16  17
ENDBRANCH  15  16
ENDBRANCH  14  15
ENDBRANCH  13  14
ENDBRANCH  12  13
ENDBRANCH   1  12
TORSDOF 16
ENDMDL
MODEL 9
REMARK VINA RESULT:    -3.705      3.792      7.237
REMARK INTER + INTRA:          -9.147
REMARK INTER:                  -6.026
REMARK INTRA:                  -3.122
REMARK UNBOUND:                -1.977
REMARK SMILES CCCCCCCCCCCCCCCCCC(=O)[O-]
REMARK SMILES IDX 10 1 11 2 12 3 13 4 14 5 15 6 16 7 17 8 18 9 19 10 20 11
REMARK SMILES IDX 9 12 8 13 7 14 6 15 5 16 4 17 3 18 2 19 1 20
REMARK H PARENT
REMARK Flexibility Score: inf
ROOT
ATOM      1  C   UNL     1      -1.089  -9.227 -40.705  1.00  0.00     0.000 C 
ENDROOT
BRANCH   1   2
ATOM      2  C   UNL     1      -2.317  -8.385 -40.323  1.00  0.00     0.000 C 
BRANCH   2   3
ATOM      3  C   UNL     1      -3.186  -8.022 -41.541  1.00  0.00     0.000 C 
BRANCH   3   4
ATOM      4  C   UNL     1      -2.659  -8.640 -42.845  1.00  0.00     0.000 C 
BRANCH   4   5
ATOM      5  C   UNL     1      -3.736  -8.717 -43.942  1.00  0.00     0.000 C 
BRANCH   5   6
ATOM      6  C   UNL     1      -5.150  -8.440 -43.388  1.00  0.00     0.000 C 
BRANCH   6   7
ATOM      7  C   UNL     1      -6.279  -8.950 -44.300  1.00  0.00     0.006 C 
BRANCH   7   8
ATOM      8  C   UNL     1      -5.963 -10.306 -44.939  1.00  0.00     0.053 C 
BRANCH   8   9
ATOM      9  C   UNL     1      -6.336 -10.301 -46.388  1.00  0.00     0.041 C 
ATOM     10  O   UNL     1      -7.387 -10.877 -46.773  1.00  0.00    -0.550 OA
ATOM     11  O   UNL     1      -5.549  -9.617 -47.305  1.00  0.00    -0.550 OA
ENDBRANCH   8   9
ENDBRANCH   7   8
ENDBRANCH   6   7
ENDBRANCH   5   6
ENDBRANCH   4   5
ENDBRANCH   3   4
ENDBRANCH   2   3
ENDBRANCH   1   2
BRANCH   1  12
ATOM     12  C   UNL     1      -0.675 -10.204 -39.594  1.00  0.00     0.000 C 
BRANCH  12  13
ATOM     13  C   UNL     1      -1.848 -10.494 -38.650  1.00  0.00    -0.000 C 
BRANCH  13  14
ATOM     14  C   UNL     1      -2.094 -12.005 -38.525  1.00  0.00    -0.000 C 
BRANCH  14  15
ATOM     15  C   UNL     1      -1.505 -12.809 -39.698  1.00  0.00    -0.000 C 
BRANCH  15  16
ATOM     16  C   UNL     1      -2.534 -13.326 -40.721  1.00  0.00    -0.000 C 
BRANCH  16  17
ATOM     17  C   UNL     1      -2.654 -12.421 -41.960  1.00  0.00    -0.000 C 
BRANCH  17  18
ATOM     18  C   UNL     1      -4.082 -11.888 -42.162  1.00  0.00    -0.000 C 
BRANCH  18  19
ATOM     19  C   UNL     1      -4.960 -12.057 -40.913  1.00  0.00    -0.003 C 
ATOM     20  C   UNL     1      -5.315 -10.704 -40.305  1.00  0.00     0.004 C 
ENDBRANCH  18  19
ENDBRANCH  17  18
ENDBRANCH  16  17
ENDBRANCH  15  16
ENDBRANCH  14  15
ENDBRANCH  13  14
ENDBRANCH  12  13
ENDBRANCH   1  12
TORSDOF 16
ENDMDL
