MODEL 1
REMARK VINA RESULT:    -7.146      0.000      0.000
REMARK INTER + INTRA:         -16.857
REMARK INTER:                 -15.083
REMARK INTRA:                  -1.774
REMARK UNBOUND:                -1.774
REMARK SMILES CCC(=O)CCCCC[C@H]1NC(=O)[C@H]2CCCCN2C(=O)[C@@H]([C@@H](C)CC)NC(=O)[C@@H](Cc2cn(OC)c3ccccc23)NC1=O
REMARK SMILES IDX 9 1 10 2 44 3 43 4 45 6 30 7 28 8 27 9 29 11 22 12 23 14
REMARK SMILES IDX 24 15 25 16 26 17 31 18 32 19 33 20 42 21 34 22 37 23 41 24
REMARK SMILES IDX 38 25 40 26 39 27 35 28 36 29 11 30 12 31 13 33 14 34 19 35
REMARK SMILES IDX 15 36 18 37 16 38 17 39 20 40 21 41 8 43 7 44 6 45 5 46 3 47
REMARK SMILES IDX 4 48 2 49 1 50
REMARK H PARENT 43 5 27 10 11 32
REMARK Flexibility Score: 80.00
ROOT
ATOM      1  C   UNL     1      86.030  59.051  11.817  1.00  0.00     0.035 C 
ENDROOT
BRANCH   1   2
ATOM      2  C   UNL     1      85.866  58.887  10.288  1.00  0.00     0.171 C 
BRANCH   2   3
ATOM      3  C   UNL     1      84.616  58.117   9.920  1.00  0.00     0.243 C 
ATOM      4  N   UNL     1      84.382  56.786  10.399  1.00  0.00    -0.342 N 
ATOM      5  H   UNL     1      84.920  56.431  11.221  1.00  0.00     0.164 HD
ATOM      6  O   UNL     1      83.764  58.681   9.187  1.00  0.00    -0.273 OA
BRANCH   4   7
ATOM      7  C   UNL     1      83.714  55.804   9.538  1.00  0.00     0.175 C 
BRANCH   7   8
ATOM      8  C   UNL     1      84.757  54.941   8.887  1.00  0.00     0.243 C 
ATOM      9  N   UNL     1      86.147  55.090   9.223  1.00  0.00    -0.342 N 
ATOM     10  H   UNL     1      86.395  55.579  10.116  1.00  0.00     0.164 HD
ATOM     11  O   UNL     1      84.398  54.067   8.056  1.00  0.00    -0.273 OA
BRANCH   9  12
ATOM     12  C   UNL     1      87.239  54.683   8.327  1.00  0.00     0.174 CG0
ATOM     13  G   UNL     1      87.825  55.920   7.679  1.00  0.00     0.000 G0
BRANCH  12  14
ATOM     14  C   UNL     1      88.243  53.757   9.087  1.00  0.00     0.018 C 
ATOM     15  C   UNL     1      87.875  53.564  10.575  1.00  0.00     0.010 C 
BRANCH  14  16
ATOM     16  C   UNL     1      88.602  52.433   8.351  1.00  0.00     0.002 C 
ATOM     17  C   UNL     1      89.342  51.371   9.182  1.00  0.00     0.004 C 
ENDBRANCH  14  16
ENDBRANCH  12  14
ENDBRANCH   9  12
ENDBRANCH   7   8
BRANCH   7  18
ATOM     18  C   UNL     1      82.726  54.951  10.354  1.00  0.00     0.073 C 
BRANCH  18  19
ATOM     19  C   UNL     1      81.420  54.799   9.631  1.00  0.00    -0.016 A 
ATOM     20  C   UNL     1      80.991  53.682   8.922  1.00  0.00     0.134 A 
ATOM     21  C   UNL     1      80.326  55.645   9.704  1.00  0.00     0.006 A 
ATOM     22  N   UNL     1      79.700  53.839   8.549  1.00  0.00    -0.191 N 
ATOM     23  C   UNL     1      79.296  55.034   9.026  1.00  0.00     0.087 A 
ATOM     24  C   UNL     1      80.159  56.873  10.344  1.00  0.00     0.011 A 
ATOM     25  C   UNL     1      78.025  55.601   8.970  1.00  0.00     0.030 A 
ATOM     26  C   UNL     1      78.890  57.477  10.288  1.00  0.00     0.001 A 
ATOM     27  C   UNL     1      77.826  56.847   9.612  1.00  0.00     0.002 A 
BRANCH  22  28
ATOM     28  O   UNL     1      78.897  52.923   7.889  1.00  0.00    -0.417 OA
ATOM     29  C   UNL     1      79.293  51.566   7.694  1.00  0.00     0.313 C 
ENDBRANCH  22  28
ENDBRANCH  18  19
ENDBRANCH   7  18
ENDBRANCH   4   7
ENDBRANCH   2   3
BRANCH   2  30
ATOM     30  N   UNL     1      87.070  58.316   9.669  1.00  0.00    -0.343 N 
ATOM     31  C   UNL     1      87.535  58.784   8.383  1.00  0.00     0.243 C 
ATOM     32  H   UNL     1      87.772  57.828  10.269  1.00  0.00     0.164 HD
ATOM     33  O   UNL     1      88.477  59.630   8.352  1.00  0.00    -0.273 OA
BRANCH  31  34
ATOM     34  C   UNL     1      86.884  58.294   7.101  1.00  0.00     0.174 C 
ATOM     35  N   UNL     1      87.004  56.830   6.877  1.00  0.00    -0.329 N 
ATOM     36  C   UNL     1      87.416  59.051   5.858  1.00  0.00     0.035 C 
ATOM     37  C   UNL     1      86.361  56.252   5.677  1.00  0.00     0.120 C 
ATOM     38  C   UNL     1      87.057  58.372   4.524  1.00  0.00     0.004 C 
ATOM     39  C   UNL     1      85.942  57.328   4.665  1.00  0.00     0.022 C 
BRANCH  35  40
ATOM     40  C   UNL     1      87.818  55.957   7.692  1.00  0.00     0.246 CG0
ATOM     41  O   UNL     1      88.988  56.313   7.998  1.00  0.00    -0.272 OA
ATOM     42  G   UNL     1      87.241  54.699   8.308  1.00  0.00     0.000 G0
ENDBRANCH  35  40
ENDBRANCH  31  34
ENDBRANCH   2  30
ENDBRANCH   1   2
BRANCH   1  43
ATOM     43  C   UNL     1      84.820  59.717  12.508  1.00  0.00     0.003 C 
BRANCH  43  44
ATOM     44  C   UNL     1      85.235  60.717  13.600  1.00  0.00     0.001 C 
BRANCH  44  45
ATOM     45  C   UNL     1      84.455  60.609  14.923  1.00  0.00     0.008 C 
BRANCH  45  46
ATOM     46  C   UNL     1      85.337  60.894  16.156  1.00  0.00     0.075 C 
BRANCH  46  47
ATOM     47  C   UNL     1      84.888  62.106  16.942  1.00  0.00     0.132 C 
ATOM     48  O   UNL     1      84.829  63.200  16.403  1.00  0.00    -0.300 OA
BRANCH  47  49
ATOM     49  C   UNL     1      84.426  61.953  18.373  1.00  0.00     0.072 C 
ATOM     50  C   UNL     1      84.844  60.590  18.925  1.00  0.00     0.012 C 
ENDBRANCH  47  49
ENDBRANCH  46  47
ENDBRANCH  45  46
ENDBRANCH  44  45
ENDBRANCH  43  44
ENDBRANCH   1  43
TORSDOF 12
ENDMDL
MODEL 2
REMARK VINA RESULT:    -7.098      2.890      7.896
REMARK INTER + INTRA:         -16.756
REMARK INTER:                 -14.508
REMARK INTRA:                  -2.247
REMARK UNBOUND:                -1.774
REMARK SMILES CCC(=O)CCCCC[C@H]1NC(=O)[C@H]2CCCCN2C(=O)[C@@H]([C@@H](C)CC)NC(=O)[C@@H](Cc2cn(OC)c3ccccc23)NC1=O
REMARK SMILES IDX 9 1 10 2 44 3 43 4 45 6 30 7 28 8 27 9 29 11 22 12 23 14
REMARK SMILES IDX 24 15 25 16 26 17 31 18 32 19 33 20 42 21 34 22 37 23 41 24
REMARK SMILES IDX 38 25 40 26 39 27 35 28 36 29 11 30 12 31 13 33 14 34 19 35
REMARK SMILES IDX 15 36 18 37 16 38 17 39 20 40 21 41 8 43 7 44 6 45 5 46 3 47
REMARK SMILES IDX 4 48 2 49 1 50
REMARK H PARENT 43 5 27 10 11 32
REMARK Flexibility Score: 80.00
ROOT
ATOM      1  C   UNL     1      80.395  54.069   7.505  1.00  0.00     0.035 C 
ENDROOT
BRANCH   1   2
ATOM      2  C   UNL     1      81.277  53.738   8.731  1.00  0.00     0.171 C 
BRANCH   2   3
ATOM      3  C   UNL     1      82.196  54.879   9.108  1.00  0.00     0.243 C 
ATOM      4  N   UNL     1      83.373  55.183   8.347  1.00  0.00    -0.342 N 
ATOM      5  H   UNL     1      83.469  54.812   7.375  1.00  0.00     0.164 HD
ATOM      6  O   UNL     1      81.897  55.579  10.109  1.00  0.00    -0.273 OA
BRANCH   4   7
ATOM      7  C   UNL     1      84.584  55.655   9.026  1.00  0.00     0.175 C 
BRANCH   7   8
ATOM      8  C   UNL     1      85.518  54.493   9.215  1.00  0.00     0.243 C 
ATOM      9  N   UNL     1      85.135  53.170   8.803  1.00  0.00    -0.342 N 
ATOM     10  H   UNL     1      84.349  53.068   8.118  1.00  0.00     0.164 HD
ATOM     11  O   UNL     1      86.652  54.694   9.720  1.00  0.00    -0.273 OA
BRANCH   9  12
ATOM     12  C   UNL     1      85.721  51.949   9.375  1.00  0.00     0.174 CG0
ATOM     13  G   UNL     1      84.605  50.976   9.694  1.00  0.00     0.000 G0
BRANCH  12  14
ATOM     14  C   UNL     1      86.863  51.415   8.451  1.00  0.00     0.018 C 
ATOM     15  C   UNL     1      87.172  52.361   7.269  1.00  0.00     0.010 C 
BRANCH  14  16
ATOM     16  C   UNL     1      88.131  50.909   9.199  1.00  0.00     0.002 C 
ATOM     17  C   UNL     1      88.908  51.960  10.011  1.00  0.00     0.004 C 
ENDBRANCH  14  16
ENDBRANCH  12  14
ENDBRANCH   9  12
ENDBRANCH   7   8
BRANCH   7  18
ATOM     18  C   UNL     1      85.259  56.776   8.215  1.00  0.00     0.073 C 
BRANCH  18  19
ATOM     19  C   UNL     1      85.093  58.106   8.892  1.00  0.00    -0.016 A 
ATOM     20  C   UNL     1      84.819  58.321  10.238  1.00  0.00     0.134 A 
ATOM     21  C   UNL     1      85.382  59.351   8.359  1.00  0.00     0.006 A 
ATOM     22  N   UNL     1      84.907  59.641  10.521  1.00  0.00    -0.191 N 
ATOM     23  C   UNL     1      85.250  60.267   9.378  1.00  0.00     0.087 A 
ATOM     24  C   UNL     1      85.784  59.728   7.077  1.00  0.00     0.011 A 
ATOM     25  C   UNL     1      85.539  61.616   9.185  1.00  0.00     0.030 A 
ATOM     26  C   UNL     1      86.065  61.087   6.849  1.00  0.00     0.001 A 
ATOM     27  C   UNL     1      85.951  62.027   7.893  1.00  0.00     0.002 A 
BRANCH  22  28
ATOM     28  O   UNL     1      84.771  60.247  11.760  1.00  0.00    -0.417 OA
ATOM     29  C   UNL     1      85.222  59.626  12.964  1.00  0.00     0.313 C 
ENDBRANCH  22  28
ENDBRANCH  18  19
ENDBRANCH   7  18
ENDBRANCH   4   7
ENDBRANCH   2   3
BRANCH   2  30
ATOM     30  N   UNL     1      82.008  52.475   8.550  1.00  0.00    -0.343 N 
ATOM     31  C   UNL     1      81.706  51.321   9.366  1.00  0.00     0.243 C 
ATOM     32  H   UNL     1      82.497  52.292   7.646  1.00  0.00     0.164 HD
ATOM     33  O   UNL     1      80.953  50.423   8.888  1.00  0.00    -0.273 OA
BRANCH  31  34
ATOM     34  C   UNL     1      82.256  51.208  10.778  1.00  0.00     0.174 C 
ATOM     35  N   UNL     1      83.737  51.118  10.851  1.00  0.00    -0.329 N 
ATOM     36  C   UNL     1      81.629  50.018  11.548  1.00  0.00     0.035 C 
ATOM     37  C   UNL     1      84.369  51.051  12.186  1.00  0.00     0.120 C 
ATOM     38  C   UNL     1      82.387  49.650  12.835  1.00  0.00     0.004 C 
ATOM     39  C   UNL     1      83.352  50.750  13.297  1.00  0.00     0.022 C 
BRANCH  35  40
ATOM     40  C   UNL     1      84.590  50.964   9.694  1.00  0.00     0.246 CG0
ATOM     41  O   UNL     1      84.322  50.071   8.846  1.00  0.00    -0.272 OA
ATOM     42  G   UNL     1      85.704  51.949   9.406  1.00  0.00     0.000 G0
ENDBRANCH  35  40
ENDBRANCH  31  34
ENDBRANCH   2  30
ENDBRANCH   1   2
BRANCH   1  43
ATOM     43  C   UNL     1      78.884  54.126   7.819  1.00  0.00     0.003 C 
BRANCH  43  44
ATOM     44  C   UNL     1      78.211  55.397   7.277  1.00  0.00     0.001 C 
BRANCH  44  45
ATOM     45  C   UNL     1      77.921  56.487   8.325  1.00  0.00     0.008 C 
BRANCH  45  46
ATOM     46  C   UNL     1      78.128  55.989   9.770  1.00  0.00     0.075 C 
BRANCH  46  47
ATOM     47  C   UNL     1      78.784  57.016  10.666  1.00  0.00     0.132 C 
ATOM     48  O   UNL     1      79.005  56.757  11.839  1.00  0.00    -0.300 OA
BRANCH  47  49
ATOM     49  C   UNL     1      79.250  58.336  10.093  1.00  0.00     0.072 C 
ATOM     50  C   UNL     1      80.572  58.758  10.736  1.00  0.00     0.012 C 
ENDBRANCH  47  49
ENDBRANCH  46  47
ENDBRANCH  45  46
ENDBRANCH  44  45
ENDBRANCH  43  44
ENDBRANCH   1  43
TORSDOF 12
ENDMDL
MODEL 3
REMARK VINA RESULT:    -6.906      2.200      7.409
REMARK INTER + INTRA:         -16.350
REMARK INTER:                 -13.382
REMARK INTRA:                  -2.968
REMARK UNBOUND:                -1.774
REMARK SMILES CCC(=O)CCCCC[C@H]1NC(=O)[C@H]2CCCCN2C(=O)[C@@H]([C@@H](C)CC)NC(=O)[C@@H](Cc2cn(OC)c3ccccc23)NC1=O
REMARK SMILES IDX 9 1 10 2 44 3 43 4 45 6 30 7 28 8 27 9 29 11 22 12 23 14
REMARK SMILES IDX 24 15 25 16 26 17 31 18 32 19 33 20 42 21 34 22 37 23 41 24
REMARK SMILES IDX 38 25 40 26 39 27 35 28 36 29 11 30 12 31 13 33 14 34 19 35
REMARK SMILES IDX 15 36 18 37 16 38 17 39 20 40 21 41 8 43 7 44 6 45 5 46 3 47
REMARK SMILES IDX 4 48 2 49 1 50
REMARK H PARENT 43 5 27 10 11 32
REMARK Flexibility Score: 80.00
ROOT
ATOM      1  C   UNL     1      82.597  55.657   9.957  1.00  0.00     0.035 C 
ENDROOT
BRANCH   1   2
ATOM      2  C   UNL     1      83.720  54.660   9.590  1.00  0.00     0.171 C 
BRANCH   2   3
ATOM      3  C   UNL     1      85.035  54.999  10.258  1.00  0.00     0.243 C 
ATOM      4  N   UNL     1      85.682  56.262  10.052  1.00  0.00    -0.342 N 
ATOM      5  H   UNL     1      85.134  57.066   9.672  1.00  0.00     0.164 HD
ATOM      6  O   UNL     1      85.553  54.144  11.021  1.00  0.00    -0.273 OA
BRANCH   4   7
ATOM      7  C   UNL     1      87.145  56.335   9.989  1.00  0.00     0.175 C 
BRANCH   7   8
ATOM      8  C   UNL     1      87.569  56.346   8.548  1.00  0.00     0.243 C 
ATOM      9  N   UNL     1      86.590  56.372   7.496  1.00  0.00    -0.342 N 
ATOM     10  H   UNL     1      85.615  56.678   7.729  1.00  0.00     0.164 HD
ATOM     11  O   UNL     1      88.795  56.353   8.270  1.00  0.00    -0.273 OA
BRANCH   9  12
ATOM     12  C   UNL     1      86.859  55.891   6.133  1.00  0.00     0.174 CG0
ATOM     13  G   UNL     1      86.184  54.549   5.947  1.00  0.00     0.000 G0
BRANCH  12  14
ATOM     14  C   UNL     1      86.501  56.999   5.090  1.00  0.00     0.018 C 
ATOM     15  C   UNL     1      85.390  57.951   5.582  1.00  0.00     0.010 C 
BRANCH  14  16
ATOM     16  C   UNL     1      87.724  57.730   4.462  1.00  0.00     0.002 C 
ATOM     17  C   UNL     1      88.242  58.966   5.219  1.00  0.00     0.004 C 
ENDBRANCH  14  16
ENDBRANCH  12  14
ENDBRANCH   9  12
ENDBRANCH   7   8
BRANCH   7  18
ATOM     18  C   UNL     1      87.657  57.589  10.722  1.00  0.00     0.073 C 
BRANCH  18  19
ATOM     19  C   UNL     1      86.542  58.560  10.975  1.00  0.00    -0.016 A 
ATOM     20  C   UNL     1      85.905  58.792  12.189  1.00  0.00     0.134 A 
ATOM     21  C   UNL     1      86.082  59.540  10.112  1.00  0.00     0.006 A 
ATOM     22  N   UNL     1      85.070  59.850  12.078  1.00  0.00    -0.191 N 
ATOM     23  C   UNL     1      85.178  60.305  10.814  1.00  0.00     0.087 A 
ATOM     24  C   UNL     1      86.422  59.830   8.790  1.00  0.00     0.011 A 
ATOM     25  C   UNL     1      84.578  61.427  10.246  1.00  0.00     0.030 A 
ATOM     26  C   UNL     1      85.817  60.947   8.185  1.00  0.00     0.001 A 
ATOM     27  C   UNL     1      84.906  61.746   8.906  1.00  0.00     0.002 A 
BRANCH  22  28
ATOM     28  O   UNL     1      84.312  60.433  13.081  1.00  0.00    -0.417 OA
ATOM     29  C   UNL     1      84.907  61.061  14.217  1.00  0.00     0.313 C 
ENDBRANCH  22  28
ENDBRANCH  18  19
ENDBRANCH   7  18
ENDBRANCH   4   7
ENDBRANCH   2   3
BRANCH   2  30
ATOM     30  N   UNL     1      83.860  54.510   8.135  1.00  0.00    -0.343 N 
ATOM     31  C   UNL     1      84.095  53.212   7.543  1.00  0.00     0.243 C 
ATOM     32  H   UNL     1      83.472  55.246   7.504  1.00  0.00     0.164 HD
ATOM     33  O   UNL     1      83.112  52.584   7.052  1.00  0.00    -0.273 OA
BRANCH  31  34
ATOM     34  C   UNL     1      85.489  52.605   7.541  1.00  0.00     0.174 C 
ATOM     35  N   UNL     1      86.492  53.383   6.770  1.00  0.00    -0.329 N 
ATOM     36  C   UNL     1      85.478  51.138   7.040  1.00  0.00     0.035 C 
ATOM     37  C   UNL     1      87.888  52.896   6.749  1.00  0.00     0.120 C 
ATOM     38  C   UNL     1      86.876  50.598   6.693  1.00  0.00     0.004 C 
ATOM     39  C   UNL     1      88.010  51.456   7.268  1.00  0.00     0.022 C 
BRANCH  35  40
ATOM     40  C   UNL     1      86.162  54.518   5.937  1.00  0.00     0.246 CG0
ATOM     41  O   UNL     1      85.200  54.427   5.127  1.00  0.00    -0.272 OA
ATOM     42  G   UNL     1      86.848  55.854   6.126  1.00  0.00     0.000 G0
ENDBRANCH  35  40
ENDBRANCH  31  34
ENDBRANCH   2  30
ENDBRANCH   1   2
BRANCH   1  43
ATOM     43  C   UNL     1      81.339  54.990  10.556  1.00  0.00     0.003 C 
BRANCH  43  44
ATOM     44  C   UNL     1      80.741  53.914   9.634  1.00  0.00     0.001 C 
BRANCH  44  45
ATOM     45  C   UNL     1      80.025  54.446   8.379  1.00  0.00     0.008 C 
BRANCH  45  46
ATOM     46  C   UNL     1      78.514  54.661   8.605  1.00  0.00     0.075 C 
BRANCH  46  47
ATOM     47  C   UNL     1      78.139  56.116   8.782  1.00  0.00     0.132 C 
ATOM     48  O   UNL     1      77.781  56.780   7.821  1.00  0.00    -0.300 OA
BRANCH  47  49
ATOM     49  C   UNL     1      78.120  56.732  10.163  1.00  0.00     0.072 C 
ATOM     50  C   UNL     1      79.175  57.834  10.268  1.00  0.00     0.012 C 
ENDBRANCH  47  49
ENDBRANCH  46  47
ENDBRANCH  45  46
ENDBRANCH  44  45
ENDBRANCH  43  44
ENDBRANCH   1  43
TORSDOF 12
ENDMDL
MODEL 4
REMARK VINA RESULT:    -6.819      1.087      2.220
REMARK INTER + INTRA:         -16.167
REMARK INTER:                 -14.128
REMARK INTRA:                  -2.039
REMARK UNBOUND:                -1.774
REMARK SMILES CCC(=O)CCCCC[C@H]1NC(=O)[C@H]2CCCCN2C(=O)[C@@H]([C@@H](C)CC)NC(=O)[C@@H](Cc2cn(OC)c3ccccc23)NC1=O
REMARK SMILES IDX 9 1 10 2 44 3 43 4 45 6 30 7 28 8 27 9 29 11 22 12 23 14
REMARK SMILES IDX 24 15 25 16 26 17 31 18 32 19 33 20 42 21 34 22 37 23 41 24
REMARK SMILES IDX 38 25 40 26 39 27 35 28 36 29 11 30 12 31 13 33 14 34 19 35
REMARK SMILES IDX 15 36 18 37 16 38 17 39 20 40 21 41 8 43 7 44 6 45 5 46 3 47
REMARK SMILES IDX 4 48 2 49 1 50
REMARK H PARENT 43 5 27 10 11 32
REMARK Flexibility Score: 80.00
ROOT
ATOM      1  C   UNL     1      86.254  58.684  11.700  1.00  0.00     0.035 C 
ENDROOT
BRANCH   1   2
ATOM      2  C   UNL     1      85.988  58.416  10.201  1.00  0.00     0.171 C 
BRANCH   2   3
ATOM      3  C   UNL     1      84.713  57.632   9.972  1.00  0.00     0.243 C 
ATOM      4  N   UNL     1      84.588  56.261  10.375  1.00  0.00    -0.342 N 
ATOM      5  H   UNL     1      85.256  55.866  11.073  1.00  0.00     0.164 HD
ATOM      6  O   UNL     1      83.744  58.218   9.426  1.00  0.00    -0.273 OA
BRANCH   4   7
ATOM      7  C   UNL     1      83.816  55.323   9.554  1.00  0.00     0.175 C 
BRANCH   7   8
ATOM      8  C   UNL     1      84.768  54.492   8.741  1.00  0.00     0.243 C 
ATOM      9  N   UNL     1      86.185  54.570   8.966  1.00  0.00    -0.342 N 
ATOM     10  H   UNL     1      86.526  54.970   9.873  1.00  0.00     0.164 HD
ATOM     11  O   UNL     1      84.308  53.708   7.872  1.00  0.00    -0.273 OA
BRANCH   9  12
ATOM     12  C   UNL     1      87.183  54.215   7.946  1.00  0.00     0.174 CG0
ATOM     13  G   UNL     1      87.802  55.487   7.405  1.00  0.00     0.000 G0
BRANCH  12  14
ATOM     14  C   UNL     1      88.174  53.147   8.511  1.00  0.00     0.018 C 
ATOM     15  C   UNL     1      88.127  53.037  10.051  1.00  0.00     0.010 C 
BRANCH  14  16
ATOM     16  C   UNL     1      88.143  51.772   7.780  1.00  0.00     0.002 C 
ATOM     17  C   UNL     1      86.871  50.927   7.971  1.00  0.00     0.004 C 
ENDBRANCH  14  16
ENDBRANCH  12  14
ENDBRANCH   9  12
ENDBRANCH   7   8
BRANCH   7  18
ATOM     18  C   UNL     1      82.927  54.431  10.440  1.00  0.00     0.073 C 
BRANCH  18  19
ATOM     19  C   UNL     1      81.527  54.363   9.905  1.00  0.00    -0.016 A 
ATOM     20  C   UNL     1      80.646  55.428   9.752  1.00  0.00     0.134 A 
ATOM     21  C   UNL     1      80.929  53.282   9.279  1.00  0.00     0.006 A 
ATOM     22  N   UNL     1      79.541  55.021   9.085  1.00  0.00    -0.191 N 
ATOM     23  C   UNL     1      79.714  53.715   8.797  1.00  0.00     0.087 A 
ATOM     24  C   UNL     1      81.382  51.979   9.069  1.00  0.00     0.011 A 
ATOM     25  C   UNL     1      78.888  52.879   8.051  1.00  0.00     0.030 A 
ATOM     26  C   UNL     1      80.558  51.107   8.334  1.00  0.00     0.001 A 
ATOM     27  C   UNL     1      79.322  51.551   7.821  1.00  0.00     0.002 A 
BRANCH  22  28
ATOM     28  O   UNL     1      78.469  55.799   8.679  1.00  0.00    -0.417 OA
ATOM     29  C   UNL     1      77.843  56.744   9.547  1.00  0.00     0.313 C 
ENDBRANCH  22  28
ENDBRANCH  18  19
ENDBRANCH   7  18
ENDBRANCH   4   7
ENDBRANCH   2   3
BRANCH   2  30
ATOM     30  N   UNL     1      87.146  57.792   9.545  1.00  0.00    -0.343 N 
ATOM     31  C   UNL     1      87.643  58.297   8.285  1.00  0.00     0.243 C 
ATOM     32  H   UNL     1      87.810  57.222  10.113  1.00  0.00     0.164 HD
ATOM     33  O   UNL     1      88.644  59.071   8.296  1.00  0.00    -0.273 OA
BRANCH  31  34
ATOM     34  C   UNL     1      86.956  57.928   6.980  1.00  0.00     0.174 C 
ATOM     35  N   UNL     1      87.010  56.481   6.650  1.00  0.00    -0.329 N 
ATOM     36  C   UNL     1      87.506  58.750   5.787  1.00  0.00     0.035 C 
ATOM     37  C   UNL     1      86.328  56.018   5.422  1.00  0.00     0.120 C 
ATOM     38  C   UNL     1      87.103  58.184   4.414  1.00  0.00     0.004 C 
ATOM     39  C   UNL     1      85.945  57.181   4.496  1.00  0.00     0.022 C 
BRANCH  35  40
ATOM     40  C   UNL     1      87.794  55.517   7.389  1.00  0.00     0.246 CG0
ATOM     41  O   UNL     1      88.980  55.802   7.706  1.00  0.00    -0.272 OA
ATOM     42  G   UNL     1      87.171  54.242   7.918  1.00  0.00     0.000 G0
ENDBRANCH  35  40
ENDBRANCH  31  34
ENDBRANCH   2  30
ENDBRANCH   1   2
BRANCH   1  43
ATOM     43  C   UNL     1      85.594  59.976  12.231  1.00  0.00     0.003 C 
BRANCH  43  44
ATOM     44  C   UNL     1      85.765  60.151  13.749  1.00  0.00     0.001 C 
BRANCH  44  45
ATOM     45  C   UNL     1      84.488  59.946  14.583  1.00  0.00     0.008 C 
BRANCH  45  46
ATOM     46  C   UNL     1      84.006  61.247  15.258  1.00  0.00     0.075 C 
BRANCH  46  47
ATOM     47  C   UNL     1      85.087  61.937  16.061  1.00  0.00     0.132 C 
ATOM     48  O   UNL     1      85.614  61.363  17.002  1.00  0.00    -0.300 OA
BRANCH  47  49
ATOM     49  C   UNL     1      85.583  63.304  15.649  1.00  0.00     0.072 C 
ATOM     50  C   UNL     1      84.523  64.366  15.947  1.00  0.00     0.012 C 
ENDBRANCH  47  49
ENDBRANCH  46  47
ENDBRANCH  45  46
ENDBRANCH  44  45
ENDBRANCH  43  44
ENDBRANCH   1  43
TORSDOF 12
ENDMDL
MODEL 5
REMARK VINA RESULT:    -6.663      3.654      7.746
REMARK INTER + INTRA:         -15.837
REMARK INTER:                 -12.871
REMARK INTRA:                  -2.966
REMARK UNBOUND:                -1.774
REMARK SMILES CCC(=O)CCCCC[C@H]1NC(=O)[C@H]2CCCCN2C(=O)[C@@H]([C@@H](C)CC)NC(=O)[C@@H](Cc2cn(OC)c3ccccc23)NC1=O
REMARK SMILES IDX 9 1 10 2 44 3 43 4 45 6 30 7 28 8 27 9 29 11 22 12 23 14
REMARK SMILES IDX 24 15 25 16 26 17 31 18 32 19 33 20 42 21 34 22 37 23 41 24
REMARK SMILES IDX 38 25 40 26 39 27 35 28 36 29 11 30 12 31 13 33 14 34 19 35
REMARK SMILES IDX 15 36 18 37 16 38 17 39 20 40 21 41 8 43 7 44 6 45 5 46 3 47
REMARK SMILES IDX 4 48 2 49 1 50
REMARK H PARENT 43 5 27 10 11 32
REMARK Flexibility Score: 80.00
ROOT
ATOM      1  C   UNL     1      82.140  54.442   6.469  1.00  0.00     0.035 C 
ENDROOT
BRANCH   1   2
ATOM      2  C   UNL     1      82.200  53.824   7.885  1.00  0.00     0.171 C 
BRANCH   2   3
ATOM      3  C   UNL     1      82.637  54.823   8.934  1.00  0.00     0.243 C 
ATOM      4  N   UNL     1      83.851  55.574   8.801  1.00  0.00    -0.342 N 
ATOM      5  H   UNL     1      84.307  55.655   7.865  1.00  0.00     0.164 HD
ATOM      6  O   UNL     1      81.897  54.997   9.936  1.00  0.00    -0.273 OA
BRANCH   4   7
ATOM      7  C   UNL     1      84.655  55.886   9.987  1.00  0.00     0.175 C 
BRANCH   7   8
ATOM      8  C   UNL     1      85.692  54.813  10.166  1.00  0.00     0.243 C 
ATOM      9  N   UNL     1      85.614  53.586   9.421  1.00  0.00    -0.342 N 
ATOM     10  H   UNL     1      85.020  53.563   8.558  1.00  0.00     0.164 HD
ATOM     11  O   UNL     1      86.646  55.010  10.962  1.00  0.00    -0.273 OA
BRANCH   9  12
ATOM     12  C   UNL     1      86.242  52.334   9.866  1.00  0.00     0.174 CG0
ATOM     13  G   UNL     1      85.217  51.221   9.793  1.00  0.00     0.000 G0
BRANCH  12  14
ATOM     14  C   UNL     1      87.579  52.096   9.092  1.00  0.00     0.018 C 
ATOM     15  C   UNL     1      87.737  53.022   7.866  1.00  0.00     0.010 C 
BRANCH  14  16
ATOM     16  C   UNL     1      88.850  52.015   9.988  1.00  0.00     0.002 C 
ATOM     17  C   UNL     1      88.625  52.146  11.504  1.00  0.00     0.004 C 
ENDBRANCH  14  16
ENDBRANCH  12  14
ENDBRANCH   9  12
ENDBRANCH   7   8
BRANCH   7  18
ATOM     18  C   UNL     1      85.314  57.270   9.848  1.00  0.00     0.073 C 
BRANCH  18  19
ATOM     19  C   UNL     1      84.292  58.366   9.934  1.00  0.00    -0.016 A 
ATOM     20  C   UNL     1      83.015  58.265  10.474  1.00  0.00     0.134 A 
ATOM     21  C   UNL     1      84.496  59.713   9.686  1.00  0.00     0.006 A 
ATOM     22  N   UNL     1      82.442  59.489  10.534  1.00  0.00    -0.191 N 
ATOM     23  C   UNL     1      83.344  60.369  10.055  1.00  0.00     0.087 A 
ATOM     24  C   UNL     1      85.612  60.398   9.206  1.00  0.00     0.011 A 
ATOM     25  C   UNL     1      83.246  61.758   9.993  1.00  0.00     0.030 A 
ATOM     26  C   UNL     1      85.535  61.799   9.115  1.00  0.00     0.001 A 
ATOM     27  C   UNL     1      84.365  62.479   9.510  1.00  0.00     0.002 A 
BRANCH  22  28
ATOM     28  O   UNL     1      81.207  59.815  11.071  1.00  0.00    -0.417 OA
ATOM     29  C   UNL     1      80.003  59.749  10.305  1.00  0.00     0.313 C 
ENDBRANCH  22  28
ENDBRANCH  18  19
ENDBRANCH   7  18
ENDBRANCH   4   7
ENDBRANCH   2   3
BRANCH   2  30
ATOM     30  N   UNL     1      83.015  52.601   7.912  1.00  0.00    -0.343 N 
ATOM     31  C   UNL     1      82.528  51.400   8.552  1.00  0.00     0.243 C 
ATOM     32  H   UNL     1      83.776  52.478   7.208  1.00  0.00     0.164 HD
ATOM     33  O   UNL     1      82.016  50.495   7.830  1.00  0.00    -0.273 OA
BRANCH  31  34
ATOM     34  C   UNL     1      82.602  51.246  10.062  1.00  0.00     0.174 C 
ATOM     35  N   UNL     1      83.984  51.254  10.609  1.00  0.00    -0.329 N 
ATOM     36  C   UNL     1      81.863  49.973  10.548  1.00  0.00     0.035 C 
ATOM     37  C   UNL     1      84.156  51.156  12.074  1.00  0.00     0.120 C 
ATOM     38  C   UNL     1      82.196  49.586  12.000  1.00  0.00     0.004 C 
ATOM     39  C   UNL     1      82.865  50.722  12.784  1.00  0.00     0.022 C 
BRANCH  35  40
ATOM     40  C   UNL     1      85.173  51.226   9.788  1.00  0.00     0.246 CG0
ATOM     41  O   UNL     1      85.278  50.351   8.886  1.00  0.00    -0.272 OA
ATOM     42  G   UNL     1      86.221  52.315   9.889  1.00  0.00     0.000 G0
ENDBRANCH  35  40
ENDBRANCH  31  34
ENDBRANCH   2  30
ENDBRANCH   1   2
BRANCH   1  43
ATOM     43  C   UNL     1      83.229  53.914   5.510  1.00  0.00     0.003 C 
BRANCH  43  44
ATOM     44  C   UNL     1      84.233  55.001   5.094  1.00  0.00     0.001 C 
BRANCH  44  45
ATOM     45  C   UNL     1      85.352  55.288   6.111  1.00  0.00     0.008 C 
BRANCH  45  46
ATOM     46  C   UNL     1      85.736  56.781   6.165  1.00  0.00     0.075 C 
BRANCH  46  47
ATOM     47  C   UNL     1      87.217  57.023   5.971  1.00  0.00     0.132 C 
ATOM     48  O   UNL     1      87.741  56.791   4.892  1.00  0.00    -0.300 OA
BRANCH  47  49
ATOM     49  C   UNL     1      88.038  57.636   7.083  1.00  0.00     0.072 C 
ATOM     50  C   UNL     1      88.508  56.554   8.056  1.00  0.00     0.012 C 
ENDBRANCH  47  49
ENDBRANCH  46  47
ENDBRANCH  45  46
ENDBRANCH  44  45
ENDBRANCH  43  44
ENDBRANCH   1  43
TORSDOF 12
ENDMDL
MODEL 6
REMARK VINA RESULT:    -6.638      3.273      7.549
REMARK INTER + INTRA:         -15.785
REMARK INTER:                 -12.664
REMARK INTRA:                  -3.121
REMARK UNBOUND:                -1.774
REMARK SMILES CCC(=O)CCCCC[C@H]1NC(=O)[C@H]2CCCCN2C(=O)[C@@H]([C@@H](C)CC)NC(=O)[C@@H](Cc2cn(OC)c3ccccc23)NC1=O
REMARK SMILES IDX 9 1 10 2 44 3 43 4 45 6 30 7 28 8 27 9 29 11 22 12 23 14
REMARK SMILES IDX 24 15 25 16 26 17 31 18 32 19 33 20 42 21 34 22 37 23 41 24
REMARK SMILES IDX 38 25 40 26 39 27 35 28 36 29 11 30 12 31 13 33 14 34 19 35
REMARK SMILES IDX 15 36 18 37 16 38 17 39 20 40 21 41 8 43 7 44 6 45 5 46 3 47
REMARK SMILES IDX 4 48 2 49 1 50
REMARK H PARENT 43 5 27 10 11 32
REMARK Flexibility Score: 80.00
ROOT
ATOM      1  C   UNL     1      85.352  54.801   5.301  1.00  0.00     0.035 C 
ENDROOT
BRANCH   1   2
ATOM      2  C   UNL     1      86.493  55.774   5.678  1.00  0.00     0.171 C 
BRANCH   2   3
ATOM      3  C   UNL     1      87.354  55.246   6.805  1.00  0.00     0.243 C 
ATOM      4  N   UNL     1      86.833  55.054   8.127  1.00  0.00    -0.342 N 
ATOM      5  H   UNL     1      85.800  55.007   8.272  1.00  0.00     0.164 HD
ATOM      6  O   UNL     1      88.553  54.958   6.553  1.00  0.00    -0.273 OA
BRANCH   4   7
ATOM      7  C   UNL     1      87.681  55.316   9.294  1.00  0.00     0.175 C 
BRANCH   7   8
ATOM      8  C   UNL     1      87.363  56.683   9.829  1.00  0.00     0.243 C 
ATOM      9  N   UNL     1      86.366  57.504   9.197  1.00  0.00    -0.342 N 
ATOM     10  H   UNL     1      85.669  57.044   8.563  1.00  0.00     0.164 HD
ATOM     11  O   UNL     1      87.965  57.097  10.853  1.00  0.00    -0.273 OA
BRANCH   9  12
ATOM     12  C   UNL     1      86.340  58.969   9.311  1.00  0.00     0.174 CG0
ATOM     13  G   UNL     1      86.545  59.570   7.936  1.00  0.00     0.000 G0
BRANCH  12  14
ATOM     14  C   UNL     1      85.061  59.426  10.084  1.00  0.00     0.018 C 
ATOM     15  C   UNL     1      84.106  58.257  10.412  1.00  0.00     0.010 C 
BRANCH  14  16
ATOM     16  C   UNL     1      85.326  60.379  11.287  1.00  0.00     0.002 C 
ATOM     17  C   UNL     1      85.520  59.707  12.658  1.00  0.00     0.004 C 
ENDBRANCH  14  16
ENDBRANCH  12  14
ENDBRANCH   9  12
ENDBRANCH   7   8
BRANCH   7  18
ATOM     18  C   UNL     1      87.464  54.239  10.374  1.00  0.00     0.073 C 
BRANCH  18  19
ATOM     19  C   UNL     1      87.886  52.887   9.881  1.00  0.00    -0.016 A 
ATOM     20  C   UNL     1      89.047  52.588   9.175  1.00  0.00     0.134 A 
ATOM     21  C   UNL     1      87.314  51.668  10.206  1.00  0.00     0.006 A 
ATOM     22  N   UNL     1      89.176  51.247   9.046  1.00  0.00    -0.191 N 
ATOM     23  C   UNL     1      88.122  50.688   9.674  1.00  0.00     0.087 A 
ATOM     24  C   UNL     1      86.179  51.360  10.956  1.00  0.00     0.011 A 
ATOM     25  C   UNL     1      87.859  49.336   9.883  1.00  0.00     0.030 A 
ATOM     26  C   UNL     1      85.879  50.002  11.167  1.00  0.00     0.001 A 
ATOM     27  C   UNL     1      86.713  48.994  10.642  1.00  0.00     0.002 A 
BRANCH  22  28
ATOM     28  O   UNL     1      90.228  50.554   8.470  1.00  0.00    -0.417 OA
ATOM     29  C   UNL     1      91.583  50.753   8.875  1.00  0.00     0.313 C 
ENDBRANCH  22  28
ENDBRANCH  18  19
ENDBRANCH   7  18
ENDBRANCH   4   7
ENDBRANCH   2   3
BRANCH   2  30
ATOM     30  N   UNL     1      85.987  57.126   5.957  1.00  0.00    -0.343 N 
ATOM     31  C   UNL     1      86.565  58.281   5.308  1.00  0.00     0.243 C 
ATOM     32  H   UNL     1      85.025  57.242   6.344  1.00  0.00     0.164 HD
ATOM     33  O   UNL     1      85.978  58.765   4.297  1.00  0.00    -0.273 OA
BRANCH  31  34
ATOM     34  C   UNL     1      87.868  58.879   5.814  1.00  0.00     0.174 C 
ATOM     35  N   UNL     1      87.786  59.449   7.184  1.00  0.00    -0.329 N 
ATOM     36  C   UNL     1      88.426  59.950   4.843  1.00  0.00     0.035 C 
ATOM     37  C   UNL     1      89.016  60.012   7.781  1.00  0.00     0.120 C 
ATOM     38  C   UNL     1      89.535  60.821   5.460  1.00  0.00     0.004 C 
ATOM     39  C   UNL     1      90.126  60.218   6.741  1.00  0.00     0.022 C 
BRANCH  35  40
ATOM     40  C   UNL     1      86.550  59.599   7.919  1.00  0.00     0.246 CG0
ATOM     41  O   UNL     1      85.566  60.155   7.362  1.00  0.00    -0.272 OA
ATOM     42  G   UNL     1      86.370  58.969   9.285  1.00  0.00     0.000 G0
ENDBRANCH  35  40
ENDBRANCH  31  34
ENDBRANCH   2  30
ENDBRANCH   1   2
BRANCH   1  43
ATOM     43  C   UNL     1      83.958  55.252   5.790  1.00  0.00     0.003 C 
BRANCH  43  44
ATOM     44  C   UNL     1      83.137  54.100   6.390  1.00  0.00     0.001 C 
BRANCH  44  45
ATOM     45  C   UNL     1      82.264  54.474   7.601  1.00  0.00     0.008 C 
BRANCH  45  46
ATOM     46  C   UNL     1      83.064  55.189   8.710  1.00  0.00     0.075 C 
BRANCH  46  47
ATOM     47  C   UNL     1      82.646  54.778  10.105  1.00  0.00     0.132 C 
ATOM     48  O   UNL     1      81.565  55.130  10.552  1.00  0.00    -0.300 OA
BRANCH  47  49
ATOM     49  C   UNL     1      83.525  53.855  10.918  1.00  0.00     0.072 C 
ATOM     50  C   UNL     1      82.781  52.558  11.241  1.00  0.00     0.012 C 
ENDBRANCH  47  49
ENDBRANCH  46  47
ENDBRANCH  45  46
ENDBRANCH  44  45
ENDBRANCH  43  44
ENDBRANCH   1  43
TORSDOF 12
ENDMDL
MODEL 7
REMARK VINA RESULT:    -6.582      3.646      9.295
REMARK INTER + INTRA:         -15.666
REMARK INTER:                 -13.111
REMARK INTRA:                  -2.555
REMARK UNBOUND:                -1.774
REMARK SMILES CCC(=O)CCCCC[C@H]1NC(=O)[C@H]2CCCCN2C(=O)[C@@H]([C@@H](C)CC)NC(=O)[C@@H](Cc2cn(OC)c3ccccc23)NC1=O
REMARK SMILES IDX 9 1 10 2 44 3 43 4 45 6 30 7 28 8 27 9 29 11 22 12 23 14
REMARK SMILES IDX 24 15 25 16 26 17 31 18 32 19 33 20 42 21 34 22 37 23 41 24
REMARK SMILES IDX 38 25 40 26 39 27 35 28 36 29 11 30 12 31 13 33 14 34 19 35
REMARK SMILES IDX 15 36 18 37 16 38 17 39 20 40 21 41 8 43 7 44 6 45 5 46 3 47
REMARK SMILES IDX 4 48 2 49 1 50
REMARK H PARENT 43 5 27 10 11 32
REMARK Flexibility Score: 80.00
ROOT
ATOM      1  C   UNL     1      86.451  51.482   6.454  1.00  0.00     0.035 C 
ENDROOT
BRANCH   1   2
ATOM      2  C   UNL     1      85.009  51.998   6.674  1.00  0.00     0.171 C 
BRANCH   2   3
ATOM      3  C   UNL     1      84.975  53.327   7.396  1.00  0.00     0.243 C 
ATOM      4  N   UNL     1      85.279  53.435   8.794  1.00  0.00    -0.342 N 
ATOM      5  H   UNL     1      85.794  52.661   9.270  1.00  0.00     0.164 HD
ATOM      6  O   UNL     1      84.684  54.357   6.735  1.00  0.00    -0.273 OA
BRANCH   4   7
ATOM      7  C   UNL     1      84.553  54.396   9.630  1.00  0.00     0.175 C 
BRANCH   7   8
ATOM      8  C   UNL     1      83.525  53.656  10.439  1.00  0.00     0.243 C 
ATOM      9  N   UNL     1      83.529  52.220  10.493  1.00  0.00    -0.342 N 
ATOM     10  H   UNL     1      84.404  51.712  10.219  1.00  0.00     0.164 HD
ATOM     11  O   UNL     1      82.671  54.311  11.090  1.00  0.00    -0.273 OA
BRANCH   9  12
ATOM     12  C   UNL     1      82.336  51.424  10.812  1.00  0.00     0.174 CG0
ATOM     13  G   UNL     1      81.818  50.788   9.539  1.00  0.00     0.000 G0
BRANCH  12  14
ATOM     14  C   UNL     1      82.637  50.452  11.999  1.00  0.00     0.018 C 
ATOM     15  C   UNL     1      84.125  50.455  12.415  1.00  0.00     0.010 C 
BRANCH  14  16
ATOM     16  C   UNL     1      81.648  50.552  13.197  1.00  0.00     0.002 C 
ATOM     17  C   UNL     1      81.530  49.304  14.089  1.00  0.00     0.004 C 
ENDBRANCH  14  16
ENDBRANCH  12  14
ENDBRANCH   9  12
ENDBRANCH   7   8
BRANCH   7  18
ATOM     18  C   UNL     1      85.526  55.162  10.545  1.00  0.00     0.073 C 
BRANCH  18  19
ATOM     19  C   UNL     1      85.746  56.561  10.048  1.00  0.00    -0.016 A 
ATOM     20  C   UNL     1      85.030  57.693  10.420  1.00  0.00     0.134 A 
ATOM     21  C   UNL     1      86.816  57.017   9.297  1.00  0.00     0.006 A 
ATOM     22  N   UNL     1      85.614  58.799   9.902  1.00  0.00    -0.191 N 
ATOM     23  C   UNL     1      86.701  58.386   9.220  1.00  0.00     0.087 A 
ATOM     24  C   UNL     1      87.888  56.334   8.720  1.00  0.00     0.011 A 
ATOM     25  C   UNL     1      87.666  59.163   8.583  1.00  0.00     0.030 A 
ATOM     26  C   UNL     1      88.869  57.092   8.055  1.00  0.00     0.001 A 
ATOM     27  C   UNL     1      88.766  58.497   7.989  1.00  0.00     0.002 A 
BRANCH  22  28
ATOM     28  O   UNL     1      85.242  60.119  10.101  1.00  0.00    -0.417 OA
ATOM     29  C   UNL     1      85.165  60.700  11.402  1.00  0.00     0.313 C 
ENDBRANCH  22  28
ENDBRANCH  18  19
ENDBRANCH   7  18
ENDBRANCH   4   7
ENDBRANCH   2   3
BRANCH   2  30
ATOM     30  N   UNL     1      84.164  50.990   7.329  1.00  0.00    -0.343 N 
ATOM     31  C   UNL     1      82.870  50.643   6.787  1.00  0.00     0.243 C 
ATOM     32  H   UNL     1      84.603  50.292   7.970  1.00  0.00     0.164 HD
ATOM     33  O   UNL     1      82.771  49.599   6.077  1.00  0.00    -0.273 OA
BRANCH  31  34
ATOM     34  C   UNL     1      81.663  51.531   7.040  1.00  0.00     0.174 C 
ATOM     35  N   UNL     1      81.253  51.612   8.466  1.00  0.00    -0.329 N 
ATOM     36  C   UNL     1      80.446  51.111   6.177  1.00  0.00     0.035 C 
ATOM     37  C   UNL     1      80.116  52.490   8.817  1.00  0.00     0.120 C 
ATOM     38  C   UNL     1      79.120  51.741   6.636  1.00  0.00     0.004 C 
ATOM     39  C   UNL     1      79.319  52.933   7.582  1.00  0.00     0.022 C 
BRANCH  35  40
ATOM     40  C   UNL     1      81.816  50.789   9.512  1.00  0.00     0.246 CG0
ATOM     41  O   UNL     1      81.984  49.557   9.303  1.00  0.00    -0.272 OA
ATOM     42  G   UNL     1      82.347  51.402  10.791  1.00  0.00     0.000 G0
ENDBRANCH  35  40
ENDBRANCH  31  34
ENDBRANCH   2  30
ENDBRANCH   1   2
BRANCH   1  43
ATOM     43  C   UNL     1      86.523  50.109   5.752  1.00  0.00     0.003 C 
BRANCH  43  44
ATOM     44  C   UNL     1      87.160  49.023   6.635  1.00  0.00     0.001 C 
BRANCH  44  45
ATOM     45  C   UNL     1      87.928  49.540   7.865  1.00  0.00     0.008 C 
BRANCH  45  46
ATOM     46  C   UNL     1      89.353  50.016   7.516  1.00  0.00     0.075 C 
BRANCH  46  47
ATOM     47  C   UNL     1      90.092  50.599   8.701  1.00  0.00     0.132 C 
ATOM     48  O   UNL     1      91.285  50.382   8.848  1.00  0.00    -0.300 OA
BRANCH  47  49
ATOM     49  C   UNL     1      89.379  51.526   9.659  1.00  0.00     0.072 C 
ATOM     50  C   UNL     1      88.851  52.754   8.916  1.00  0.00     0.012 C 
ENDBRANCH  47  49
ENDBRANCH  46  47
ENDBRANCH  45  46
ENDBRANCH  44  45
ENDBRANCH  43  44
ENDBRANCH   1  43
TORSDOF 12
ENDMDL
MODEL 8
REMARK VINA RESULT:    -6.469      3.686      6.088
REMARK INTER + INTRA:         -15.429
REMARK INTER:                 -12.992
REMARK INTRA:                  -2.437
REMARK UNBOUND:                -1.774
REMARK SMILES CCC(=O)CCCCC[C@H]1NC(=O)[C@H]2CCCCN2C(=O)[C@@H]([C@@H](C)CC)NC(=O)[C@@H](Cc2cn(OC)c3ccccc23)NC1=O
REMARK SMILES IDX 9 1 10 2 44 3 43 4 45 6 30 7 28 8 27 9 29 11 22 12 23 14
REMARK SMILES IDX 24 15 25 16 26 17 31 18 32 19 33 20 42 21 34 22 37 23 41 24
REMARK SMILES IDX 38 25 40 26 39 27 35 28 36 29 11 30 12 31 13 33 14 34 19 35
REMARK SMILES IDX 15 36 18 37 16 38 17 39 20 40 21 41 8 43 7 44 6 45 5 46 3 47
REMARK SMILES IDX 4 48 2 49 1 50
REMARK H PARENT 43 5 27 10 11 32
REMARK Flexibility Score: 80.00
ROOT
ATOM      1  C   UNL     1      82.309  55.413  10.039  1.00  0.00     0.035 C 
ENDROOT
BRANCH   1   2
ATOM      2  C   UNL     1      83.547  55.725   9.167  1.00  0.00     0.171 C 
BRANCH   2   3
ATOM      3  C   UNL     1      83.587  54.894   7.903  1.00  0.00     0.243 C 
ATOM      4  N   UNL     1      84.057  53.539   7.905  1.00  0.00    -0.342 N 
ATOM      5  H   UNL     1      84.115  53.015   8.806  1.00  0.00     0.164 HD
ATOM      6  O   UNL     1      83.180  55.417   6.834  1.00  0.00    -0.273 OA
BRANCH   4   7
ATOM      7  C   UNL     1      84.813  53.024   6.759  1.00  0.00     0.175 C 
BRANCH   7   8
ATOM      8  C   UNL     1      86.275  53.016   7.106  1.00  0.00     0.243 C 
ATOM      9  N   UNL     1      86.703  52.941   8.476  1.00  0.00    -0.342 N 
ATOM     10  H   UNL     1      86.021  52.600   9.194  1.00  0.00     0.164 HD
ATOM     11  O   UNL     1      87.125  53.054   6.179  1.00  0.00    -0.273 OA
BRANCH   9  12
ATOM     12  C   UNL     1      88.015  53.419   8.936  1.00  0.00     0.174 CG0
ATOM     13  G   UNL     1      87.860  54.824   9.480  1.00  0.00     0.000 G0
BRANCH  12  14
ATOM     14  C   UNL     1      88.663  52.371   9.898  1.00  0.00     0.018 C 
ATOM     15  C   UNL     1      87.618  51.551  10.686  1.00  0.00     0.010 C 
BRANCH  14  16
ATOM     16  C   UNL     1      89.793  51.508   9.263  1.00  0.00     0.002 C 
ATOM     17  C   UNL     1      89.368  50.555   8.131  1.00  0.00     0.004 C 
ENDBRANCH  14  16
ENDBRANCH  12  14
ENDBRANCH   9  12
ENDBRANCH   7   8
BRANCH   7  18
ATOM     18  C   UNL     1      84.330  51.611   6.381  1.00  0.00     0.073 C 
BRANCH  18  19
ATOM     19  C   UNL     1      83.343  51.092   7.385  1.00  0.00    -0.016 A 
ATOM     20  C   UNL     1      83.638  50.537   8.625  1.00  0.00     0.134 A 
ATOM     21  C   UNL     1      81.968  51.254   7.358  1.00  0.00     0.006 A 
ATOM     22  N   UNL     1      82.498  50.338   9.325  1.00  0.00    -0.191 N 
ATOM     23  C   UNL     1      81.482  50.775   8.554  1.00  0.00     0.087 A 
ATOM     24  C   UNL     1      81.131  51.817   6.396  1.00  0.00     0.011 A 
ATOM     25  C   UNL     1      80.128  50.856   8.873  1.00  0.00     0.030 A 
ATOM     26  C   UNL     1      79.756  51.894   6.684  1.00  0.00     0.001 A 
ATOM     27  C   UNL     1      79.255  51.424   7.914  1.00  0.00     0.002 A 
BRANCH  22  28
ATOM     28  O   UNL     1      82.377  49.869  10.623  1.00  0.00    -0.417 OA
ATOM     29  C   UNL     1      82.995  50.526  11.730  1.00  0.00     0.313 C 
ENDBRANCH  22  28
ENDBRANCH  18  19
ENDBRANCH   7  18
ENDBRANCH   4   7
ENDBRANCH   2   3
BRANCH   2  30
ATOM     30  N   UNL     1      84.795  55.621   9.937  1.00  0.00    -0.343 N 
ATOM     31  C   UNL     1      85.707  56.739  10.022  1.00  0.00     0.243 C 
ATOM     32  H   UNL     1      84.879  54.894  10.681  1.00  0.00     0.164 HD
ATOM     33  O   UNL     1      85.670  57.474  11.053  1.00  0.00    -0.273 OA
BRANCH  31  34
ATOM     34  C   UNL     1      86.667  57.041   8.883  1.00  0.00     0.174 C 
ATOM     35  N   UNL     1      87.675  55.978   8.636  1.00  0.00    -0.329 N 
ATOM     36  C   UNL     1      87.389  58.399   9.082  1.00  0.00     0.035 C 
ATOM     37  C   UNL     1      88.623  56.161   7.516  1.00  0.00     0.120 C 
ATOM     38  C   UNL     1      88.604  58.590   8.158  1.00  0.00     0.004 C 
ATOM     39  C   UNL     1      88.625  57.601   6.985  1.00  0.00     0.022 C 
BRANCH  35  40
ATOM     40  C   UNL     1      87.865  54.835   9.500  1.00  0.00     0.246 CG0
ATOM     41  O   UNL     1      87.791  54.988  10.749  1.00  0.00    -0.272 OA
ATOM     42  G   UNL     1      88.000  53.437   8.932  1.00  0.00     0.000 G0
ENDBRANCH  35  40
ENDBRANCH  31  34
ENDBRANCH   2  30
ENDBRANCH   1   2
BRANCH   1  43
ATOM     43  C   UNL     1      81.203  54.631   9.298  1.00  0.00     0.003 C 
BRANCH  43  44
ATOM     44  C   UNL     1      79.892  54.551  10.098  1.00  0.00     0.001 C 
BRANCH  44  45
ATOM     45  C   UNL     1      79.139  55.884  10.262  1.00  0.00     0.008 C 
BRANCH  45  46
ATOM     46  C   UNL     1      77.808  55.911   9.482  1.00  0.00     0.075 C 
BRANCH  46  47
ATOM     47  C   UNL     1      77.991  55.778   7.986  1.00  0.00     0.132 C 
ATOM     48  O   UNL     1      77.761  54.714   7.432  1.00  0.00    -0.300 OA
BRANCH  47  49
ATOM     49  C   UNL     1      78.372  56.984   7.158  1.00  0.00     0.072 C 
ATOM     50  C   UNL     1      77.419  57.138   5.972  1.00  0.00     0.012 C 
ENDBRANCH  47  49
ENDBRANCH  46  47
ENDBRANCH  45  46
ENDBRANCH  44  45
ENDBRANCH  43  44
ENDBRANCH   1  43
TORSDOF 12
ENDMDL
MODEL 9
REMARK VINA RESULT:    -6.451      3.170      7.407
REMARK INTER + INTRA:         -15.389
REMARK INTER:                 -12.931
REMARK INTRA:                  -2.459
REMARK UNBOUND:                -1.774
REMARK SMILES CCC(=O)CCCCC[C@H]1NC(=O)[C@H]2CCCCN2C(=O)[C@@H]([C@@H](C)CC)NC(=O)[C@@H](Cc2cn(OC)c3ccccc23)NC1=O
REMARK SMILES IDX 9 1 10 2 44 3 43 4 45 6 30 7 28 8 27 9 29 11 22 12 23 14
REMARK SMILES IDX 24 15 25 16 26 17 31 18 32 19 33 20 42 21 34 22 37 23 41 24
REMARK SMILES IDX 38 25 40 26 39 27 35 28 36 29 11 30 12 31 13 33 14 34 19 35
REMARK SMILES IDX 15 36 18 37 16 38 17 39 20 40 21 41 8 43 7 44 6 45 5 46 3 47
REMARK SMILES IDX 4 48 2 49 1 50
REMARK H PARENT 43 5 27 10 11 32
REMARK Flexibility Score: 80.00
ROOT
ATOM      1  C   UNL     1      81.626  55.523  10.492  1.00  0.00     0.035 C 
ENDROOT
BRANCH   1   2
ATOM      2  C   UNL     1      82.825  54.898   9.742  1.00  0.00     0.171 C 
BRANCH   2   3
ATOM      3  C   UNL     1      84.152  55.244  10.382  1.00  0.00     0.243 C 
ATOM      4  N   UNL     1      84.773  56.522  10.188  1.00  0.00    -0.342 N 
ATOM      5  H   UNL     1      84.203  57.324   9.839  1.00  0.00     0.164 HD
ATOM      6  O   UNL     1      84.703  54.382  11.114  1.00  0.00    -0.273 OA
BRANCH   4   7
ATOM      7  C   UNL     1      86.233  56.620  10.089  1.00  0.00     0.175 C 
BRANCH   7   8
ATOM      8  C   UNL     1      86.619  56.660   8.638  1.00  0.00     0.243 C 
ATOM      9  N   UNL     1      85.616  56.610   7.610  1.00  0.00    -0.342 N 
ATOM     10  H   UNL     1      84.626  56.841   7.866  1.00  0.00     0.164 HD
ATOM     11  O   UNL     1      87.835  56.761   8.329  1.00  0.00    -0.273 OA
BRANCH   9  12
ATOM     12  C   UNL     1      85.888  56.149   6.241  1.00  0.00     0.174 CG0
ATOM     13  G   UNL     1      84.768  55.228   5.804  1.00  0.00     0.000 G0
BRANCH  12  14
ATOM     14  C   UNL     1      86.186  57.369   5.311  1.00  0.00     0.018 C 
ATOM     15  C   UNL     1      85.627  58.698   5.864  1.00  0.00     0.010 C 
BRANCH  14  16
ATOM     16  C   UNL     1      87.656  57.466   4.805  1.00  0.00     0.002 C 
ATOM     17  C   UNL     1      87.955  56.806   3.448  1.00  0.00     0.004 C 
ENDBRANCH  14  16
ENDBRANCH  12  14
ENDBRANCH   9  12
ENDBRANCH   7   8
BRANCH   7  18
ATOM     18  C   UNL     1      86.744  57.870  10.829  1.00  0.00     0.073 C 
BRANCH  18  19
ATOM     19  C   UNL     1      86.152  59.121  10.248  1.00  0.00    -0.016 A 
ATOM     20  C   UNL     1      86.608  59.811   9.130  1.00  0.00     0.134 A 
ATOM     21  C   UNL     1      84.939  59.699  10.582  1.00  0.00     0.006 A 
ATOM     22  N   UNL     1      85.733  60.789   8.802  1.00  0.00    -0.191 N 
ATOM     23  C   UNL     1      84.717  60.719   9.686  1.00  0.00     0.087 A 
ATOM     24  C   UNL     1      84.012  59.375  11.573  1.00  0.00     0.011 A 
ATOM     25  C   UNL     1      83.539  61.463   9.708  1.00  0.00     0.030 A 
ATOM     26  C   UNL     1      82.821  60.123  11.630  1.00  0.00     0.001 A 
ATOM     27  C   UNL     1      82.580  61.156  10.703  1.00  0.00     0.002 A 
BRANCH  22  28
ATOM     28  O   UNL     1      85.796  61.646   7.715  1.00  0.00    -0.417 OA
ATOM     29  C   UNL     1      86.423  62.925   7.790  1.00  0.00     0.313 C 
ENDBRANCH  22  28
ENDBRANCH  18  19
ENDBRANCH   7  18
ENDBRANCH   4   7
ENDBRANCH   2   3
BRANCH   2  30
ATOM     30  N   UNL     1      82.801  55.224   8.309  1.00  0.00    -0.343 N 
ATOM     31  C   UNL     1      82.493  54.211   7.324  1.00  0.00     0.243 C 
ATOM     32  H   UNL     1      82.674  56.216   8.011  1.00  0.00     0.164 HD
ATOM     33  O   UNL     1      81.315  54.154   6.863  1.00  0.00    -0.273 OA
BRANCH  31  34
ATOM     34  C   UNL     1      83.554  53.218   6.879  1.00  0.00     0.174 C 
ATOM     35  N   UNL     1      84.710  53.835   6.179  1.00  0.00    -0.329 N 
ATOM     36  C   UNL     1      82.957  52.094   5.995  1.00  0.00     0.035 C 
ATOM     37  C   UNL     1      85.818  52.954   5.749  1.00  0.00     0.120 C 
ATOM     38  C   UNL     1      84.020  51.274   5.243  1.00  0.00     0.004 C 
ATOM     39  C   UNL     1      85.434  51.468   5.804  1.00  0.00     0.022 C 
BRANCH  35  40
ATOM     40  C   UNL     1      84.762  55.224   5.783  1.00  0.00     0.246 CG0
ATOM     41  O   UNL     1      83.794  55.719   5.146  1.00  0.00    -0.272 OA
ATOM     42  G   UNL     1      85.884  56.130   6.247  1.00  0.00     0.000 G0
ENDBRANCH  35  40
ENDBRANCH  31  34
ENDBRANCH   2  30
ENDBRANCH   1   2
BRANCH   1  43
ATOM     43  C   UNL     1      81.502  57.051  10.308  1.00  0.00     0.003 C 
BRANCH  43  44
ATOM     44  C   UNL     1      80.066  57.560  10.515  1.00  0.00     0.001 C 
BRANCH  44  45
ATOM     45  C   UNL     1      78.990  56.466  10.637  1.00  0.00     0.008 C 
BRANCH  45  46
ATOM     46  C   UNL     1      77.971  56.505   9.479  1.00  0.00     0.075 C 
BRANCH  46  47
ATOM     47  C   UNL     1      78.165  55.387   8.478  1.00  0.00     0.132 C 
ATOM     48  O   UNL     1      78.397  54.251   8.862  1.00  0.00    -0.300 OA
BRANCH  47  49
ATOM     49  C   UNL     1      77.983  55.653   7.001  1.00  0.00     0.072 C 
ATOM     50  C   UNL     1      77.637  57.123   6.762  1.00  0.00     0.012 C 
ENDBRANCH  47  49
ENDBRANCH  46  47
ENDBRANCH  45  46
ENDBRANCH  44  45
ENDBRANCH  43  44
ENDBRANCH   1  43
TORSDOF 12
ENDMDL
