MODEL 1
REMARK VINA RESULT:    -3.817      0.000      0.000
REMARK INTER + INTRA:          -4.491
REMARK INTER:                  -4.263
REMARK INTRA:                  -0.228
REMARK UNBOUND:                -0.228
REMARK SMILES COc1cc(C)ccc1C(C)C
REMARK SMILES IDX 6 1 5 2 4 3 3 4 9 5 8 6 7 7 2 8 1 9 10 10 11 11 12 12
REMARK H PARENT
REMARK Flexibility Score: inf
ROOT
ATOM      1  C   UNL     1      29.022  44.424  86.642  1.00  0.00     0.044 C 
ATOM      2  C   UNL     1      28.799  44.480  85.159  1.00  0.00    -0.047 A 
ATOM      3  C   UNL     1      27.524  44.754  84.646  1.00  0.00     0.050 A 
ATOM      4  C   UNL     1      27.309  44.846  83.256  1.00  0.00     0.122 A 
ATOM      5  C   UNL     1      28.399  44.671  82.371  1.00  0.00    -0.003 A 
ATOM      6  C   UNL     1      29.678  44.417  82.902  1.00  0.00     0.008 A 
ATOM      7  C   UNL     1      29.877  44.329  84.279  1.00  0.00     0.004 A 
ENDROOT
BRANCH   4   8
ATOM      8  O   UNL     1      26.032  45.111  82.730  1.00  0.00    -0.496 OA
ATOM      9  C   UNL     1      24.829  44.482  83.162  1.00  0.00     0.278 C 
ENDBRANCH   4   8
BRANCH   5  10
ATOM     10  C   UNL     1      28.208  44.762  80.863  1.00  0.00     0.017 C 
ATOM     11  C   UNL     1      27.714  43.431  80.285  1.00  0.00     0.012 C 
ATOM     12  C   UNL     1      29.497  45.220  80.169  1.00  0.00     0.012 C 
ENDBRANCH   5  10
TORSDOF 2
ENDMDL
MODEL 2
REMARK VINA RESULT:    -3.802      1.295      3.915
REMARK INTER + INTRA:          -4.475
REMARK INTER:                  -4.198
REMARK INTRA:                  -0.278
REMARK UNBOUND:                -0.228
REMARK SMILES COc1cc(C)ccc1C(C)C
REMARK SMILES IDX 6 1 5 2 4 3 3 4 9 5 8 6 7 7 2 8 1 9 10 10 11 11 12 12
REMARK H PARENT
REMARK Flexibility Score: inf
ROOT
ATOM      1  C   UNL     1      26.879  44.027  79.154  1.00  0.00     0.044 C 
ATOM      2  C   UNL     1      27.437  44.282  80.524  1.00  0.00    -0.047 A 
ATOM      3  C   UNL     1      26.579  44.399  81.624  1.00  0.00     0.050 A 
ATOM      4  C   UNL     1      27.092  44.601  82.922  1.00  0.00     0.122 A 
ATOM      5  C   UNL     1      28.493  44.675  83.112  1.00  0.00    -0.003 A 
ATOM      6  C   UNL     1      29.342  44.534  81.998  1.00  0.00     0.008 A 
ATOM      7  C   UNL     1      28.821  44.334  80.720  1.00  0.00     0.004 A 
ENDROOT
BRANCH   4   8
ATOM      8  O   UNL     1      26.241  44.730  84.033  1.00  0.00    -0.496 OA
ATOM      9  C   UNL     1      25.542  45.920  84.388  1.00  0.00     0.278 C 
ENDBRANCH   4   8
BRANCH   5  10
ATOM     10  C   UNL     1      29.087  44.893  84.497  1.00  0.00     0.017 C 
ATOM     11  C   UNL     1      29.405  46.373  84.737  1.00  0.00     0.012 C 
ATOM     12  C   UNL     1      30.330  44.020  84.708  1.00  0.00     0.012 C 
ENDBRANCH   5  10
TORSDOF 2
ENDMDL
MODEL 3
REMARK VINA RESULT:    -3.770     15.946     17.921
REMARK INTER + INTRA:          -4.439
REMARK INTER:                  -4.190
REMARK INTRA:                  -0.249
REMARK UNBOUND:                -0.228
REMARK SMILES COc1cc(C)ccc1C(C)C
REMARK SMILES IDX 6 1 5 2 4 3 3 4 9 5 8 6 7 7 2 8 1 9 10 10 11 11 12 12
REMARK H PARENT
REMARK Flexibility Score: inf
ROOT
ATOM      1  C   UNL     1      30.677  28.062  74.814  1.00  0.00     0.044 C 
ATOM      2  C   UNL     1      29.326  28.595  74.437  1.00  0.00    -0.047 A 
ATOM      3  C   UNL     1      29.216  29.725  73.617  1.00  0.00     0.050 A 
ATOM      4  C   UNL     1      27.953  30.214  73.225  1.00  0.00     0.122 A 
ATOM      5  C   UNL     1      26.784  29.544  73.658  1.00  0.00    -0.003 A 
ATOM      6  C   UNL     1      26.911  28.397  74.464  1.00  0.00     0.008 A 
ATOM      7  C   UNL     1      28.167  27.924  74.844  1.00  0.00     0.004 A 
ENDROOT
BRANCH   4   8
ATOM      8  O   UNL     1      27.830  31.354  72.411  1.00  0.00    -0.496 OA
ATOM      9  C   UNL     1      27.999  32.695  72.860  1.00  0.00     0.278 C 
ENDBRANCH   4   8
BRANCH   5  10
ATOM     10  C   UNL     1      25.401  30.040  73.257  1.00  0.00     0.017 C 
ATOM     11  C   UNL     1      24.387  29.828  74.387  1.00  0.00     0.012 C 
ATOM     12  C   UNL     1      24.929  29.372  71.960  1.00  0.00     0.012 C 
ENDBRANCH   5  10
TORSDOF 2
ENDMDL
MODEL 4
REMARK VINA RESULT:    -3.722     15.599     17.301
REMARK INTER + INTRA:          -4.385
REMARK INTER:                  -4.145
REMARK INTRA:                  -0.241
REMARK UNBOUND:                -0.228
REMARK SMILES COc1cc(C)ccc1C(C)C
REMARK SMILES IDX 6 1 5 2 4 3 3 4 9 5 8 6 7 7 2 8 1 9 10 10 11 11 12 12
REMARK H PARENT
REMARK Flexibility Score: inf
ROOT
ATOM      1  C   UNL     1      30.860  31.225  72.789  1.00  0.00     0.044 C 
ATOM      2  C   UNL     1      29.391  30.961  72.954  1.00  0.00    -0.047 A 
ATOM      3  C   UNL     1      28.454  31.943  72.608  1.00  0.00     0.050 A 
ATOM      4  C   UNL     1      27.071  31.693  72.723  1.00  0.00     0.122 A 
ATOM      5  C   UNL     1      26.628  30.430  73.183  1.00  0.00    -0.003 A 
ATOM      6  C   UNL     1      27.582  29.447  73.506  1.00  0.00     0.008 A 
ATOM      7  C   UNL     1      28.948  29.707  73.387  1.00  0.00     0.004 A 
ENDROOT
BRANCH   4   8
ATOM      8  O   UNL     1      26.121  32.674  72.389  1.00  0.00    -0.496 OA
ATOM      9  C   UNL     1      26.432  34.016  72.026  1.00  0.00     0.278 C 
ENDBRANCH   4   8
BRANCH   5  10
ATOM     10  C   UNL     1      25.144  30.122  73.322  1.00  0.00     0.017 C 
ATOM     11  C   UNL     1      24.839  29.463  74.672  1.00  0.00     0.012 C 
ATOM     12  C   UNL     1      24.649  29.251  72.159  1.00  0.00     0.012 C 
ENDBRANCH   5  10
TORSDOF 2
ENDMDL
MODEL 5
REMARK VINA RESULT:    -3.670      9.137     10.653
REMARK INTER + INTRA:          -4.327
REMARK INTER:                  -4.079
REMARK INTRA:                  -0.248
REMARK UNBOUND:                -0.228
REMARK SMILES COc1cc(C)ccc1C(C)C
REMARK SMILES IDX 6 1 5 2 4 3 3 4 9 5 8 6 7 7 2 8 1 9 10 10 11 11 12 12
REMARK H PARENT
REMARK Flexibility Score: inf
ROOT
ATOM      1  C   UNL     1      22.161  40.825  87.670  1.00  0.00     0.044 C 
ATOM      2  C   UNL     1      22.493  39.380  87.437  1.00  0.00    -0.047 A 
ATOM      3  C   UNL     1      22.956  38.583  88.492  1.00  0.00     0.050 A 
ATOM      4  C   UNL     1      23.236  37.215  88.295  1.00  0.00     0.122 A 
ATOM      5  C   UNL     1      23.034  36.642  87.017  1.00  0.00    -0.003 A 
ATOM      6  C   UNL     1      22.548  37.451  85.973  1.00  0.00     0.008 A 
ATOM      7  C   UNL     1      22.274  38.803  86.182  1.00  0.00     0.004 A 
ENDROOT
BRANCH   4   8
ATOM      8  O   UNL     1      23.712  36.408  89.343  1.00  0.00    -0.496 OA
ATOM      9  C   UNL     1      22.969  36.073  90.511  1.00  0.00     0.278 C 
ENDBRANCH   4   8
BRANCH   5  10
ATOM     10  C   UNL     1      23.325  35.169  86.763  1.00  0.00     0.017 C 
ATOM     11  C   UNL     1      23.688  34.921  85.294  1.00  0.00     0.012 C 
ATOM     12  C   UNL     1      22.144  34.290  87.195  1.00  0.00     0.012 C 
ENDBRANCH   5  10
TORSDOF 2
ENDMDL
MODEL 6
REMARK VINA RESULT:    -3.644      2.657      3.893
REMARK INTER + INTRA:          -4.299
REMARK INTER:                  -4.021
REMARK INTRA:                  -0.277
REMARK UNBOUND:                -0.228
REMARK SMILES COc1cc(C)ccc1C(C)C
REMARK SMILES IDX 6 1 5 2 4 3 3 4 9 5 8 6 7 7 2 8 1 9 10 10 11 11 12 12
REMARK H PARENT
REMARK Flexibility Score: inf
ROOT
ATOM      1  C   UNL     1      25.585  44.803  89.614  1.00  0.00     0.044 C 
ATOM      2  C   UNL     1      26.441  44.765  88.381  1.00  0.00    -0.047 A 
ATOM      3  C   UNL     1      25.850  44.749  87.112  1.00  0.00     0.050 A 
ATOM      4  C   UNL     1      26.643  44.750  85.945  1.00  0.00     0.122 A 
ATOM      5  C   UNL     1      28.052  44.780  86.063  1.00  0.00    -0.003 A 
ATOM      6  C   UNL     1      28.631  44.817  87.346  1.00  0.00     0.008 A 
ATOM      7  C   UNL     1      27.835  44.816  88.491  1.00  0.00     0.004 A 
ENDROOT
BRANCH   4   8
ATOM      8  O   UNL     1      26.061  44.724  84.666  1.00  0.00    -0.496 OA
ATOM      9  C   UNL     1      25.474  45.848  84.017  1.00  0.00     0.278 C 
ENDBRANCH   4   8
BRANCH   5  10
ATOM     10  C   UNL     1      28.944  44.783  84.829  1.00  0.00     0.017 C 
ATOM     11  C   UNL     1      30.238  43.999  85.078  1.00  0.00     0.012 C 
ATOM     12  C   UNL     1      29.246  46.214  84.368  1.00  0.00     0.012 C 
ENDBRANCH   5  10
TORSDOF 2
ENDMDL
MODEL 7
REMARK VINA RESULT:    -3.598      9.420     10.581
REMARK INTER + INTRA:          -4.247
REMARK INTER:                  -3.984
REMARK INTRA:                  -0.263
REMARK UNBOUND:                -0.228
REMARK SMILES COc1cc(C)ccc1C(C)C
REMARK SMILES IDX 6 1 5 2 4 3 3 4 9 5 8 6 7 7 2 8 1 9 10 10 11 11 12 12
REMARK H PARENT
REMARK Flexibility Score: inf
ROOT
ATOM      1  C   UNL     1      22.664  40.370  88.740  1.00  0.00     0.044 C 
ATOM      2  C   UNL     1      22.628  38.974  88.188  1.00  0.00    -0.047 A 
ATOM      3  C   UNL     1      21.551  38.556  87.396  1.00  0.00     0.050 A 
ATOM      4  C   UNL     1      21.522  37.260  86.841  1.00  0.00     0.122 A 
ATOM      5  C   UNL     1      22.603  36.379  87.079  1.00  0.00    -0.003 A 
ATOM      6  C   UNL     1      23.688  36.821  87.859  1.00  0.00     0.008 A 
ATOM      7  C   UNL     1      23.704  38.106  88.402  1.00  0.00     0.004 A 
ENDROOT
BRANCH   4   8
ATOM      8  O   UNL     1      20.442  36.825  86.054  1.00  0.00    -0.496 OA
ATOM      9  C   UNL     1      20.267  37.133  84.674  1.00  0.00     0.278 C 
ENDBRANCH   4   8
BRANCH   5  10
ATOM     10  C   UNL     1      22.611  34.971  86.498  1.00  0.00     0.017 C 
ATOM     11  C   UNL     1      22.903  33.926  87.581  1.00  0.00     0.012 C 
ATOM     12  C   UNL     1      23.609  34.857  85.339  1.00  0.00     0.012 C 
ENDBRANCH   5  10
TORSDOF 2
ENDMDL
MODEL 8
REMARK VINA RESULT:    -3.564     10.704     11.858
REMARK INTER + INTRA:          -4.209
REMARK INTER:                  -3.940
REMARK INTRA:                  -0.269
REMARK UNBOUND:                -0.228
REMARK SMILES COc1cc(C)ccc1C(C)C
REMARK SMILES IDX 6 1 5 2 4 3 3 4 9 5 8 6 7 7 2 8 1 9 10 10 11 11 12 12
REMARK H PARENT
REMARK Flexibility Score: inf
ROOT
ATOM      1  C   UNL     1      23.837  33.266  91.011  1.00  0.00     0.044 C 
ATOM      2  C   UNL     1      23.499  33.950  89.718  1.00  0.00    -0.047 A 
ATOM      3  C   UNL     1      23.913  35.268  89.488  1.00  0.00     0.050 A 
ATOM      4  C   UNL     1      23.633  35.910  88.264  1.00  0.00     0.122 A 
ATOM      5  C   UNL     1      22.937  35.206  87.253  1.00  0.00    -0.003 A 
ATOM      6  C   UNL     1      22.546  33.875  87.492  1.00  0.00     0.008 A 
ATOM      7  C   UNL     1      22.829  33.252  88.708  1.00  0.00     0.004 A 
ENDROOT
BRANCH   4   8
ATOM      8  O   UNL     1      24.035  37.236  88.025  1.00  0.00    -0.496 OA
ATOM      9  C   UNL     1      23.336  38.391  88.480  1.00  0.00     0.278 C 
ENDBRANCH   4   8
BRANCH   5  10
ATOM     10  C   UNL     1      22.615  35.863  85.918  1.00  0.00     0.017 C 
ATOM     11  C   UNL     1      21.242  36.543  85.951  1.00  0.00     0.012 C 
ATOM     12  C   UNL     1      22.702  34.851  84.769  1.00  0.00     0.012 C 
ENDBRANCH   5  10
TORSDOF 2
ENDMDL
MODEL 9
REMARK VINA RESULT:    -3.522      9.909     11.676
REMARK INTER + INTRA:          -4.162
REMARK INTER:                  -3.894
REMARK INTRA:                  -0.268
REMARK UNBOUND:                -0.228
REMARK SMILES COc1cc(C)ccc1C(C)C
REMARK SMILES IDX 6 1 5 2 4 3 3 4 9 5 8 6 7 7 2 8 1 9 10 10 11 11 12 12
REMARK H PARENT
REMARK Flexibility Score: inf
ROOT
ATOM      1  C   UNL     1      21.149  34.352  83.296  1.00  0.00     0.044 C 
ATOM      2  C   UNL     1      21.667  34.938  84.577  1.00  0.00    -0.047 A 
ATOM      3  C   UNL     1      20.830  35.716  85.387  1.00  0.00     0.050 A 
ATOM      4  C   UNL     1      21.293  36.241  86.611  1.00  0.00     0.122 A 
ATOM      5  C   UNL     1      22.617  35.966  87.029  1.00  0.00    -0.003 A 
ATOM      6  C   UNL     1      23.439  35.164  86.214  1.00  0.00     0.008 A 
ATOM      7  C   UNL     1      22.968  34.651  85.006  1.00  0.00     0.004 A 
ENDROOT
BRANCH   4   8
ATOM      8  O   UNL     1      20.466  37.032  87.427  1.00  0.00    -0.496 OA
ATOM      9  C   UNL     1      20.080  38.373  87.136  1.00  0.00     0.278 C 
ENDBRANCH   4   8
BRANCH   5  10
ATOM     10  C   UNL     1      23.155  36.515  88.343  1.00  0.00     0.017 C 
ATOM     11  C   UNL     1      24.188  37.622  88.100  1.00  0.00     0.012 C 
ATOM     12  C   UNL     1      23.742  35.394  89.210  1.00  0.00     0.012 C 
ENDBRANCH   5  10
TORSDOF 2
ENDMDL
