MODEL 1
REMARK VINA RESULT:    13.852      0.000      0.000
REMARK INTER + INTRA:          31.096
REMARK INTER:                  31.668
REMARK INTRA:                  -0.571
REMARK UNBOUND:                -0.571
REMARK SMILES CCCCCCCCCCCCCCCCCCCCCCCC(=O)[O-]
REMARK SMILES IDX 13 1 14 2 15 3 16 4 17 5 18 6 19 7 20 8 21 9 22 10 23 11
REMARK SMILES IDX 24 12 25 13 26 14 12 15 11 16 10 17 9 18 8 19 7 20 6 21 5 22
REMARK SMILES IDX 4 23 3 24 2 25 1 26
REMARK H PARENT
REMARK Flexibility Score: inf
ROOT
ATOM      1  C   UNL     1       8.995 -25.038 -18.486  1.00  0.00     0.000 C 
ENDROOT
BRANCH   1   2
ATOM      2  C   UNL     1       7.466 -25.183 -18.445  1.00  0.00     0.000 C 
BRANCH   2   3
ATOM      3  C   UNL     1       6.973 -25.951 -17.208  1.00  0.00     0.000 C 
BRANCH   3   4
ATOM      4  C   UNL     1       6.447 -25.018 -16.101  1.00  0.00     0.000 C 
BRANCH   4   5
ATOM      5  C   UNL     1       4.928 -24.764 -16.202  1.00  0.00     0.000 C 
BRANCH   5   6
ATOM      6  C   UNL     1       4.067 -26.029 -16.019  1.00  0.00     0.000 C 
BRANCH   6   7
ATOM      7  C   UNL     1       3.762 -26.410 -14.559  1.00  0.00     0.000 C 
BRANCH   7   8
ATOM      8  C   UNL     1       3.306 -25.244 -13.662  1.00  0.00     0.000 C 
BRANCH   8   9
ATOM      9  C   UNL     1       4.309 -24.926 -12.543  1.00  0.00     0.000 C 
BRANCH   9  10
ATOM     10  C   UNL     1       4.813 -23.478 -12.649  1.00  0.00     0.006 C 
BRANCH  10  11
ATOM     11  C   UNL     1       5.845 -23.303 -13.770  1.00  0.00     0.053 C 
BRANCH  11  12
ATOM     12  C   UNL     1       6.783 -22.169 -13.489  1.00  0.00     0.041 C 
ATOM     13  O   UNL     1       8.028 -22.352 -13.529  1.00  0.00    -0.550 OA
ATOM     14  O   UNL     1       6.282 -20.920 -13.140  1.00  0.00    -0.550 OA
ENDBRANCH  11  12
ENDBRANCH  10  11
ENDBRANCH   9  10
ENDBRANCH   8   9
ENDBRANCH   7   8
ENDBRANCH   6   7
ENDBRANCH   5   6
ENDBRANCH   4   5
ENDBRANCH   3   4
ENDBRANCH   2   3
ENDBRANCH   1   2
BRANCH   1  15
ATOM     15  C   UNL     1       9.479 -24.732 -19.908  1.00  0.00     0.000 C 
BRANCH  15  16
ATOM     16  C   UNL     1       8.542 -23.734 -20.606  1.00  0.00     0.000 C 
BRANCH  16  17
ATOM     17  C   UNL     1       9.063 -23.290 -21.982  1.00  0.00     0.000 C 
BRANCH  17  18
ATOM     18  C   UNL     1      10.457 -23.858 -22.300  1.00  0.00    -0.000 C 
BRANCH  18  19
ATOM     19  C   UNL     1      10.938 -23.475 -23.710  1.00  0.00    -0.000 C 
BRANCH  19  20
ATOM     20  C   UNL     1      12.333 -22.827 -23.696  1.00  0.00    -0.000 C 
BRANCH  20  21
ATOM     21  C   UNL     1      13.022 -22.853 -25.073  1.00  0.00    -0.000 C 
BRANCH  21  22
ATOM     22  C   UNL     1      12.805 -24.137 -25.895  1.00  0.00    -0.000 C 
BRANCH  22  23
ATOM     23  C   UNL     1      13.984 -24.463 -26.826  1.00  0.00    -0.000 C 
BRANCH  23  24
ATOM     24  C   UNL     1      15.344 -24.381 -26.113  1.00  0.00    -0.000 C 
BRANCH  24  25
ATOM     25  C   UNL     1      16.460 -23.762 -26.978  1.00  0.00    -0.003 C 
ATOM     26  C   UNL     1      15.904 -22.916 -28.124  1.00  0.00     0.004 C 
ENDBRANCH  24  25
ENDBRANCH  23  24
ENDBRANCH  22  23
ENDBRANCH  21  22
ENDBRANCH  20  21
ENDBRANCH  19  20
ENDBRANCH  18  19
ENDBRANCH  17  18
ENDBRANCH  16  17
ENDBRANCH  15  16
ENDBRANCH   1  15
TORSDOF 22
ENDMDL
MODEL 2
REMARK VINA RESULT:    14.285      5.967     11.063
REMARK INTER + INTRA:          32.087
REMARK INTER:                  33.138
REMARK INTRA:                  -1.051
REMARK UNBOUND:                -0.571
REMARK SMILES CCCCCCCCCCCCCCCCCCCCCCCC(=O)[O-]
REMARK SMILES IDX 13 1 14 2 15 3 16 4 17 5 18 6 19 7 20 8 21 9 22 10 23 11
REMARK SMILES IDX 24 12 25 13 26 14 12 15 11 16 10 17 9 18 8 19 7 20 6 21 5 22
REMARK SMILES IDX 4 23 3 24 2 25 1 26
REMARK H PARENT
REMARK Flexibility Score: inf
ROOT
ATOM      1  C   UNL     1       6.680 -21.963 -13.503  1.00  0.00     0.000 C 
ENDROOT
BRANCH   1   2
ATOM      2  C   UNL     1       6.225 -23.348 -13.015  1.00  0.00     0.000 C 
BRANCH   2   3
ATOM      3  C   UNL     1       4.702 -23.537 -13.098  1.00  0.00     0.000 C 
BRANCH   3   4
ATOM      4  C   UNL     1       4.272 -24.999 -12.871  1.00  0.00     0.000 C 
BRANCH   4   5
ATOM      5  C   UNL     1       3.828 -25.701 -14.171  1.00  0.00     0.000 C 
BRANCH   5   6
ATOM      6  C   UNL     1       4.440 -25.101 -15.450  1.00  0.00     0.000 C 
BRANCH   6   7
ATOM      7  C   UNL     1       5.913 -25.470 -15.709  1.00  0.00     0.000 C 
BRANCH   7   8
ATOM      8  C   UNL     1       6.511 -24.894 -17.006  1.00  0.00     0.000 C 
BRANCH   8   9
ATOM      9  C   UNL     1       7.702 -25.713 -17.528  1.00  0.00     0.000 C 
BRANCH   9  10
ATOM     10  C   UNL     1       7.938 -25.451 -19.023  1.00  0.00     0.006 C 
BRANCH  10  11
ATOM     11  C   UNL     1       9.044 -24.415 -19.264  1.00  0.00     0.053 C 
BRANCH  11  12
ATOM     12  C   UNL     1       9.315 -24.221 -20.724  1.00  0.00     0.041 C 
ATOM     13  O   UNL     1       8.540 -23.518 -21.424  1.00  0.00    -0.550 OA
ATOM     14  O   UNL     1      10.399 -24.852 -21.321  1.00  0.00    -0.550 OA
ENDBRANCH  11  12
ENDBRANCH  10  11
ENDBRANCH   9  10
ENDBRANCH   8   9
ENDBRANCH   7   8
ENDBRANCH   6   7
ENDBRANCH   5   6
ENDBRANCH   4   5
ENDBRANCH   3   4
ENDBRANCH   2   3
ENDBRANCH   1   2
BRANCH   1  15
ATOM     15  C   UNL     1       5.487 -21.139 -14.003  1.00  0.00     0.000 C 
BRANCH  15  16
ATOM     16  C   UNL     1       5.360 -19.823 -13.220  1.00  0.00     0.000 C 
BRANCH  16  17
ATOM     17  C   UNL     1       5.007 -18.627 -14.119  1.00  0.00     0.000 C 
BRANCH  17  18
ATOM     18  C   UNL     1       3.694 -17.941 -13.704  1.00  0.00    -0.000 C 
BRANCH  18  19
ATOM     19  C   UNL     1       3.519 -16.563 -14.364  1.00  0.00    -0.000 C 
BRANCH  19  20
ATOM     20  C   UNL     1       2.155 -16.417 -15.060  1.00  0.00    -0.000 C 
BRANCH  20  21
ATOM     21  C   UNL     1       1.883 -14.983 -15.553  1.00  0.00    -0.000 C 
BRANCH  21  22
ATOM     22  C   UNL     1       1.828 -14.811 -17.082  1.00  0.00    -0.000 C 
BRANCH  22  23
ATOM     23  C   UNL     1       3.186 -15.048 -17.763  1.00  0.00    -0.000 C 
BRANCH  23  24
ATOM     24  C   UNL     1       3.362 -14.217 -19.044  1.00  0.00    -0.000 C 
BRANCH  24  25
ATOM     25  C   UNL     1       3.045 -12.719 -18.858  1.00  0.00    -0.003 C 
ATOM     26  C   UNL     1       4.291 -11.900 -18.517  1.00  0.00     0.004 C 
ENDBRANCH  24  25
ENDBRANCH  23  24
ENDBRANCH  22  23
ENDBRANCH  21  22
ENDBRANCH  20  21
ENDBRANCH  19  20
ENDBRANCH  18  19
ENDBRANCH  17  18
ENDBRANCH  16  17
ENDBRANCH  15  16
ENDBRANCH   1  15
TORSDOF 22
ENDMDL
MODEL 3
REMARK VINA RESULT:    14.502      6.101      9.928
REMARK INTER + INTRA:          32.582
REMARK INTER:                  33.663
REMARK INTRA:                  -1.081
REMARK UNBOUND:                -0.571
REMARK SMILES CCCCCCCCCCCCCCCCCCCCCCCC(=O)[O-]
REMARK SMILES IDX 13 1 14 2 15 3 16 4 17 5 18 6 19 7 20 8 21 9 22 10 23 11
REMARK SMILES IDX 24 12 25 13 26 14 12 15 11 16 10 17 9 18 8 19 7 20 6 21 5 22
REMARK SMILES IDX 4 23 3 24 2 25 1 26
REMARK H PARENT
REMARK Flexibility Score: inf
ROOT
ATOM      1  C   UNL     1       5.646 -21.472 -13.980  1.00  0.00     0.000 C 
ENDROOT
BRANCH   1   2
ATOM      2  C   UNL     1       5.759 -20.176 -13.163  1.00  0.00     0.000 C 
BRANCH   2   3
ATOM      3  C   UNL     1       5.223 -18.948 -13.918  1.00  0.00     0.000 C 
BRANCH   3   4
ATOM      4  C   UNL     1       3.792 -18.569 -13.494  1.00  0.00     0.000 C 
BRANCH   4   5
ATOM      5  C   UNL     1       3.550 -17.045 -13.495  1.00  0.00     0.000 C 
BRANCH   5   6
ATOM      6  C   UNL     1       3.227 -16.462 -14.884  1.00  0.00     0.000 C 
BRANCH   6   7
ATOM      7  C   UNL     1       2.038 -15.484 -14.925  1.00  0.00     0.000 C 
BRANCH   7   8
ATOM      8  C   UNL     1       1.293 -15.420 -16.272  1.00  0.00     0.000 C 
BRANCH   8   9
ATOM      9  C   UNL     1       1.839 -14.327 -17.203  1.00  0.00     0.000 C 
BRANCH   9  10
ATOM     10  C   UNL     1       3.183 -14.748 -17.818  1.00  0.00     0.006 C 
BRANCH  10  11
ATOM     11  C   UNL     1       3.412 -14.121 -19.200  1.00  0.00     0.053 C 
BRANCH  11  12
ATOM     12  C   UNL     1       3.448 -12.625 -19.132  1.00  0.00     0.041 C 
ATOM     13  O   UNL     1       4.323 -12.044 -18.437  1.00  0.00    -0.550 OA
ATOM     14  O   UNL     1       2.489 -11.874 -19.801  1.00  0.00    -0.550 OA
ENDBRANCH  11  12
ENDBRANCH  10  11
ENDBRANCH   9  10
ENDBRANCH   8   9
ENDBRANCH   7   8
ENDBRANCH   6   7
ENDBRANCH   5   6
ENDBRANCH   4   5
ENDBRANCH   3   4
ENDBRANCH   2   3
ENDBRANCH   1   2
BRANCH   1  15
ATOM     15  C   UNL     1       6.661 -22.515 -13.497  1.00  0.00     0.000 C 
BRANCH  15  16
ATOM     16  C   UNL     1       5.967 -23.632 -12.703  1.00  0.00     0.000 C 
BRANCH  16  17
ATOM     17  C   UNL     1       4.565 -23.963 -13.240  1.00  0.00     0.000 C 
BRANCH  17  18
ATOM     18  C   UNL     1       4.432 -25.430 -13.684  1.00  0.00    -0.000 C 
BRANCH  18  19
ATOM     19  C   UNL     1       4.291 -25.570 -15.209  1.00  0.00    -0.000 C 
BRANCH  19  20
ATOM     20  C   UNL     1       5.367 -24.776 -15.971  1.00  0.00    -0.000 C 
BRANCH  20  21
ATOM     21  C   UNL     1       6.509 -25.665 -16.497  1.00  0.00    -0.000 C 
BRANCH  21  22
ATOM     22  C   UNL     1       7.704 -24.910 -17.107  1.00  0.00    -0.000 C 
BRANCH  22  23
ATOM     23  C   UNL     1       7.961 -25.279 -18.578  1.00  0.00    -0.000 C 
BRANCH  23  24
ATOM     24  C   UNL     1       9.124 -24.485 -19.195  1.00  0.00    -0.000 C 
BRANCH  24  25
ATOM     25  C   UNL     1       9.306 -24.729 -20.707  1.00  0.00    -0.003 C 
ATOM     26  C   UNL     1       9.002 -23.482 -21.537  1.00  0.00     0.004 C 
ENDBRANCH  24  25
ENDBRANCH  23  24
ENDBRANCH  22  23
ENDBRANCH  21  22
ENDBRANCH  20  21
ENDBRANCH  19  20
ENDBRANCH  18  19
ENDBRANCH  17  18
ENDBRANCH  16  17
ENDBRANCH  15  16
ENDBRANCH   1  15
TORSDOF 22
ENDMDL
MODEL 4
REMARK VINA RESULT:    14.752      5.567      9.277
REMARK INTER + INTRA:          33.152
REMARK INTER:                  34.439
REMARK INTRA:                  -1.287
REMARK UNBOUND:                -0.571
REMARK SMILES CCCCCCCCCCCCCCCCCCCCCCCC(=O)[O-]
REMARK SMILES IDX 13 1 14 2 15 3 16 4 17 5 18 6 19 7 20 8 21 9 22 10 23 11
REMARK SMILES IDX 24 12 25 13 26 14 12 15 11 16 10 17 9 18 8 19 7 20 6 21 5 22
REMARK SMILES IDX 4 23 3 24 2 25 1 26
REMARK H PARENT
REMARK Flexibility Score: inf
ROOT
ATOM      1  C   UNL     1       6.506 -22.880 -13.346  1.00  0.00     0.000 C 
ENDROOT
BRANCH   1   2
ATOM      2  C   UNL     1       5.792 -21.803 -14.179  1.00  0.00     0.000 C 
BRANCH   2   3
ATOM      3  C   UNL     1       5.740 -20.440 -13.470  1.00  0.00     0.000 C 
BRANCH   3   4
ATOM      4  C   UNL     1       4.625 -19.529 -14.017  1.00  0.00     0.000 C 
BRANCH   4   5
ATOM      5  C   UNL     1       4.669 -18.106 -13.423  1.00  0.00     0.000 C 
BRANCH   5   6
ATOM      6  C   UNL     1       3.349 -17.325 -13.567  1.00  0.00     0.000 C 
BRANCH   6   7
ATOM      7  C   UNL     1       3.214 -16.496 -14.858  1.00  0.00     0.000 C 
BRANCH   7   8
ATOM      8  C   UNL     1       1.924 -15.660 -14.965  1.00  0.00     0.000 C 
BRANCH   8   9
ATOM      9  C   UNL     1       1.499 -15.404 -16.418  1.00  0.00     0.000 C 
BRANCH   9  10
ATOM     10  C   UNL     1       2.142 -14.120 -16.963  1.00  0.00     0.006 C 
BRANCH  10  11
ATOM     11  C   UNL     1       3.343 -14.412 -17.872  1.00  0.00     0.053 C 
BRANCH  11  12
ATOM     12  C   UNL     1       3.119 -13.913 -19.267  1.00  0.00     0.041 C 
ATOM     13  O   UNL     1       2.966 -14.729 -20.214  1.00  0.00    -0.550 OA
ATOM     14  O   UNL     1       3.121 -12.548 -19.527  1.00  0.00    -0.550 OA
ENDBRANCH  11  12
ENDBRANCH  10  11
ENDBRANCH   9  10
ENDBRANCH   8   9
ENDBRANCH   7   8
ENDBRANCH   6   7
ENDBRANCH   5   6
ENDBRANCH   4   5
ENDBRANCH   3   4
ENDBRANCH   2   3
ENDBRANCH   1   2
BRANCH   1  15
ATOM     15  C   UNL     1       5.500 -23.690 -12.520  1.00  0.00     0.000 C 
BRANCH  15  16
ATOM     16  C   UNL     1       4.256 -24.036 -13.352  1.00  0.00     0.000 C 
BRANCH  16  17
ATOM     17  C   UNL     1       4.269 -25.484 -13.869  1.00  0.00     0.000 C 
BRANCH  17  18
ATOM     18  C   UNL     1       4.228 -25.566 -15.404  1.00  0.00    -0.000 C 
BRANCH  18  19
ATOM     19  C   UNL     1       5.349 -24.746 -16.065  1.00  0.00    -0.000 C 
BRANCH  19  20
ATOM     20  C   UNL     1       6.742 -25.342 -15.802  1.00  0.00    -0.000 C 
BRANCH  20  21
ATOM     21  C   UNL     1       7.711 -25.148 -16.983  1.00  0.00    -0.000 C 
BRANCH  21  22
ATOM     22  C   UNL     1       7.260 -25.771 -18.316  1.00  0.00    -0.000 C 
BRANCH  22  23
ATOM     23  C   UNL     1       8.323 -25.663 -19.422  1.00  0.00    -0.000 C 
BRANCH  23  24
ATOM     24  C   UNL     1       8.811 -24.221 -19.639  1.00  0.00    -0.000 C 
BRANCH  24  25
ATOM     25  C   UNL     1       9.257 -23.930 -21.086  1.00  0.00    -0.003 C 
ATOM     26  C   UNL     1       8.473 -22.778 -21.715  1.00  0.00     0.004 C 
ENDBRANCH  24  25
ENDBRANCH  23  24
ENDBRANCH  22  23
ENDBRANCH  21  22
ENDBRANCH  20  21
ENDBRANCH  19  20
ENDBRANCH  18  19
ENDBRANCH  17  18
ENDBRANCH  16  17
ENDBRANCH  15  16
ENDBRANCH   1  15
TORSDOF 22
ENDMDL
MODEL 5
REMARK VINA RESULT:    15.249      1.630      3.333
REMARK INTER + INTRA:          34.290
REMARK INTER:                  34.057
REMARK INTRA:                   0.234
REMARK UNBOUND:                -0.571
REMARK SMILES CCCCCCCCCCCCCCCCCCCCCCCC(=O)[O-]
REMARK SMILES IDX 13 1 14 2 15 3 16 4 17 5 18 6 19 7 20 8 21 9 22 10 23 11
REMARK SMILES IDX 24 12 25 13 26 14 12 15 11 16 10 17 9 18 8 19 7 20 6 21 5 22
REMARK SMILES IDX 4 23 3 24 2 25 1 26
REMARK H PARENT
REMARK Flexibility Score: inf
ROOT
ATOM      1  C   UNL     1      10.580 -24.135 -21.502  1.00  0.00     0.000 C 
ENDROOT
BRANCH   1   2
ATOM      2  C   UNL     1       9.270 -24.724 -20.957  1.00  0.00     0.000 C 
BRANCH   2   3
ATOM      3  C   UNL     1       9.056 -24.418 -19.465  1.00  0.00     0.000 C 
BRANCH   3   4
ATOM      4  C   UNL     1       7.876 -25.203 -18.862  1.00  0.00     0.000 C 
BRANCH   4   5
ATOM      5  C   UNL     1       7.862 -25.173 -17.319  1.00  0.00     0.000 C 
BRANCH   5   6
ATOM      6  C   UNL     1       6.537 -24.673 -16.713  1.00  0.00     0.000 C 
BRANCH   6   7
ATOM      7  C   UNL     1       5.959 -25.550 -15.587  1.00  0.00     0.000 C 
BRANCH   7   8
ATOM      8  C   UNL     1       4.424 -25.513 -15.455  1.00  0.00     0.000 C 
BRANCH   8   9
ATOM      9  C   UNL     1       3.957 -25.106 -14.048  1.00  0.00     0.000 C 
BRANCH   9  10
ATOM     10  C   UNL     1       5.010 -24.233 -13.349  1.00  0.00     0.006 C 
BRANCH  10  11
ATOM     11  C   UNL     1       5.530 -23.110 -14.256  1.00  0.00     0.053 C 
BRANCH  11  12
ATOM     12  C   UNL     1       6.531 -22.246 -13.552  1.00  0.00     0.041 C 
ATOM     13  O   UNL     1       7.764 -22.465 -13.687  1.00  0.00    -0.550 OA
ATOM     14  O   UNL     1       6.102 -21.227 -12.711  1.00  0.00    -0.550 OA
ENDBRANCH  11  12
ENDBRANCH  10  11
ENDBRANCH   9  10
ENDBRANCH   8   9
ENDBRANCH   7   8
ENDBRANCH   6   7
ENDBRANCH   5   6
ENDBRANCH   4   5
ENDBRANCH   3   4
ENDBRANCH   2   3
ENDBRANCH   1   2
BRANCH   1  15
ATOM     15  C   UNL     1      10.309 -23.201 -22.688  1.00  0.00     0.000 C 
BRANCH  15  16
ATOM     16  C   UNL     1      11.087 -23.653 -23.934  1.00  0.00     0.000 C 
BRANCH  16  17
ATOM     17  C   UNL     1      12.486 -23.022 -24.024  1.00  0.00     0.000 C 
BRANCH  17  18
ATOM     18  C   UNL     1      13.040 -23.010 -25.459  1.00  0.00    -0.000 C 
BRANCH  18  19
ATOM     19  C   UNL     1      13.592 -24.380 -25.886  1.00  0.00    -0.000 C 
BRANCH  19  20
ATOM     20  C   UNL     1      15.105 -24.340 -26.161  1.00  0.00    -0.000 C 
BRANCH  20  21
ATOM     21  C   UNL     1      15.442 -23.951 -27.613  1.00  0.00    -0.000 C 
BRANCH  21  22
ATOM     22  C   UNL     1      15.847 -22.481 -27.824  1.00  0.00    -0.000 C 
BRANCH  22  23
ATOM     23  C   UNL     1      14.647 -21.559 -28.099  1.00  0.00    -0.000 C 
BRANCH  23  24
ATOM     24  C   UNL     1      14.995 -20.069 -27.946  1.00  0.00    -0.000 C 
BRANCH  24  25
ATOM     25  C   UNL     1      13.783 -19.130 -28.119  1.00  0.00    -0.003 C 
ATOM     26  C   UNL     1      13.614 -18.177 -26.936  1.00  0.00     0.004 C 
ENDBRANCH  24  25
ENDBRANCH  23  24
ENDBRANCH  22  23
ENDBRANCH  21  22
ENDBRANCH  20  21
ENDBRANCH  19  20
ENDBRANCH  18  19
ENDBRANCH  17  18
ENDBRANCH  16  17
ENDBRANCH  15  16
ENDBRANCH   1  15
TORSDOF 22
ENDMDL
MODEL 6
REMARK VINA RESULT:    15.423      5.663     10.700
REMARK INTER + INTRA:          34.688
REMARK INTER:                  36.228
REMARK INTRA:                  -1.540
REMARK UNBOUND:                -0.571
REMARK SMILES CCCCCCCCCCCCCCCCCCCCCCCC(=O)[O-]
REMARK SMILES IDX 13 1 14 2 15 3 16 4 17 5 18 6 19 7 20 8 21 9 22 10 23 11
REMARK SMILES IDX 24 12 25 13 26 14 12 15 11 16 10 17 9 18 8 19 7 20 6 21 5 22
REMARK SMILES IDX 4 23 3 24 2 25 1 26
REMARK H PARENT
REMARK Flexibility Score: inf
ROOT
ATOM      1  C   UNL     1       6.273 -22.481 -13.505  1.00  0.00     0.000 C 
ENDROOT
BRANCH   1   2
ATOM      2  C   UNL     1       5.436 -23.528 -12.753  1.00  0.00     0.000 C 
BRANCH   2   3
ATOM      3  C   UNL     1       4.161 -23.927 -13.513  1.00  0.00     0.000 C 
BRANCH   3   4
ATOM      4  C   UNL     1       3.978 -25.454 -13.604  1.00  0.00     0.000 C 
BRANCH   4   5
ATOM      5  C   UNL     1       4.339 -26.018 -14.995  1.00  0.00     0.000 C 
BRANCH   5   6
ATOM      6  C   UNL     1       5.059 -25.012 -15.912  1.00  0.00     0.000 C 
BRANCH   6   7
ATOM      7  C   UNL     1       6.572 -25.244 -16.081  1.00  0.00     0.000 C 
BRANCH   7   8
ATOM      8  C   UNL     1       7.003 -25.753 -17.469  1.00  0.00     0.000 C 
BRANCH   8   9
ATOM      9  C   UNL     1       8.210 -24.990 -18.036  1.00  0.00     0.000 C 
BRANCH   9  10
ATOM     10  C   UNL     1       8.098 -24.835 -19.560  1.00  0.00     0.006 C 
BRANCH  10  11
ATOM     11  C   UNL     1       9.392 -24.297 -20.186  1.00  0.00     0.053 C 
BRANCH  11  12
ATOM     12  C   UNL     1       9.138 -23.645 -21.510  1.00  0.00     0.041 C 
ATOM     13  O   UNL     1       8.133 -22.903 -21.670  1.00  0.00    -0.550 OA
ATOM     14  O   UNL     1       9.988 -23.891 -22.582  1.00  0.00    -0.550 OA
ENDBRANCH  11  12
ENDBRANCH  10  11
ENDBRANCH   9  10
ENDBRANCH   8   9
ENDBRANCH   7   8
ENDBRANCH   6   7
ENDBRANCH   5   6
ENDBRANCH   4   5
ENDBRANCH   3   4
ENDBRANCH   2   3
ENDBRANCH   1   2
BRANCH   1  15
ATOM     15  C   UNL     1       5.378 -21.383 -14.091  1.00  0.00     0.000 C 
BRANCH  15  16
ATOM     16  C   UNL     1       5.709 -20.015 -13.474  1.00  0.00     0.000 C 
BRANCH  16  17
ATOM     17  C   UNL     1       4.931 -18.862 -14.129  1.00  0.00     0.000 C 
BRANCH  17  18
ATOM     18  C   UNL     1       5.645 -18.294 -15.367  1.00  0.00    -0.000 C 
BRANCH  18  19
ATOM     19  C   UNL     1       4.854 -17.152 -16.028  1.00  0.00    -0.000 C 
BRANCH  19  20
ATOM     20  C   UNL     1       5.484 -16.695 -17.354  1.00  0.00    -0.000 C 
BRANCH  20  21
ATOM     21  C   UNL     1       5.168 -15.226 -17.694  1.00  0.00    -0.000 C 
BRANCH  21  22
ATOM     22  C   UNL     1       4.591 -14.985 -19.101  1.00  0.00    -0.000 C 
BRANCH  22  23
ATOM     23  C   UNL     1       3.196 -14.339 -19.077  1.00  0.00    -0.000 C 
BRANCH  23  24
ATOM     24  C   UNL     1       2.810 -13.809 -17.687  1.00  0.00    -0.000 C 
BRANCH  24  25
ATOM     25  C   UNL     1       1.472 -14.368 -17.161  1.00  0.00    -0.003 C 
ATOM     26  C   UNL     1       1.663 -15.306 -15.969  1.00  0.00     0.004 C 
ENDBRANCH  24  25
ENDBRANCH  23  24
ENDBRANCH  22  23
ENDBRANCH  21  22
ENDBRANCH  20  21
ENDBRANCH  19  20
ENDBRANCH  18  19
ENDBRANCH  17  18
ENDBRANCH  16  17
ENDBRANCH  15  16
ENDBRANCH   1  15
TORSDOF 22
ENDMDL
MODEL 7
REMARK VINA RESULT:    15.508      0.913      2.052
REMARK INTER + INTRA:          34.882
REMARK INTER:                  36.228
REMARK INTRA:                  -1.347
REMARK UNBOUND:                -0.571
REMARK SMILES CCCCCCCCCCCCCCCCCCCCCCCC(=O)[O-]
REMARK SMILES IDX 13 1 14 2 15 3 16 4 17 5 18 6 19 7 20 8 21 9 22 10 23 11
REMARK SMILES IDX 24 12 25 13 26 14 12 15 11 16 10 17 9 18 8 19 7 20 6 21 5 22
REMARK SMILES IDX 4 23 3 24 2 25 1 26
REMARK H PARENT
REMARK Flexibility Score: inf
ROOT
ATOM      1  C   UNL     1       8.491 -24.837 -17.383  1.00  0.00     0.000 C 
ENDROOT
BRANCH   1   2
ATOM      2  C   UNL     1       7.801 -24.790 -16.011  1.00  0.00     0.000 C 
BRANCH   2   3
ATOM      3  C   UNL     1       6.568 -25.705 -15.934  1.00  0.00     0.000 C 
BRANCH   3   4
ATOM      4  C   UNL     1       5.243 -24.924 -16.013  1.00  0.00     0.000 C 
BRANCH   4   5
ATOM      5  C   UNL     1       4.039 -25.819 -16.375  1.00  0.00     0.000 C 
BRANCH   5   6
ATOM      6  C   UNL     1       3.105 -26.124 -15.190  1.00  0.00     0.000 C 
BRANCH   6   7
ATOM      7  C   UNL     1       3.747 -26.912 -14.033  1.00  0.00     0.000 C 
BRANCH   7   8
ATOM      8  C   UNL     1       4.016 -26.094 -12.756  1.00  0.00     0.000 C 
BRANCH   8   9
ATOM      9  C   UNL     1       3.792 -24.587 -12.956  1.00  0.00     0.000 C 
BRANCH   9  10
ATOM     10  C   UNL     1       5.105 -23.808 -12.788  1.00  0.00     0.006 C 
BRANCH  10  11
ATOM     11  C   UNL     1       5.301 -22.754 -13.886  1.00  0.00     0.053 C 
BRANCH  11  12
ATOM     12  C   UNL     1       6.401 -21.796 -13.547  1.00  0.00     0.041 C 
ATOM     13  O   UNL     1       6.163 -20.563 -13.461  1.00  0.00    -0.550 OA
ATOM     14  O   UNL     1       7.699 -22.261 -13.369  1.00  0.00    -0.550 OA
ENDBRANCH  11  12
ENDBRANCH  10  11
ENDBRANCH   9  10
ENDBRANCH   8   9
ENDBRANCH   7   8
ENDBRANCH   6   7
ENDBRANCH   5   6
ENDBRANCH   4   5
ENDBRANCH   3   4
ENDBRANCH   2   3
ENDBRANCH   1   2
BRANCH   1  15
ATOM     15  C   UNL     1       7.635 -25.599 -18.402  1.00  0.00     0.000 C 
BRANCH  15  16
ATOM     16  C   UNL     1       7.786 -24.998 -19.808  1.00  0.00     0.000 C 
BRANCH  16  17
ATOM     17  C   UNL     1       9.084 -24.190 -19.974  1.00  0.00     0.000 C 
BRANCH  17  18
ATOM     18  C   UNL     1      10.293 -25.076 -20.317  1.00  0.00    -0.000 C 
BRANCH  18  19
ATOM     19  C   UNL     1      11.017 -24.613 -21.592  1.00  0.00    -0.000 C 
BRANCH  19  20
ATOM     20  C   UNL     1      10.072 -23.896 -22.572  1.00  0.00    -0.000 C 
BRANCH  20  21
ATOM     21  C   UNL     1      10.823 -23.109 -23.663  1.00  0.00    -0.000 C 
BRANCH  21  22
ATOM     22  C   UNL     1      12.294 -22.785 -23.348  1.00  0.00    -0.000 C 
BRANCH  22  23
ATOM     23  C   UNL     1      13.194 -22.798 -24.595  1.00  0.00    -0.000 C 
BRANCH  23  24
ATOM     24  C   UNL     1      12.582 -23.592 -25.762  1.00  0.00    -0.000 C 
BRANCH  24  25
ATOM     25  C   UNL     1      13.589 -24.516 -26.476  1.00  0.00    -0.003 C 
ATOM     26  C   UNL     1      15.039 -24.141 -26.172  1.00  0.00     0.004 C 
ENDBRANCH  24  25
ENDBRANCH  23  24
ENDBRANCH  22  23
ENDBRANCH  21  22
ENDBRANCH  20  21
ENDBRANCH  19  20
ENDBRANCH  18  19
ENDBRANCH  17  18
ENDBRANCH  16  17
ENDBRANCH  15  16
ENDBRANCH   1  15
TORSDOF 22
ENDMDL
MODEL 8
REMARK VINA RESULT:    15.596      4.781     13.014
REMARK INTER + INTRA:          35.082
REMARK INTER:                  36.075
REMARK INTRA:                  -0.993
REMARK UNBOUND:                -0.571
REMARK SMILES CCCCCCCCCCCCCCCCCCCCCCCC(=O)[O-]
REMARK SMILES IDX 13 1 14 2 15 3 16 4 17 5 18 6 19 7 20 8 21 9 22 10 23 11
REMARK SMILES IDX 24 12 25 13 26 14 12 15 11 16 10 17 9 18 8 19 7 20 6 21 5 22
REMARK SMILES IDX 4 23 3 24 2 25 1 26
REMARK H PARENT
REMARK Flexibility Score: inf
ROOT
ATOM      1  C   UNL     1       8.895 -24.705 -18.454  1.00  0.00     0.000 C 
ENDROOT
BRANCH   1   2
ATOM      2  C   UNL     1       9.489 -24.473 -19.852  1.00  0.00     0.000 C 
BRANCH   2   3
ATOM      3  C   UNL     1       8.471 -23.880 -20.840  1.00  0.00     0.000 C 
BRANCH   3   4
ATOM      4  C   UNL     1       9.143 -23.142 -22.013  1.00  0.00     0.000 C 
BRANCH   4   5
ATOM      5  C   UNL     1      10.491 -23.772 -22.424  1.00  0.00     0.000 C 
BRANCH   5   6
ATOM      6  C   UNL     1      11.043 -23.253 -23.765  1.00  0.00     0.000 C 
BRANCH   6   7
ATOM      7  C   UNL     1      12.560 -22.994 -23.794  1.00  0.00     0.000 C 
BRANCH   7   8
ATOM      8  C   UNL     1      13.164 -22.812 -25.200  1.00  0.00     0.000 C 
BRANCH   8   9
ATOM      9  C   UNL     1      12.808 -23.962 -26.155  1.00  0.00     0.000 C 
BRANCH   9  10
ATOM     10  C   UNL     1      14.029 -24.856 -26.420  1.00  0.00     0.006 C 
BRANCH  10  11
ATOM     11  C   UNL     1      15.351 -24.138 -26.121  1.00  0.00     0.053 C 
BRANCH  11  12
ATOM     12  C   UNL     1      16.052 -23.720 -27.377  1.00  0.00     0.041 C 
ATOM     13  O   UNL     1      17.071 -24.345 -27.772  1.00  0.00    -0.550 OA
ATOM     14  O   UNL     1      15.605 -22.613 -28.088  1.00  0.00    -0.550 OA
ENDBRANCH  11  12
ENDBRANCH  10  11
ENDBRANCH   9  10
ENDBRANCH   8   9
ENDBRANCH   7   8
ENDBRANCH   6   7
ENDBRANCH   5   6
ENDBRANCH   4   5
ENDBRANCH   3   4
ENDBRANCH   2   3
ENDBRANCH   1   2
BRANCH   1  15
ATOM     15  C   UNL     1       7.634 -25.574 -18.532  1.00  0.00     0.000 C 
BRANCH  15  16
ATOM     16  C   UNL     1       7.129 -25.938 -17.127  1.00  0.00     0.000 C 
BRANCH  16  17
ATOM     17  C   UNL     1       5.948 -25.065 -16.673  1.00  0.00     0.000 C 
BRANCH  17  18
ATOM     18  C   UNL     1       6.360 -23.999 -15.644  1.00  0.00    -0.000 C 
BRANCH  18  19
ATOM     19  C   UNL     1       5.348 -22.845 -15.558  1.00  0.00    -0.000 C 
BRANCH  19  20
ATOM     20  C   UNL     1       5.135 -22.359 -14.114  1.00  0.00    -0.000 C 
BRANCH  20  21
ATOM     21  C   UNL     1       5.518 -23.417 -13.062  1.00  0.00    -0.000 C 
BRANCH  21  22
ATOM     22  C   UNL     1       4.337 -24.056 -12.310  1.00  0.00    -0.000 C 
BRANCH  22  23
ATOM     23  C   UNL     1       4.255 -25.580 -12.502  1.00  0.00    -0.000 C 
BRANCH  23  24
ATOM     24  C   UNL     1       3.246 -25.990 -13.586  1.00  0.00    -0.000 C 
BRANCH  24  25
ATOM     25  C   UNL     1       3.869 -26.128 -14.991  1.00  0.00    -0.003 C 
ATOM     26  C   UNL     1       2.901 -26.753 -15.996  1.00  0.00     0.004 C 
ENDBRANCH  24  25
ENDBRANCH  23  24
ENDBRANCH  22  23
ENDBRANCH  21  22
ENDBRANCH  20  21
ENDBRANCH  19  20
ENDBRANCH  18  19
ENDBRANCH  17  18
ENDBRANCH  16  17
ENDBRANCH  15  16
ENDBRANCH   1  15
TORSDOF 22
ENDMDL
MODEL 9
REMARK VINA RESULT:    15.963      2.051      2.821
REMARK INTER + INTRA:          35.923
REMARK INTER:                  36.083
REMARK INTRA:                  -0.160
REMARK UNBOUND:                -0.571
REMARK SMILES CCCCCCCCCCCCCCCCCCCCCCCC(=O)[O-]
REMARK SMILES IDX 13 1 14 2 15 3 16 4 17 5 18 6 19 7 20 8 21 9 22 10 23 11
REMARK SMILES IDX 24 12 25 13 26 14 12 15 11 16 10 17 9 18 8 19 7 20 6 21 5 22
REMARK SMILES IDX 4 23 3 24 2 25 1 26
REMARK H PARENT
REMARK Flexibility Score: inf
ROOT
ATOM      1  C   UNL     1       7.877 -25.117 -18.964  1.00  0.00     0.000 C 
ENDROOT
BRANCH   1   2
ATOM      2  C   UNL     1       7.740 -25.797 -17.594  1.00  0.00     0.000 C 
BRANCH   2   3
ATOM      3  C   UNL     1       7.495 -24.796 -16.454  1.00  0.00     0.000 C 
BRANCH   3   4
ATOM      4  C   UNL     1       6.033 -24.795 -15.968  1.00  0.00     0.000 C 
BRANCH   4   5
ATOM      5  C   UNL     1       5.320 -23.449 -16.216  1.00  0.00     0.000 C 
BRANCH   5   6
ATOM      6  C   UNL     1       5.082 -22.621 -14.939  1.00  0.00     0.000 C 
BRANCH   6   7
ATOM      7  C   UNL     1       6.291 -22.514 -13.991  1.00  0.00     0.000 C 
BRANCH   7   8
ATOM      8  C   UNL     1       6.185 -23.351 -12.703  1.00  0.00     0.000 C 
BRANCH   8   9
ATOM      9  C   UNL     1       4.732 -23.637 -12.295  1.00  0.00     0.000 C 
BRANCH   9  10
ATOM     10  C   UNL     1       4.317 -25.062 -12.693  1.00  0.00     0.006 C 
BRANCH  10  11
ATOM     11  C   UNL     1       3.203 -25.069 -13.747  1.00  0.00     0.053 C 
BRANCH  11  12
ATOM     12  C   UNL     1       3.264 -26.291 -14.611  1.00  0.00     0.041 C 
ATOM     13  O   UNL     1       3.947 -26.285 -15.670  1.00  0.00    -0.550 OA
ATOM     14  O   UNL     1       2.533 -27.423 -14.271  1.00  0.00    -0.550 OA
ENDBRANCH  11  12
ENDBRANCH  10  11
ENDBRANCH   9  10
ENDBRANCH   8   9
ENDBRANCH   7   8
ENDBRANCH   6   7
ENDBRANCH   5   6
ENDBRANCH   4   5
ENDBRANCH   3   4
ENDBRANCH   2   3
ENDBRANCH   1   2
BRANCH   1  15
ATOM     15  C   UNL     1       9.281 -24.530 -19.148  1.00  0.00     0.000 C 
BRANCH  15  16
ATOM     16  C   UNL     1       9.726 -24.614 -20.616  1.00  0.00     0.000 C 
BRANCH  16  17
ATOM     17  C   UNL     1       8.870 -23.742 -21.549  1.00  0.00     0.000 C 
BRANCH  17  18
ATOM     18  C   UNL     1       9.719 -22.889 -22.506  1.00  0.00    -0.000 C 
BRANCH  18  19
ATOM     19  C   UNL     1      11.032 -23.584 -22.903  1.00  0.00    -0.000 C 
BRANCH  19  20
ATOM     20  C   UNL     1      11.227 -23.639 -24.428  1.00  0.00    -0.000 C 
BRANCH  20  21
ATOM     21  C   UNL     1      12.386 -22.752 -24.919  1.00  0.00    -0.000 C 
BRANCH  21  22
ATOM     22  C   UNL     1      13.717 -23.484 -25.168  1.00  0.00    -0.000 C 
BRANCH  22  23
ATOM     23  C   UNL     1      13.657 -24.452 -26.361  1.00  0.00    -0.000 C 
BRANCH  23  24
ATOM     24  C   UNL     1      15.031 -25.042 -26.717  1.00  0.00    -0.000 C 
BRANCH  24  25
ATOM     25  C   UNL     1      16.160 -23.992 -26.772  1.00  0.00    -0.003 C 
ATOM     26  C   UNL     1      16.227 -23.283 -28.125  1.00  0.00     0.004 C 
ENDBRANCH  24  25
ENDBRANCH  23  24
ENDBRANCH  22  23
ENDBRANCH  21  22
ENDBRANCH  20  21
ENDBRANCH  19  20
ENDBRANCH  18  19
ENDBRANCH  17  18
ENDBRANCH  16  17
ENDBRANCH  15  16
ENDBRANCH   1  15
TORSDOF 22
ENDMDL
