MODEL 1
REMARK VINA RESULT:    -4.117      0.000      0.000
REMARK INTER + INTRA:          -7.553
REMARK INTER:                  -6.644
REMARK INTRA:                  -0.909
REMARK UNBOUND:                -0.909
REMARK SMILES CCCCCCCCCCCCO
REMARK SMILES IDX 7 1 6 2 5 3 4 4 3 5 2 6 1 7 8 8 9 9 10 10 11 11 12 12 13 13
REMARK H PARENT 13 14
REMARK Flexibility Score: inf
ROOT
ATOM      1  C   UNL     1      29.589  26.489  21.369  1.00  0.00     0.000 C 
ENDROOT
BRANCH   1   2
ATOM      2  C   UNL     1      30.361  25.228  21.786  1.00  0.00    -0.000 C 
BRANCH   2   3
ATOM      3  C   UNL     1      31.482  25.573  22.774  1.00  0.00    -0.000 C 
BRANCH   3   4
ATOM      4  C   UNL     1      31.586  27.088  22.984  1.00  0.00    -0.000 C 
BRANCH   4   5
ATOM      5  C   UNL     1      32.964  27.610  22.552  1.00  0.00    -0.000 C 
BRANCH   5   6
ATOM      6  C   UNL     1      32.875  28.917  21.750  1.00  0.00    -0.003 C 
ATOM      7  C   UNL     1      31.544  29.642  21.944  1.00  0.00     0.004 C 
ENDBRANCH   5   6
ENDBRANCH   4   5
ENDBRANCH   3   4
ENDBRANCH   2   3
ENDBRANCH   1   2
BRANCH   1   8
ATOM      8  C   UNL     1      28.078  26.369  21.623  1.00  0.00     0.000 C 
BRANCH   8   9
ATOM      9  C   UNL     1      27.643  27.038  22.935  1.00  0.00     0.000 C 
BRANCH   9  10
ATOM     10  C   UNL     1      26.788  26.086  23.779  1.00  0.00     0.002 C 
BRANCH  10  11
ATOM     11  C   UNL     1      26.393  24.840  22.974  1.00  0.00     0.028 C 
BRANCH  11  12
ATOM     12  C   UNL     1      24.914  24.496  23.150  1.00  0.00     0.156 C 
BRANCH  12  13
ATOM     13  O   UNL     1      24.634  23.255  22.563  1.00  0.00    -0.396 OA
ATOM     14  H   UNL     1      24.431  22.636  23.311  1.00  0.00     0.210 HD
ENDBRANCH  12  13
ENDBRANCH  11  12
ENDBRANCH  10  11
ENDBRANCH   9  10
ENDBRANCH   8   9
ENDBRANCH   1   8
TORSDOF 11
ENDMDL
MODEL 2
REMARK VINA RESULT:    -4.066      2.414      2.894
REMARK INTER + INTRA:          -7.470
REMARK INTER:                  -6.706
REMARK INTRA:                  -0.765
REMARK UNBOUND:                -0.909
REMARK SMILES CCCCCCCCCCCCO
REMARK SMILES IDX 7 1 6 2 5 3 4 4 3 5 2 6 1 7 8 8 9 9 10 10 11 11 12 12 13 13
REMARK H PARENT 13 14
REMARK Flexibility Score: inf
ROOT
ATOM      1  C   UNL     1      28.038  26.387  21.373  1.00  0.00     0.000 C 
ENDROOT
BRANCH   1   2
ATOM      2  C   UNL     1      29.555  26.358  21.133  1.00  0.00    -0.000 C 
BRANCH   2   3
ATOM      3  C   UNL     1      30.211  25.205  21.902  1.00  0.00    -0.000 C 
BRANCH   3   4
ATOM      4  C   UNL     1      31.504  25.662  22.587  1.00  0.00    -0.000 C 
BRANCH   4   5
ATOM      5  C   UNL     1      31.362  27.092  23.130  1.00  0.00    -0.000 C 
BRANCH   5   6
ATOM      6  C   UNL     1      32.557  27.985  22.760  1.00  0.00    -0.003 C 
ATOM      7  C   UNL     1      32.234  28.970  21.637  1.00  0.00     0.004 C 
ENDBRANCH   5   6
ENDBRANCH   4   5
ENDBRANCH   3   4
ENDBRANCH   2   3
ENDBRANCH   1   2
BRANCH   1   8
ATOM      8  C   UNL     1      27.659  26.012  22.814  1.00  0.00     0.000 C 
BRANCH   8   9
ATOM      9  C   UNL     1      27.124  27.208  23.616  1.00  0.00     0.000 C 
BRANCH   9  10
ATOM     10  C   UNL     1      25.670  27.515  23.241  1.00  0.00     0.002 C 
BRANCH  10  11
ATOM     11  C   UNL     1      24.942  28.225  24.390  1.00  0.00     0.028 C 
BRANCH  11  12
ATOM     12  C   UNL     1      24.660  29.692  24.063  1.00  0.00     0.156 C 
BRANCH  12  13
ATOM     13  O   UNL     1      24.547  29.865  22.678  1.00  0.00    -0.396 OA
ATOM     14  H   UNL     1      24.028  29.087  22.345  1.00  0.00     0.210 HD
ENDBRANCH  12  13
ENDBRANCH  11  12
ENDBRANCH  10  11
ENDBRANCH   9  10
ENDBRANCH   8   9
ENDBRANCH   1   8
TORSDOF 11
ENDMDL
MODEL 3
REMARK VINA RESULT:    -4.034      1.960      2.180
REMARK INTER + INTRA:          -7.419
REMARK INTER:                  -6.447
REMARK INTRA:                  -0.973
REMARK UNBOUND:                -0.909
REMARK SMILES CCCCCCCCCCCCO
REMARK SMILES IDX 7 1 6 2 5 3 4 4 3 5 2 6 1 7 8 8 9 9 10 10 11 11 12 12 13 13
REMARK H PARENT 13 14
REMARK Flexibility Score: inf
ROOT
ATOM      1  C   UNL     1      29.771  26.500  21.370  1.00  0.00     0.000 C 
ENDROOT
BRANCH   1   2
ATOM      2  C   UNL     1      30.492  25.235  21.863  1.00  0.00    -0.000 C 
BRANCH   2   3
ATOM      3  C   UNL     1      31.755  25.597  22.653  1.00  0.00    -0.000 C 
BRANCH   3   4
ATOM      4  C   UNL     1      31.787  27.093  22.988  1.00  0.00    -0.000 C 
BRANCH   4   5
ATOM      5  C   UNL     1      33.122  27.724  22.565  1.00  0.00    -0.000 C 
BRANCH   5   6
ATOM      6  C   UNL     1      32.935  28.950  21.658  1.00  0.00    -0.003 C 
ATOM      7  C   UNL     1      31.616  29.679  21.913  1.00  0.00     0.004 C 
ENDBRANCH   5   6
ENDBRANCH   4   5
ENDBRANCH   3   4
ENDBRANCH   2   3
ENDBRANCH   1   2
BRANCH   1   8
ATOM      8  C   UNL     1      28.243  26.341  21.353  1.00  0.00     0.000 C 
BRANCH   8   9
ATOM      9  C   UNL     1      27.640  26.257  22.763  1.00  0.00     0.000 C 
BRANCH   9  10
ATOM     10  C   UNL     1      28.096  27.438  23.627  1.00  0.00     0.002 C 
BRANCH  10  11
ATOM     11  C   UNL     1      26.899  28.121  24.303  1.00  0.00     0.028 C 
BRANCH  11  12
ATOM     12  C   UNL     1      25.585  27.803  23.588  1.00  0.00     0.156 C 
BRANCH  12  13
ATOM     13  O   UNL     1      25.079  28.955  22.973  1.00  0.00    -0.396 OA
ATOM     14  H   UNL     1      24.634  28.650  22.140  1.00  0.00     0.210 HD
ENDBRANCH  12  13
ENDBRANCH  11  12
ENDBRANCH  10  11
ENDBRANCH   9  10
ENDBRANCH   8   9
ENDBRANCH   1   8
TORSDOF 11
ENDMDL
MODEL 4
REMARK VINA RESULT:    -3.907      2.666      3.857
REMARK INTER + INTRA:          -7.215
REMARK INTER:                  -6.280
REMARK INTRA:                  -0.935
REMARK UNBOUND:                -0.909
REMARK SMILES CCCCCCCCCCCCO
REMARK SMILES IDX 7 1 6 2 5 3 4 4 3 5 2 6 1 7 8 8 9 9 10 10 11 11 12 12 13 13
REMARK H PARENT 13 14
REMARK Flexibility Score: inf
ROOT
ATOM      1  C   UNL     1      29.390  27.530  24.786  1.00  0.00     0.000 C 
ENDROOT
BRANCH   1   2
ATOM      2  C   UNL     1      30.741  27.944  24.183  1.00  0.00    -0.000 C 
BRANCH   2   3
ATOM      3  C   UNL     1      30.832  27.535  22.708  1.00  0.00    -0.000 C 
BRANCH   3   4
ATOM      4  C   UNL     1      31.044  26.023  22.566  1.00  0.00    -0.000 C 
BRANCH   4   5
ATOM      5  C   UNL     1      29.944  25.392  21.699  1.00  0.00    -0.000 C 
BRANCH   5   6
ATOM      6  C   UNL     1      29.282  26.407  20.755  1.00  0.00    -0.003 C 
ATOM      7  C   UNL     1      29.037  25.843  19.356  1.00  0.00     0.004 C 
ENDBRANCH   5   6
ENDBRANCH   4   5
ENDBRANCH   3   4
ENDBRANCH   2   3
ENDBRANCH   1   2
BRANCH   1   8
ATOM      8  C   UNL     1      28.199  27.929  23.901  1.00  0.00     0.000 C 
BRANCH   8   9
ATOM      9  C   UNL     1      27.016  26.957  24.025  1.00  0.00     0.000 C 
BRANCH   9  10
ATOM     10  C   UNL     1      25.758  27.538  23.370  1.00  0.00     0.002 C 
BRANCH  10  11
ATOM     11  C   UNL     1      24.839  28.182  24.418  1.00  0.00     0.028 C 
BRANCH  11  12
ATOM     12  C   UNL     1      24.528  29.641  24.080  1.00  0.00     0.156 C 
BRANCH  12  13
ATOM     13  O   UNL     1      24.597  29.841  22.695  1.00  0.00    -0.396 OA
ATOM     14  H   UNL     1      24.426  30.807  22.548  1.00  0.00     0.210 HD
ENDBRANCH  12  13
ENDBRANCH  11  12
ENDBRANCH  10  11
ENDBRANCH   9  10
ENDBRANCH   8   9
ENDBRANCH   1   8
TORSDOF 11
ENDMDL
MODEL 5
REMARK VINA RESULT:    -3.868      2.754      5.479
REMARK INTER + INTRA:          -7.151
REMARK INTER:                  -6.278
REMARK INTRA:                  -0.873
REMARK UNBOUND:                -0.909
REMARK SMILES CCCCCCCCCCCCO
REMARK SMILES IDX 7 1 6 2 5 3 4 4 3 5 2 6 1 7 8 8 9 9 10 10 11 11 12 12 13 13
REMARK H PARENT 13 14
REMARK Flexibility Score: inf
ROOT
ATOM      1  C   UNL     1      29.209  28.524  23.850  1.00  0.00     0.000 C 
ENDROOT
BRANCH   1   2
ATOM      2  C   UNL     1      27.898  28.258  24.608  1.00  0.00    -0.000 C 
BRANCH   2   3
ATOM      3  C   UNL     1      27.128  27.091  23.978  1.00  0.00    -0.000 C 
BRANCH   3   4
ATOM      4  C   UNL     1      25.808  27.571  23.361  1.00  0.00    -0.000 C 
BRANCH   4   5
ATOM      5  C   UNL     1      25.018  28.434  24.355  1.00  0.00    -0.000 C 
BRANCH   5   6
ATOM      6  C   UNL     1      24.504  29.738  23.726  1.00  0.00    -0.003 C 
ATOM      7  C   UNL     1      24.649  30.942  24.656  1.00  0.00     0.004 C 
ENDBRANCH   5   6
ENDBRANCH   4   5
ENDBRANCH   3   4
ENDBRANCH   2   3
ENDBRANCH   1   2
BRANCH   1   8
ATOM      8  C   UNL     1      30.204  27.359  23.961  1.00  0.00     0.000 C 
BRANCH   8   9
ATOM      9  C   UNL     1      30.937  27.078  22.640  1.00  0.00     0.000 C 
BRANCH   9  10
ATOM     10  C   UNL     1      30.728  25.626  22.195  1.00  0.00     0.002 C 
BRANCH  10  11
ATOM     11  C   UNL     1      29.304  25.412  21.663  1.00  0.00     0.028 C 
BRANCH  11  12
ATOM     12  C   UNL     1      28.998  26.324  20.476  1.00  0.00     0.156 C 
BRANCH  12  13
ATOM     13  O   UNL     1      27.614  26.399  20.269  1.00  0.00    -0.396 OA
ATOM     14  H   UNL     1      27.383  25.641  19.672  1.00  0.00     0.210 HD
ENDBRANCH  12  13
ENDBRANCH  11  12
ENDBRANCH  10  11
ENDBRANCH   9  10
ENDBRANCH   8   9
ENDBRANCH   1   8
TORSDOF 11
ENDMDL
MODEL 6
REMARK VINA RESULT:    -3.850      2.371      3.785
REMARK INTER + INTRA:          -7.123
REMARK INTER:                  -5.516
REMARK INTRA:                  -1.607
REMARK UNBOUND:                -0.909
REMARK SMILES CCCCCCCCCCCCO
REMARK SMILES IDX 7 1 6 2 5 3 4 4 3 5 2 6 1 7 8 8 9 9 10 10 11 11 12 12 13 13
REMARK H PARENT 13 14
REMARK Flexibility Score: inf
ROOT
ATOM      1  C   UNL     1      29.685  29.237  24.342  1.00  0.00     0.000 C 
ENDROOT
BRANCH   1   2
ATOM      2  C   UNL     1      31.150  29.584  24.037  1.00  0.00    -0.000 C 
BRANCH   2   3
ATOM      3  C   UNL     1      31.373  29.744  22.528  1.00  0.00    -0.000 C 
BRANCH   3   4
ATOM      4  C   UNL     1      32.482  28.808  22.032  1.00  0.00    -0.000 C 
BRANCH   4   5
ATOM      5  C   UNL     1      33.021  27.939  23.177  1.00  0.00    -0.000 C 
BRANCH   5   6
ATOM      6  C   UNL     1      32.941  26.436  22.865  1.00  0.00    -0.003 C 
ATOM      7  C   UNL     1      32.591  25.595  24.092  1.00  0.00     0.004 C 
ENDBRANCH   5   6
ENDBRANCH   4   5
ENDBRANCH   3   4
ENDBRANCH   2   3
ENDBRANCH   1   2
BRANCH   1   8
ATOM      8  C   UNL     1      29.430  27.723  24.377  1.00  0.00     0.000 C 
BRANCH   8   9
ATOM      9  C   UNL     1      28.555  27.241  23.210  1.00  0.00     0.000 C 
BRANCH   9  10
ATOM     10  C   UNL     1      29.289  26.186  22.374  1.00  0.00     0.002 C 
BRANCH  10  11
ATOM     11  C   UNL     1      29.669  26.743  20.995  1.00  0.00     0.028 C 
BRANCH  11  12
ATOM     12  C   UNL     1      28.936  26.017  19.867  1.00  0.00     0.156 C 
BRANCH  12  13
ATOM     13  O   UNL     1      27.569  26.324  19.904  1.00  0.00    -0.396 OA
ATOM     14  H   UNL     1      27.400  26.719  20.797  1.00  0.00     0.210 HD
ENDBRANCH  12  13
ENDBRANCH  11  12
ENDBRANCH  10  11
ENDBRANCH   9  10
ENDBRANCH   8   9
ENDBRANCH   1   8
TORSDOF 11
ENDMDL
MODEL 7
REMARK VINA RESULT:    -3.719      1.786      2.950
REMARK INTER + INTRA:          -6.911
REMARK INTER:                  -5.898
REMARK INTRA:                  -1.013
REMARK UNBOUND:                -0.909
REMARK SMILES CCCCCCCCCCCCO
REMARK SMILES IDX 7 1 6 2 5 3 4 4 3 5 2 6 1 7 8 8 9 9 10 10 11 11 12 12 13 13
REMARK H PARENT 13 14
REMARK Flexibility Score: inf
ROOT
ATOM      1  C   UNL     1      31.649  25.856  23.195  1.00  0.00     0.000 C 
ENDROOT
BRANCH   1   2
ATOM      2  C   UNL     1      32.855  26.654  22.675  1.00  0.00    -0.000 C 
BRANCH   2   3
ATOM      3  C   UNL     1      32.878  28.065  23.274  1.00  0.00    -0.000 C 
BRANCH   3   4
ATOM      4  C   UNL     1      32.972  29.130  22.175  1.00  0.00    -0.000 C 
BRANCH   4   5
ATOM      5  C   UNL     1      31.576  29.593  21.737  1.00  0.00    -0.000 C 
BRANCH   5   6
ATOM      6  C   UNL     1      30.568  29.610  22.896  1.00  0.00    -0.003 C 
ATOM      7  C   UNL     1      30.256  31.023  23.388  1.00  0.00     0.004 C 
ENDBRANCH   5   6
ENDBRANCH   4   5
ENDBRANCH   3   4
ENDBRANCH   2   3
ENDBRANCH   1   2
BRANCH   1   8
ATOM      8  C   UNL     1      30.784  25.284  22.061  1.00  0.00     0.000 C 
BRANCH   8   9
ATOM      9  C   UNL     1      29.859  26.337  21.433  1.00  0.00     0.000 C 
BRANCH   9  10
ATOM     10  C   UNL     1      28.386  25.991  21.680  1.00  0.00     0.002 C 
BRANCH  10  11
ATOM     11  C   UNL     1      27.839  26.748  22.898  1.00  0.00     0.028 C 
BRANCH  11  12
ATOM     12  C   UNL     1      26.311  26.792  22.900  1.00  0.00     0.156 C 
BRANCH  12  13
ATOM     13  O   UNL     1      25.865  28.120  22.891  1.00  0.00    -0.396 OA
ATOM     14  H   UNL     1      24.881  28.081  23.007  1.00  0.00     0.210 HD
ENDBRANCH  12  13
ENDBRANCH  11  12
ENDBRANCH  10  11
ENDBRANCH   9  10
ENDBRANCH   8   9
ENDBRANCH   1   8
TORSDOF 11
ENDMDL
MODEL 8
REMARK VINA RESULT:    -3.691      1.499      2.936
REMARK INTER + INTRA:          -6.865
REMARK INTER:                  -5.789
REMARK INTRA:                  -1.076
REMARK UNBOUND:                -0.909
REMARK SMILES CCCCCCCCCCCCO
REMARK SMILES IDX 7 1 6 2 5 3 4 4 3 5 2 6 1 7 8 8 9 9 10 10 11 11 12 12 13 13
REMARK H PARENT 13 14
REMARK Flexibility Score: inf
ROOT
ATOM      1  C   UNL     1      27.718  28.071  24.124  1.00  0.00     0.000 C 
ENDROOT
BRANCH   1   2
ATOM      2  C   UNL     1      29.033  27.449  24.620  1.00  0.00    -0.000 C 
BRANCH   2   3
ATOM      3  C   UNL     1      30.242  28.144  23.983  1.00  0.00    -0.000 C 
BRANCH   3   4
ATOM      4  C   UNL     1      30.520  27.592  22.580  1.00  0.00    -0.000 C 
BRANCH   4   5
ATOM      5  C   UNL     1      30.628  26.060  22.602  1.00  0.00    -0.000 C 
BRANCH   5   6
ATOM      6  C   UNL     1      29.802  25.394  21.490  1.00  0.00    -0.003 C 
ATOM      7  C   UNL     1      28.945  26.391  20.711  1.00  0.00     0.004 C 
ENDBRANCH   5   6
ENDBRANCH   4   5
ENDBRANCH   3   4
ENDBRANCH   2   3
ENDBRANCH   1   2
BRANCH   1   8
ATOM      8  C   UNL     1      26.519  27.709  25.014  1.00  0.00     0.000 C 
BRANCH   8   9
ATOM      9  C   UNL     1      25.480  26.843  24.286  1.00  0.00     0.000 C 
BRANCH   9  10
ATOM     10  C   UNL     1      26.015  26.368  22.930  1.00  0.00     0.002 C 
BRANCH  10  11
ATOM     11  C   UNL     1      26.110  24.837  22.880  1.00  0.00     0.028 C 
BRANCH  11  12
ATOM     12  C   UNL     1      24.755  24.175  23.135  1.00  0.00     0.156 C 
BRANCH  12  13
ATOM     13  O   UNL     1      24.644  22.998  22.384  1.00  0.00    -0.396 OA
ATOM     14  H   UNL     1      23.921  23.159  21.724  1.00  0.00     0.210 HD
ENDBRANCH  12  13
ENDBRANCH  11  12
ENDBRANCH  10  11
ENDBRANCH   9  10
ENDBRANCH   8   9
ENDBRANCH   1   8
TORSDOF 11
ENDMDL
MODEL 9
REMARK VINA RESULT:    -3.610      2.862      6.105
REMARK INTER + INTRA:          -6.735
REMARK INTER:                  -5.994
REMARK INTRA:                  -0.740
REMARK UNBOUND:                -0.909
REMARK SMILES CCCCCCCCCCCCO
REMARK SMILES IDX 7 1 6 2 5 3 4 4 3 5 2 6 1 7 8 8 9 9 10 10 11 11 12 12 13 13
REMARK H PARENT 13 14
REMARK Flexibility Score: inf
ROOT
ATOM      1  C   UNL     1      31.695  25.589  22.586  1.00  0.00     0.000 C 
ENDROOT
BRANCH   1   2
ATOM      2  C   UNL     1      30.419  25.211  21.817  1.00  0.00    -0.000 C 
BRANCH   2   3
ATOM      3  C   UNL     1      29.721  26.460  21.266  1.00  0.00    -0.000 C 
BRANCH   3   4
ATOM      4  C   UNL     1      28.199  26.282  21.254  1.00  0.00    -0.000 C 
BRANCH   4   5
ATOM      5  C   UNL     1      27.616  26.429  22.667  1.00  0.00    -0.000 C 
BRANCH   5   6
ATOM      6  C   UNL     1      26.699  25.259  23.053  1.00  0.00    -0.003 C 
ATOM      7  C   UNL     1      25.731  25.613  24.182  1.00  0.00     0.004 C 
ENDBRANCH   5   6
ENDBRANCH   4   5
ENDBRANCH   3   4
ENDBRANCH   2   3
ENDBRANCH   1   2
BRANCH   1   8
ATOM      8  C   UNL     1      31.730  27.072  22.984  1.00  0.00     0.000 C 
BRANCH   8   9
ATOM      9  C   UNL     1      33.043  27.762  22.586  1.00  0.00     0.000 C 
BRANCH   9  10
ATOM     10  C   UNL     1      32.841  29.273  22.420  1.00  0.00     0.002 C 
BRANCH  10  11
ATOM     11  C   UNL     1      31.417  29.589  21.942  1.00  0.00     0.028 C 
BRANCH  11  12
ATOM     12  C   UNL     1      30.821  30.785  22.685  1.00  0.00     0.156 C 
BRANCH  12  13
ATOM     13  O   UNL     1      30.130  31.613  21.791  1.00  0.00    -0.396 OA
ATOM     14  H   UNL     1      30.790  31.889  21.105  1.00  0.00     0.210 HD
ENDBRANCH  12  13
ENDBRANCH  11  12
ENDBRANCH  10  11
ENDBRANCH   9  10
ENDBRANCH   8   9
ENDBRANCH   1   8
TORSDOF 11
ENDMDL
