MODEL 1
REMARK VINA RESULT:    -4.278      0.000      0.000
REMARK INTER + INTRA:          -5.427
REMARK INTER:                  -5.278
REMARK INTRA:                  -0.149
REMARK UNBOUND:                -0.149
REMARK SMILES CCCCCC(=O)[O-]
REMARK SMILES IDX 4 1 5 2 6 3 7 4 8 5 3 6 2 7 1 8
REMARK H PARENT
REMARK Flexibility Score: inf
ROOT
ATOM      1  C   UNL     1     105.753 312.549 192.458  1.00  0.00     0.006 C 
ENDROOT
BRANCH   1   2
ATOM      2  C   UNL     1     104.525 311.848 193.045  1.00  0.00     0.053 C 
BRANCH   2   3
ATOM      3  C   UNL     1     104.331 312.239 194.476  1.00  0.00     0.041 C 
ATOM      4  O   UNL     1     104.873 313.282 194.927  1.00  0.00    -0.550 OA
ATOM      5  O   UNL     1     103.511 311.478 195.300  1.00  0.00    -0.550 OA
ENDBRANCH   2   3
ENDBRANCH   1   2
BRANCH   1   6
ATOM      6  C   UNL     1     105.343 313.593 191.413  1.00  0.00     0.000 C 
BRANCH   6   7
ATOM      7  C   UNL     1     103.881 313.408 190.994  1.00  0.00    -0.003 C 
ATOM      8  C   UNL     1     103.488 314.404 189.906  1.00  0.00     0.004 C 
ENDBRANCH   6   7
ENDBRANCH   1   6
TORSDOF 4
ENDMDL
MODEL 2
REMARK VINA RESULT:    -4.267      0.103      1.148
REMARK INTER + INTRA:          -5.414
REMARK INTER:                  -5.267
REMARK INTRA:                  -0.148
REMARK UNBOUND:                -0.149
REMARK SMILES CCCCCC(=O)[O-]
REMARK SMILES IDX 4 1 5 2 6 3 7 4 8 5 3 6 2 7 1 8
REMARK H PARENT
REMARK Flexibility Score: inf
ROOT
ATOM      1  C   UNL     1     105.727 312.510 192.553  1.00  0.00     0.006 C 
ENDROOT
BRANCH   1   2
ATOM      2  C   UNL     1     104.468 311.834 193.102  1.00  0.00     0.053 C 
BRANCH   2   3
ATOM      3  C   UNL     1     104.268 312.187 194.542  1.00  0.00     0.041 C 
ATOM      4  O   UNL     1     103.532 311.473 195.274  1.00  0.00    -0.550 OA
ATOM      5  O   UNL     1     104.934 313.276 195.090  1.00  0.00    -0.550 OA
ENDBRANCH   2   3
ENDBRANCH   1   2
BRANCH   1   6
ATOM      6  C   UNL     1     105.380 313.480 191.418  1.00  0.00     0.000 C 
BRANCH   6   7
ATOM      7  C   UNL     1     103.899 313.375 191.037  1.00  0.00    -0.003 C 
ATOM      8  C   UNL     1     103.525 314.414 189.984  1.00  0.00     0.004 C 
ENDBRANCH   6   7
ENDBRANCH   1   6
TORSDOF 4
ENDMDL
MODEL 3
REMARK VINA RESULT:    -4.266     20.339     21.070
REMARK INTER + INTRA:          -5.412
REMARK INTER:                  -5.321
REMARK INTRA:                  -0.092
REMARK UNBOUND:                -0.149
REMARK SMILES CCCCCC(=O)[O-]
REMARK SMILES IDX 4 1 5 2 6 3 7 4 8 5 3 6 2 7 1 8
REMARK H PARENT
REMARK Flexibility Score: inf
ROOT
ATOM      1  C   UNL     1      87.852 324.684 193.223  1.00  0.00     0.006 C 
ENDROOT
BRANCH   1   2
ATOM      2  C   UNL     1      87.824 326.133 193.718  1.00  0.00     0.053 C 
BRANCH   2   3
ATOM      3  C   UNL     1      87.613 326.178 195.198  1.00  0.00     0.041 C 
ATOM      4  O   UNL     1      88.600 326.179 195.979  1.00  0.00    -0.550 OA
ATOM      5  O   UNL     1      86.326 326.268 195.715  1.00  0.00    -0.550 OA
ENDBRANCH   2   3
ENDBRANCH   1   2
BRANCH   1   6
ATOM      6  C   UNL     1      88.151 324.622 191.720  1.00  0.00     0.000 C 
BRANCH   6   7
ATOM      7  C   UNL     1      87.433 323.436 191.066  1.00  0.00    -0.003 C 
ATOM      8  C   UNL     1      85.959 323.399 191.458  1.00  0.00     0.004 C 
ENDBRANCH   6   7
ENDBRANCH   1   6
TORSDOF 4
ENDMDL
MODEL 4
REMARK VINA RESULT:    -4.235     19.983     21.113
REMARK INTER + INTRA:          -5.374
REMARK INTER:                  -5.256
REMARK INTRA:                  -0.118
REMARK UNBOUND:                -0.149
REMARK SMILES CCCCCC(=O)[O-]
REMARK SMILES IDX 4 1 5 2 6 3 7 4 8 5 3 6 2 7 1 8
REMARK H PARENT
REMARK Flexibility Score: inf
ROOT
ATOM      1  C   UNL     1      86.454 325.169 193.343  1.00  0.00     0.006 C 
ENDROOT
BRANCH   1   2
ATOM      2  C   UNL     1      87.717 325.935 193.746  1.00  0.00     0.053 C 
BRANCH   2   3
ATOM      3  C   UNL     1      87.700 326.242 195.210  1.00  0.00     0.041 C 
ATOM      4  O   UNL     1      86.620 326.195 195.855  1.00  0.00    -0.550 OA
ATOM      5  O   UNL     1      88.886 326.530 195.874  1.00  0.00    -0.550 OA
ENDBRANCH   2   3
ENDBRANCH   1   2
BRANCH   1   6
ATOM      6  C   UNL     1      86.757 324.148 192.240  1.00  0.00     0.000 C 
BRANCH   6   7
ATOM      7  C   UNL     1      88.167 324.352 191.674  1.00  0.00    -0.003 C 
ATOM      8  C   UNL     1      88.363 323.561 190.384  1.00  0.00     0.004 C 
ENDBRANCH   6   7
ENDBRANCH   1   6
TORSDOF 4
ENDMDL
MODEL 5
REMARK VINA RESULT:    -4.096      2.138      3.856
REMARK INTER + INTRA:          -5.203
REMARK INTER:                  -4.996
REMARK INTRA:                  -0.207
REMARK UNBOUND:                -0.149
REMARK SMILES CCCCCC(=O)[O-]
REMARK SMILES IDX 4 1 5 2 6 3 7 4 8 5 3 6 2 7 1 8
REMARK H PARENT
REMARK Flexibility Score: inf
ROOT
ATOM      1  C   UNL     1     104.245 312.224 192.503  1.00  0.00     0.006 C 
ENDROOT
BRANCH   1   2
ATOM      2  C   UNL     1     104.232 313.309 191.423  1.00  0.00     0.053 C 
BRANCH   2   3
ATOM      3  C   UNL     1     103.591 314.557 191.941  1.00  0.00     0.041 C 
ATOM      4  O   UNL     1     103.499 314.755 193.181  1.00  0.00    -0.550 OA
ATOM      5  O   UNL     1     103.142 315.528 191.054  1.00  0.00    -0.550 OA
ENDBRANCH   2   3
ENDBRANCH   1   2
BRANCH   1   6
ATOM      6  C   UNL     1     105.674 311.940 192.981  1.00  0.00     0.000 C 
BRANCH   6   7
ATOM      7  C   UNL     1     105.738 311.863 194.510  1.00  0.00    -0.003 C 
ATOM      8  C   UNL     1     104.341 311.902 195.123  1.00  0.00     0.004 C 
ENDBRANCH   6   7
ENDBRANCH   1   6
TORSDOF 4
ENDMDL
MODEL 6
REMARK VINA RESULT:    -4.090      2.981      4.555
REMARK INTER + INTRA:          -5.196
REMARK INTER:                  -5.131
REMARK INTRA:                  -0.064
REMARK UNBOUND:                -0.149
REMARK SMILES CCCCCC(=O)[O-]
REMARK SMILES IDX 4 1 5 2 6 3 7 4 8 5 3 6 2 7 1 8
REMARK H PARENT
REMARK Flexibility Score: inf
ROOT
ATOM      1  C   UNL     1     104.534 313.234 192.303  1.00  0.00     0.006 C 
ENDROOT
BRANCH   1   2
ATOM      2  C   UNL     1     103.920 313.473 190.921  1.00  0.00     0.053 C 
BRANCH   2   3
ATOM      3  C   UNL     1     104.709 314.495 190.166  1.00  0.00     0.041 C 
ATOM      4  O   UNL     1     104.122 315.337 189.437  1.00  0.00    -0.550 OA
ATOM      5  O   UNL     1     106.090 314.550 190.306  1.00  0.00    -0.550 OA
ENDBRANCH   2   3
ENDBRANCH   1   2
BRANCH   1   6
ATOM      6  C   UNL     1     104.215 311.823 192.812  1.00  0.00     0.000 C 
BRANCH   6   7
ATOM      7  C   UNL     1     104.480 311.708 194.317  1.00  0.00    -0.003 C 
ATOM      8  C   UNL     1     105.975 311.618 194.608  1.00  0.00     0.004 C 
ENDBRANCH   6   7
ENDBRANCH   1   6
TORSDOF 4
ENDMDL
MODEL 7
REMARK VINA RESULT:    -4.050     19.701     20.833
REMARK INTER + INTRA:          -5.146
REMARK INTER:                  -4.956
REMARK INTRA:                  -0.190
REMARK UNBOUND:                -0.149
REMARK SMILES CCCCCC(=O)[O-]
REMARK SMILES IDX 4 1 5 2 6 3 7 4 8 5 3 6 2 7 1 8
REMARK H PARENT
REMARK Flexibility Score: inf
ROOT
ATOM      1  C   UNL     1      87.793 325.776 193.502  1.00  0.00     0.006 C 
ENDROOT
BRANCH   1   2
ATOM      2  C   UNL     1      87.767 324.734 192.381  1.00  0.00     0.053 C 
BRANCH   2   3
ATOM      3  C   UNL     1      88.431 323.469 192.825  1.00  0.00     0.041 C 
ATOM      4  O   UNL     1      88.815 322.623 191.976  1.00  0.00    -0.550 OA
ATOM      5  O   UNL     1      88.671 323.247 194.176  1.00  0.00    -0.550 OA
ENDBRANCH   2   3
ENDBRANCH   1   2
BRANCH   1   6
ATOM      6  C   UNL     1      86.389 326.004 194.075  1.00  0.00     0.000 C 
BRANCH   6   7
ATOM      7  C   UNL     1      86.449 326.296 195.578  1.00  0.00    -0.003 C 
ATOM      8  C   UNL     1      87.858 326.089 196.125  1.00  0.00     0.004 C 
ENDBRANCH   6   7
ENDBRANCH   1   6
TORSDOF 4
ENDMDL
MODEL 8
REMARK VINA RESULT:    -3.986      1.431      2.067
REMARK INTER + INTRA:          -5.068
REMARK INTER:                  -5.003
REMARK INTRA:                  -0.064
REMARK UNBOUND:                -0.149
REMARK SMILES CCCCCC(=O)[O-]
REMARK SMILES IDX 4 1 5 2 6 3 7 4 8 5 3 6 2 7 1 8
REMARK H PARENT
REMARK Flexibility Score: inf
ROOT
ATOM      1  C   UNL     1     104.677 313.415 191.418  1.00  0.00     0.006 C 
ENDROOT
BRANCH   1   2
ATOM      2  C   UNL     1     104.183 313.245 192.857  1.00  0.00     0.053 C 
BRANCH   2   3
ATOM      3  C   UNL     1     104.570 311.902 193.390  1.00  0.00     0.041 C 
ATOM      4  O   UNL     1     104.010 310.862 192.954  1.00  0.00    -0.550 OA
ATOM      5  O   UNL     1     105.586 311.794 194.331  1.00  0.00    -0.550 OA
ENDBRANCH   2   3
ENDBRANCH   1   2
BRANCH   1   6
ATOM      6  C   UNL     1     103.539 313.866 190.495  1.00  0.00     0.000 C 
BRANCH   6   7
ATOM      7  C   UNL     1     104.041 314.873 189.454  1.00  0.00    -0.003 C 
ATOM      8  C   UNL     1     103.089 314.958 188.264  1.00  0.00     0.004 C 
ENDBRANCH   6   7
ENDBRANCH   1   6
TORSDOF 4
ENDMDL
MODEL 9
REMARK VINA RESULT:    -3.958     20.107     20.969
REMARK INTER + INTRA:          -5.033
REMARK INTER:                  -4.931
REMARK INTRA:                  -0.102
REMARK UNBOUND:                -0.149
REMARK SMILES CCCCCC(=O)[O-]
REMARK SMILES IDX 4 1 5 2 6 3 7 4 8 5 3 6 2 7 1 8
REMARK H PARENT
REMARK Flexibility Score: inf
ROOT
ATOM      1  C   UNL     1      88.125 324.709 193.279  1.00  0.00     0.006 C 
ENDROOT
BRANCH   1   2
ATOM      2  C   UNL     1      88.123 324.504 191.761  1.00  0.00     0.053 C 
BRANCH   2   3
ATOM      3  C   UNL     1      87.091 323.495 191.369  1.00  0.00     0.041 C 
ATOM      4  O   UNL     1      85.875 323.701 191.624  1.00  0.00    -0.550 OA
ATOM      5  O   UNL     1      87.465 322.350 190.677  1.00  0.00    -0.550 OA
ENDBRANCH   2   3
ENDBRANCH   1   2
BRANCH   1   6
ATOM      6  C   UNL     1      87.691 326.134 193.642  1.00  0.00     0.000 C 
BRANCH   6   7
ATOM      7  C   UNL     1      87.376 326.248 195.138  1.00  0.00    -0.003 C 
ATOM      8  C   UNL     1      88.495 325.649 195.985  1.00  0.00     0.004 C 
ENDBRANCH   6   7
ENDBRANCH   1   6
TORSDOF 4
ENDMDL
