MODEL 1
REMARK VINA RESULT:    -4.902      0.000      0.000
REMARK INTER + INTRA:         -10.208
REMARK INTER:                  -8.341
REMARK INTRA:                  -1.867
REMARK UNBOUND:                -1.867
REMARK SMILES CCCCCCCCCCCCCC(=O)[O-]
REMARK SMILES IDX 8 1 9 2 10 3 11 4 12 5 13 6 14 7 15 8 16 9 7 10 6 11 5 12
REMARK SMILES IDX 4 13 3 14 2 15 1 16
REMARK H PARENT
REMARK Flexibility Score: inf
ROOT
ATOM      1  C   UNL     1      -5.786  10.310 -10.503  1.00  0.00     0.000 C 
ENDROOT
BRANCH   1   2
ATOM      2  C   UNL     1      -5.123  11.024  -9.312  1.00  0.00     0.000 C 
BRANCH   2   3
ATOM      3  C   UNL     1      -5.897  10.822  -7.999  1.00  0.00     0.000 C 
BRANCH   3   4
ATOM      4  C   UNL     1      -5.466   9.547  -7.253  1.00  0.00     0.000 C 
BRANCH   4   5
ATOM      5  C   UNL     1      -3.962   9.260  -7.396  1.00  0.00     0.006 C 
BRANCH   5   6
ATOM      6  C   UNL     1      -3.676   7.862  -7.958  1.00  0.00     0.053 C 
BRANCH   6   7
ATOM      7  C   UNL     1      -3.519   6.874  -6.845  1.00  0.00     0.041 C 
ATOM      8  O   UNL     1      -2.443   6.822  -6.192  1.00  0.00    -0.550 OA
ATOM      9  O   UNL     1      -4.577   6.046  -6.496  1.00  0.00    -0.550 OA
ENDBRANCH   6   7
ENDBRANCH   5   6
ENDBRANCH   4   5
ENDBRANCH   3   4
ENDBRANCH   2   3
ENDBRANCH   1   2
BRANCH   1  10
ATOM     10  C   UNL     1      -7.298  10.098 -10.308  1.00  0.00     0.000 C 
BRANCH  10  11
ATOM     11  C   UNL     1      -7.778   8.643 -10.459  1.00  0.00    -0.000 C 
BRANCH  11  12
ATOM     12  C   UNL     1      -6.637   7.618 -10.332  1.00  0.00    -0.000 C 
BRANCH  12  13
ATOM     13  C   UNL     1      -6.871   6.626  -9.172  1.00  0.00    -0.000 C 
BRANCH  13  14
ATOM     14  C   UNL     1      -7.992   7.057  -8.207  1.00  0.00    -0.000 C 
BRANCH  14  15
ATOM     15  C   UNL     1      -9.154   6.057  -8.087  1.00  0.00    -0.003 C 
ATOM     16  C   UNL     1      -9.561   5.459  -9.433  1.00  0.00     0.004 C 
ENDBRANCH  14  15
ENDBRANCH  13  14
ENDBRANCH  12  13
ENDBRANCH  11  12
ENDBRANCH  10  11
ENDBRANCH   1  10
TORSDOF 12
ENDMDL
MODEL 2
REMARK VINA RESULT:    -4.825      2.819      4.463
REMARK INTER + INTRA:         -10.077
REMARK INTER:                  -8.192
REMARK INTRA:                  -1.885
REMARK UNBOUND:                -1.867
REMARK SMILES CCCCCCCCCCCCCC(=O)[O-]
REMARK SMILES IDX 8 1 9 2 10 3 11 4 12 5 13 6 14 7 15 8 16 9 7 10 6 11 5 12
REMARK SMILES IDX 4 13 3 14 2 15 1 16
REMARK H PARENT
REMARK Flexibility Score: inf
ROOT
ATOM      1  C   UNL     1      -5.110   6.461  -8.344  1.00  0.00     0.000 C 
ENDROOT
BRANCH   1   2
ATOM      2  C   UNL     1      -3.975   7.489  -8.488  1.00  0.00     0.000 C 
BRANCH   2   3
ATOM      3  C   UNL     1      -3.596   8.141  -7.148  1.00  0.00     0.000 C 
BRANCH   3   4
ATOM      4  C   UNL     1      -3.921   9.644  -7.112  1.00  0.00     0.000 C 
BRANCH   4   5
ATOM      5  C   UNL     1      -4.712  10.106  -8.347  1.00  0.00     0.006 C 
BRANCH   5   6
ATOM      6  C   UNL     1      -6.110  10.629  -7.993  1.00  0.00     0.053 C 
BRANCH   6   7
ATOM      7  C   UNL     1      -6.518  11.713  -8.941  1.00  0.00     0.041 C 
ATOM      8  O   UNL     1      -7.723  11.832  -9.286  1.00  0.00    -0.550 OA
ATOM      9  O   UNL     1      -5.575  12.621  -9.404  1.00  0.00    -0.550 OA
ENDBRANCH   6   7
ENDBRANCH   5   6
ENDBRANCH   4   5
ENDBRANCH   3   4
ENDBRANCH   2   3
ENDBRANCH   1   2
BRANCH   1  10
ATOM     10  C   UNL     1      -6.015   6.734  -7.129  1.00  0.00     0.000 C 
BRANCH  10  11
ATOM     11  C   UNL     1      -7.519   6.829  -7.442  1.00  0.00    -0.000 C 
BRANCH  11  12
ATOM     12  C   UNL     1      -7.903   6.127  -8.757  1.00  0.00    -0.000 C 
BRANCH  12  13
ATOM     13  C   UNL     1      -8.648   7.071  -9.725  1.00  0.00    -0.000 C 
BRANCH  13  14
ATOM     14  C   UNL     1      -7.874   8.364 -10.047  1.00  0.00    -0.000 C 
BRANCH  14  15
ATOM     15  C   UNL     1      -6.675   8.174 -10.989  1.00  0.00    -0.003 C 
ATOM     16  C   UNL     1      -6.444   9.376 -11.905  1.00  0.00     0.004 C 
ENDBRANCH  14  15
ENDBRANCH  13  14
ENDBRANCH  12  13
ENDBRANCH  11  12
ENDBRANCH  10  11
ENDBRANCH   1  10
TORSDOF 12
ENDMDL
MODEL 3
REMARK VINA RESULT:    -4.796      2.608      5.077
REMARK INTER + INTRA:         -10.027
REMARK INTER:                  -8.390
REMARK INTRA:                  -1.637
REMARK UNBOUND:                -1.867
REMARK SMILES CCCCCCCCCCCCCC(=O)[O-]
REMARK SMILES IDX 8 1 9 2 10 3 11 4 12 5 13 6 14 7 15 8 16 9 7 10 6 11 5 12
REMARK SMILES IDX 4 13 3 14 2 15 1 16
REMARK H PARENT
REMARK Flexibility Score: inf
ROOT
ATOM      1  C   UNL     1      -3.970   7.821  -8.368  1.00  0.00     0.000 C 
ENDROOT
BRANCH   1   2
ATOM      2  C   UNL     1      -5.291   7.225  -8.884  1.00  0.00     0.000 C 
BRANCH   2   3
ATOM      3  C   UNL     1      -6.143   6.618  -7.757  1.00  0.00     0.000 C 
BRANCH   3   4
ATOM      4  C   UNL     1      -7.647   6.874  -7.953  1.00  0.00     0.000 C 
BRANCH   4   5
ATOM      5  C   UNL     1      -8.128   6.508  -9.368  1.00  0.00     0.006 C 
BRANCH   5   6
ATOM      6  C   UNL     1      -9.534   5.895  -9.376  1.00  0.00     0.053 C 
BRANCH   6   7
ATOM      7  C   UNL     1      -9.500   4.503  -8.830  1.00  0.00     0.041 C 
ATOM      8  O   UNL     1      -8.775   3.628  -9.372  1.00  0.00    -0.550 OA
ATOM      9  O   UNL     1     -10.230   4.185  -7.693  1.00  0.00    -0.550 OA
ENDBRANCH   6   7
ENDBRANCH   5   6
ENDBRANCH   4   5
ENDBRANCH   3   4
ENDBRANCH   2   3
ENDBRANCH   1   2
BRANCH   1  10
ATOM     10  C   UNL     1      -4.179   8.868  -7.259  1.00  0.00     0.000 C 
BRANCH  10  11
ATOM     11  C   UNL     1      -5.264   9.921  -7.550  1.00  0.00    -0.000 C 
BRANCH  11  12
ATOM     12  C   UNL     1      -4.809  10.986  -8.564  1.00  0.00    -0.000 C 
BRANCH  12  13
ATOM     13  C   UNL     1      -5.550  10.859  -9.913  1.00  0.00    -0.000 C 
BRANCH  13  14
ATOM     14  C   UNL     1      -7.061  10.600  -9.767  1.00  0.00    -0.000 C 
BRANCH  14  15
ATOM     15  C   UNL     1      -7.667   9.707 -10.863  1.00  0.00    -0.003 C 
ATOM     16  C   UNL     1      -6.613   9.137 -11.812  1.00  0.00     0.004 C 
ENDBRANCH  14  15
ENDBRANCH  13  14
ENDBRANCH  12  13
ENDBRANCH  11  12
ENDBRANCH  10  11
ENDBRANCH   1  10
TORSDOF 12
ENDMDL
MODEL 4
REMARK VINA RESULT:    -4.786      2.174      4.840
REMARK INTER + INTRA:         -10.011
REMARK INTER:                  -8.452
REMARK INTRA:                  -1.559
REMARK UNBOUND:                -1.867
REMARK SMILES CCCCCCCCCCCCCC(=O)[O-]
REMARK SMILES IDX 8 1 9 2 10 3 11 4 12 5 13 6 14 7 15 8 16 9 7 10 6 11 5 12
REMARK SMILES IDX 4 13 3 14 2 15 1 16
REMARK H PARENT
REMARK Flexibility Score: inf
ROOT
ATOM      1  C   UNL     1      -3.831   7.789  -8.238  1.00  0.00     0.000 C 
ENDROOT
BRANCH   1   2
ATOM      2  C   UNL     1      -4.982   6.795  -8.007  1.00  0.00     0.000 C 
BRANCH   2   3
ATOM      3  C   UNL     1      -5.877   6.631  -9.247  1.00  0.00     0.000 C 
BRANCH   3   4
ATOM      4  C   UNL     1      -7.107   5.748  -8.973  1.00  0.00     0.000 C 
BRANCH   4   5
ATOM      5  C   UNL     1      -8.348   6.569  -8.587  1.00  0.00     0.006 C 
BRANCH   5   6
ATOM      6  C   UNL     1      -8.234   7.196  -7.191  1.00  0.00     0.053 C 
BRANCH   6   7
ATOM      7  C   UNL     1      -9.086   6.449  -6.213  1.00  0.00     0.041 C 
ATOM      8  O   UNL     1     -10.180   5.946  -6.581  1.00  0.00    -0.550 OA
ATOM      9  O   UNL     1      -8.647   6.267  -4.909  1.00  0.00    -0.550 OA
ENDBRANCH   6   7
ENDBRANCH   5   6
ENDBRANCH   4   5
ENDBRANCH   3   4
ENDBRANCH   2   3
ENDBRANCH   1   2
BRANCH   1  10
ATOM     10  C   UNL     1      -3.858   8.975  -7.259  1.00  0.00     0.000 C 
BRANCH  10  11
ATOM     11  C   UNL     1      -5.062   9.922  -7.413  1.00  0.00    -0.000 C 
BRANCH  11  12
ATOM     12  C   UNL     1      -4.859  10.977  -8.515  1.00  0.00    -0.000 C 
BRANCH  12  13
ATOM     13  C   UNL     1      -5.566  10.587  -9.832  1.00  0.00    -0.000 C 
BRANCH  13  14
ATOM     14  C   UNL     1      -7.062  10.266  -9.659  1.00  0.00    -0.000 C 
BRANCH  14  15
ATOM     15  C   UNL     1      -7.688   9.484 -10.825  1.00  0.00    -0.003 C 
ATOM     16  C   UNL     1      -6.692   9.196 -11.948  1.00  0.00     0.004 C 
ENDBRANCH  14  15
ENDBRANCH  13  14
ENDBRANCH  12  13
ENDBRANCH  11  12
ENDBRANCH  10  11
ENDBRANCH   1  10
TORSDOF 12
ENDMDL
MODEL 5
REMARK VINA RESULT:    -4.769      2.748      4.085
REMARK INTER + INTRA:          -9.982
REMARK INTER:                  -8.571
REMARK INTRA:                  -1.411
REMARK UNBOUND:                -1.867
REMARK SMILES CCCCCCCCCCCCCC(=O)[O-]
REMARK SMILES IDX 8 1 9 2 10 3 11 4 12 5 13 6 14 7 15 8 16 9 7 10 6 11 5 12
REMARK SMILES IDX 4 13 3 14 2 15 1 16
REMARK H PARENT
REMARK Flexibility Score: inf
ROOT
ATOM      1  C   UNL     1      -5.106   6.688  -7.561  1.00  0.00     0.000 C 
ENDROOT
BRANCH   1   2
ATOM      2  C   UNL     1      -3.918   7.508  -8.095  1.00  0.00     0.000 C 
BRANCH   2   3
ATOM      3  C   UNL     1      -3.689   8.802  -7.296  1.00  0.00     0.000 C 
BRANCH   3   4
ATOM      4  C   UNL     1      -4.906   9.742  -7.337  1.00  0.00     0.000 C 
BRANCH   4   5
ATOM      5  C   UNL     1      -4.785  10.815  -8.432  1.00  0.00     0.006 C 
BRANCH   5   6
ATOM      6  C   UNL     1      -5.691  10.536  -9.638  1.00  0.00     0.053 C 
BRANCH   6   7
ATOM      7  C   UNL     1      -6.983  11.278  -9.503  1.00  0.00     0.041 C 
ATOM      8  O   UNL     1      -8.002  10.895 -10.136  1.00  0.00    -0.550 OA
ATOM      9  O   UNL     1      -7.076  12.361  -8.639  1.00  0.00    -0.550 OA
ENDBRANCH   6   7
ENDBRANCH   5   6
ENDBRANCH   4   5
ENDBRANCH   3   4
ENDBRANCH   2   3
ENDBRANCH   1   2
BRANCH   1  10
ATOM     10  C   UNL     1      -5.937   6.039  -8.682  1.00  0.00     0.000 C 
BRANCH  10  11
ATOM     11  C   UNL     1      -6.486   7.016  -9.738  1.00  0.00    -0.000 C 
BRANCH  11  12
ATOM     12  C   UNL     1      -7.916   7.492  -9.429  1.00  0.00    -0.000 C 
BRANCH  12  13
ATOM     13  C   UNL     1      -8.755   6.401  -8.730  1.00  0.00    -0.000 C 
BRANCH  13  14
ATOM     14  C   UNL     1      -9.989   5.956  -9.538  1.00  0.00    -0.000 C 
BRANCH  14  15
ATOM     15  C   UNL     1     -10.040   4.452  -9.852  1.00  0.00    -0.003 C 
ATOM     16  C   UNL     1      -8.882   3.676  -9.227  1.00  0.00     0.004 C 
ENDBRANCH  14  15
ENDBRANCH  13  14
ENDBRANCH  12  13
ENDBRANCH  11  12
ENDBRANCH  10  11
ENDBRANCH   1  10
TORSDOF 12
ENDMDL
MODEL 6
REMARK VINA RESULT:    -4.760      2.852      5.195
REMARK INTER + INTRA:          -9.966
REMARK INTER:                  -8.161
REMARK INTRA:                  -1.805
REMARK UNBOUND:                -1.867
REMARK SMILES CCCCCCCCCCCCCC(=O)[O-]
REMARK SMILES IDX 8 1 9 2 10 3 11 4 12 5 13 6 14 7 15 8 16 9 7 10 6 11 5 12
REMARK SMILES IDX 4 13 3 14 2 15 1 16
REMARK H PARENT
REMARK Flexibility Score: inf
ROOT
ATOM      1  C   UNL     1      -7.221  10.002 -10.663  1.00  0.00     0.000 C 
ENDROOT
BRANCH   1   2
ATOM      2  C   UNL     1      -7.761   8.628 -10.231  1.00  0.00     0.000 C 
BRANCH   2   3
ATOM      3  C   UNL     1      -6.654   7.565 -10.133  1.00  0.00     0.000 C 
BRANCH   3   4
ATOM      4  C   UNL     1      -7.020   6.422  -9.169  1.00  0.00     0.000 C 
BRANCH   4   5
ATOM      5  C   UNL     1      -8.227   6.764  -8.280  1.00  0.00     0.006 C 
BRANCH   5   6
ATOM      6  C   UNL     1      -9.240   5.617  -8.188  1.00  0.00     0.053 C 
BRANCH   6   7
ATOM      7  C   UNL     1     -10.091   5.572  -9.418  1.00  0.00     0.041 C 
ATOM      8  O   UNL     1     -10.270   4.484 -10.025  1.00  0.00    -0.550 OA
ATOM      9  O   UNL     1     -10.727   6.723  -9.865  1.00  0.00    -0.550 OA
ENDBRANCH   6   7
ENDBRANCH   5   6
ENDBRANCH   4   5
ENDBRANCH   3   4
ENDBRANCH   2   3
ENDBRANCH   1   2
BRANCH   1  10
ATOM     10  C   UNL     1      -5.685  10.089 -10.602  1.00  0.00     0.000 C 
BRANCH  10  11
ATOM     11  C   UNL     1      -5.126  11.004  -9.498  1.00  0.00    -0.000 C 
BRANCH  11  12
ATOM     12  C   UNL     1      -5.924  10.917  -8.185  1.00  0.00    -0.000 C 
BRANCH  12  13
ATOM     13  C   UNL     1      -5.548   9.669  -7.356  1.00  0.00    -0.000 C 
BRANCH  13  14
ATOM     14  C   UNL     1      -4.040   9.355  -7.361  1.00  0.00    -0.000 C 
BRANCH  14  15
ATOM     15  C   UNL     1      -3.681   7.948  -7.867  1.00  0.00    -0.003 C 
ATOM     16  C   UNL     1      -4.036   6.849  -6.866  1.00  0.00     0.004 C 
ENDBRANCH  14  15
ENDBRANCH  13  14
ENDBRANCH  12  13
ENDBRANCH  11  12
ENDBRANCH  10  11
ENDBRANCH   1  10
TORSDOF 12
ENDMDL
MODEL 7
REMARK VINA RESULT:    -4.753      2.709      4.153
REMARK INTER + INTRA:          -9.954
REMARK INTER:                  -8.465
REMARK INTRA:                  -1.489
REMARK UNBOUND:                -1.867
REMARK SMILES CCCCCCCCCCCCCC(=O)[O-]
REMARK SMILES IDX 8 1 9 2 10 3 11 4 12 5 13 6 14 7 15 8 16 9 7 10 6 11 5 12
REMARK SMILES IDX 4 13 3 14 2 15 1 16
REMARK H PARENT
REMARK Flexibility Score: inf
ROOT
ATOM      1  C   UNL     1      -3.665   7.564  -7.780  1.00  0.00     0.000 C 
ENDROOT
BRANCH   1   2
ATOM      2  C   UNL     1      -3.655   9.005  -7.238  1.00  0.00     0.000 C 
BRANCH   2   3
ATOM      3  C   UNL     1      -5.002   9.719  -7.440  1.00  0.00     0.000 C 
BRANCH   3   4
ATOM      4  C   UNL     1      -4.922  10.836  -8.496  1.00  0.00     0.000 C 
BRANCH   4   5
ATOM      5  C   UNL     1      -5.579  10.436  -9.828  1.00  0.00     0.006 C 
BRANCH   5   6
ATOM      6  C   UNL     1      -7.100  10.634  -9.822  1.00  0.00     0.053 C 
BRANCH   6   7
ATOM      7  C   UNL     1      -7.731   9.862 -10.938  1.00  0.00     0.041 C 
ATOM      8  O   UNL     1      -8.971   9.645 -10.934  1.00  0.00    -0.550 OA
ATOM      9  O   UNL     1      -6.958   9.425 -12.005  1.00  0.00    -0.550 OA
ENDBRANCH   6   7
ENDBRANCH   5   6
ENDBRANCH   4   5
ENDBRANCH   3   4
ENDBRANCH   2   3
ENDBRANCH   1   2
BRANCH   1  10
ATOM     10  C   UNL     1      -5.055   6.907  -7.709  1.00  0.00     0.000 C 
BRANCH  10  11
ATOM     11  C   UNL     1      -5.536   6.251  -9.016  1.00  0.00    -0.000 C 
BRANCH  11  12
ATOM     12  C   UNL     1      -6.916   6.759  -9.470  1.00  0.00    -0.000 C 
BRANCH  12  13
ATOM     13  C   UNL     1      -7.820   7.138  -8.277  1.00  0.00    -0.000 C 
BRANCH  13  14
ATOM     14  C   UNL     1      -9.061   6.237  -8.131  1.00  0.00    -0.000 C 
BRANCH  14  15
ATOM     15  C   UNL     1      -9.060   4.994  -9.035  1.00  0.00    -0.003 C 
ATOM     16  C   UNL     1     -10.396   4.775  -9.744  1.00  0.00     0.004 C 
ENDBRANCH  14  15
ENDBRANCH  13  14
ENDBRANCH  12  13
ENDBRANCH  11  12
ENDBRANCH  10  11
ENDBRANCH   1  10
TORSDOF 12
ENDMDL
MODEL 8
REMARK VINA RESULT:    -4.739      2.271      4.896
REMARK INTER + INTRA:          -9.930
REMARK INTER:                  -8.263
REMARK INTRA:                  -1.667
REMARK UNBOUND:                -1.867
REMARK SMILES CCCCCCCCCCCCCC(=O)[O-]
REMARK SMILES IDX 8 1 9 2 10 3 11 4 12 5 13 6 14 7 15 8 16 9 7 10 6 11 5 12
REMARK SMILES IDX 4 13 3 14 2 15 1 16
REMARK H PARENT
REMARK Flexibility Score: inf
ROOT
ATOM      1  C   UNL     1      -5.812   9.894 -10.725  1.00  0.00     0.000 C 
ENDROOT
BRANCH   1   2
ATOM      2  C   UNL     1      -7.310   9.695 -10.434  1.00  0.00     0.000 C 
BRANCH   2   3
ATOM      3  C   UNL     1      -7.700   8.210 -10.343  1.00  0.00     0.000 C 
BRANCH   3   4
ATOM      4  C   UNL     1      -6.534   7.324  -9.872  1.00  0.00     0.000 C 
BRANCH   4   5
ATOM      5  C   UNL     1      -6.948   6.345  -8.760  1.00  0.00     0.006 C 
BRANCH   5   6
ATOM      6  C   UNL     1      -7.698   7.035  -7.613  1.00  0.00     0.053 C 
BRANCH   6   7
ATOM      7  C   UNL     1      -9.018   6.371  -7.379  1.00  0.00     0.041 C 
ATOM      8  O   UNL     1      -9.716   5.988  -8.355  1.00  0.00    -0.550 OA
ATOM      9  O   UNL     1      -9.455   6.131  -6.083  1.00  0.00    -0.550 OA
ENDBRANCH   6   7
ENDBRANCH   5   6
ENDBRANCH   4   5
ENDBRANCH   3   4
ENDBRANCH   2   3
ENDBRANCH   1   2
BRANCH   1  10
ATOM     10  C   UNL     1      -5.123  10.820  -9.706  1.00  0.00     0.000 C 
BRANCH  10  11
ATOM     11  C   UNL     1      -5.846  10.957  -8.354  1.00  0.00    -0.000 C 
BRANCH  11  12
ATOM     12  C   UNL     1      -5.476   9.843  -7.359  1.00  0.00    -0.000 C 
BRANCH  12  13
ATOM     13  C   UNL     1      -3.979   9.472  -7.430  1.00  0.00    -0.000 C 
BRANCH  13  14
ATOM     14  C   UNL     1      -3.724   7.965  -7.626  1.00  0.00    -0.000 C 
BRANCH  14  15
ATOM     15  C   UNL     1      -2.842   7.319  -6.545  1.00  0.00    -0.003 C 
ATOM     16  C   UNL     1      -1.681   8.216  -6.113  1.00  0.00     0.004 C 
ENDBRANCH  14  15
ENDBRANCH  13  14
ENDBRANCH  12  13
ENDBRANCH  11  12
ENDBRANCH  10  11
ENDBRANCH   1  10
TORSDOF 12
ENDMDL
MODEL 9
REMARK VINA RESULT:    -4.643      2.354      5.450
REMARK INTER + INTRA:          -9.768
REMARK INTER:                  -8.222
REMARK INTRA:                  -1.546
REMARK UNBOUND:                -1.867
REMARK SMILES CCCCCCCCCCCCCC(=O)[O-]
REMARK SMILES IDX 8 1 9 2 10 3 11 4 12 5 13 6 14 7 15 8 16 9 7 10 6 11 5 12
REMARK SMILES IDX 4 13 3 14 2 15 1 16
REMARK H PARENT
REMARK Flexibility Score: inf
ROOT
ATOM      1  C   UNL     1      -6.251   6.770  -7.782  1.00  0.00     0.000 C 
ENDROOT
BRANCH   1   2
ATOM      2  C   UNL     1      -7.661   7.306  -8.090  1.00  0.00     0.000 C 
BRANCH   2   3
ATOM      3  C   UNL     1      -8.283   6.644  -9.331  1.00  0.00     0.000 C 
BRANCH   3   4
ATOM      4  C   UNL     1      -9.727   6.174  -9.085  1.00  0.00     0.000 C 
BRANCH   4   5
ATOM      5  C   UNL     1      -9.832   5.179  -7.916  1.00  0.00     0.006 C 
BRANCH   5   6
ATOM      6  C   UNL     1     -10.620   5.742  -6.727  1.00  0.00     0.053 C 
BRANCH   6   7
ATOM      7  C   UNL     1      -9.951   5.380  -5.439  1.00  0.00     0.041 C 
ATOM      8  O   UNL     1     -10.311   4.353  -4.806  1.00  0.00    -0.550 OA
ATOM      9  O   UNL     1      -8.897   6.148  -4.963  1.00  0.00    -0.550 OA
ENDBRANCH   6   7
ENDBRANCH   5   6
ENDBRANCH   4   5
ENDBRANCH   3   4
ENDBRANCH   2   3
ENDBRANCH   1   2
BRANCH   1  10
ATOM     10  C   UNL     1      -5.229   7.105  -8.883  1.00  0.00     0.000 C 
BRANCH  10  11
ATOM     11  C   UNL     1      -4.065   8.009  -8.441  1.00  0.00    -0.000 C 
BRANCH  11  12
ATOM     12  C   UNL     1      -4.457   9.496  -8.361  1.00  0.00    -0.000 C 
BRANCH  12  13
ATOM     13  C   UNL     1      -4.903  10.055  -9.728  1.00  0.00    -0.000 C 
BRANCH  13  14
ATOM     14  C   UNL     1      -6.324  10.651  -9.719  1.00  0.00    -0.000 C 
BRANCH  14  15
ATOM     15  C   UNL     1      -7.311   9.970 -10.682  1.00  0.00    -0.003 C 
ATOM     16  C   UNL     1      -6.610   9.203 -11.803  1.00  0.00     0.004 C 
ENDBRANCH  14  15
ENDBRANCH  13  14
ENDBRANCH  12  13
ENDBRANCH  11  12
ENDBRANCH  10  11
ENDBRANCH   1  10
TORSDOF 12
ENDMDL
