MODEL 1
REMARK VINA RESULT:    -6.215      0.000      0.000
REMARK INTER + INTRA:         -19.416
REMARK INTER:                 -16.388
REMARK INTRA:                  -3.027
REMARK UNBOUND:                -3.027
REMARK SMILES CCCCCCCCCCCCCCCCCCCCCCCCCCCCCC(=O)[O-]
REMARK SMILES IDX 16 1 17 2 18 3 19 4 20 5 21 6 22 7 23 8 24 9 25 10 26 11
REMARK SMILES IDX 27 12 28 13 29 14 30 15 31 16 32 17 15 18 14 19 13 20 12 21
REMARK SMILES IDX 11 22 10 23 9 24 8 25 7 26 6 27 5 28 4 29 3 30 2 31 1 32
REMARK H PARENT
REMARK Flexibility Score: inf
ROOT
ATOM      1  C   UNL     1      17.102  -3.426  17.486  1.00  0.00     0.000 C 
ENDROOT
BRANCH   1   2
ATOM      2  C   UNL     1      17.495  -2.646  16.221  1.00  0.00     0.000 C 
BRANCH   2   3
ATOM      3  C   UNL     1      18.305  -1.370  16.533  1.00  0.00     0.000 C 
BRANCH   3   4
ATOM      4  C   UNL     1      19.714  -1.352  15.909  1.00  0.00     0.000 C 
BRANCH   4   5
ATOM      5  C   UNL     1      20.506  -2.665  16.045  1.00  0.00     0.000 C 
BRANCH   5   6
ATOM      6  C   UNL     1      22.031  -2.494  16.213  1.00  0.00     0.000 C 
BRANCH   6   7
ATOM      7  C   UNL     1      22.527  -1.035  16.209  1.00  0.00     0.000 C 
BRANCH   7   8
ATOM      8  C   UNL     1      24.008  -0.854  16.597  1.00  0.00     0.000 C 
BRANCH   8   9
ATOM      9  C   UNL     1      24.907  -2.076  16.321  1.00  0.00     0.000 C 
BRANCH   9  10
ATOM     10  C   UNL     1      25.255  -2.319  14.838  1.00  0.00     0.000 C 
BRANCH  10  11
ATOM     11  C   UNL     1      26.745  -2.160  14.483  1.00  0.00     0.000 C 
BRANCH  11  12
ATOM     12  C   UNL     1      27.153  -0.692  14.271  1.00  0.00     0.000 C 
BRANCH  12  13
ATOM     13  C   UNL     1      27.933  -0.479  12.965  1.00  0.00     0.006 C 
BRANCH  13  14
ATOM     14  C   UNL     1      28.535  -1.778  12.407  1.00  0.00     0.053 C 
BRANCH  14  15
ATOM     15  C   UNL     1      29.242  -1.523  11.112  1.00  0.00     0.041 C 
ATOM     16  O   UNL     1      28.583  -1.298  10.063  1.00  0.00    -0.550 OA
ATOM     17  O   UNL     1      30.632  -1.521  11.066  1.00  0.00    -0.550 OA
ENDBRANCH  14  15
ENDBRANCH  13  14
ENDBRANCH  12  13
ENDBRANCH  11  12
ENDBRANCH  10  11
ENDBRANCH   9  10
ENDBRANCH   8   9
ENDBRANCH   7   8
ENDBRANCH   6   7
ENDBRANCH   5   6
ENDBRANCH   4   5
ENDBRANCH   3   4
ENDBRANCH   2   3
ENDBRANCH   1   2
BRANCH   1  18
ATOM     18  C   UNL     1      16.152  -2.606  18.369  1.00  0.00     0.000 C 
BRANCH  18  19
ATOM     19  C   UNL     1      14.695  -2.772  17.914  1.00  0.00     0.000 C 
BRANCH  19  20
ATOM     20  C   UNL     1      13.746  -1.743  18.549  1.00  0.00     0.000 C 
BRANCH  20  21
ATOM     21  C   UNL     1      14.349  -1.061  19.789  1.00  0.00     0.000 C 
BRANCH  21  22
ATOM     22  C   UNL     1      14.388   0.471  19.667  1.00  0.00     0.000 C 
BRANCH  22  23
ATOM     23  C   UNL     1      13.519   1.031  18.520  1.00  0.00     0.000 C 
BRANCH  23  24
ATOM     24  C   UNL     1      14.317   1.934  17.561  1.00  0.00    -0.000 C 
BRANCH  24  25
ATOM     25  C   UNL     1      15.487   1.180  16.892  1.00  0.00    -0.000 C 
BRANCH  25  26
ATOM     26  C   UNL     1      15.058   0.271  15.723  1.00  0.00    -0.000 C 
BRANCH  26  27
ATOM     27  C   UNL     1      14.278   0.977  14.599  1.00  0.00    -0.000 C 
BRANCH  27  28
ATOM     28  C   UNL     1      15.188   1.489  13.468  1.00  0.00    -0.000 C 
BRANCH  28  29
ATOM     29  C   UNL     1      15.250   0.521  12.273  1.00  0.00    -0.000 C 
BRANCH  29  30
ATOM     30  C   UNL     1      16.419   0.762  11.296  1.00  0.00    -0.000 C 
BRANCH  30  31
ATOM     31  C   UNL     1      17.426  -0.399  11.192  1.00  0.00    -0.003 C 
ATOM     32  C   UNL     1      17.714  -1.058  12.541  1.00  0.00     0.004 C 
ENDBRANCH  30  31
ENDBRANCH  29  30
ENDBRANCH  28  29
ENDBRANCH  27  28
ENDBRANCH  26  27
ENDBRANCH  25  26
ENDBRANCH  24  25
ENDBRANCH  23  24
ENDBRANCH  22  23
ENDBRANCH  21  22
ENDBRANCH  20  21
ENDBRANCH  19  20
ENDBRANCH  18  19
ENDBRANCH   1  18
TORSDOF 28
ENDMDL
MODEL 2
REMARK VINA RESULT:    -6.204      4.155      9.158
REMARK INTER + INTRA:         -19.386
REMARK INTER:                 -17.423
REMARK INTRA:                  -1.962
REMARK UNBOUND:                -3.027
REMARK SMILES CCCCCCCCCCCCCCCCCCCCCCCCCCCCCC(=O)[O-]
REMARK SMILES IDX 16 1 17 2 18 3 19 4 20 5 21 6 22 7 23 8 24 9 25 10 26 11
REMARK SMILES IDX 27 12 28 13 29 14 30 15 31 16 32 17 15 18 14 19 13 20 12 21
REMARK SMILES IDX 11 22 10 23 9 24 8 25 7 26 6 27 5 28 4 29 3 30 2 31 1 32
REMARK H PARENT
REMARK Flexibility Score: inf
ROOT
ATOM      1  C   UNL     1      21.901  -2.784   5.998  1.00  0.00     0.000 C 
ENDROOT
BRANCH   1   2
ATOM      2  C   UNL     1      23.221  -2.763   5.210  1.00  0.00     0.000 C 
BRANCH   2   3
ATOM      3  C   UNL     1      24.461  -2.898   6.120  1.00  0.00     0.000 C 
BRANCH   3   4
ATOM      4  C   UNL     1      25.618  -1.950   5.748  1.00  0.00     0.000 C 
BRANCH   4   5
ATOM      5  C   UNL     1      26.918  -2.161   6.546  1.00  0.00     0.000 C 
BRANCH   5   6
ATOM      6  C   UNL     1      27.383  -3.627   6.665  1.00  0.00     0.000 C 
BRANCH   6   7
ATOM      7  C   UNL     1      28.522  -4.029   5.707  1.00  0.00     0.000 C 
BRANCH   7   8
ATOM      8  C   UNL     1      29.658  -4.842   6.359  1.00  0.00     0.000 C 
BRANCH   8   9
ATOM      9  C   UNL     1      31.012  -4.110   6.452  1.00  0.00     0.000 C 
BRANCH   9  10
ATOM     10  C   UNL     1      31.582  -3.954   7.877  1.00  0.00     0.000 C 
BRANCH  10  11
ATOM     11  C   UNL     1      30.901  -2.874   8.738  1.00  0.00     0.000 C 
BRANCH  11  12
ATOM     12  C   UNL     1      30.702  -1.549   7.983  1.00  0.00     0.000 C 
BRANCH  12  13
ATOM     13  C   UNL     1      29.582  -0.688   8.586  1.00  0.00     0.006 C 
BRANCH  13  14
ATOM     14  C   UNL     1      28.692  -1.464   9.568  1.00  0.00     0.053 C 
BRANCH  14  15
ATOM     15  C   UNL     1      28.686  -0.808  10.914  1.00  0.00     0.041 C 
ATOM     16  O   UNL     1      28.862  -1.495  11.955  1.00  0.00    -0.550 OA
ATOM     17  O   UNL     1      28.499   0.567  11.019  1.00  0.00    -0.550 OA
ENDBRANCH  14  15
ENDBRANCH  13  14
ENDBRANCH  12  13
ENDBRANCH  11  12
ENDBRANCH  10  11
ENDBRANCH   9  10
ENDBRANCH   8   9
ENDBRANCH   7   8
ENDBRANCH   6   7
ENDBRANCH   5   6
ENDBRANCH   4   5
ENDBRANCH   3   4
ENDBRANCH   2   3
ENDBRANCH   1   2
BRANCH   1  18
ATOM     18  C   UNL     1      21.320  -1.372   6.142  1.00  0.00     0.000 C 
BRANCH  18  19
ATOM     19  C   UNL     1      20.002  -1.396   6.929  1.00  0.00     0.000 C 
BRANCH  19  20
ATOM     20  C   UNL     1      19.241  -0.061   6.868  1.00  0.00     0.000 C 
BRANCH  20  21
ATOM     21  C   UNL     1      18.111   0.029   7.907  1.00  0.00     0.000 C 
BRANCH  21  22
ATOM     22  C   UNL     1      18.113  -1.151   8.894  1.00  0.00     0.000 C 
BRANCH  22  23
ATOM     23  C   UNL     1      16.982  -1.093   9.943  1.00  0.00     0.000 C 
BRANCH  23  24
ATOM     24  C   UNL     1      17.313  -0.152  11.117  1.00  0.00    -0.000 C 
BRANCH  24  25
ATOM     25  C   UNL     1      16.175   0.855  11.393  1.00  0.00    -0.000 C 
BRANCH  25  26
ATOM     26  C   UNL     1      15.208   0.415  12.510  1.00  0.00    -0.000 C 
BRANCH  26  27
ATOM     27  C   UNL     1      14.792   1.528  13.489  1.00  0.00    -0.000 C 
BRANCH  27  28
ATOM     28  C   UNL     1      14.182   0.981  14.792  1.00  0.00    -0.000 C 
BRANCH  28  29
ATOM     29  C   UNL     1      13.118   1.922  15.389  1.00  0.00    -0.000 C 
BRANCH  29  30
ATOM     30  C   UNL     1      12.949   1.831  16.919  1.00  0.00    -0.000 C 
BRANCH  30  31
ATOM     31  C   UNL     1      14.074   1.077  17.652  1.00  0.00    -0.003 C 
ATOM     32  C   UNL     1      13.547   0.012  18.614  1.00  0.00     0.004 C 
ENDBRANCH  30  31
ENDBRANCH  29  30
ENDBRANCH  28  29
ENDBRANCH  27  28
ENDBRANCH  26  27
ENDBRANCH  25  26
ENDBRANCH  24  25
ENDBRANCH  23  24
ENDBRANCH  22  23
ENDBRANCH  21  22
ENDBRANCH  20  21
ENDBRANCH  19  20
ENDBRANCH  18  19
ENDBRANCH   1  18
TORSDOF 28
ENDMDL
MODEL 3
REMARK VINA RESULT:    -6.187      6.104     14.750
REMARK INTER + INTRA:         -19.342
REMARK INTER:                 -17.691
REMARK INTRA:                  -1.651
REMARK UNBOUND:                -3.027
REMARK SMILES CCCCCCCCCCCCCCCCCCCCCCCCCCCCCC(=O)[O-]
REMARK SMILES IDX 16 1 17 2 18 3 19 4 20 5 21 6 22 7 23 8 24 9 25 10 26 11
REMARK SMILES IDX 27 12 28 13 29 14 30 15 31 16 32 17 15 18 14 19 13 20 12 21
REMARK SMILES IDX 11 22 10 23 9 24 8 25 7 26 6 27 5 28 4 29 3 30 2 31 1 32
REMARK H PARENT
REMARK Flexibility Score: inf
ROOT
ATOM      1  C   UNL     1      20.133  -1.652   6.940  1.00  0.00     0.000 C 
ENDROOT
BRANCH   1   2
ATOM      2  C   UNL     1      19.618  -0.230   7.216  1.00  0.00     0.000 C 
BRANCH   2   3
ATOM      3  C   UNL     1      18.164  -0.212   7.734  1.00  0.00     0.000 C 
BRANCH   3   4
ATOM      4  C   UNL     1      17.961  -0.962   9.064  1.00  0.00     0.000 C 
BRANCH   4   5
ATOM      5  C   UNL     1      17.284  -0.145  10.180  1.00  0.00     0.000 C 
BRANCH   5   6
ATOM      6  C   UNL     1      17.742  -0.488  11.613  1.00  0.00     0.000 C 
BRANCH   6   7
ATOM      7  C   UNL     1      16.621  -0.492  12.671  1.00  0.00     0.000 C 
BRANCH   7   8
ATOM      8  C   UNL     1      15.323   0.219  12.241  1.00  0.00     0.000 C 
BRANCH   8   9
ATOM      9  C   UNL     1      15.155   1.652  12.786  1.00  0.00     0.000 C 
BRANCH   9  10
ATOM     10  C   UNL     1      15.015   1.764  14.318  1.00  0.00     0.000 C 
BRANCH  10  11
ATOM     11  C   UNL     1      13.849   0.963  14.927  1.00  0.00     0.000 C 
BRANCH  11  12
ATOM     12  C   UNL     1      12.875   1.845  15.727  1.00  0.00     0.000 C 
BRANCH  12  13
ATOM     13  C   UNL     1      13.278   1.980  17.203  1.00  0.00     0.006 C 
BRANCH  13  14
ATOM     14  C   UNL     1      14.328   0.946  17.635  1.00  0.00     0.053 C 
BRANCH  14  15
ATOM     15  C   UNL     1      13.739  -0.042  18.595  1.00  0.00     0.041 C 
ATOM     16  O   UNL     1      12.931  -0.917  18.187  1.00  0.00    -0.550 OA
ATOM     17  O   UNL     1      14.093  -0.003  19.940  1.00  0.00    -0.550 OA
ENDBRANCH  14  15
ENDBRANCH  13  14
ENDBRANCH  12  13
ENDBRANCH  11  12
ENDBRANCH  10  11
ENDBRANCH   9  10
ENDBRANCH   8   9
ENDBRANCH   7   8
ENDBRANCH   6   7
ENDBRANCH   5   6
ENDBRANCH   4   5
ENDBRANCH   3   4
ENDBRANCH   2   3
ENDBRANCH   1   2
BRANCH   1  18
ATOM     18  C   UNL     1      21.431  -1.621   6.123  1.00  0.00     0.000 C 
BRANCH  18  19
ATOM     19  C   UNL     1      22.116  -2.996   6.124  1.00  0.00     0.000 C 
BRANCH  19  20
ATOM     20  C   UNL     1      23.347  -3.055   5.206  1.00  0.00     0.000 C 
BRANCH  20  21
ATOM     21  C   UNL     1      24.505  -2.175   5.704  1.00  0.00     0.000 C 
BRANCH  21  22
ATOM     22  C   UNL     1      25.585  -2.977   6.450  1.00  0.00     0.000 C 
BRANCH  22  23
ATOM     23  C   UNL     1      27.029  -2.553   6.108  1.00  0.00     0.000 C 
BRANCH  23  24
ATOM     24  C   UNL     1      27.970  -3.758   5.920  1.00  0.00    -0.000 C 
BRANCH  24  25
ATOM     25  C   UNL     1      29.451  -3.378   6.136  1.00  0.00    -0.000 C 
BRANCH  25  26
ATOM     26  C   UNL     1      30.229  -4.372   7.022  1.00  0.00    -0.000 C 
BRANCH  26  27
ATOM     27  C   UNL     1      31.761  -4.240   6.962  1.00  0.00    -0.000 C 
BRANCH  27  28
ATOM     28  C   UNL     1      32.436  -4.466   8.327  1.00  0.00    -0.000 C 
BRANCH  28  29
ATOM     29  C   UNL     1      32.170  -3.317   9.317  1.00  0.00    -0.000 C 
BRANCH  29  30
ATOM     30  C   UNL     1      32.422  -1.901   8.759  1.00  0.00    -0.000 C 
BRANCH  30  31
ATOM     31  C   UNL     1      31.157  -1.044   8.569  1.00  0.00    -0.003 C 
ATOM     32  C   UNL     1      30.016  -1.455   9.500  1.00  0.00     0.004 C 
ENDBRANCH  30  31
ENDBRANCH  29  30
ENDBRANCH  28  29
ENDBRANCH  27  28
ENDBRANCH  26  27
ENDBRANCH  25  26
ENDBRANCH  24  25
ENDBRANCH  23  24
ENDBRANCH  22  23
ENDBRANCH  21  22
ENDBRANCH  20  21
ENDBRANCH  19  20
ENDBRANCH  18  19
ENDBRANCH   1  18
TORSDOF 28
ENDMDL
MODEL 4
REMARK VINA RESULT:    -6.128      5.188     14.286
REMARK INTER + INTRA:         -19.186
REMARK INTER:                 -17.351
REMARK INTRA:                  -1.834
REMARK UNBOUND:                -3.027
REMARK SMILES CCCCCCCCCCCCCCCCCCCCCCCCCCCCCC(=O)[O-]
REMARK SMILES IDX 16 1 17 2 18 3 19 4 20 5 21 6 22 7 23 8 24 9 25 10 26 11
REMARK SMILES IDX 27 12 28 13 29 14 30 15 31 16 32 17 15 18 14 19 13 20 12 21
REMARK SMILES IDX 11 22 10 23 9 24 8 25 7 26 6 27 5 28 4 29 3 30 2 31 1 32
REMARK H PARENT
REMARK Flexibility Score: inf
ROOT
ATOM      1  C   UNL     1      22.178  -3.077   5.753  1.00  0.00     0.000 C 
ENDROOT
BRANCH   1   2
ATOM      2  C   UNL     1      21.089  -2.412   6.609  1.00  0.00     0.000 C 
BRANCH   2   3
ATOM      3  C   UNL     1      20.878  -0.924   6.257  1.00  0.00     0.000 C 
BRANCH   3   4
ATOM      4  C   UNL     1      19.581  -0.320   6.830  1.00  0.00     0.000 C 
BRANCH   4   5
ATOM      5  C   UNL     1      18.951  -1.108   7.992  1.00  0.00     0.000 C 
BRANCH   5   6
ATOM      6  C   UNL     1      17.713  -0.448   8.635  1.00  0.00     0.000 C 
BRANCH   6   7
ATOM      7  C   UNL     1      17.264  -1.071   9.972  1.00  0.00     0.000 C 
BRANCH   7   8
ATOM      8  C   UNL     1      17.092  -0.066  11.129  1.00  0.00     0.000 C 
BRANCH   8   9
ATOM      9  C   UNL     1      15.633   0.324  11.440  1.00  0.00     0.000 C 
BRANCH   9  10
ATOM     10  C   UNL     1      15.459   1.546  12.367  1.00  0.00     0.000 C 
BRANCH  10  11
ATOM     11  C   UNL     1      14.852   1.236  13.748  1.00  0.00     0.000 C 
BRANCH  11  12
ATOM     12  C   UNL     1      15.077  -0.222  14.183  1.00  0.00     0.000 C 
BRANCH  12  13
ATOM     13  C   UNL     1      15.855  -0.331  15.502  1.00  0.00     0.006 C 
BRANCH  13  14
ATOM     14  C   UNL     1      16.961  -1.396  15.461  1.00  0.00     0.053 C 
BRANCH  14  15
ATOM     15  C   UNL     1      18.177  -0.930  16.199  1.00  0.00     0.041 C 
ATOM     16  O   UNL     1      18.064  -0.389  17.330  1.00  0.00    -0.550 OA
ATOM     17  O   UNL     1      19.440  -1.107  15.642  1.00  0.00    -0.550 OA
ENDBRANCH  14  15
ENDBRANCH  13  14
ENDBRANCH  12  13
ENDBRANCH  11  12
ENDBRANCH  10  11
ENDBRANCH   9  10
ENDBRANCH   8   9
ENDBRANCH   7   8
ENDBRANCH   6   7
ENDBRANCH   5   6
ENDBRANCH   4   5
ENDBRANCH   3   4
ENDBRANCH   2   3
ENDBRANCH   1   2
BRANCH   1  18
ATOM     18  C   UNL     1      23.368  -2.133   5.539  1.00  0.00     0.000 C 
BRANCH  18  19
ATOM     19  C   UNL     1      24.700  -2.868   5.751  1.00  0.00     0.000 C 
BRANCH  19  20
ATOM     20  C   UNL     1      25.846  -1.929   6.159  1.00  0.00     0.000 C 
BRANCH  20  21
ATOM     21  C   UNL     1      26.760  -2.536   7.237  1.00  0.00     0.000 C 
BRANCH  21  22
ATOM     22  C   UNL     1      27.432  -3.842   6.782  1.00  0.00     0.000 C 
BRANCH  22  23
ATOM     23  C   UNL     1      28.297  -3.693   5.512  1.00  0.00     0.000 C 
BRANCH  23  24
ATOM     24  C   UNL     1      29.770  -3.379   5.833  1.00  0.00    -0.000 C 
BRANCH  24  25
ATOM     25  C   UNL     1      30.407  -4.451   6.744  1.00  0.00    -0.000 C 
BRANCH  25  26
ATOM     26  C   UNL     1      31.876  -4.164   7.115  1.00  0.00    -0.000 C 
BRANCH  26  27
ATOM     27  C   UNL     1      32.232  -4.388   8.595  1.00  0.00    -0.000 C 
BRANCH  27  28
ATOM     28  C   UNL     1      32.339  -3.074   9.391  1.00  0.00    -0.000 C 
BRANCH  28  29
ATOM     29  C   UNL     1      31.820  -1.859   8.601  1.00  0.00    -0.000 C 
BRANCH  29  30
ATOM     30  C   UNL     1      30.907  -0.903   9.395  1.00  0.00    -0.000 C 
BRANCH  30  31
ATOM     31  C   UNL     1      29.539  -1.491   9.789  1.00  0.00    -0.003 C 
ATOM     32  C   UNL     1      28.375  -0.554   9.464  1.00  0.00     0.004 C 
ENDBRANCH  30  31
ENDBRANCH  29  30
ENDBRANCH  28  29
ENDBRANCH  27  28
ENDBRANCH  26  27
ENDBRANCH  25  26
ENDBRANCH  24  25
ENDBRANCH  23  24
ENDBRANCH  22  23
ENDBRANCH  21  22
ENDBRANCH  20  21
ENDBRANCH  19  20
ENDBRANCH  18  19
ENDBRANCH   1  18
TORSDOF 28
ENDMDL
MODEL 5
REMARK VINA RESULT:    -6.113      2.501      3.506
REMARK INTER + INTRA:         -19.147
REMARK INTER:                 -15.395
REMARK INTRA:                  -3.752
REMARK UNBOUND:                -3.027
REMARK SMILES CCCCCCCCCCCCCCCCCCCCCCCCCCCCCC(=O)[O-]
REMARK SMILES IDX 16 1 17 2 18 3 19 4 20 5 21 6 22 7 23 8 24 9 25 10 26 11
REMARK SMILES IDX 27 12 28 13 29 14 30 15 31 16 32 17 15 18 14 19 13 20 12 21
REMARK SMILES IDX 11 22 10 23 9 24 8 25 7 26 6 27 5 28 4 29 3 30 2 31 1 32
REMARK H PARENT
REMARK Flexibility Score: inf
ROOT
ATOM      1  C   UNL     1      16.494  -1.508  15.683  1.00  0.00     0.000 C 
ENDROOT
BRANCH   1   2
ATOM      2  C   UNL     1      17.040  -1.744  14.266  1.00  0.00     0.000 C 
BRANCH   2   3
ATOM      3  C   UNL     1      18.582  -1.773  14.217  1.00  0.00     0.000 C 
BRANCH   3   4
ATOM      4  C   UNL     1      19.262  -1.174  15.464  1.00  0.00     0.000 C 
BRANCH   4   5
ATOM      5  C   UNL     1      20.396  -2.026  16.064  1.00  0.00     0.000 C 
BRANCH   5   6
ATOM      6  C   UNL     1      20.483  -3.470  15.529  1.00  0.00     0.000 C 
BRANCH   6   7
ATOM      7  C   UNL     1      21.796  -4.208  15.859  1.00  0.00     0.000 C 
BRANCH   7   8
ATOM      8  C   UNL     1      22.982  -3.290  16.217  1.00  0.00     0.000 C 
BRANCH   8   9
ATOM      9  C   UNL     1      24.375  -3.925  16.034  1.00  0.00     0.000 C 
BRANCH   9  10
ATOM     10  C   UNL     1      25.486  -3.353  16.939  1.00  0.00     0.000 C 
BRANCH  10  11
ATOM     11  C   UNL     1      26.434  -2.351  16.254  1.00  0.00     0.000 C 
BRANCH  11  12
ATOM     12  C   UNL     1      26.583  -1.039  17.042  1.00  0.00     0.000 C 
BRANCH  12  13
ATOM     13  C   UNL     1      25.238  -0.501  17.553  1.00  0.00     0.006 C 
BRANCH  13  14
ATOM     14  C   UNL     1      24.385   0.133  16.444  1.00  0.00     0.053 C 
BRANCH  14  15
ATOM     15  C   UNL     1      25.111   1.274  15.801  1.00  0.00     0.041 C 
ATOM     16  O   UNL     1      25.355   2.321  16.458  1.00  0.00    -0.550 OA
ATOM     17  O   UNL     1      25.530   1.178  14.478  1.00  0.00    -0.550 OA
ENDBRANCH  14  15
ENDBRANCH  13  14
ENDBRANCH  12  13
ENDBRANCH  11  12
ENDBRANCH  10  11
ENDBRANCH   9  10
ENDBRANCH   8   9
ENDBRANCH   7   8
ENDBRANCH   6   7
ENDBRANCH   5   6
ENDBRANCH   4   5
ENDBRANCH   3   4
ENDBRANCH   2   3
ENDBRANCH   1   2
BRANCH   1  18
ATOM     18  C   UNL     1      15.836  -2.777  16.241  1.00  0.00     0.000 C 
BRANCH  18  19
ATOM     19  C   UNL     1      16.846  -3.617  17.036  1.00  0.00     0.000 C 
BRANCH  19  20
ATOM     20  C   UNL     1      17.137  -3.045  18.433  1.00  0.00     0.000 C 
BRANCH  20  21
ATOM     21  C   UNL     1      15.902  -2.395  19.080  1.00  0.00     0.000 C 
BRANCH  21  22
ATOM     22  C   UNL     1      16.128  -0.917  19.442  1.00  0.00     0.000 C 
BRANCH  22  23
ATOM     23  C   UNL     1      14.859  -0.194  19.944  1.00  0.00     0.000 C 
BRANCH  23  24
ATOM     24  C   UNL     1      13.571  -0.752  19.311  1.00  0.00    -0.000 C 
BRANCH  24  25
ATOM     25  C   UNL     1      13.230  -0.052  17.977  1.00  0.00    -0.000 C 
BRANCH  25  26
ATOM     26  C   UNL     1      13.147   1.484  18.081  1.00  0.00    -0.000 C 
BRANCH  26  27
ATOM     27  C   UNL     1      13.394   2.242  16.763  1.00  0.00    -0.000 C 
BRANCH  27  28
ATOM     28  C   UNL     1      14.634   1.736  16.005  1.00  0.00    -0.000 C 
BRANCH  28  29
ATOM     29  C   UNL     1      14.289   1.174  14.613  1.00  0.00    -0.000 C 
BRANCH  29  30
ATOM     30  C   UNL     1      15.116   1.758  13.449  1.00  0.00    -0.000 C 
BRANCH  30  31
ATOM     31  C   UNL     1      15.146   0.891  12.176  1.00  0.00    -0.003 C 
ATOM     32  C   UNL     1      16.505   0.911  11.476  1.00  0.00     0.004 C 
ENDBRANCH  30  31
ENDBRANCH  29  30
ENDBRANCH  28  29
ENDBRANCH  27  28
ENDBRANCH  26  27
ENDBRANCH  25  26
ENDBRANCH  24  25
ENDBRANCH  23  24
ENDBRANCH  22  23
ENDBRANCH  21  22
ENDBRANCH  20  21
ENDBRANCH  19  20
ENDBRANCH  18  19
ENDBRANCH   1  18
TORSDOF 28
ENDMDL
MODEL 6
REMARK VINA RESULT:    -6.111      1.297      2.413
REMARK INTER + INTRA:         -19.142
REMARK INTER:                 -16.553
REMARK INTRA:                  -2.589
REMARK UNBOUND:                -3.027
REMARK SMILES CCCCCCCCCCCCCCCCCCCCCCCCCCCCCC(=O)[O-]
REMARK SMILES IDX 16 1 17 2 18 3 19 4 20 5 21 6 22 7 23 8 24 9 25 10 26 11
REMARK SMILES IDX 27 12 28 13 29 14 30 15 31 16 32 17 15 18 14 19 13 20 12 21
REMARK SMILES IDX 11 22 10 23 9 24 8 25 7 26 6 27 5 28 4 29 3 30 2 31 1 32
REMARK H PARENT
REMARK Flexibility Score: inf
ROOT
ATOM      1  C   UNL     1      17.442  -1.205  15.419  1.00  0.00     0.000 C 
ENDROOT
BRANCH   1   2
ATOM      2  C   UNL     1      18.411  -1.808  14.389  1.00  0.00     0.000 C 
BRANCH   2   3
ATOM      3  C   UNL     1      19.504  -2.683  15.038  1.00  0.00     0.000 C 
BRANCH   3   4
ATOM      4  C   UNL     1      20.519  -1.894  15.888  1.00  0.00     0.000 C 
BRANCH   4   5
ATOM      5  C   UNL     1      21.810  -2.655  16.241  1.00  0.00     0.000 C 
BRANCH   5   6
ATOM      6  C   UNL     1      23.091  -1.797  16.264  1.00  0.00     0.000 C 
BRANCH   6   7
ATOM      7  C   UNL     1      24.387  -2.570  16.578  1.00  0.00     0.000 C 
BRANCH   7   8
ATOM      8  C   UNL     1      25.680  -1.898  16.073  1.00  0.00     0.000 C 
BRANCH   8   9
ATOM      9  C   UNL     1      26.048  -2.212  14.609  1.00  0.00     0.000 C 
BRANCH   9  10
ATOM     10  C   UNL     1      27.226  -1.398  14.035  1.00  0.00     0.000 C 
BRANCH  10  11
ATOM     11  C   UNL     1      28.172  -2.185  13.108  1.00  0.00     0.000 C 
BRANCH  11  12
ATOM     12  C   UNL     1      28.646  -1.358  11.901  1.00  0.00     0.000 C 
BRANCH  12  13
ATOM     13  C   UNL     1      30.030  -1.791  11.396  1.00  0.00     0.006 C 
BRANCH  13  14
ATOM     14  C   UNL     1      30.186  -1.645   9.875  1.00  0.00     0.053 C 
BRANCH  14  15
ATOM     15  C   UNL     1      30.830  -0.338   9.529  1.00  0.00     0.041 C 
ATOM     16  O   UNL     1      30.600   0.686  10.225  1.00  0.00    -0.550 OA
ATOM     17  O   UNL     1      31.695  -0.253   8.443  1.00  0.00    -0.550 OA
ENDBRANCH  14  15
ENDBRANCH  13  14
ENDBRANCH  12  13
ENDBRANCH  11  12
ENDBRANCH  10  11
ENDBRANCH   9  10
ENDBRANCH   8   9
ENDBRANCH   7   8
ENDBRANCH   6   7
ENDBRANCH   5   6
ENDBRANCH   4   5
ENDBRANCH   3   4
ENDBRANCH   2   3
ENDBRANCH   1   2
BRANCH   1  18
ATOM     18  C   UNL     1      16.221  -2.111  15.625  1.00  0.00     0.000 C 
BRANCH  18  19
ATOM     19  C   UNL     1      15.982  -2.382  17.118  1.00  0.00     0.000 C 
BRANCH  19  20
ATOM     20  C   UNL     1      17.061  -1.764  18.021  1.00  0.00     0.000 C 
BRANCH  20  21
ATOM     21  C   UNL     1      16.470  -0.962  19.193  1.00  0.00     0.000 C 
BRANCH  21  22
ATOM     22  C   UNL     1      15.200  -1.606  19.775  1.00  0.00     0.000 C 
BRANCH  22  23
ATOM     23  C   UNL     1      13.928  -0.749  19.603  1.00  0.00     0.000 C 
BRANCH  23  24
ATOM     24  C   UNL     1      14.239   0.755  19.480  1.00  0.00    -0.000 C 
BRANCH  24  25
ATOM     25  C   UNL     1      13.301   1.462  18.478  1.00  0.00    -0.000 C 
BRANCH  25  26
ATOM     26  C   UNL     1      13.996   2.544  17.627  1.00  0.00    -0.000 C 
BRANCH  26  27
ATOM     27  C   UNL     1      15.125   2.031  16.715  1.00  0.00    -0.000 C 
BRANCH  27  28
ATOM     28  C   UNL     1      14.615   1.111  15.591  1.00  0.00    -0.000 C 
BRANCH  28  29
ATOM     29  C   UNL     1      15.145   1.520  14.204  1.00  0.00    -0.000 C 
BRANCH  29  30
ATOM     30  C   UNL     1      14.824   0.532  13.064  1.00  0.00    -0.000 C 
BRANCH  30  31
ATOM     31  C   UNL     1      15.510   0.846  11.721  1.00  0.00    -0.003 C 
ATOM     32  C   UNL     1      16.738  -0.027  11.463  1.00  0.00     0.004 C 
ENDBRANCH  30  31
ENDBRANCH  29  30
ENDBRANCH  28  29
ENDBRANCH  27  28
ENDBRANCH  26  27
ENDBRANCH  25  26
ENDBRANCH  24  25
ENDBRANCH  23  24
ENDBRANCH  22  23
ENDBRANCH  21  22
ENDBRANCH  20  21
ENDBRANCH  19  20
ENDBRANCH  18  19
ENDBRANCH   1  18
TORSDOF 28
ENDMDL
MODEL 7
REMARK VINA RESULT:    -6.105      2.090      2.546
REMARK INTER + INTRA:         -19.126
REMARK INTER:                 -16.146
REMARK INTRA:                  -2.980
REMARK UNBOUND:                -3.027
REMARK SMILES CCCCCCCCCCCCCCCCCCCCCCCCCCCCCC(=O)[O-]
REMARK SMILES IDX 16 1 17 2 18 3 19 4 20 5 21 6 22 7 23 8 24 9 25 10 26 11
REMARK SMILES IDX 27 12 28 13 29 14 30 15 31 16 32 17 15 18 14 19 13 20 12 21
REMARK SMILES IDX 11 22 10 23 9 24 8 25 7 26 6 27 5 28 4 29 3 30 2 31 1 32
REMARK H PARENT
REMARK Flexibility Score: inf
ROOT
ATOM      1  C   UNL     1      16.315  -3.178  16.755  1.00  0.00     0.000 C 
ENDROOT
BRANCH   1   2
ATOM      2  C   UNL     1      17.749  -2.845  17.199  1.00  0.00     0.000 C 
BRANCH   2   3
ATOM      3  C   UNL     1      18.298  -1.565  16.534  1.00  0.00     0.000 C 
BRANCH   3   4
ATOM      4  C   UNL     1      19.468  -1.815  15.562  1.00  0.00     0.000 C 
BRANCH   4   5
ATOM      5  C   UNL     1      19.644  -3.276  15.111  1.00  0.00     0.000 C 
BRANCH   5   6
ATOM      6  C   UNL     1      20.908  -3.980  15.647  1.00  0.00     0.000 C 
BRANCH   6   7
ATOM      7  C   UNL     1      22.044  -3.033  16.083  1.00  0.00     0.000 C 
BRANCH   7   8
ATOM      8  C   UNL     1      23.232  -3.726  16.779  1.00  0.00     0.000 C 
BRANCH   8   9
ATOM      9  C   UNL     1      24.467  -3.955  15.884  1.00  0.00     0.000 C 
BRANCH   9  10
ATOM     10  C   UNL     1      25.827  -3.919  16.613  1.00  0.00     0.000 C 
BRANCH  10  11
ATOM     11  C   UNL     1      26.744  -2.744  16.224  1.00  0.00     0.000 C 
BRANCH  11  12
ATOM     12  C   UNL     1      27.100  -2.737  14.728  1.00  0.00     0.000 C 
BRANCH  12  13
ATOM     13  C   UNL     1      27.113  -1.322  14.132  1.00  0.00     0.006 C 
BRANCH  13  14
ATOM     14  C   UNL     1      26.700  -0.242  15.141  1.00  0.00     0.053 C 
BRANCH  14  15
ATOM     15  C   UNL     1      25.337   0.290  14.824  1.00  0.00     0.041 C 
ATOM     16  O   UNL     1      25.209   1.389  14.221  1.00  0.00    -0.550 OA
ATOM     17  O   UNL     1      24.205  -0.435  15.183  1.00  0.00    -0.550 OA
ENDBRANCH  14  15
ENDBRANCH  13  14
ENDBRANCH  12  13
ENDBRANCH  11  12
ENDBRANCH  10  11
ENDBRANCH   9  10
ENDBRANCH   8   9
ENDBRANCH   7   8
ENDBRANCH   6   7
ENDBRANCH   5   6
ENDBRANCH   4   5
ENDBRANCH   3   4
ENDBRANCH   2   3
ENDBRANCH   1   2
BRANCH   1  18
ATOM     18  C   UNL     1      15.283  -2.516  17.677  1.00  0.00     0.000 C 
BRANCH  18  19
ATOM     19  C   UNL     1      15.811  -2.419  19.116  1.00  0.00     0.000 C 
BRANCH  19  20
ATOM     20  C   UNL     1      16.001  -0.969  19.590  1.00  0.00     0.000 C 
BRANCH  20  21
ATOM     21  C   UNL     1      14.788  -0.432  20.369  1.00  0.00     0.000 C 
BRANCH  21  22
ATOM     22  C   UNL     1      14.119   0.767  19.677  1.00  0.00     0.000 C 
BRANCH  22  23
ATOM     23  C   UNL     1      13.315   0.393  18.413  1.00  0.00     0.000 C 
BRANCH  23  24
ATOM     24  C   UNL     1      13.289   1.528  17.372  1.00  0.00    -0.000 C 
BRANCH  24  25
ATOM     25  C   UNL     1      14.710   1.984  16.974  1.00  0.00    -0.000 C 
BRANCH  25  26
ATOM     26  C   UNL     1      15.563   0.875  16.324  1.00  0.00    -0.000 C 
BRANCH  26  27
ATOM     27  C   UNL     1      14.997   0.301  15.013  1.00  0.00    -0.000 C 
BRANCH  27  28
ATOM     28  C   UNL     1      14.318   1.368  14.135  1.00  0.00    -0.000 C 
BRANCH  28  29
ATOM     29  C   UNL     1      15.178   1.773  12.923  1.00  0.00    -0.000 C 
BRANCH  29  30
ATOM     30  C   UNL     1      15.444   0.646  11.904  1.00  0.00    -0.000 C 
BRANCH  30  31
ATOM     31  C   UNL     1      16.889   0.577  11.377  1.00  0.00    -0.003 C 
ATOM     32  C   UNL     1      17.428  -0.852  11.309  1.00  0.00     0.004 C 
ENDBRANCH  30  31
ENDBRANCH  29  30
ENDBRANCH  28  29
ENDBRANCH  27  28
ENDBRANCH  26  27
ENDBRANCH  25  26
ENDBRANCH  24  25
ENDBRANCH  23  24
ENDBRANCH  22  23
ENDBRANCH  21  22
ENDBRANCH  20  21
ENDBRANCH  19  20
ENDBRANCH  18  19
ENDBRANCH   1  18
TORSDOF 28
ENDMDL
MODEL 8
REMARK VINA RESULT:    -6.057      3.345      4.373
REMARK INTER + INTRA:         -19.000
REMARK INTER:                 -15.553
REMARK INTRA:                  -3.447
REMARK UNBOUND:                -3.027
REMARK SMILES CCCCCCCCCCCCCCCCCCCCCCCCCCCCCC(=O)[O-]
REMARK SMILES IDX 16 1 17 2 18 3 19 4 20 5 21 6 22 7 23 8 24 9 25 10 26 11
REMARK SMILES IDX 27 12 28 13 29 14 30 15 31 16 32 17 15 18 14 19 13 20 12 21
REMARK SMILES IDX 11 22 10 23 9 24 8 25 7 26 6 27 5 28 4 29 3 30 2 31 1 32
REMARK H PARENT
REMARK Flexibility Score: inf
ROOT
ATOM      1  C   UNL     1      17.185  -1.068  15.813  1.00  0.00     0.000 C 
ENDROOT
BRANCH   1   2
ATOM      2  C   UNL     1      18.220  -1.494  14.759  1.00  0.00     0.000 C 
BRANCH   2   3
ATOM      3  C   UNL     1      19.618  -1.745  15.361  1.00  0.00     0.000 C 
BRANCH   3   4
ATOM      4  C   UNL     1      20.116  -0.617  16.285  1.00  0.00     0.000 C 
BRANCH   4   5
ATOM      5  C   UNL     1      21.634  -0.359  16.245  1.00  0.00     0.000 C 
BRANCH   5   6
ATOM      6  C   UNL     1      22.513  -1.627  16.234  1.00  0.00     0.000 C 
BRANCH   6   7
ATOM      7  C   UNL     1      23.981  -1.398  15.823  1.00  0.00     0.000 C 
BRANCH   7   8
ATOM      8  C   UNL     1      24.988  -1.398  16.990  1.00  0.00     0.000 C 
BRANCH   8   9
ATOM      9  C   UNL     1      25.040  -0.090  17.805  1.00  0.00     0.000 C 
BRANCH   9  10
ATOM     10  C   UNL     1      25.279   1.193  16.982  1.00  0.00     0.000 C 
BRANCH  10  11
ATOM     11  C   UNL     1      24.323   2.358  17.297  1.00  0.00     0.000 C 
BRANCH  11  12
ATOM     12  C   UNL     1      24.737   3.144  18.553  1.00  0.00     0.000 C 
BRANCH  12  13
ATOM     13  C   UNL     1      25.187   4.577  18.230  1.00  0.00     0.006 C 
BRANCH  13  14
ATOM     14  C   UNL     1      26.254   4.637  17.128  1.00  0.00     0.053 C 
BRANCH  14  15
ATOM     15  C   UNL     1      27.630   4.580  17.716  1.00  0.00     0.041 C 
ATOM     16  O   UNL     1      28.290   5.639  17.890  1.00  0.00    -0.550 OA
ATOM     17  O   UNL     1      28.181   3.357  18.085  1.00  0.00    -0.550 OA
ENDBRANCH  14  15
ENDBRANCH  13  14
ENDBRANCH  12  13
ENDBRANCH  11  12
ENDBRANCH  10  11
ENDBRANCH   9  10
ENDBRANCH   8   9
ENDBRANCH   7   8
ENDBRANCH   6   7
ENDBRANCH   5   6
ENDBRANCH   4   5
ENDBRANCH   3   4
ENDBRANCH   2   3
ENDBRANCH   1   2
BRANCH   1  18
ATOM     18  C   UNL     1      16.011  -2.053  15.866  1.00  0.00     0.000 C 
BRANCH  18  19
ATOM     19  C   UNL     1      16.324  -3.235  16.794  1.00  0.00     0.000 C 
BRANCH  19  20
ATOM     20  C   UNL     1      17.002  -2.807  18.105  1.00  0.00     0.000 C 
BRANCH  20  21
ATOM     21  C   UNL     1      16.001  -2.302  19.158  1.00  0.00     0.000 C 
BRANCH  21  22
ATOM     22  C   UNL     1      16.158  -0.802  19.459  1.00  0.00     0.000 C 
BRANCH  22  23
ATOM     23  C   UNL     1      14.829  -0.084  19.779  1.00  0.00     0.000 C 
BRANCH  23  24
ATOM     24  C   UNL     1      13.619  -0.746  19.091  1.00  0.00    -0.000 C 
BRANCH  24  25
ATOM     25  C   UNL     1      13.241  -0.035  17.774  1.00  0.00    -0.000 C 
BRANCH  25  26
ATOM     26  C   UNL     1      13.887   1.355  17.605  1.00  0.00    -0.000 C 
BRANCH  26  27
ATOM     27  C   UNL     1      14.673   1.556  16.297  1.00  0.00    -0.000 C 
BRANCH  27  28
ATOM     28  C   UNL     1      13.776   1.511  15.047  1.00  0.00    -0.000 C 
BRANCH  28  29
ATOM     29  C   UNL     1      14.319   0.561  13.963  1.00  0.00    -0.000 C 
BRANCH  29  30
ATOM     30  C   UNL     1      15.484   1.124  13.124  1.00  0.00    -0.000 C 
BRANCH  30  31
ATOM     31  C   UNL     1      15.405   0.820  11.616  1.00  0.00    -0.003 C 
ATOM     32  C   UNL     1      16.655   0.120  11.085  1.00  0.00     0.004 C 
ENDBRANCH  30  31
ENDBRANCH  29  30
ENDBRANCH  28  29
ENDBRANCH  27  28
ENDBRANCH  26  27
ENDBRANCH  25  26
ENDBRANCH  24  25
ENDBRANCH  23  24
ENDBRANCH  22  23
ENDBRANCH  21  22
ENDBRANCH  20  21
ENDBRANCH  19  20
ENDBRANCH  18  19
ENDBRANCH   1  18
TORSDOF 28
ENDMDL
MODEL 9
REMARK VINA RESULT:    -5.999      2.721      3.850
REMARK INTER + INTRA:         -18.847
REMARK INTER:                 -15.488
REMARK INTRA:                  -3.359
REMARK UNBOUND:                -3.027
REMARK SMILES CCCCCCCCCCCCCCCCCCCCCCCCCCCCCC(=O)[O-]
REMARK SMILES IDX 16 1 17 2 18 3 19 4 20 5 21 6 22 7 23 8 24 9 25 10 26 11
REMARK SMILES IDX 27 12 28 13 29 14 30 15 31 16 32 17 15 18 14 19 13 20 12 21
REMARK SMILES IDX 11 22 10 23 9 24 8 25 7 26 6 27 5 28 4 29 3 30 2 31 1 32
REMARK H PARENT
REMARK Flexibility Score: inf
ROOT
ATOM      1  C   UNL     1      17.716  -1.250  15.380  1.00  0.00     0.000 C 
ENDROOT
BRANCH   1   2
ATOM      2  C   UNL     1      18.596  -2.505  15.266  1.00  0.00     0.000 C 
BRANCH   2   3
ATOM      3  C   UNL     1      20.007  -2.300  15.858  1.00  0.00     0.000 C 
BRANCH   3   4
ATOM      4  C   UNL     1      20.427  -0.823  15.983  1.00  0.00     0.000 C 
BRANCH   4   5
ATOM      5  C   UNL     1      21.930  -0.588  16.220  1.00  0.00     0.000 C 
BRANCH   5   6
ATOM      6  C   UNL     1      22.374   0.889  16.196  1.00  0.00     0.000 C 
BRANCH   6   7
ATOM      7  C   UNL     1      23.846   1.133  16.583  1.00  0.00     0.000 C 
BRANCH   7   8
ATOM      8  C   UNL     1      24.797  -0.045  16.288  1.00  0.00     0.000 C 
BRANCH   8   9
ATOM      9  C   UNL     1      25.586   0.070  14.969  1.00  0.00     0.000 C 
BRANCH   9  10
ATOM     10  C   UNL     1      26.686  -0.991  14.762  1.00  0.00     0.000 C 
BRANCH  10  11
ATOM     11  C   UNL     1      26.465  -2.316  15.516  1.00  0.00     0.000 C 
BRANCH  11  12
ATOM     12  C   UNL     1      25.512  -3.269  14.776  1.00  0.00     0.000 C 
BRANCH  12  13
ATOM     13  C   UNL     1      24.345  -3.737  15.657  1.00  0.00     0.006 C 
BRANCH  13  14
ATOM     14  C   UNL     1      24.681  -3.724  17.156  1.00  0.00     0.053 C 
BRANCH  14  15
ATOM     15  C   UNL     1      25.101  -5.085  17.619  1.00  0.00     0.041 C 
ATOM     16  O   UNL     1      24.255  -5.874  18.117  1.00  0.00    -0.550 OA
ATOM     17  O   UNL     1      26.426  -5.487  17.489  1.00  0.00    -0.550 OA
ENDBRANCH  14  15
ENDBRANCH  13  14
ENDBRANCH  12  13
ENDBRANCH  11  12
ENDBRANCH  10  11
ENDBRANCH   9  10
ENDBRANCH   8   9
ENDBRANCH   7   8
ENDBRANCH   6   7
ENDBRANCH   5   6
ENDBRANCH   4   5
ENDBRANCH   3   4
ENDBRANCH   2   3
ENDBRANCH   1   2
BRANCH   1  18
ATOM     18  C   UNL     1      16.369  -1.576  16.039  1.00  0.00     0.000 C 
BRANCH  18  19
ATOM     19  C   UNL     1      16.439  -2.903  16.808  1.00  0.00     0.000 C 
BRANCH  19  20
ATOM     20  C   UNL     1      16.609  -2.712  18.323  1.00  0.00     0.000 C 
BRANCH  20  21
ATOM     21  C   UNL     1      16.703  -1.232  18.730  1.00  0.00     0.000 C 
BRANCH  21  22
ATOM     22  C   UNL     1      15.895  -0.911  19.999  1.00  0.00     0.000 C 
BRANCH  22  23
ATOM     23  C   UNL     1      14.633  -0.059  19.740  1.00  0.00     0.000 C 
BRANCH  23  24
ATOM     24  C   UNL     1      13.527  -0.847  19.014  1.00  0.00    -0.000 C 
BRANCH  24  25
ATOM     25  C   UNL     1      13.243  -0.285  17.604  1.00  0.00    -0.000 C 
BRANCH  25  26
ATOM     26  C   UNL     1      13.764   1.150  17.387  1.00  0.00    -0.000 C 
BRANCH  26  27
ATOM     27  C   UNL     1      13.309   1.819  16.078  1.00  0.00    -0.000 C 
BRANCH  27  28
ATOM     28  C   UNL     1      13.698   1.012  14.826  1.00  0.00    -0.000 C 
BRANCH  28  29
ATOM     29  C   UNL     1      15.081   1.403  14.274  1.00  0.00    -0.000 C 
BRANCH  29  30
ATOM     30  C   UNL     1      15.093   1.853  12.799  1.00  0.00    -0.000 C 
BRANCH  30  31
ATOM     31  C   UNL     1      15.421   0.741  11.785  1.00  0.00    -0.003 C 
ATOM     32  C   UNL     1      16.912   0.651  11.464  1.00  0.00     0.004 C 
ENDBRANCH  30  31
ENDBRANCH  29  30
ENDBRANCH  28  29
ENDBRANCH  27  28
ENDBRANCH  26  27
ENDBRANCH  25  26
ENDBRANCH  24  25
ENDBRANCH  23  24
ENDBRANCH  22  23
ENDBRANCH  21  22
ENDBRANCH  20  21
ENDBRANCH  19  20
ENDBRANCH  18  19
ENDBRANCH   1  18
TORSDOF 28
ENDMDL
