MODEL 1
REMARK VINA RESULT:    -3.894      0.000      0.000
REMARK INTER + INTRA:          -8.681
REMARK INTER:                  -6.853
REMARK INTRA:                  -1.828
REMARK UNBOUND:                -1.828
REMARK SMILES CCCCCCCCCCCCCCC(=O)[O-]
REMARK SMILES IDX 9 1 10 2 11 3 12 4 13 5 14 6 15 7 16 8 17 9 8 10 7 11 6 12
REMARK SMILES IDX 5 13 4 14 3 15 2 16 1 17
REMARK H PARENT
REMARK Flexibility Score: inf
ROOT
ATOM      1  C   UNL     1     -21.732   8.042  18.185  1.00  0.00     0.000 C 
ENDROOT
BRANCH   1   2
ATOM      2  C   UNL     1     -22.404   6.815  17.546  1.00  0.00     0.000 C 
BRANCH   2   3
ATOM      3  C   UNL     1     -21.470   6.068  16.577  1.00  0.00     0.000 C 
BRANCH   3   4
ATOM      4  C   UNL     1     -20.336   6.959  16.045  1.00  0.00     0.000 C 
BRANCH   4   5
ATOM      5  C   UNL     1     -18.939   6.383  16.339  1.00  0.00     0.006 C 
BRANCH   5   6
ATOM      6  C   UNL     1     -18.284   7.049  17.556  1.00  0.00     0.053 C 
BRANCH   6   7
ATOM      7  C   UNL     1     -17.153   6.229  18.097  1.00  0.00     0.041 C 
ATOM      8  O   UNL     1     -17.384   5.138  18.683  1.00  0.00    -0.550 OA
ATOM      9  O   UNL     1     -15.842   6.656  17.930  1.00  0.00    -0.550 OA
ENDBRANCH   6   7
ENDBRANCH   5   6
ENDBRANCH   4   5
ENDBRANCH   3   4
ENDBRANCH   2   3
ENDBRANCH   1   2
BRANCH   1  10
ATOM     10  C   UNL     1     -22.656   8.777  19.172  1.00  0.00     0.000 C 
BRANCH  10  11
ATOM     11  C   UNL     1     -22.760   8.061  20.529  1.00  0.00    -0.000 C 
BRANCH  11  12
ATOM     12  C   UNL     1     -24.184   7.560  20.825  1.00  0.00    -0.000 C 
BRANCH  12  13
ATOM     13  C   UNL     1     -24.195   6.177  21.495  1.00  0.00    -0.000 C 
BRANCH  13  14
ATOM     14  C   UNL     1     -22.784   5.584  21.657  1.00  0.00    -0.000 C 
BRANCH  14  15
ATOM     15  C   UNL     1     -22.646   4.201  21.002  1.00  0.00    -0.000 C 
BRANCH  15  16
ATOM     16  C   UNL     1     -21.671   4.205  19.816  1.00  0.00    -0.003 C 
ATOM     17  C   UNL     1     -20.440   5.056  20.118  1.00  0.00     0.004 C 
ENDBRANCH  15  16
ENDBRANCH  14  15
ENDBRANCH  13  14
ENDBRANCH  12  13
ENDBRANCH  11  12
ENDBRANCH  10  11
ENDBRANCH   1  10
TORSDOF 13
ENDMDL
MODEL 2
REMARK VINA RESULT:    -3.788      2.949      5.700
REMARK INTER + INTRA:          -8.495
REMARK INTER:                  -6.599
REMARK INTRA:                  -1.896
REMARK UNBOUND:                -1.828
REMARK SMILES CCCCCCCCCCCCCCC(=O)[O-]
REMARK SMILES IDX 9 1 10 2 11 3 12 4 13 5 14 6 15 7 16 8 17 9 8 10 7 11 6 12
REMARK SMILES IDX 5 13 4 14 3 15 2 16 1 17
REMARK H PARENT
REMARK Flexibility Score: inf
ROOT
ATOM      1  C   UNL     1     -22.450   6.888  17.714  1.00  0.00     0.000 C 
ENDROOT
BRANCH   1   2
ATOM      2  C   UNL     1     -21.705   7.961  18.523  1.00  0.00     0.000 C 
BRANCH   2   3
ATOM      3  C   UNL     1     -22.031   7.901  20.026  1.00  0.00     0.000 C 
BRANCH   3   4
ATOM      4  C   UNL     1     -23.520   8.149  20.318  1.00  0.00     0.000 C 
BRANCH   4   5
ATOM      5  C   UNL     1     -24.182   6.977  21.065  1.00  0.00     0.006 C 
BRANCH   5   6
ATOM      6  C   UNL     1     -23.200   5.827  21.324  1.00  0.00     0.053 C 
BRANCH   6   7
ATOM      7  C   UNL     1     -23.834   4.721  22.112  1.00  0.00     0.041 C 
ATOM      8  O   UNL     1     -24.635   4.986  23.047  1.00  0.00    -0.550 OA
ATOM      9  O   UNL     1     -23.562   3.397  21.793  1.00  0.00    -0.550 OA
ENDBRANCH   6   7
ENDBRANCH   5   6
ENDBRANCH   4   5
ENDBRANCH   3   4
ENDBRANCH   2   3
ENDBRANCH   1   2
BRANCH   1  10
ATOM     10  C   UNL     1     -21.544   6.182  16.690  1.00  0.00     0.000 C 
BRANCH  10  11
ATOM     11  C   UNL     1     -20.440   7.102  16.144  1.00  0.00    -0.000 C 
BRANCH  11  12
ATOM     12  C   UNL     1     -19.052   6.440  16.170  1.00  0.00    -0.000 C 
BRANCH  12  13
ATOM     13  C   UNL     1     -18.331   6.634  17.514  1.00  0.00    -0.000 C 
BRANCH  13  14
ATOM     14  C   UNL     1     -18.272   5.342  18.348  1.00  0.00    -0.000 C 
BRANCH  14  15
ATOM     15  C   UNL     1     -19.091   5.438  19.644  1.00  0.00    -0.000 C 
BRANCH  15  16
ATOM     16  C   UNL     1     -20.311   4.505  19.641  1.00  0.00    -0.003 C 
ATOM     17  C   UNL     1     -20.049   3.253  20.474  1.00  0.00     0.004 C 
ENDBRANCH  15  16
ENDBRANCH  14  15
ENDBRANCH  13  14
ENDBRANCH  12  13
ENDBRANCH  11  12
ENDBRANCH  10  11
ENDBRANCH   1  10
TORSDOF 13
ENDMDL
MODEL 3
REMARK VINA RESULT:    -3.781      1.119      1.769
REMARK INTER + INTRA:          -8.483
REMARK INTER:                  -6.577
REMARK INTRA:                  -1.906
REMARK UNBOUND:                -1.828
REMARK SMILES CCCCCCCCCCCCCCC(=O)[O-]
REMARK SMILES IDX 9 1 10 2 11 3 12 4 13 5 14 6 15 7 16 8 17 9 8 10 7 11 6 12
REMARK SMILES IDX 5 13 4 14 3 15 2 16 1 17
REMARK H PARENT
REMARK Flexibility Score: inf
ROOT
ATOM      1  C   UNL     1     -22.393   7.227  17.564  1.00  0.00     0.000 C 
ENDROOT
BRANCH   1   2
ATOM      2  C   UNL     1     -21.267   6.240  17.214  1.00  0.00     0.000 C 
BRANCH   2   3
ATOM      3  C   UNL     1     -20.468   6.673  15.971  1.00  0.00     0.000 C 
BRANCH   3   4
ATOM      4  C   UNL     1     -18.958   6.433  16.128  1.00  0.00     0.000 C 
BRANCH   4   5
ATOM      5  C   UNL     1     -18.377   7.108  17.383  1.00  0.00     0.006 C 
BRANCH   5   6
ATOM      6  C   UNL     1     -17.339   6.224  18.087  1.00  0.00     0.053 C 
BRANCH   6   7
ATOM      7  C   UNL     1     -17.973   5.327  19.107  1.00  0.00     0.041 C 
ATOM      8  O   UNL     1     -18.230   4.127  18.823  1.00  0.00    -0.550 OA
ATOM      9  O   UNL     1     -18.253   5.809  20.379  1.00  0.00    -0.550 OA
ENDBRANCH   6   7
ENDBRANCH   5   6
ENDBRANCH   4   5
ENDBRANCH   3   4
ENDBRANCH   2   3
ENDBRANCH   1   2
BRANCH   1  10
ATOM     10  C   UNL     1     -21.905   8.397  18.436  1.00  0.00     0.000 C 
BRANCH  10  11
ATOM     11  C   UNL     1     -21.132   7.927  19.678  1.00  0.00    -0.000 C 
BRANCH  11  12
ATOM     12  C   UNL     1     -21.934   8.107  20.978  1.00  0.00    -0.000 C 
BRANCH  12  13
ATOM     13  C   UNL     1     -23.451   8.151  20.733  1.00  0.00    -0.000 C 
BRANCH  13  14
ATOM     14  C   UNL     1     -24.143   6.814  21.052  1.00  0.00    -0.000 C 
BRANCH  14  15
ATOM     15  C   UNL     1     -23.149   5.717  21.462  1.00  0.00    -0.000 C 
BRANCH  15  16
ATOM     16  C   UNL     1     -22.957   4.656  20.368  1.00  0.00    -0.003 C 
ATOM     17  C   UNL     1     -21.493   4.239  20.256  1.00  0.00     0.004 C 
ENDBRANCH  15  16
ENDBRANCH  14  15
ENDBRANCH  13  14
ENDBRANCH  12  13
ENDBRANCH  11  12
ENDBRANCH  10  11
ENDBRANCH   1  10
TORSDOF 13
ENDMDL
MODEL 4
REMARK VINA RESULT:    -3.753      2.639      5.535
REMARK INTER + INTRA:          -8.433
REMARK INTER:                  -6.346
REMARK INTRA:                  -2.087
REMARK UNBOUND:                -1.828
REMARK SMILES CCCCCCCCCCCCCCC(=O)[O-]
REMARK SMILES IDX 9 1 10 2 11 3 12 4 13 5 14 6 15 7 16 8 17 9 8 10 7 11 6 12
REMARK SMILES IDX 5 13 4 14 3 15 2 16 1 17
REMARK H PARENT
REMARK Flexibility Score: inf
ROOT
ATOM      1  C   UNL     1     -21.663   8.509  18.852  1.00  0.00     0.000 C 
ENDROOT
BRANCH   1   2
ATOM      2  C   UNL     1     -22.097   8.202  20.295  1.00  0.00     0.000 C 
BRANCH   2   3
ATOM      3  C   UNL     1     -23.625   8.078  20.438  1.00  0.00     0.000 C 
BRANCH   3   4
ATOM      4  C   UNL     1     -24.052   6.744  21.072  1.00  0.00     0.000 C 
BRANCH   4   5
ATOM      5  C   UNL     1     -22.861   5.805  21.340  1.00  0.00     0.006 C 
BRANCH   5   6
ATOM      6  C   UNL     1     -22.835   4.615  20.373  1.00  0.00     0.053 C 
BRANCH   6   7
ATOM      7  C   UNL     1     -23.036   3.313  21.088  1.00  0.00     0.041 C 
ATOM      8  O   UNL     1     -23.950   3.195  21.946  1.00  0.00    -0.550 OA
ATOM      9  O   UNL     1     -22.232   2.222  20.785  1.00  0.00    -0.550 OA
ENDBRANCH   6   7
ENDBRANCH   5   6
ENDBRANCH   4   5
ENDBRANCH   3   4
ENDBRANCH   2   3
ENDBRANCH   1   2
BRANCH   1  10
ATOM     10  C   UNL     1     -22.347   7.595  17.820  1.00  0.00     0.000 C 
BRANCH  10  11
ATOM     11  C   UNL     1     -21.502   6.359  17.473  1.00  0.00    -0.000 C 
BRANCH  11  12
ATOM     12  C   UNL     1     -20.744   6.514  16.144  1.00  0.00    -0.000 C 
BRANCH  12  13
ATOM     13  C   UNL     1     -19.280   6.937  16.345  1.00  0.00    -0.000 C 
BRANCH  13  14
ATOM     14  C   UNL     1     -18.615   6.226  17.537  1.00  0.00    -0.000 C 
BRANCH  14  15
ATOM     15  C   UNL     1     -18.009   7.211  18.549  1.00  0.00    -0.000 C 
BRANCH  15  16
ATOM     16  C   UNL     1     -18.553   7.005  19.970  1.00  0.00    -0.003 C 
ATOM     17  C   UNL     1     -19.094   5.590  20.152  1.00  0.00     0.004 C 
ENDBRANCH  15  16
ENDBRANCH  14  15
ENDBRANCH  13  14
ENDBRANCH  12  13
ENDBRANCH  11  12
ENDBRANCH  10  11
ENDBRANCH   1  10
TORSDOF 13
ENDMDL
MODEL 5
REMARK VINA RESULT:    -3.731      1.146      1.947
REMARK INTER + INTRA:          -8.394
REMARK INTER:                  -6.694
REMARK INTRA:                  -1.700
REMARK UNBOUND:                -1.828
REMARK SMILES CCCCCCCCCCCCCCC(=O)[O-]
REMARK SMILES IDX 9 1 10 2 11 3 12 4 13 5 14 6 15 7 16 8 17 9 8 10 7 11 6 12
REMARK SMILES IDX 5 13 4 14 3 15 2 16 1 17
REMARK H PARENT
REMARK Flexibility Score: inf
ROOT
ATOM      1  C   UNL     1     -22.137   7.981  20.039  1.00  0.00     0.000 C 
ENDROOT
BRANCH   1   2
ATOM      2  C   UNL     1     -21.962   8.140  18.520  1.00  0.00     0.000 C 
BRANCH   2   3
ATOM      3  C   UNL     1     -22.541   6.952  17.731  1.00  0.00     0.000 C 
BRANCH   3   4
ATOM      4  C   UNL     1     -21.483   6.243  16.869  1.00  0.00     0.000 C 
BRANCH   4   5
ATOM      5  C   UNL     1     -20.503   7.226  16.204  1.00  0.00     0.006 C 
BRANCH   5   6
ATOM      6  C   UNL     1     -19.074   6.672  16.153  1.00  0.00     0.053 C 
BRANCH   6   7
ATOM      7  C   UNL     1     -18.500   6.487  17.525  1.00  0.00     0.041 C 
ATOM      8  O   UNL     1     -18.002   5.380  17.860  1.00  0.00    -0.550 OA
ATOM      9  O   UNL     1     -18.489   7.546  18.423  1.00  0.00    -0.550 OA
ENDBRANCH   6   7
ENDBRANCH   5   6
ENDBRANCH   4   5
ENDBRANCH   3   4
ENDBRANCH   2   3
ENDBRANCH   1   2
BRANCH   1  10
ATOM     10  C   UNL     1     -23.610   8.061  20.477  1.00  0.00     0.000 C 
BRANCH  10  11
ATOM     11  C   UNL     1     -24.126   6.735  21.059  1.00  0.00    -0.000 C 
BRANCH  11  12
ATOM     12  C   UNL     1     -22.988   5.803  21.508  1.00  0.00    -0.000 C 
BRANCH  12  13
ATOM     13  C   UNL     1     -23.406   4.324  21.515  1.00  0.00    -0.000 C 
BRANCH  13  14
ATOM     14  C   UNL     1     -22.523   3.453  20.603  1.00  0.00    -0.000 C 
BRANCH  14  15
ATOM     15  C   UNL     1     -21.401   4.255  19.926  1.00  0.00    -0.000 C 
BRANCH  15  16
ATOM     16  C   UNL     1     -20.019   3.617  20.123  1.00  0.00    -0.003 C 
ATOM     17  C   UNL     1     -20.003   2.702  21.345  1.00  0.00     0.004 C 
ENDBRANCH  15  16
ENDBRANCH  14  15
ENDBRANCH  13  14
ENDBRANCH  12  13
ENDBRANCH  11  12
ENDBRANCH  10  11
ENDBRANCH   1  10
TORSDOF 13
ENDMDL
MODEL 6
REMARK VINA RESULT:    -3.662      3.163      5.710
REMARK INTER + INTRA:          -8.272
REMARK INTER:                  -5.976
REMARK INTRA:                  -2.296
REMARK UNBOUND:                -1.828
REMARK SMILES CCCCCCCCCCCCCCC(=O)[O-]
REMARK SMILES IDX 9 1 10 2 11 3 12 4 13 5 14 6 15 7 16 8 17 9 8 10 7 11 6 12
REMARK SMILES IDX 5 13 4 14 3 15 2 16 1 17
REMARK H PARENT
REMARK Flexibility Score: inf
ROOT
ATOM      1  C   UNL     1     -18.325   7.277  18.471  1.00  0.00     0.000 C 
ENDROOT
BRANCH   1   2
ATOM      2  C   UNL     1     -18.939   6.906  19.831  1.00  0.00     0.000 C 
BRANCH   2   3
ATOM      3  C   UNL     1     -19.384   5.434  19.897  1.00  0.00     0.000 C 
BRANCH   3   4
ATOM      4  C   UNL     1     -20.561   5.216  20.860  1.00  0.00     0.000 C 
BRANCH   4   5
ATOM      5  C   UNL     1     -21.306   3.894  20.598  1.00  0.00     0.006 C 
BRANCH   5   6
ATOM      6  C   UNL     1     -22.824   4.097  20.493  1.00  0.00     0.053 C 
BRANCH   6   7
ATOM      7  C   UNL     1     -23.565   3.290  21.516  1.00  0.00     0.041 C 
ATOM      8  O   UNL     1     -24.005   3.840  22.560  1.00  0.00    -0.550 OA
ATOM      9  O   UNL     1     -23.793   1.937  21.302  1.00  0.00    -0.550 OA
ENDBRANCH   6   7
ENDBRANCH   5   6
ENDBRANCH   4   5
ENDBRANCH   3   4
ENDBRANCH   2   3
ENDBRANCH   1   2
BRANCH   1  10
ATOM     10  C   UNL     1     -18.624   6.233  17.381  1.00  0.00     0.000 C 
BRANCH  10  11
ATOM     11  C   UNL     1     -19.196   6.863  16.101  1.00  0.00    -0.000 C 
BRANCH  11  12
ATOM     12  C   UNL     1     -20.673   7.267  16.249  1.00  0.00    -0.000 C 
BRANCH  12  13
ATOM     13  C   UNL     1     -21.509   6.192  16.963  1.00  0.00    -0.000 C 
BRANCH  13  14
ATOM     14  C   UNL     1     -22.512   6.789  17.966  1.00  0.00    -0.000 C 
BRANCH  14  15
ATOM     15  C   UNL     1     -22.123   8.206  18.417  1.00  0.00    -0.000 C 
BRANCH  15  16
ATOM     16  C   UNL     1     -22.447   8.463  19.896  1.00  0.00    -0.003 C 
ATOM     17  C   UNL     1     -23.748   7.776  20.302  1.00  0.00     0.004 C 
ENDBRANCH  15  16
ENDBRANCH  14  15
ENDBRANCH  13  14
ENDBRANCH  12  13
ENDBRANCH  11  12
ENDBRANCH  10  11
ENDBRANCH   1  10
TORSDOF 13
ENDMDL
MODEL 7
REMARK VINA RESULT:    -3.643      2.471      4.303
REMARK INTER + INTRA:          -8.240
REMARK INTER:                  -6.142
REMARK INTRA:                  -2.099
REMARK UNBOUND:                -1.828
REMARK SMILES CCCCCCCCCCCCCCC(=O)[O-]
REMARK SMILES IDX 9 1 10 2 11 3 12 4 13 5 14 6 15 7 16 8 17 9 8 10 7 11 6 12
REMARK SMILES IDX 5 13 4 14 3 15 2 16 1 17
REMARK H PARENT
REMARK Flexibility Score: inf
ROOT
ATOM      1  C   UNL     1     -18.453   5.949  17.542  1.00  0.00     0.000 C 
ENDROOT
BRANCH   1   2
ATOM      2  C   UNL     1     -18.917   6.560  16.209  1.00  0.00     0.000 C 
BRANCH   2   3
ATOM      3  C   UNL     1     -20.328   7.169  16.297  1.00  0.00     0.000 C 
BRANCH   3   4
ATOM      4  C   UNL     1     -21.408   6.116  16.590  1.00  0.00     0.000 C 
BRANCH   4   5
ATOM      5  C   UNL     1     -22.404   6.571  17.672  1.00  0.00     0.006 C 
BRANCH   5   6
ATOM      6  C   UNL     1     -22.120   8.000  18.154  1.00  0.00     0.053 C 
BRANCH   6   7
ATOM      7  C   UNL     1     -22.620   8.225  19.550  1.00  0.00     0.041 C 
ATOM      8  O   UNL     1     -23.809   7.941  19.852  1.00  0.00    -0.550 OA
ATOM      9  O   UNL     1     -21.763   8.724  20.522  1.00  0.00    -0.550 OA
ENDBRANCH   6   7
ENDBRANCH   5   6
ENDBRANCH   4   5
ENDBRANCH   3   4
ENDBRANCH   2   3
ENDBRANCH   1   2
BRANCH   1  10
ATOM     10  C   UNL     1     -18.606   6.922  18.724  1.00  0.00     0.000 C 
BRANCH  10  11
ATOM     11  C   UNL     1     -19.253   6.263  19.953  1.00  0.00    -0.000 C 
BRANCH  11  12
ATOM     12  C   UNL     1     -19.310   4.730  19.840  1.00  0.00    -0.000 C 
BRANCH  12  13
ATOM     13  C   UNL     1     -20.748   4.190  19.867  1.00  0.00    -0.000 C 
BRANCH  13  14
ATOM     14  C   UNL     1     -21.608   4.845  20.962  1.00  0.00    -0.000 C 
BRANCH  14  15
ATOM     15  C   UNL     1     -23.110   4.583  20.770  1.00  0.00    -0.000 C 
BRANCH  15  16
ATOM     16  C   UNL     1     -23.682   3.627  21.827  1.00  0.00    -0.003 C 
ATOM     17  C   UNL     1     -23.574   2.174  21.372  1.00  0.00     0.004 C 
ENDBRANCH  15  16
ENDBRANCH  14  15
ENDBRANCH  13  14
ENDBRANCH  12  13
ENDBRANCH  11  12
ENDBRANCH  10  11
ENDBRANCH   1  10
TORSDOF 13
ENDMDL
MODEL 8
REMARK VINA RESULT:    -3.626      2.938      5.510
REMARK INTER + INTRA:          -8.211
REMARK INTER:                  -6.075
REMARK INTRA:                  -2.136
REMARK UNBOUND:                -1.828
REMARK SMILES CCCCCCCCCCCCCCC(=O)[O-]
REMARK SMILES IDX 9 1 10 2 11 3 12 4 13 5 14 6 15 7 16 8 17 9 8 10 7 11 6 12
REMARK SMILES IDX 5 13 4 14 3 15 2 16 1 17
REMARK H PARENT
REMARK Flexibility Score: inf
ROOT
ATOM      1  C   UNL     1     -22.849   8.342  19.448  1.00  0.00     0.000 C 
ENDROOT
BRANCH   1   2
ATOM      2  C   UNL     1     -21.992   8.311  20.724  1.00  0.00     0.000 C 
BRANCH   2   3
ATOM      3  C   UNL     1     -20.732   7.440  20.569  1.00  0.00     0.000 C 
BRANCH   3   4
ATOM      4  C   UNL     1     -20.855   6.091  21.295  1.00  0.00     0.000 C 
BRANCH   4   5
ATOM      5  C   UNL     1     -21.218   4.936  20.344  1.00  0.00     0.006 C 
BRANCH   5   6
ATOM      6  C   UNL     1     -22.733   4.703  20.269  1.00  0.00     0.053 C 
BRANCH   6   7
ATOM      7  C   UNL     1     -23.372   4.763  21.624  1.00  0.00     0.041 C 
ATOM      8  O   UNL     1     -24.148   5.711  21.917  1.00  0.00    -0.550 OA
ATOM      9  O   UNL     1     -23.133   3.758  22.551  1.00  0.00    -0.550 OA
ENDBRANCH   6   7
ENDBRANCH   5   6
ENDBRANCH   4   5
ENDBRANCH   3   4
ENDBRANCH   2   3
ENDBRANCH   1   2
BRANCH   1  10
ATOM     10  C   UNL     1     -22.016   8.145  18.169  1.00  0.00     0.000 C 
BRANCH  10  11
ATOM     11  C   UNL     1     -22.467   6.924  17.351  1.00  0.00    -0.000 C 
BRANCH  11  12
ATOM     12  C   UNL     1     -21.286   6.162  16.726  1.00  0.00    -0.000 C 
BRANCH  12  13
ATOM     13  C   UNL     1     -20.272   7.099  16.050  1.00  0.00    -0.000 C 
BRANCH  13  14
ATOM     14  C   UNL     1     -18.824   6.827  16.495  1.00  0.00    -0.000 C 
BRANCH  14  15
ATOM     15  C   UNL     1     -18.741   5.820  17.653  1.00  0.00    -0.000 C 
BRANCH  15  16
ATOM     16  C   UNL     1     -17.583   6.122  18.615  1.00  0.00    -0.003 C 
ATOM     17  C   UNL     1     -16.487   6.927  17.922  1.00  0.00     0.004 C 
ENDBRANCH  15  16
ENDBRANCH  14  15
ENDBRANCH  13  14
ENDBRANCH  12  13
ENDBRANCH  11  12
ENDBRANCH  10  11
ENDBRANCH   1  10
TORSDOF 13
ENDMDL
MODEL 9
REMARK VINA RESULT:    -3.615      1.623      4.115
REMARK INTER + INTRA:          -8.191
REMARK INTER:                  -6.118
REMARK INTRA:                  -2.072
REMARK UNBOUND:                -1.828
REMARK SMILES CCCCCCCCCCCCCCC(=O)[O-]
REMARK SMILES IDX 9 1 10 2 11 3 12 4 13 5 14 6 15 7 16 8 17 9 8 10 7 11 6 12
REMARK SMILES IDX 5 13 4 14 3 15 2 16 1 17
REMARK H PARENT
REMARK Flexibility Score: inf
ROOT
ATOM      1  C   UNL     1     -18.822   6.744  16.396  1.00  0.00     0.000 C 
ENDROOT
BRANCH   1   2
ATOM      2  C   UNL     1     -18.733   5.835  17.633  1.00  0.00     0.000 C 
BRANCH   2   3
ATOM      3  C   UNL     1     -18.736   6.629  18.951  1.00  0.00     0.000 C 
BRANCH   3   4
ATOM      4  C   UNL     1     -19.391   5.855  20.106  1.00  0.00     0.000 C 
BRANCH   4   5
ATOM      5  C   UNL     1     -20.344   4.750  19.615  1.00  0.00     0.006 C 
BRANCH   5   6
ATOM      6  C   UNL     1     -20.211   3.463  20.439  1.00  0.00     0.053 C 
BRANCH   6   7
ATOM      7  C   UNL     1     -18.821   2.905  20.378  1.00  0.00     0.041 C 
ATOM      8  O   UNL     1     -18.322   2.563  19.274  1.00  0.00    -0.550 OA
ATOM      9  O   UNL     1     -18.067   2.790  21.539  1.00  0.00    -0.550 OA
ENDBRANCH   6   7
ENDBRANCH   5   6
ENDBRANCH   4   5
ENDBRANCH   3   4
ENDBRANCH   2   3
ENDBRANCH   1   2
BRANCH   1  10
ATOM     10  C   UNL     1     -20.264   7.179  16.083  1.00  0.00     0.000 C 
BRANCH  10  11
ATOM     11  C   UNL     1     -21.303   6.122  16.493  1.00  0.00    -0.000 C 
BRANCH  11  12
ATOM     12  C   UNL     1     -22.419   6.701  17.378  1.00  0.00    -0.000 C 
BRANCH  12  13
ATOM     13  C   UNL     1     -22.007   8.014  18.062  1.00  0.00    -0.000 C 
BRANCH  13  14
ATOM     14  C   UNL     1     -22.994   8.448  19.161  1.00  0.00    -0.000 C 
BRANCH  14  15
ATOM     15  C   UNL     1     -22.710   7.771  20.511  1.00  0.00    -0.000 C 
BRANCH  15  16
ATOM     16  C   UNL     1     -23.901   6.946  21.019  1.00  0.00    -0.003 C 
ATOM     17  C   UNL     1     -23.481   5.514  21.339  1.00  0.00     0.004 C 
ENDBRANCH  15  16
ENDBRANCH  14  15
ENDBRANCH  13  14
ENDBRANCH  12  13
ENDBRANCH  11  12
ENDBRANCH  10  11
ENDBRANCH   1  10
TORSDOF 13
ENDMDL
