MODEL 1
REMARK VINA RESULT:    -2.112      0.000      0.000
REMARK INTER + INTRA:          -4.467
REMARK INTER:                  -2.605
REMARK INTRA:                  -1.862
REMARK UNBOUND:                -1.862
REMARK SMILES CC(C)=CCC[C@@H](C)[C@@H]1C=CC(C)=CC1
REMARK SMILES IDX 6 1 7 2 8 3 9 4 13 5 12 6 14 7 11 8 15 9 10 10 5 11 4 12
REMARK SMILES IDX 2 13 1 14 3 15
REMARK H PARENT
REMARK Flexibility Score: inf
ROOT
ATOM      1  C   UNL     1     168.707 172.036 139.914  1.00  0.00     0.008 C 
ENDROOT
BRANCH   1   2
ATOM      2  C   UNL     1     169.155 173.482 139.582  1.00  0.00    -0.007 C 
ATOM      3  C   UNL     1     170.685 173.558 139.401  1.00  0.00     0.008 C 
BRANCH   2   4
ATOM      4  C   UNL     1     168.375 174.035 138.348  1.00  0.00     0.018 C 
ATOM      5  C   UNL     1     164.691 175.920 139.768  1.00  0.00     0.044 C 
ATOM      6  C   UNL     1     165.866 175.288 139.084  1.00  0.00    -0.055 C 
ATOM      7  C   UNL     1     165.876 173.970 138.842  1.00  0.00    -0.023 C 
ATOM      8  C   UNL     1     167.056 176.106 138.770  1.00  0.00    -0.001 C 
ATOM      9  C   UNL     1     167.019 173.320 138.108  1.00  0.00     0.035 C 
ATOM     10  C   UNL     1     168.208 175.539 138.397  1.00  0.00    -0.023 C 
ENDBRANCH   2   4
ENDBRANCH   1   2
BRANCH   1  11
ATOM     11  C   UNL     1     168.200 171.883 141.358  1.00  0.00     0.027 C 
BRANCH  11  12
ATOM     12  C   UNL     1     167.840 173.226 141.942  1.00  0.00    -0.028 C 
ATOM     13  C   UNL     1     166.599 173.568 142.357  1.00  0.00    -0.080 C 
ATOM     14  C   UNL     1     165.451 172.589 142.343  1.00  0.00     0.039 C 
ATOM     15  C   UNL     1     166.346 174.949 142.903  1.00  0.00     0.039 C 
ENDBRANCH  11  12
ENDBRANCH   1  11
TORSDOF 4
ENDMDL
MODEL 2
REMARK VINA RESULT:    -2.111      1.516      3.114
REMARK INTER + INTRA:          -4.467
REMARK INTER:                  -2.783
REMARK INTRA:                  -1.684
REMARK UNBOUND:                -1.862
REMARK SMILES CC(C)=CCC[C@@H](C)[C@@H]1C=CC(C)=CC1
REMARK SMILES IDX 6 1 7 2 8 3 9 4 13 5 12 6 14 7 11 8 15 9 10 10 5 11 4 12
REMARK SMILES IDX 2 13 1 14 3 15
REMARK H PARENT
REMARK Flexibility Score: inf
ROOT
ATOM      1  C   UNL     1     168.596 173.515 137.432  1.00  0.00     0.008 C 
ENDROOT
BRANCH   1   2
ATOM      2  C   UNL     1     169.219 173.238 138.824  1.00  0.00    -0.007 C 
ATOM      3  C   UNL     1     170.712 172.872 138.697  1.00  0.00     0.008 C 
BRANCH   2   4
ATOM      4  C   UNL     1     168.973 174.438 139.791  1.00  0.00     0.018 C 
ATOM      5  C   UNL     1     164.776 175.632 139.481  1.00  0.00     0.044 C 
ATOM      6  C   UNL     1     166.243 175.408 139.695  1.00  0.00    -0.055 C 
ATOM      7  C   UNL     1     167.135 175.920 138.834  1.00  0.00    -0.023 C 
ATOM      8  C   UNL     1     166.697 174.537 140.799  1.00  0.00    -0.001 C 
ATOM      9  C   UNL     1     168.615 175.756 139.056  1.00  0.00     0.035 C 
ATOM     10  C   UNL     1     167.962 174.112 140.871  1.00  0.00    -0.023 C 
ENDBRANCH   2   4
ENDBRANCH   1   2
BRANCH   1  11
ATOM     11  C   UNL     1     167.679 172.380 136.949  1.00  0.00     0.027 C 
BRANCH  11  12
ATOM     12  C   UNL     1     166.307 172.505 137.563  1.00  0.00    -0.028 C 
ATOM     13  C   UNL     1     165.847 171.725 138.567  1.00  0.00    -0.080 C 
ATOM     14  C   UNL     1     166.711 170.683 139.233  1.00  0.00     0.039 C 
ATOM     15  C   UNL     1     164.447 171.923 139.088  1.00  0.00     0.039 C 
ENDBRANCH  11  12
ENDBRANCH   1  11
TORSDOF 4
ENDMDL
MODEL 3
REMARK VINA RESULT:    -2.105     14.388     16.544
REMARK INTER + INTRA:          -4.459
REMARK INTER:                  -2.780
REMARK INTRA:                  -1.679
REMARK UNBOUND:                -1.862
REMARK SMILES CC(C)=CCC[C@@H](C)[C@@H]1C=CC(C)=CC1
REMARK SMILES IDX 6 1 7 2 8 3 9 4 13 5 12 6 14 7 11 8 15 9 10 10 5 11 4 12
REMARK SMILES IDX 2 13 1 14 3 15
REMARK H PARENT
REMARK Flexibility Score: inf
ROOT
ATOM      1  C   UNL     1     163.608 158.560 137.505  1.00  0.00     0.008 C 
ENDROOT
BRANCH   1   2
ATOM      2  C   UNL     1     162.907 158.779 138.869  1.00  0.00    -0.007 C 
ATOM      3  C   UNL     1     161.420 159.142 138.674  1.00  0.00     0.008 C 
BRANCH   2   4
ATOM      4  C   UNL     1     163.107 157.544 139.802  1.00  0.00     0.018 C 
ATOM      5  C   UNL     1     167.266 156.224 139.480  1.00  0.00     0.044 C 
ATOM      6  C   UNL     1     165.806 156.490 139.692  1.00  0.00    -0.055 C 
ATOM      7  C   UNL     1     164.904 156.033 138.812  1.00  0.00    -0.023 C 
ATOM      8  C   UNL     1     165.372 157.342 140.819  1.00  0.00    -0.001 C 
ATOM      9  C   UNL     1     163.428 156.237 139.030  1.00  0.00     0.035 C 
ATOM     10  C   UNL     1     164.121 157.805 140.896  1.00  0.00    -0.023 C 
ENDBRANCH   2   4
ENDBRANCH   1   2
BRANCH   1  11
ATOM     11  C   UNL     1     164.521 159.730 137.105  1.00  0.00     0.027 C 
BRANCH  11  12
ATOM     12  C   UNL     1     165.921 159.517 137.625  1.00  0.00    -0.028 C 
ATOM     13  C   UNL     1     166.436 160.146 138.706  1.00  0.00    -0.080 C 
ATOM     14  C   UNL     1     165.616 161.087 139.553  1.00  0.00     0.039 C 
ATOM     15  C   UNL     1     167.859 159.875 139.123  1.00  0.00     0.039 C 
ENDBRANCH  11  12
ENDBRANCH   1  11
TORSDOF 4
ENDMDL
MODEL 4
REMARK VINA RESULT:    -2.105     14.445     16.543
REMARK INTER + INTRA:          -4.458
REMARK INTER:                  -2.518
REMARK INTRA:                  -1.940
REMARK UNBOUND:                -1.862
REMARK SMILES CC(C)=CCC[C@@H](C)[C@@H]1C=CC(C)=CC1
REMARK SMILES IDX 6 1 7 2 8 3 9 4 13 5 12 6 14 7 11 8 15 9 10 10 5 11 4 12
REMARK SMILES IDX 2 13 1 14 3 15
REMARK H PARENT
REMARK Flexibility Score: inf
ROOT
ATOM      1  C   UNL     1     163.573 160.413 140.026  1.00  0.00     0.008 C 
ENDROOT
BRANCH   1   2
ATOM      2  C   UNL     1     162.611 159.215 140.231  1.00  0.00    -0.007 C 
ATOM      3  C   UNL     1     161.185 159.701 140.561  1.00  0.00     0.008 C 
BRANCH   2   4
ATOM      4  C   UNL     1     162.650 158.256 139.000  1.00  0.00     0.018 C 
ATOM      5  C   UNL     1     166.315 155.876 139.211  1.00  0.00     0.044 C 
ATOM      6  C   UNL     1     165.041 156.617 138.937  1.00  0.00    -0.055 C 
ATOM      7  C   UNL     1     165.076 157.824 138.353  1.00  0.00    -0.023 C 
ATOM      8  C   UNL     1     163.754 156.059 139.403  1.00  0.00    -0.001 C 
ATOM      9  C   UNL     1     163.809 158.565 138.016  1.00  0.00     0.035 C 
ATOM     10  C   UNL     1     162.639 156.796 139.404  1.00  0.00    -0.023 C 
ENDBRANCH   2   4
ENDBRANCH   1   2
BRANCH   1  11
ATOM     11  C   UNL     1     164.692 160.470 141.078  1.00  0.00     0.027 C 
BRANCH  11  12
ATOM     12  C   UNL     1     164.752 159.183 141.863  1.00  0.00    -0.028 C 
ATOM     13  C   UNL     1     165.857 158.414 141.981  1.00  0.00    -0.080 C 
ATOM     14  C   UNL     1     167.183 158.818 141.386  1.00  0.00     0.039 C 
ATOM     15  C   UNL     1     165.797 157.132 142.772  1.00  0.00     0.039 C 
ENDBRANCH  11  12
ENDBRANCH   1  11
TORSDOF 4
ENDMDL
MODEL 5
REMARK VINA RESULT:    -2.066     14.254     16.167
REMARK INTER + INTRA:          -4.410
REMARK INTER:                  -2.664
REMARK INTRA:                  -1.746
REMARK UNBOUND:                -1.862
REMARK SMILES CC(C)=CCC[C@@H](C)[C@@H]1C=CC(C)=CC1
REMARK SMILES IDX 6 1 7 2 8 3 9 4 13 5 12 6 14 7 11 8 15 9 10 10 5 11 4 12
REMARK SMILES IDX 2 13 1 14 3 15
REMARK H PARENT
REMARK Flexibility Score: inf
ROOT
ATOM      1  C   UNL     1     163.750 157.592 137.629  1.00  0.00     0.008 C 
ENDROOT
BRANCH   1   2
ATOM      2  C   UNL     1     162.897 158.748 138.211  1.00  0.00    -0.007 C 
ATOM      3  C   UNL     1     162.454 158.436 139.655  1.00  0.00     0.008 C 
BRANCH   2   4
ATOM      4  C   UNL     1     163.653 160.109 138.095  1.00  0.00     0.018 C 
ATOM      5  C   UNL     1     167.895 159.410 138.906  1.00  0.00     0.044 C 
ATOM      6  C   UNL     1     166.488 159.859 138.646  1.00  0.00    -0.055 C 
ATOM      7  C   UNL     1     165.655 160.089 139.671  1.00  0.00    -0.023 C 
ATOM      8  C   UNL     1     165.994 159.951 137.257  1.00  0.00    -0.001 C 
ATOM      9  C   UNL     1     164.255 160.593 139.440  1.00  0.00     0.035 C 
ATOM     10  C   UNL     1     164.692 160.100 136.993  1.00  0.00    -0.023 C 
ENDBRANCH   2   4
ENDBRANCH   1   2
BRANCH   1  11
ATOM     11  C   UNL     1     163.935 156.429 138.618  1.00  0.00     0.027 C 
BRANCH  11  12
ATOM     12  C   UNL     1     165.394 156.065 138.745  1.00  0.00    -0.028 C 
ATOM     13  C   UNL     1     166.131 156.254 139.863  1.00  0.00    -0.080 C 
ATOM     14  C   UNL     1     165.531 156.790 141.139  1.00  0.00     0.039 C 
ATOM     15  C   UNL     1     167.590 155.875 139.871  1.00  0.00     0.039 C 
ENDBRANCH  11  12
ENDBRANCH   1  11
TORSDOF 4
ENDMDL
MODEL 6
REMARK VINA RESULT:    -2.048     14.152     15.839
REMARK INTER + INTRA:          -4.389
REMARK INTER:                  -2.513
REMARK INTRA:                  -1.876
REMARK UNBOUND:                -1.862
REMARK SMILES CC(C)=CCC[C@@H](C)[C@@H]1C=CC(C)=CC1
REMARK SMILES IDX 6 1 7 2 8 3 9 4 13 5 12 6 14 7 11 8 15 9 10 10 5 11 4 12
REMARK SMILES IDX 2 13 1 14 3 15
REMARK H PARENT
REMARK Flexibility Score: inf
ROOT
ATOM      1  C   UNL     1     165.035 157.345 140.895  1.00  0.00     0.008 C 
ENDROOT
BRANCH   1   2
ATOM      2  C   UNL     1     165.359 157.100 139.399  1.00  0.00    -0.007 C 
ATOM      3  C   UNL     1     166.430 156.002 139.239  1.00  0.00     0.008 C 
BRANCH   2   4
ATOM      4  C   UNL     1     164.058 156.795 138.592  1.00  0.00     0.018 C 
ATOM      5  C   UNL     1     161.563 160.388 138.572  1.00  0.00     0.044 C 
ATOM      6  C   UNL     1     162.244 159.054 138.503  1.00  0.00    -0.055 C 
ATOM      7  C   UNL     1     162.146 158.195 139.528  1.00  0.00    -0.023 C 
ATOM      8  C   UNL     1     163.105 158.731 137.347  1.00  0.00    -0.001 C 
ATOM      9  C   UNL     1     162.774 156.828 139.461  1.00  0.00     0.035 C 
ATOM     10  C   UNL     1     163.920 157.672 137.365  1.00  0.00    -0.023 C 
ENDBRANCH   2   4
ENDBRANCH   1   2
BRANCH   1  11
ATOM     11  C   UNL     1     165.429 158.753 141.370  1.00  0.00     0.027 C 
BRANCH  11  12
ATOM     12  C   UNL     1     165.677 159.663 140.194  1.00  0.00    -0.028 C 
ATOM     13  C   UNL     1     165.045 160.842 139.996  1.00  0.00    -0.080 C 
ATOM     14  C   UNL     1     164.064 161.404 140.996  1.00  0.00     0.039 C 
ATOM     15  C   UNL     1     165.354 161.662 138.770  1.00  0.00     0.039 C 
ENDBRANCH  11  12
ENDBRANCH   1  11
TORSDOF 4
ENDMDL
MODEL 7
REMARK VINA RESULT:    -2.033      1.573      4.011
REMARK INTER + INTRA:          -4.370
REMARK INTER:                  -2.489
REMARK INTRA:                  -1.882
REMARK UNBOUND:                -1.862
REMARK SMILES CC(C)=CCC[C@@H](C)[C@@H]1C=CC(C)=CC1
REMARK SMILES IDX 6 1 7 2 8 3 9 4 13 5 12 6 14 7 11 8 15 9 10 10 5 11 4 12
REMARK SMILES IDX 2 13 1 14 3 15
REMARK H PARENT
REMARK Flexibility Score: inf
ROOT
ATOM      1  C   UNL     1     167.009 174.643 140.864  1.00  0.00     0.008 C 
ENDROOT
BRANCH   1   2
ATOM      2  C   UNL     1     166.720 174.888 139.361  1.00  0.00    -0.007 C 
ATOM      3  C   UNL     1     165.684 176.016 139.175  1.00  0.00     0.008 C 
BRANCH   2   4
ATOM      4  C   UNL     1     168.044 175.152 138.578  1.00  0.00     0.018 C 
ATOM      5  C   UNL     1     170.411 171.472 138.574  1.00  0.00     0.044 C 
ATOM      6  C   UNL     1     169.779 172.830 138.503  1.00  0.00    -0.055 C 
ATOM      7  C   UNL     1     169.890 173.679 139.535  1.00  0.00    -0.023 C 
ATOM      8  C   UNL     1     168.948 173.191 137.335  1.00  0.00    -0.001 C 
ATOM      9  C   UNL     1     169.312 175.068 139.467  1.00  0.00     0.035 C 
ATOM     10  C   UNL     1     168.171 174.278 137.347  1.00  0.00    -0.023 C 
ENDBRANCH   2   4
ENDBRANCH   1   2
BRANCH   1  11
ATOM     11  C   UNL     1     166.431 173.314 141.376  1.00  0.00     0.027 C 
BRANCH  11  12
ATOM     12  C   UNL     1     166.274 172.329 140.244  1.00  0.00    -0.028 C 
ATOM     13  C   UNL     1     166.989 171.188 140.121  1.00  0.00    -0.080 C 
ATOM     14  C   UNL     1     167.982 170.748 141.169  1.00  0.00     0.039 C 
ATOM     15  C   UNL     1     166.767 170.288 138.933  1.00  0.00     0.039 C 
ENDBRANCH  11  12
ENDBRANCH   1  11
TORSDOF 4
ENDMDL
MODEL 8
REMARK VINA RESULT:    -2.003      1.189      3.383
REMARK INTER + INTRA:          -4.333
REMARK INTER:                  -2.612
REMARK INTRA:                  -1.721
REMARK UNBOUND:                -1.862
REMARK SMILES CC(C)=CCC[C@@H](C)[C@@H]1C=CC(C)=CC1
REMARK SMILES IDX 6 1 7 2 8 3 9 4 13 5 12 6 14 7 11 8 15 9 10 10 5 11 4 12
REMARK SMILES IDX 2 13 1 14 3 15
REMARK H PARENT
REMARK Flexibility Score: inf
ROOT
ATOM      1  C   UNL     1     166.646 175.529 138.754  1.00  0.00     0.008 C 
ENDROOT
BRANCH   1   2
ATOM      2  C   UNL     1     168.105 175.296 138.286  1.00  0.00    -0.007 C 
ATOM      3  C   UNL     1     169.094 175.454 139.460  1.00  0.00     0.008 C 
BRANCH   2   4
ATOM      4  C   UNL     1     168.243 173.918 137.564  1.00  0.00     0.018 C 
ATOM      5  C   UNL     1     167.913 170.745 140.558  1.00  0.00     0.044 C 
ATOM      6  C   UNL     1     168.095 171.678 139.398  1.00  0.00    -0.055 C 
ATOM      7  C   UNL     1     169.292 172.237 139.166  1.00  0.00    -0.023 C 
ATOM      8  C   UNL     1     166.929 172.058 138.574  1.00  0.00    -0.001 C 
ATOM      9  C   UNL     1     169.516 173.133 137.977  1.00  0.00     0.035 C 
ATOM     10  C   UNL     1     166.998 173.067 137.701  1.00  0.00    -0.023 C 
ENDBRANCH   2   4
ENDBRANCH   1   2
BRANCH   1  11
ATOM     11  C   UNL     1     166.528 175.717 140.275  1.00  0.00     0.027 C 
BRANCH  11  12
ATOM     12  C   UNL     1     165.649 174.649 140.878  1.00  0.00    -0.028 C 
ATOM     13  C   UNL     1     166.059 173.765 141.816  1.00  0.00    -0.080 C 
ATOM     14  C   UNL     1     167.444 173.813 142.413  1.00  0.00     0.039 C 
ATOM     15  C   UNL     1     165.101 172.722 142.332  1.00  0.00     0.039 C 
ENDBRANCH  11  12
ENDBRANCH   1  11
TORSDOF 4
ENDMDL
MODEL 9
REMARK VINA RESULT:    -2.002     14.274     15.975
REMARK INTER + INTRA:          -4.332
REMARK INTER:                  -2.606
REMARK INTRA:                  -1.726
REMARK UNBOUND:                -1.862
REMARK SMILES CC(C)=CCC[C@@H](C)[C@@H]1C=CC(C)=CC1
REMARK SMILES IDX 6 1 7 2 8 3 9 4 13 5 12 6 14 7 11 8 15 9 10 10 5 11 4 12
REMARK SMILES IDX 2 13 1 14 3 15
REMARK H PARENT
REMARK Flexibility Score: inf
ROOT
ATOM      1  C   UNL     1     165.347 156.465 138.760  1.00  0.00     0.008 C 
ENDROOT
BRANCH   1   2
ATOM      2  C   UNL     1     163.889 156.712 138.294  1.00  0.00    -0.007 C 
ATOM      3  C   UNL     1     162.900 156.553 139.467  1.00  0.00     0.008 C 
BRANCH   2   4
ATOM      4  C   UNL     1     163.761 158.096 137.582  1.00  0.00     0.018 C 
ATOM      5  C   UNL     1     164.124 161.245 140.597  1.00  0.00     0.044 C 
ATOM      6  C   UNL     1     163.931 160.322 139.431  1.00  0.00    -0.055 C 
ATOM      7  C   UNL     1     162.730 159.774 139.198  1.00  0.00    -0.023 C 
ATOM      8  C   UNL     1     165.092 159.938 138.602  1.00  0.00    -0.001 C 
ATOM      9  C   UNL     1     162.496 158.888 138.003  1.00  0.00     0.035 C 
ATOM     10  C   UNL     1     165.013 158.935 137.722  1.00  0.00    -0.023 C 
ENDBRANCH   2   4
ENDBRANCH   1   2
BRANCH   1  11
ATOM     11  C   UNL     1     165.464 156.266 140.279  1.00  0.00     0.027 C 
BRANCH  11  12
ATOM     12  C   UNL     1     166.333 157.336 140.892  1.00  0.00    -0.028 C 
ATOM     13  C   UNL     1     165.911 158.215 141.829  1.00  0.00    -0.080 C 
ATOM     14  C   UNL     1     164.522 158.158 142.416  1.00  0.00     0.039 C 
ATOM     15  C   UNL     1     166.860 159.262 142.356  1.00  0.00     0.039 C 
ENDBRANCH  11  12
ENDBRANCH   1  11
TORSDOF 4
ENDMDL
