MODEL 1
REMARK VINA RESULT:    -4.890      0.000      0.000
REMARK INTER + INTRA:          -5.369
REMARK INTER:                  -5.318
REMARK INTRA:                  -0.050
REMARK UNBOUND:                -0.050
REMARK SMILES CCc1cccc(O)c1
REMARK SMILES IDX 3 1 9 2 7 3 6 4 5 5 4 6 2 7 1 8 8 9
REMARK H PARENT 8 10
REMARK Flexibility Score: inf
ROOT
ATOM      1  C   UNL     1      -2.326  61.568 -11.640  1.00  0.00    -0.045 A 
ATOM      2  C   UNL     1      -2.135  62.934 -11.371  1.00  0.00     0.049 A 
ATOM      3  C   UNL     1      -1.417  63.339 -10.239  1.00  0.00     0.115 A 
ATOM      4  C   UNL     1      -0.892  62.377  -9.368  1.00  0.00     0.046 A 
ATOM      5  C   UNL     1      -1.089  61.017  -9.623  1.00  0.00     0.004 A 
ATOM      6  C   UNL     1      -1.807  60.612 -10.751  1.00  0.00     0.004 A 
ENDROOT
BRANCH   1   7
ATOM      7  C   UNL     1      -3.127  61.135 -12.839  1.00  0.00     0.032 C 
ATOM      8  C   UNL     1      -4.608  61.440 -12.637  1.00  0.00     0.009 C 
ENDBRANCH   1   7
BRANCH   3   9
ATOM      9  O   UNL     1      -1.234  64.698  -9.992  1.00  0.00    -0.508 OA
ATOM     10  H   UNL     1      -1.306  65.079  -9.056  1.00  0.00     0.293 HD
ENDBRANCH   3   9
TORSDOF 2
ENDMDL
MODEL 2
REMARK VINA RESULT:    -4.733     15.970     17.337
REMARK INTER + INTRA:          -5.199
REMARK INTER:                  -5.128
REMARK INTRA:                  -0.071
REMARK UNBOUND:                -0.050
REMARK SMILES CCc1cccc(O)c1
REMARK SMILES IDX 3 1 9 2 7 3 6 4 5 5 4 6 2 7 1 8 8 9
REMARK H PARENT 8 10
REMARK Flexibility Score: inf
ROOT
ATOM      1  C   UNL     1      -5.685  68.134 -27.206  1.00  0.00    -0.045 A 
ATOM      2  C   UNL     1      -4.548  67.336 -27.410  1.00  0.00     0.049 A 
ATOM      3  C   UNL     1      -3.494  67.357 -26.489  1.00  0.00     0.115 A 
ATOM      4  C   UNL     1      -3.573  68.183 -25.360  1.00  0.00     0.046 A 
ATOM      5  C   UNL     1      -4.696  68.988 -25.158  1.00  0.00     0.004 A 
ATOM      6  C   UNL     1      -5.748  68.970 -26.079  1.00  0.00     0.004 A 
ENDROOT
BRANCH   1   7
ATOM      7  C   UNL     1      -6.802  68.137 -28.216  1.00  0.00     0.032 C 
ATOM      8  C   UNL     1      -7.303  69.556 -28.464  1.00  0.00     0.009 C 
ENDBRANCH   1   7
BRANCH   3   9
ATOM      9  O   UNL     1      -2.376  66.554 -26.705  1.00  0.00    -0.508 OA
ATOM     10  H   UNL     1      -2.082  65.863 -26.025  1.00  0.00     0.293 HD
ENDBRANCH   3   9
TORSDOF 2
ENDMDL
MODEL 3
REMARK VINA RESULT:    -4.716     14.519     15.767
REMARK INTER + INTRA:          -5.180
REMARK INTER:                  -5.129
REMARK INTRA:                  -0.051
REMARK UNBOUND:                -0.050
REMARK SMILES CCc1cccc(O)c1
REMARK SMILES IDX 3 1 9 2 7 3 6 4 5 5 4 6 2 7 1 8 8 9
REMARK H PARENT 8 10
REMARK Flexibility Score: inf
ROOT
ATOM      1  C   UNL     1      -4.769  68.558 -25.032  1.00  0.00    -0.045 A 
ATOM      2  C   UNL     1      -4.009  67.920 -26.026  1.00  0.00     0.049 A 
ATOM      3  C   UNL     1      -2.839  67.231 -25.688  1.00  0.00     0.115 A 
ATOM      4  C   UNL     1      -2.419  67.185 -24.353  1.00  0.00     0.046 A 
ATOM      5  C   UNL     1      -3.164  67.828 -23.361  1.00  0.00     0.004 A 
ATOM      6  C   UNL     1      -4.333  68.517 -23.698  1.00  0.00     0.004 A 
ENDROOT
BRANCH   1   7
ATOM      7  C   UNL     1      -6.010  69.327 -25.402  1.00  0.00     0.032 C 
ATOM      8  C   UNL     1      -6.441  69.003 -26.829  1.00  0.00     0.009 C 
ENDBRANCH   1   7
BRANCH   3   9
ATOM      9  O   UNL     1      -2.100  66.600 -26.687  1.00  0.00    -0.508 OA
ATOM     10  H   UNL     1      -1.256  66.082 -26.473  1.00  0.00     0.293 HD
ENDBRANCH   3   9
TORSDOF 2
ENDMDL
MODEL 4
REMARK VINA RESULT:    -4.633     14.623     15.896
REMARK INTER + INTRA:          -5.089
REMARK INTER:                  -5.014
REMARK INTRA:                  -0.075
REMARK UNBOUND:                -0.050
REMARK SMILES CCc1cccc(O)c1
REMARK SMILES IDX 3 1 9 2 7 3 6 4 5 5 4 6 2 7 1 8 8 9
REMARK H PARENT 8 10
REMARK Flexibility Score: inf
ROOT
ATOM      1  C   UNL     1      -3.797  67.368 -26.370  1.00  0.00    -0.045 A 
ATOM      2  C   UNL     1      -2.749  67.055 -25.488  1.00  0.00     0.049 A 
ATOM      3  C   UNL     1      -2.633  67.719 -24.262  1.00  0.00     0.115 A 
ATOM      4  C   UNL     1      -3.564  68.706 -23.915  1.00  0.00     0.046 A 
ATOM      5  C   UNL     1      -4.602  69.031 -24.792  1.00  0.00     0.004 A 
ATOM      6  C   UNL     1      -4.717  68.369 -26.018  1.00  0.00     0.004 A 
ENDROOT
BRANCH   1   7
ATOM      7  C   UNL     1      -3.900  66.677 -27.703  1.00  0.00     0.032 C 
ATOM      8  C   UNL     1      -5.192  67.065 -28.414  1.00  0.00     0.009 C 
ENDBRANCH   1   7
BRANCH   3   9
ATOM      9  O   UNL     1      -1.590  67.391 -23.398  1.00  0.00    -0.508 OA
ATOM     10  H   UNL     1      -0.622  67.455 -23.690  1.00  0.00     0.293 HD
ENDBRANCH   3   9
TORSDOF 2
ENDMDL
MODEL 5
REMARK VINA RESULT:    -4.597      2.191      4.064
REMARK INTER + INTRA:          -5.051
REMARK INTER:                  -5.002
REMARK INTRA:                  -0.049
REMARK UNBOUND:                -0.050
REMARK SMILES CCc1cccc(O)c1
REMARK SMILES IDX 3 1 9 2 7 3 6 4 5 5 4 6 2 7 1 8 8 9
REMARK H PARENT 8 10
REMARK Flexibility Score: inf
ROOT
ATOM      1  C   UNL     1      -1.211  61.522 -10.107  1.00  0.00    -0.045 A 
ATOM      2  C   UNL     1      -2.001  60.542 -10.728  1.00  0.00     0.049 A 
ATOM      3  C   UNL     1      -2.773  60.863 -11.852  1.00  0.00     0.115 A 
ATOM      4  C   UNL     1      -2.761  62.170 -12.353  1.00  0.00     0.046 A 
ATOM      5  C   UNL     1      -1.986  63.153 -11.732  1.00  0.00     0.004 A 
ATOM      6  C   UNL     1      -1.217  62.834 -10.610  1.00  0.00     0.004 A 
ENDROOT
BRANCH   1   7
ATOM      7  C   UNL     1      -0.408  61.184  -8.879  1.00  0.00     0.032 C 
ATOM      8  C   UNL     1       0.959  60.629  -9.263  1.00  0.00     0.009 C 
ENDBRANCH   1   7
BRANCH   3   9
ATOM      9  O   UNL     1      -3.547  59.876 -12.459  1.00  0.00    -0.508 OA
ATOM     10  H   UNL     1      -4.471  60.077 -12.822  1.00  0.00     0.293 HD
ENDBRANCH   3   9
TORSDOF 2
ENDMDL
MODEL 6
REMARK VINA RESULT:    -4.589      3.072      4.870
REMARK INTER + INTRA:          -5.042
REMARK INTER:                  -4.990
REMARK INTRA:                  -0.052
REMARK UNBOUND:                -0.050
REMARK SMILES CCc1cccc(O)c1
REMARK SMILES IDX 3 1 9 2 7 3 6 4 5 5 4 6 2 7 1 8 8 9
REMARK H PARENT 8 10
REMARK Flexibility Score: inf
ROOT
ATOM      1  C   UNL     1      -3.239  61.802 -13.408  1.00  0.00    -0.045 A 
ATOM      2  C   UNL     1      -4.402  61.770 -12.620  1.00  0.00     0.049 A 
ATOM      3  C   UNL     1      -5.563  61.150 -13.098  1.00  0.00     0.115 A 
ATOM      4  C   UNL     1      -5.566  60.566 -14.371  1.00  0.00     0.046 A 
ATOM      5  C   UNL     1      -4.417  60.606 -15.164  1.00  0.00     0.004 A 
ATOM      6  C   UNL     1      -3.258  61.226 -14.688  1.00  0.00     0.004 A 
ENDROOT
BRANCH   1   7
ATOM      7  C   UNL     1      -2.002  62.498 -12.906  1.00  0.00     0.032 C 
ATOM      8  C   UNL     1      -2.347  63.469 -11.781  1.00  0.00     0.009 C 
ENDBRANCH   1   7
BRANCH   3   9
ATOM      9  O   UNL     1      -6.705  61.123 -12.300  1.00  0.00    -0.508 OA
ATOM     10  H   UNL     1      -7.526  61.668 -12.535  1.00  0.00     0.293 HD
ENDBRANCH   3   9
TORSDOF 2
ENDMDL
MODEL 7
REMARK VINA RESULT:    -4.589      3.815      4.698
REMARK INTER + INTRA:          -5.042
REMARK INTER:                  -4.974
REMARK INTRA:                  -0.067
REMARK UNBOUND:                -0.050
REMARK SMILES CCc1cccc(O)c1
REMARK SMILES IDX 3 1 9 2 7 3 6 4 5 5 4 6 2 7 1 8 8 9
REMARK H PARENT 8 10
REMARK Flexibility Score: inf
ROOT
ATOM      1  C   UNL     1      -4.155  61.605 -14.800  1.00  0.00    -0.045 A 
ATOM      2  C   UNL     1      -5.404  61.762 -14.176  1.00  0.00     0.049 A 
ATOM      3  C   UNL     1      -5.636  61.213 -12.910  1.00  0.00     0.115 A 
ATOM      4  C   UNL     1      -4.620  60.497 -12.265  1.00  0.00     0.046 A 
ATOM      5  C   UNL     1      -3.379  60.326 -12.886  1.00  0.00     0.004 A 
ATOM      6  C   UNL     1      -3.148  60.873 -14.151  1.00  0.00     0.004 A 
ENDROOT
BRANCH   1   7
ATOM      7  C   UNL     1      -3.918  62.168 -16.177  1.00  0.00     0.032 C 
ATOM      8  C   UNL     1      -2.569  62.876 -16.246  1.00  0.00     0.009 C 
ENDBRANCH   1   7
BRANCH   3   9
ATOM      9  O   UNL     1      -6.879  61.383 -12.304  1.00  0.00    -0.508 OA
ATOM     10  H   UNL     1      -7.654  61.810 -12.798  1.00  0.00     0.293 HD
ENDBRANCH   3   9
TORSDOF 2
ENDMDL
MODEL 8
REMARK VINA RESULT:    -4.485      1.649      2.321
REMARK INTER + INTRA:          -4.928
REMARK INTER:                  -4.881
REMARK INTRA:                  -0.048
REMARK UNBOUND:                -0.050
REMARK SMILES CCc1cccc(O)c1
REMARK SMILES IDX 3 1 9 2 7 3 6 4 5 5 4 6 2 7 1 8 8 9
REMARK H PARENT 8 10
REMARK Flexibility Score: inf
ROOT
ATOM      1  C   UNL     1      -2.806  60.953 -11.793  1.00  0.00    -0.045 A 
ATOM      2  C   UNL     1      -2.040  60.466 -10.722  1.00  0.00     0.049 A 
ATOM      3  C   UNL     1      -1.157  61.312 -10.041  1.00  0.00     0.115 A 
ATOM      4  C   UNL     1      -1.032  62.650 -10.436  1.00  0.00     0.046 A 
ATOM      5  C   UNL     1      -1.782  63.138 -11.509  1.00  0.00     0.004 A 
ATOM      6  C   UNL     1      -2.663  62.293 -12.190  1.00  0.00     0.004 A 
ENDROOT
BRANCH   1   7
ATOM      7  C   UNL     1      -3.730  60.033 -12.546  1.00  0.00     0.032 C 
ATOM      8  C   UNL     1      -5.067  59.900 -11.823  1.00  0.00     0.009 C 
ENDBRANCH   1   7
BRANCH   3   9
ATOM      9  O   UNL     1      -0.408  60.813  -8.977  1.00  0.00    -0.508 OA
ATOM     10  H   UNL     1      -0.022  61.426  -8.269  1.00  0.00     0.293 HD
ENDBRANCH   3   9
TORSDOF 2
ENDMDL
