MODEL 1
REMARK VINA RESULT:    -6.155      0.000      0.000
REMARK INTER + INTRA:          -6.155
REMARK INTER:                  -6.155
REMARK INTRA:                   0.000
REMARK UNBOUND:                 0.000
REMARK SMILES CC(C)=C1CC[C@H](C)CC1=O
REMARK SMILES IDX 8 1 7 2 6 3 5 4 4 5 2 6 1 7 3 8 10 9 11 10 9 11
REMARK H PARENT
REMARK Flexibility Score: inf
ROOT
ATOM      1  C   UNL     1      23.233  23.686  30.704  1.00  0.00     0.008 C 
ATOM      2  C   UNL     1      22.742  23.462  29.269  1.00  0.00    -0.006 C 
ATOM      3  C   UNL     1      21.696  22.337  29.225  1.00  0.00     0.008 C 
ATOM      4  C   UNL     1      21.268  22.030  27.784  1.00  0.00     0.039 C 
ATOM      5  C   UNL     1      20.821  23.274  27.030  1.00  0.00    -0.006 C 
ATOM      6  C   UNL     1      19.857  23.211  26.064  1.00  0.00    -0.070 C 
ATOM      7  C   UNL     1      19.364  24.447  25.348  1.00  0.00     0.039 C 
ATOM      8  C   UNL     1      19.207  21.898  25.691  1.00  0.00     0.039 C 
ATOM      9  C   UNL     1      21.575  24.528  27.327  1.00  0.00     0.159 C 
ATOM     10  O   UNL     1      21.754  25.409  26.444  1.00  0.00    -0.295 OA
ATOM     11  C   UNL     1      22.144  24.757  28.697  1.00  0.00     0.084 C 
ENDROOT
TORSDOF 0
ENDMDL
MODEL 2
REMARK VINA RESULT:    -5.871      1.595      2.467
REMARK INTER + INTRA:          -5.871
REMARK INTER:                  -5.871
REMARK INTRA:                   0.000
REMARK UNBOUND:                 0.000
REMARK SMILES CC(C)=C1CC[C@H](C)CC1=O
REMARK SMILES IDX 8 1 7 2 6 3 5 4 4 5 2 6 1 7 3 8 10 9 11 10 9 11
REMARK H PARENT
REMARK Flexibility Score: inf
ROOT
ATOM      1  C   UNL     1      24.706  24.291  29.575  1.00  0.00     0.008 C 
ATOM      2  C   UNL     1      23.265  24.248  29.052  1.00  0.00    -0.006 C 
ATOM      3  C   UNL     1      23.147  25.021  27.729  1.00  0.00     0.008 C 
ATOM      4  C   UNL     1      21.693  25.075  27.243  1.00  0.00     0.039 C 
ATOM      5  C   UNL     1      21.048  23.698  27.174  1.00  0.00    -0.006 C 
ATOM      6  C   UNL     1      20.097  23.405  26.240  1.00  0.00    -0.070 C 
ATOM      7  C   UNL     1      19.491  22.025  26.125  1.00  0.00     0.039 C 
ATOM      8  C   UNL     1      19.629  24.444  25.246  1.00  0.00     0.039 C 
ATOM      9  C   UNL     1      21.433  22.739  28.252  1.00  0.00     0.159 C 
ATOM     10  O   UNL     1      20.622  21.876  28.681  1.00  0.00    -0.295 OA
ATOM     11  C   UNL     1      22.809  22.794  28.852  1.00  0.00     0.084 C 
ENDROOT
TORSDOF 0
ENDMDL
MODEL 3
REMARK VINA RESULT:    -5.297     10.259     12.165
REMARK INTER + INTRA:          -5.297
REMARK INTER:                  -5.297
REMARK INTRA:                   0.000
REMARK UNBOUND:                 0.000
REMARK SMILES CC(C)=C1CC[C@H](C)CC1=O
REMARK SMILES IDX 8 1 7 2 6 3 5 4 4 5 2 6 1 7 3 8 10 9 11 10 9 11
REMARK H PARENT
REMARK Flexibility Score: inf
ROOT
ATOM      1  C   UNL     1      17.241  32.195  37.414  1.00  0.00     0.008 C 
ATOM      2  C   UNL     1      18.493  31.365  37.110  1.00  0.00    -0.006 C 
ATOM      3  C   UNL     1      19.438  31.347  38.322  1.00  0.00     0.008 C 
ATOM      4  C   UNL     1      20.742  30.607  38.002  1.00  0.00     0.039 C 
ATOM      5  C   UNL     1      20.499  29.216  37.431  1.00  0.00    -0.006 C 
ATOM      6  C   UNL     1      21.371  28.191  37.663  1.00  0.00    -0.070 C 
ATOM      7  C   UNL     1      21.112  26.794  37.149  1.00  0.00     0.039 C 
ATOM      8  C   UNL     1      22.624  28.399  38.482  1.00  0.00     0.039 C 
ATOM      9  C   UNL     1      19.326  29.079  36.517  1.00  0.00     0.159 C 
ATOM     10  O   UNL     1      19.335  28.261  35.559  1.00  0.00    -0.295 OA
ATOM     11  C   UNL     1      18.106  29.928  36.726  1.00  0.00     0.084 C 
ENDROOT
TORSDOF 0
ENDMDL
MODEL 4
REMARK VINA RESULT:    -5.232      1.189      4.191
REMARK INTER + INTRA:          -5.232
REMARK INTER:                  -5.232
REMARK INTRA:                   0.000
REMARK UNBOUND:                 0.000
REMARK SMILES CC(C)=C1CC[C@H](C)CC1=O
REMARK SMILES IDX 8 1 7 2 6 3 5 4 4 5 2 6 1 7 3 8 10 9 11 10 9 11
REMARK H PARENT
REMARK Flexibility Score: inf
ROOT
ATOM      1  C   UNL     1      19.460  23.184  25.600  1.00  0.00     0.008 C 
ATOM      2  C   UNL     1      20.076  23.238  27.003  1.00  0.00    -0.006 C 
ATOM      3  C   UNL     1      20.855  21.947  27.302  1.00  0.00     0.008 C 
ATOM      4  C   UNL     1      21.393  21.940  28.739  1.00  0.00     0.039 C 
ATOM      5  C   UNL     1      22.190  23.194  29.070  1.00  0.00    -0.006 C 
ATOM      6  C   UNL     1      23.237  23.158  29.947  1.00  0.00    -0.070 C 
ATOM      7  C   UNL     1      24.072  24.383  30.241  1.00  0.00     0.039 C 
ATOM      8  C   UNL     1      23.635  21.875  30.640  1.00  0.00     0.039 C 
ATOM      9  C   UNL     1      21.688  24.468  28.474  1.00  0.00     0.159 C 
ATOM     10  O   UNL     1      21.819  25.568  29.074  1.00  0.00    -0.295 OA
ATOM     11  C   UNL     1      21.006  24.454  27.137  1.00  0.00     0.084 C 
ENDROOT
TORSDOF 0
ENDMDL
MODEL 5
REMARK VINA RESULT:    -4.986     10.274     12.133
REMARK INTER + INTRA:          -4.986
REMARK INTER:                  -4.986
REMARK INTRA:                   0.000
REMARK UNBOUND:                 0.000
REMARK SMILES CC(C)=C1CC[C@H](C)CC1=O
REMARK SMILES IDX 8 1 7 2 6 3 5 4 4 5 2 6 1 7 3 8 10 9 11 10 9 11
REMARK H PARENT
REMARK Flexibility Score: inf
ROOT
ATOM      1  C   UNL     1      18.009  29.037  35.400  1.00  0.00     0.008 C 
ATOM      2  C   UNL     1      19.473  29.133  35.848  1.00  0.00    -0.006 C 
ATOM      3  C   UNL     1      19.722  30.447  36.604  1.00  0.00     0.008 C 
ATOM      4  C   UNL     1      21.204  30.606  36.970  1.00  0.00     0.039 C 
ATOM      5  C   UNL     1      21.757  29.394  37.707  1.00  0.00    -0.006 C 
ATOM      6  C   UNL     1      22.741  29.522  38.644  1.00  0.00    -0.070 C 
ATOM      7  C   UNL     1      23.259  28.334  39.422  1.00  0.00     0.039 C 
ATOM      8  C   UNL     1      23.337  30.871  38.977  1.00  0.00     0.039 C 
ATOM      9  C   UNL     1      21.244  28.065  37.260  1.00  0.00     0.159 C 
ATOM     10  O   UNL     1      21.968  27.035  37.305  1.00  0.00    -0.295 OA
ATOM     11  C   UNL     1      19.842  27.936  36.738  1.00  0.00     0.084 C 
ENDROOT
TORSDOF 0
ENDMDL
MODEL 6
REMARK VINA RESULT:    -4.952     10.359     12.296
REMARK INTER + INTRA:          -4.952
REMARK INTER:                  -4.952
REMARK INTRA:                   0.000
REMARK UNBOUND:                 0.000
REMARK SMILES CC(C)=C1CC[C@H](C)CC1=O
REMARK SMILES IDX 8 1 7 2 6 3 5 4 4 5 2 6 1 7 3 8 10 9 11 10 9 11
REMARK H PARENT
REMARK Flexibility Score: inf
ROOT
ATOM      1  C   UNL     1      23.667  32.617  38.830  1.00  0.00     0.008 C 
ATOM      2  C   UNL     1      22.549  31.578  38.686  1.00  0.00    -0.006 C 
ATOM      3  C   UNL     1      21.875  31.696  37.310  1.00  0.00     0.008 C 
ATOM      4  C   UNL     1      20.687  30.733  37.186  1.00  0.00     0.039 C 
ATOM      5  C   UNL     1      21.059  29.298  37.534  1.00  0.00    -0.006 C 
ATOM      6  C   UNL     1      20.447  28.239  36.928  1.00  0.00    -0.070 C 
ATOM      7  C   UNL     1      20.847  26.812  37.223  1.00  0.00     0.039 C 
ATOM      8  C   UNL     1      19.359  28.447  35.899  1.00  0.00     0.039 C 
ATOM      9  C   UNL     1      22.039  29.126  38.648  1.00  0.00     0.159 C 
ATOM     10  O   UNL     1      21.991  28.127  39.414  1.00  0.00    -0.295 OA
ATOM     11  C   UNL     1      23.105  30.158  38.879  1.00  0.00     0.084 C 
ENDROOT
TORSDOF 0
ENDMDL
MODEL 7
REMARK VINA RESULT:    -4.905     10.355     12.465
REMARK INTER + INTRA:          -4.905
REMARK INTER:                  -4.905
REMARK INTRA:                   0.000
REMARK UNBOUND:                 0.000
REMARK SMILES CC(C)=C1CC[C@H](C)CC1=O
REMARK SMILES IDX 8 1 7 2 6 3 5 4 4 5 2 6 1 7 3 8 10 9 11 10 9 11
REMARK H PARENT
REMARK Flexibility Score: inf
ROOT
ATOM      1  C   UNL     1      18.674  28.577  35.588  1.00  0.00     0.008 C 
ATOM      2  C   UNL     1      19.608  28.731  36.794  1.00  0.00    -0.006 C 
ATOM      3  C   UNL     1      20.827  27.806  36.655  1.00  0.00     0.008 C 
ATOM      4  C   UNL     1      21.721  27.871  37.900  1.00  0.00     0.039 C 
ATOM      5  C   UNL     1      22.108  29.297  38.267  1.00  0.00    -0.006 C 
ATOM      6  C   UNL     1      23.309  29.578  38.854  1.00  0.00    -0.070 C 
ATOM      7  C   UNL     1      23.728  30.995  39.171  1.00  0.00     0.039 C 
ATOM      8  C   UNL     1      24.297  28.481  39.181  1.00  0.00     0.039 C 
ATOM      9  C   UNL     1      21.058  30.337  38.054  1.00  0.00     0.159 C 
ATOM     10  O   UNL     1      20.975  31.347  38.803  1.00  0.00    -0.295 OA
ATOM     11  C   UNL     1      20.069  30.190  36.934  1.00  0.00     0.084 C 
ENDROOT
TORSDOF 0
ENDMDL
MODEL 8
REMARK VINA RESULT:    -4.800     10.972     12.573
REMARK INTER + INTRA:          -4.800
REMARK INTER:                  -4.800
REMARK INTRA:                   0.000
REMARK UNBOUND:                 0.000
REMARK SMILES CC(C)=C1CC[C@H](C)CC1=O
REMARK SMILES IDX 8 1 7 2 6 3 5 4 4 5 2 6 1 7 3 8 10 9 11 10 9 11
REMARK H PARENT
REMARK Flexibility Score: inf
ROOT
ATOM      1  C   UNL     1      16.227  29.737  36.118  1.00  0.00     0.008 C 
ATOM      2  C   UNL     1      17.528  29.567  36.911  1.00  0.00    -0.006 C 
ATOM      3  C   UNL     1      18.623  28.949  36.028  1.00  0.00     0.008 C 
ATOM      4  C   UNL     1      19.901  28.677  36.832  1.00  0.00     0.039 C 
ATOM      5  C   UNL     1      20.386  29.905  37.590  1.00  0.00    -0.006 C 
ATOM      6  C   UNL     1      21.715  30.120  37.817  1.00  0.00    -0.070 C 
ATOM      7  C   UNL     1      22.213  31.363  38.518  1.00  0.00     0.039 C 
ATOM      8  C   UNL     1      22.761  29.137  37.340  1.00  0.00     0.039 C 
ATOM      9  C   UNL     1      19.324  30.784  38.163  1.00  0.00     0.159 C 
ATOM     10  O   UNL     1      19.507  31.419  39.236  1.00  0.00    -0.295 OA
ATOM     11  C   UNL     1      18.002  30.920  37.464  1.00  0.00     0.084 C 
ENDROOT
TORSDOF 0
ENDMDL
MODEL 9
REMARK VINA RESULT:    -4.652     10.204     11.736
REMARK INTER + INTRA:          -4.652
REMARK INTER:                  -4.652
REMARK INTRA:                   0.000
REMARK UNBOUND:                 0.000
REMARK SMILES CC(C)=C1CC[C@H](C)CC1=O
REMARK SMILES IDX 8 1 7 2 6 3 5 4 4 5 2 6 1 7 3 8 10 9 11 10 9 11
REMARK H PARENT
REMARK Flexibility Score: inf
ROOT
ATOM      1  C   UNL     1      24.110  31.950  39.268  1.00  0.00     0.008 C 
ATOM      2  C   UNL     1      23.500  30.931  38.299  1.00  0.00    -0.006 C 
ATOM      3  C   UNL     1      23.248  29.592  39.009  1.00  0.00     0.008 C 
ATOM      4  C   UNL     1      22.733  28.529  38.030  1.00  0.00     0.039 C 
ATOM      5  C   UNL     1      21.525  29.005  37.235  1.00  0.00    -0.006 C 
ATOM      6  C   UNL     1      20.555  28.134  36.829  1.00  0.00    -0.070 C 
ATOM      7  C   UNL     1      19.323  28.602  36.089  1.00  0.00     0.039 C 
ATOM      8  C   UNL     1      20.649  26.657  37.137  1.00  0.00     0.039 C 
ATOM      9  C   UNL     1      21.530  30.443  36.832  1.00  0.00     0.159 C 
ATOM     10  O   UNL     1      20.995  30.823  35.756  1.00  0.00    -0.295 OA
ATOM     11  C   UNL     1      22.186  31.468  37.711  1.00  0.00     0.084 C 
ENDROOT
TORSDOF 0
ENDMDL
