MODEL 1
REMARK VINA RESULT:    -5.030      0.000      0.000
REMARK INTER + INTRA:          -7.145
REMARK INTER:                  -6.795
REMARK INTRA:                  -0.350
REMARK UNBOUND:                -0.350
REMARK SMILES CCCCCCCC(=O)[O-]
REMARK SMILES IDX 5 1 6 2 7 3 8 4 9 5 10 6 4 7 3 8 2 9 1 10
REMARK H PARENT
REMARK Flexibility Score: inf
ROOT
ATOM      1  C   UNL     1      12.605  34.873  22.825  1.00  0.00     0.000 C 
ENDROOT
BRANCH   1   2
ATOM      2  C   UNL     1      11.572  35.938  22.429  1.00  0.00     0.006 C 
BRANCH   2   3
ATOM      3  C   UNL     1      11.917  37.321  22.998  1.00  0.00     0.053 C 
BRANCH   3   4
ATOM      4  C   UNL     1      13.068  37.949  22.273  1.00  0.00     0.041 C 
ATOM      5  O   UNL     1      13.764  38.835  22.835  1.00  0.00    -0.550 OA
ATOM      6  O   UNL     1      13.352  37.578  20.965  1.00  0.00    -0.550 OA
ENDBRANCH   3   4
ENDBRANCH   2   3
ENDBRANCH   1   2
BRANCH   1   7
ATOM      7  C   UNL     1      12.580  34.621  24.337  1.00  0.00     0.000 C 
BRANCH   7   8
ATOM      8  C   UNL     1      11.185  34.183  24.801  1.00  0.00    -0.000 C 
BRANCH   8   9
ATOM      9  C   UNL     1      10.889  32.742  24.372  1.00  0.00    -0.003 C 
ATOM     10  C   UNL     1       9.734  32.689  23.377  1.00  0.00     0.004 C 
ENDBRANCH   8   9
ENDBRANCH   7   8
ENDBRANCH   1   7
TORSDOF 6
ENDMDL
MODEL 2
REMARK VINA RESULT:    -4.999      0.992      1.713
REMARK INTER + INTRA:          -7.103
REMARK INTER:                  -6.852
REMARK INTRA:                  -0.251
REMARK UNBOUND:                -0.350
REMARK SMILES CCCCCCCC(=O)[O-]
REMARK SMILES IDX 5 1 6 2 7 3 8 4 9 5 10 6 4 7 3 8 2 9 1 10
REMARK H PARENT
REMARK Flexibility Score: inf
ROOT
ATOM      1  C   UNL     1      10.205  35.579  22.987  1.00  0.00     0.000 C 
ENDROOT
BRANCH   1   2
ATOM      2  C   UNL     1      10.998  36.879  23.182  1.00  0.00     0.006 C 
BRANCH   2   3
ATOM      3  C   UNL     1      12.510  36.666  23.025  1.00  0.00     0.053 C 
BRANCH   3   4
ATOM      4  C   UNL     1      13.128  37.707  22.142  1.00  0.00     0.041 C 
ATOM      5  O   UNL     1      13.547  38.788  22.633  1.00  0.00    -0.550 OA
ATOM      6  O   UNL     1      13.211  37.496  20.772  1.00  0.00    -0.550 OA
ENDBRANCH   3   4
ENDBRANCH   2   3
ENDBRANCH   1   2
BRANCH   1   7
ATOM      7  C   UNL     1      11.130  34.358  23.041  1.00  0.00     0.000 C 
BRANCH   7   8
ATOM      8  C   UNL     1      10.537  33.255  23.925  1.00  0.00    -0.000 C 
BRANCH   8   9
ATOM      9  C   UNL     1      11.253  33.188  25.278  1.00  0.00    -0.003 C 
ATOM     10  C   UNL     1      12.437  34.148  25.324  1.00  0.00     0.004 C 
ENDBRANCH   8   9
ENDBRANCH   7   8
ENDBRANCH   1   7
TORSDOF 6
ENDMDL
MODEL 3
REMARK VINA RESULT:    -4.983      1.960      2.421
REMARK INTER + INTRA:          -7.081
REMARK INTER:                  -6.695
REMARK INTRA:                  -0.386
REMARK UNBOUND:                -0.350
REMARK SMILES CCCCCCCC(=O)[O-]
REMARK SMILES IDX 5 1 6 2 7 3 8 4 9 5 10 6 4 7 3 8 2 9 1 10
REMARK H PARENT
REMARK Flexibility Score: inf
ROOT
ATOM      1  C   UNL     1      11.209  37.063  23.259  1.00  0.00     0.000 C 
ENDROOT
BRANCH   1   2
ATOM      2  C   UNL     1      12.713  37.037  22.953  1.00  0.00     0.006 C 
BRANCH   2   3
ATOM      3  C   UNL     1      13.000  37.092  21.446  1.00  0.00     0.053 C 
BRANCH   3   4
ATOM      4  C   UNL     1      12.401  35.924  20.724  1.00  0.00     0.041 C 
ATOM      5  O   UNL     1      11.493  36.104  19.871  1.00  0.00    -0.550 OA
ATOM      6  O   UNL     1      12.824  34.634  21.017  1.00  0.00    -0.550 OA
ENDBRANCH   3   4
ENDBRANCH   2   3
ENDBRANCH   1   2
BRANCH   1   7
ATOM      7  C   UNL     1      10.729  35.698  23.768  1.00  0.00     0.000 C 
BRANCH   7   8
ATOM      8  C   UNL     1      11.843  34.971  24.531  1.00  0.00    -0.000 C 
BRANCH   8   9
ATOM      9  C   UNL     1      11.442  33.527  24.848  1.00  0.00    -0.003 C 
ATOM     10  C   UNL     1      10.452  32.990  23.819  1.00  0.00     0.004 C 
ENDBRANCH   8   9
ENDBRANCH   7   8
ENDBRANCH   1   7
TORSDOF 6
ENDMDL
MODEL 4
REMARK VINA RESULT:    -4.953      2.262      2.500
REMARK INTER + INTRA:          -7.041
REMARK INTER:                  -6.398
REMARK INTRA:                  -0.643
REMARK UNBOUND:                -0.350
REMARK SMILES CCCCCCCC(=O)[O-]
REMARK SMILES IDX 5 1 6 2 7 3 8 4 9 5 10 6 4 7 3 8 2 9 1 10
REMARK H PARENT
REMARK Flexibility Score: inf
ROOT
ATOM      1  C   UNL     1      12.750  34.694  23.826  1.00  0.00     0.000 C 
ENDROOT
BRANCH   1   2
ATOM      2  C   UNL     1      12.437  36.147  23.441  1.00  0.00     0.006 C 
BRANCH   2   3
ATOM      3  C   UNL     1      11.357  36.240  22.356  1.00  0.00     0.053 C 
BRANCH   3   4
ATOM      4  C   UNL     1      10.004  36.508  22.941  1.00  0.00     0.041 C 
ATOM      5  O   UNL     1       9.898  37.051  24.073  1.00  0.00    -0.550 OA
ATOM      6  O   UNL     1       8.860  36.129  22.251  1.00  0.00    -0.550 OA
ENDBRANCH   3   4
ENDBRANCH   2   3
ENDBRANCH   1   2
BRANCH   1   7
ATOM      7  C   UNL     1      12.245  34.379  25.239  1.00  0.00     0.000 C 
BRANCH   7   8
ATOM      8  C   UNL     1      11.120  33.337  25.204  1.00  0.00    -0.000 C 
BRANCH   8   9
ATOM      9  C   UNL     1      10.956  32.751  23.797  1.00  0.00    -0.003 C 
ATOM     10  C   UNL     1       9.492  32.746  23.369  1.00  0.00     0.004 C 
ENDBRANCH   8   9
ENDBRANCH   7   8
ENDBRANCH   1   7
TORSDOF 6
ENDMDL
MODEL 5
REMARK VINA RESULT:    -4.941      3.041      4.976
REMARK INTER + INTRA:          -7.024
REMARK INTER:                  -6.653
REMARK INTRA:                  -0.371
REMARK UNBOUND:                -0.350
REMARK SMILES CCCCCCCC(=O)[O-]
REMARK SMILES IDX 5 1 6 2 7 3 8 4 9 5 10 6 4 7 3 8 2 9 1 10
REMARK H PARENT
REMARK Flexibility Score: inf
ROOT
ATOM      1  C   UNL     1      10.174  35.395  23.067  1.00  0.00     0.000 C 
ENDROOT
BRANCH   1   2
ATOM      2  C   UNL     1      10.968  34.092  22.894  1.00  0.00     0.006 C 
BRANCH   2   3
ATOM      3  C   UNL     1      10.681  33.085  24.015  1.00  0.00     0.053 C 
BRANCH   3   4
ATOM      4  C   UNL     1      11.300  33.506  25.313  1.00  0.00     0.041 C 
ATOM      5  O   UNL     1      10.726  33.248  26.403  1.00  0.00    -0.550 OA
ATOM      6  O   UNL     1      12.495  34.214  25.315  1.00  0.00    -0.550 OA
ENDBRANCH   3   4
ENDBRANCH   2   3
ENDBRANCH   1   2
BRANCH   1   7
ATOM      7  C   UNL     1      11.104  36.614  23.022  1.00  0.00     0.000 C 
BRANCH   7   8
ATOM      8  C   UNL     1      12.444  36.262  22.366  1.00  0.00    -0.000 C 
BRANCH   8   9
ATOM      9  C   UNL     1      13.192  37.525  21.927  1.00  0.00    -0.003 C 
ATOM     10  C   UNL     1      13.191  38.578  23.031  1.00  0.00     0.004 C 
ENDBRANCH   8   9
ENDBRANCH   7   8
ENDBRANCH   1   7
TORSDOF 6
ENDMDL
MODEL 6
REMARK VINA RESULT:    -4.920      3.356      5.294
REMARK INTER + INTRA:          -6.995
REMARK INTER:                  -6.860
REMARK INTRA:                  -0.136
REMARK UNBOUND:                -0.350
REMARK SMILES CCCCCCCC(=O)[O-]
REMARK SMILES IDX 5 1 6 2 7 3 8 4 9 5 10 6 4 7 3 8 2 9 1 10
REMARK H PARENT
REMARK Flexibility Score: inf
ROOT
ATOM      1  C   UNL     1      12.721  35.135  23.485  1.00  0.00     0.000 C 
ENDROOT
BRANCH   1   2
ATOM      2  C   UNL     1      11.290  35.105  24.040  1.00  0.00     0.006 C 
BRANCH   2   3
ATOM      3  C   UNL     1      10.456  33.969  23.434  1.00  0.00     0.053 C 
BRANCH   3   4
ATOM      4  C   UNL     1      10.526  32.724  24.264  1.00  0.00     0.041 C 
ATOM      5  O   UNL     1      10.176  31.617  23.778  1.00  0.00    -0.550 OA
ATOM      6  O   UNL     1      10.948  32.794  25.586  1.00  0.00    -0.550 OA
ENDBRANCH   3   4
ENDBRANCH   2   3
ENDBRANCH   1   2
BRANCH   1   7
ATOM      7  C   UNL     1      12.717  35.337  21.965  1.00  0.00     0.000 C 
BRANCH   7   8
ATOM      8  C   UNL     1      13.113  36.772  21.598  1.00  0.00    -0.000 C 
BRANCH   8   9
ATOM      9  C   UNL     1      12.482  37.782  22.563  1.00  0.00    -0.003 C 
ATOM     10  C   UNL     1      13.527  38.747  23.112  1.00  0.00     0.004 C 
ENDBRANCH   8   9
ENDBRANCH   7   8
ENDBRANCH   1   7
TORSDOF 6
ENDMDL
MODEL 7
REMARK VINA RESULT:    -4.858      3.400      4.911
REMARK INTER + INTRA:          -6.911
REMARK INTER:                  -6.536
REMARK INTRA:                  -0.376
REMARK UNBOUND:                -0.350
REMARK SMILES CCCCCCCC(=O)[O-]
REMARK SMILES IDX 5 1 6 2 7 3 8 4 9 5 10 6 4 7 3 8 2 9 1 10
REMARK H PARENT
REMARK Flexibility Score: inf
ROOT
ATOM      1  C   UNL     1      10.697  36.860  23.275  1.00  0.00     0.000 C 
ENDROOT
BRANCH   1   2
ATOM      2  C   UNL     1      10.080  35.480  23.008  1.00  0.00     0.006 C 
BRANCH   2   3
ATOM      3  C   UNL     1      10.937  34.341  23.575  1.00  0.00     0.053 C 
BRANCH   3   4
ATOM      4  C   UNL     1      10.151  33.075  23.724  1.00  0.00     0.041 C 
ATOM      5  O   UNL     1      10.544  32.172  24.509  1.00  0.00    -0.550 OA
ATOM      6  O   UNL     1       9.001  32.878  22.972  1.00  0.00    -0.550 OA
ENDBRANCH   3   4
ENDBRANCH   2   3
ENDBRANCH   1   2
BRANCH   1   7
ATOM      7  C   UNL     1      12.210  36.751  23.501  1.00  0.00     0.000 C 
BRANCH   7   8
ATOM      8  C   UNL     1      12.982  37.595  22.481  1.00  0.00    -0.000 C 
BRANCH   8   9
ATOM      9  C   UNL     1      12.974  36.934  21.098  1.00  0.00    -0.003 C 
ATOM     10  C   UNL     1      13.313  35.450  21.194  1.00  0.00     0.004 C 
ENDBRANCH   8   9
ENDBRANCH   7   8
ENDBRANCH   1   7
TORSDOF 6
ENDMDL
MODEL 8
REMARK VINA RESULT:    -4.556      3.462      4.183
REMARK INTER + INTRA:          -6.504
REMARK INTER:                  -6.245
REMARK INTRA:                  -0.260
REMARK UNBOUND:                -0.350
REMARK SMILES CCCCCCCC(=O)[O-]
REMARK SMILES IDX 5 1 6 2 7 3 8 4 9 5 10 6 4 7 3 8 2 9 1 10
REMARK H PARENT
REMARK Flexibility Score: inf
ROOT
ATOM      1  C   UNL     1      10.043  36.477  23.123  1.00  0.00     0.000 C 
ENDROOT
BRANCH   1   2
ATOM      2  C   UNL     1      10.087  37.630  24.135  1.00  0.00     0.006 C 
BRANCH   2   3
ATOM      3  C   UNL     1       8.734  38.344  24.261  1.00  0.00     0.053 C 
BRANCH   3   4
ATOM      4  C   UNL     1       8.669  39.196  25.492  1.00  0.00     0.041 C 
ATOM      5  O   UNL     1       9.093  40.381  25.465  1.00  0.00    -0.550 OA
ATOM      6  O   UNL     1       8.169  38.671  26.676  1.00  0.00    -0.550 OA
ENDBRANCH   3   4
ENDBRANCH   2   3
ENDBRANCH   1   2
BRANCH   1   7
ATOM      7  C   UNL     1      11.457  36.088  22.673  1.00  0.00     0.000 C 
BRANCH   7   8
ATOM      8  C   UNL     1      11.769  34.631  23.033  1.00  0.00    -0.000 C 
BRANCH   8   9
ATOM      9  C   UNL     1      12.254  34.512  24.482  1.00  0.00    -0.003 C 
ATOM     10  C   UNL     1      11.425  33.496  25.260  1.00  0.00     0.004 C 
ENDBRANCH   8   9
ENDBRANCH   7   8
ENDBRANCH   1   7
TORSDOF 6
ENDMDL
MODEL 9
REMARK VINA RESULT:    -4.228      3.442      4.801
REMARK INTER + INTRA:          -6.061
REMARK INTER:                  -5.703
REMARK INTRA:                  -0.357
REMARK UNBOUND:                -0.350
REMARK SMILES CCCCCCCC(=O)[O-]
REMARK SMILES IDX 5 1 6 2 7 3 8 4 9 5 10 6 4 7 3 8 2 9 1 10
REMARK H PARENT
REMARK Flexibility Score: inf
ROOT
ATOM      1  C   UNL     1      10.636  36.144  23.770  1.00  0.00     0.000 C 
ENDROOT
BRANCH   1   2
ATOM      2  C   UNL     1       9.744  37.393  23.802  1.00  0.00     0.006 C 
BRANCH   2   3
ATOM      3  C   UNL     1      10.240  38.436  24.812  1.00  0.00     0.053 C 
BRANCH   3   4
ATOM      4  C   UNL     1       9.102  39.134  25.493  1.00  0.00     0.041 C 
ATOM      5  O   UNL     1       8.864  40.346  25.249  1.00  0.00    -0.550 OA
ATOM      6  O   UNL     1       8.326  38.454  26.423  1.00  0.00    -0.550 OA
ENDBRANCH   3   4
ENDBRANCH   2   3
ENDBRANCH   1   2
BRANCH   1   7
ATOM      7  C   UNL     1      11.088  35.828  22.340  1.00  0.00     0.000 C 
BRANCH   7   8
ATOM      8  C   UNL     1      12.617  35.783  22.242  1.00  0.00    -0.000 C 
BRANCH   8   9
ATOM      9  C   UNL     1      13.165  37.051  21.579  1.00  0.00    -0.003 C 
ATOM     10  C   UNL     1      13.321  38.180  22.592  1.00  0.00     0.004 C 
ENDBRANCH   8   9
ENDBRANCH   7   8
ENDBRANCH   1   7
TORSDOF 6
ENDMDL
