MODEL 1
REMARK VINA RESULT:    -5.198      0.000      0.000
REMARK INTER + INTRA:          -6.011
REMARK INTER:                  -5.805
REMARK INTRA:                  -0.206
REMARK UNBOUND:                -0.206
REMARK SMILES CC(C)c1ccc(C(=O)[O-])cc1
REMARK SMILES IDX 7 1 6 2 11 3 5 4 12 5 4 6 8 7 9 8 10 9 2 10 1 11 3 12
REMARK H PARENT
REMARK Flexibility Score: inf
ROOT
ATOM      1  C   UNL     1      86.108  74.861  70.751  1.00  0.00    -0.003 A 
ATOM      2  C   UNL     1      87.154  74.149  70.142  1.00  0.00     0.010 A 
ATOM      3  C   UNL     1      85.812  76.158  70.295  1.00  0.00     0.010 A 
ATOM      4  C   UNL     1      87.891  74.721  69.101  1.00  0.00     0.004 A 
ATOM      5  C   UNL     1      86.548  76.730  69.254  1.00  0.00     0.004 A 
ATOM      6  C   UNL     1      87.595  76.018  68.644  1.00  0.00    -0.045 A 
ENDROOT
BRANCH   1   7
ATOM      7  C   UNL     1      85.330  74.253  71.852  1.00  0.00     0.071 C 
ATOM      8  O   UNL     1      85.835  74.126  73.000  1.00  0.00    -0.545 OA
ATOM      9  O   UNL     1      84.031  73.809  71.636  1.00  0.00    -0.545 OA
ENDBRANCH   1   7
BRANCH   6  10
ATOM     10  C   UNL     1      88.386  76.651  67.516  1.00  0.00     0.013 C 
ATOM     11  C   UNL     1      89.766  77.114  68.000  1.00  0.00     0.012 C 
ATOM     12  C   UNL     1      87.609  77.807  66.875  1.00  0.00     0.012 C 
ENDBRANCH   6  10
TORSDOF 2
ENDMDL
MODEL 2
REMARK VINA RESULT:    -5.059      3.097      5.303
REMARK INTER + INTRA:          -5.856
REMARK INTER:                  -5.653
REMARK INTRA:                  -0.203
REMARK UNBOUND:                -0.206
REMARK SMILES CC(C)c1ccc(C(=O)[O-])cc1
REMARK SMILES IDX 7 1 6 2 11 3 5 4 12 5 4 6 8 7 9 8 10 9 2 10 1 11 3 12
REMARK H PARENT
REMARK Flexibility Score: inf
ROOT
ATOM      1  C   UNL     1      87.679  76.443  68.649  1.00  0.00    -0.003 A 
ATOM      2  C   UNL     1      86.854  77.106  69.572  1.00  0.00     0.010 A 
ATOM      3  C   UNL     1      87.720  75.038  68.659  1.00  0.00     0.010 A 
ATOM      4  C   UNL     1      86.087  76.380  70.488  1.00  0.00     0.004 A 
ATOM      5  C   UNL     1      86.953  74.312  69.574  1.00  0.00     0.004 A 
ATOM      6  C   UNL     1      86.127  74.974  70.499  1.00  0.00    -0.045 A 
ENDROOT
BRANCH   1   7
ATOM      7  C   UNL     1      88.489  77.215  67.681  1.00  0.00     0.071 C 
ATOM      8  O   UNL     1      87.940  78.018  66.881  1.00  0.00    -0.545 OA
ATOM      9  O   UNL     1      89.871  77.064  67.641  1.00  0.00    -0.545 OA
ENDBRANCH   1   7
BRANCH   6  10
ATOM     10  C   UNL     1      85.300  74.174  71.487  1.00  0.00     0.013 C 
ATOM     11  C   UNL     1      83.875  74.730  71.592  1.00  0.00     0.012 C 
ATOM     12  C   UNL     1      85.976  74.124  72.862  1.00  0.00     0.012 C 
ENDBRANCH   6  10
TORSDOF 2
ENDMDL
MODEL 3
REMARK VINA RESULT:    -5.037     12.918     14.061
REMARK INTER + INTRA:          -5.832
REMARK INTER:                  -5.615
REMARK INTRA:                  -0.217
REMARK UNBOUND:                -0.206
REMARK SMILES CC(C)c1ccc(C(=O)[O-])cc1
REMARK SMILES IDX 7 1 6 2 11 3 5 4 12 5 4 6 8 7 9 8 10 9 2 10 1 11 3 12
REMARK H PARENT
REMARK Flexibility Score: inf
ROOT
ATOM      1  C   UNL     1      94.879  84.248  77.683  1.00  0.00    -0.003 A 
ATOM      2  C   UNL     1      94.318  85.073  76.695  1.00  0.00     0.010 A 
ATOM      3  C   UNL     1      94.064  83.293  78.315  1.00  0.00     0.010 A 
ATOM      4  C   UNL     1      92.971  84.949  76.346  1.00  0.00     0.004 A 
ATOM      5  C   UNL     1      92.716  83.167  77.966  1.00  0.00     0.004 A 
ATOM      6  C   UNL     1      92.154  83.993  76.977  1.00  0.00    -0.045 A 
ENDROOT
BRANCH   1   7
ATOM      7  C   UNL     1      96.305  84.383  78.049  1.00  0.00     0.071 C 
ATOM      8  O   UNL     1      97.014  83.363  78.258  1.00  0.00    -0.545 OA
ATOM      9  O   UNL     1      96.885  85.641  78.171  1.00  0.00    -0.545 OA
ENDBRANCH   1   7
BRANCH   6  10
ATOM     10  C   UNL     1      90.690  83.846  76.609  1.00  0.00     0.013 C 
ATOM     11  C   UNL     1      90.208  85.040  75.776  1.00  0.00     0.012 C 
ATOM     12  C   UNL     1      89.821  83.657  77.857  1.00  0.00     0.012 C 
ENDBRANCH   6  10
TORSDOF 2
ENDMDL
MODEL 4
REMARK VINA RESULT:    -4.784      2.965      4.698
REMARK INTER + INTRA:          -5.549
REMARK INTER:                  -5.330
REMARK INTRA:                  -0.219
REMARK UNBOUND:                -0.206
REMARK SMILES CC(C)c1ccc(C(=O)[O-])cc1
REMARK SMILES IDX 7 1 6 2 11 3 5 4 12 5 4 6 8 7 9 8 10 9 2 10 1 11 3 12
REMARK H PARENT
REMARK Flexibility Score: inf
ROOT
ATOM      1  C   UNL     1      86.812  76.019  69.391  1.00  0.00    -0.003 A 
ATOM      2  C   UNL     1      86.748  76.357  70.753  1.00  0.00     0.010 A 
ATOM      3  C   UNL     1      87.448  74.823  69.016  1.00  0.00     0.010 A 
ATOM      4  C   UNL     1      87.309  75.518  71.720  1.00  0.00     0.004 A 
ATOM      5  C   UNL     1      88.008  73.983  69.982  1.00  0.00     0.004 A 
ATOM      6  C   UNL     1      87.945  74.320  71.345  1.00  0.00    -0.045 A 
ENDROOT
BRANCH   1   7
ATOM      7  C   UNL     1      86.217  76.910  68.371  1.00  0.00     0.071 C 
ATOM      8  O   UNL     1      85.773  76.441  67.290  1.00  0.00    -0.545 OA
ATOM      9  O   UNL     1      86.140  78.281  68.592  1.00  0.00    -0.545 OA
ENDBRANCH   1   7
BRANCH   6  10
ATOM     10  C   UNL     1      88.558  73.400  72.383  1.00  0.00     0.013 C 
ATOM     11  C   UNL     1      89.255  74.202  73.489  1.00  0.00     0.012 C 
ATOM     12  C   UNL     1      89.523  72.399  71.736  1.00  0.00     0.012 C 
ENDBRANCH   6  10
TORSDOF 2
ENDMDL
MODEL 5
REMARK VINA RESULT:    -4.767      1.223      2.178
REMARK INTER + INTRA:          -5.530
REMARK INTER:                  -5.317
REMARK INTRA:                  -0.213
REMARK UNBOUND:                -0.206
REMARK SMILES CC(C)c1ccc(C(=O)[O-])cc1
REMARK SMILES IDX 7 1 6 2 11 3 5 4 12 5 4 6 8 7 9 8 10 9 2 10 1 11 3 12
REMARK H PARENT
REMARK Flexibility Score: inf
ROOT
ATOM      1  C   UNL     1      86.980  74.694  71.316  1.00  0.00    -0.003 A 
ATOM      2  C   UNL     1      86.100  75.689  70.859  1.00  0.00     0.010 A 
ATOM      3  C   UNL     1      87.915  74.150  70.419  1.00  0.00     0.010 A 
ATOM      4  C   UNL     1      86.153  76.130  69.534  1.00  0.00     0.004 A 
ATOM      5  C   UNL     1      87.969  74.590  69.094  1.00  0.00     0.004 A 
ATOM      6  C   UNL     1      87.089  75.585  68.636  1.00  0.00    -0.045 A 
ENDROOT
BRANCH   1   7
ATOM      7  C   UNL     1      86.921  74.231  72.719  1.00  0.00     0.071 C 
ATOM      8  O   UNL     1      85.814  74.096  73.304  1.00  0.00    -0.545 OA
ATOM      9  O   UNL     1      88.090  73.939  73.414  1.00  0.00    -0.545 OA
ENDBRANCH   1   7
BRANCH   6  10
ATOM     10  C   UNL     1      87.157  76.054  67.195  1.00  0.00     0.013 C 
ATOM     11  C   UNL     1      88.528  76.662  66.876  1.00  0.00     0.012 C 
ATOM     12  C   UNL     1      86.027  77.042  66.879  1.00  0.00     0.012 C 
ENDBRANCH   6  10
TORSDOF 2
ENDMDL
MODEL 6
REMARK VINA RESULT:    -4.689     12.217     13.354
REMARK INTER + INTRA:          -5.443
REMARK INTER:                  -5.233
REMARK INTRA:                  -0.210
REMARK UNBOUND:                -0.206
REMARK SMILES CC(C)c1ccc(C(=O)[O-])cc1
REMARK SMILES IDX 7 1 6 2 11 3 5 4 12 5 4 6 8 7 9 8 10 9 2 10 1 11 3 12
REMARK H PARENT
REMARK Flexibility Score: inf
ROOT
ATOM      1  C   UNL     1      92.167  84.255  77.349  1.00  0.00    -0.003 A 
ATOM      2  C   UNL     1      90.989  84.194  76.585  1.00  0.00     0.010 A 
ATOM      3  C   UNL     1      92.112  83.913  78.711  1.00  0.00     0.010 A 
ATOM      4  C   UNL     1      89.783  83.802  77.171  1.00  0.00     0.004 A 
ATOM      5  C   UNL     1      90.906  83.520  79.297  1.00  0.00     0.004 A 
ATOM      6  C   UNL     1      89.727  83.459  78.534  1.00  0.00    -0.045 A 
ENDROOT
BRANCH   1   7
ATOM      7  C   UNL     1      93.442  84.671  76.725  1.00  0.00     0.071 C 
ATOM      8  O   UNL     1      93.445  85.377  75.682  1.00  0.00    -0.545 OA
ATOM      9  O   UNL     1      94.656  84.287  77.282  1.00  0.00    -0.545 OA
ENDBRANCH   1   7
BRANCH   6  10
ATOM     10  C   UNL     1      88.425  83.031  79.183  1.00  0.00     0.013 C 
ATOM     11  C   UNL     1      87.468  82.421  78.151  1.00  0.00     0.012 C 
ATOM     12  C   UNL     1      87.765  84.200  79.924  1.00  0.00     0.012 C 
ENDBRANCH   6  10
TORSDOF 2
ENDMDL
MODEL 7
REMARK VINA RESULT:    -4.682      2.182      2.969
REMARK INTER + INTRA:          -5.435
REMARK INTER:                  -5.215
REMARK INTRA:                  -0.221
REMARK UNBOUND:                -0.206
REMARK SMILES CC(C)c1ccc(C(=O)[O-])cc1
REMARK SMILES IDX 7 1 6 2 11 3 5 4 12 5 4 6 8 7 9 8 10 9 2 10 1 11 3 12
REMARK H PARENT
REMARK Flexibility Score: inf
ROOT
ATOM      1  C   UNL     1      88.019  74.280  71.114  1.00  0.00    -0.003 A 
ATOM      2  C   UNL     1      87.423  75.428  71.660  1.00  0.00     0.010 A 
ATOM      3  C   UNL     1      87.986  74.094  69.721  1.00  0.00     0.010 A 
ATOM      4  C   UNL     1      86.806  76.370  70.833  1.00  0.00     0.004 A 
ATOM      5  C   UNL     1      87.369  75.036  68.893  1.00  0.00     0.004 A 
ATOM      6  C   UNL     1      86.772  76.185  69.439  1.00  0.00    -0.045 A 
ENDROOT
BRANCH   1   7
ATOM      7  C   UNL     1      88.672  73.286  71.993  1.00  0.00     0.071 C 
ATOM      8  O   UNL     1      88.502  73.323  73.241  1.00  0.00    -0.545 OA
ATOM      9  O   UNL     1      89.485  72.295  71.454  1.00  0.00    -0.545 OA
ENDBRANCH   1   7
BRANCH   6  10
ATOM     10  C   UNL     1      86.106  77.199  68.529  1.00  0.00     0.013 C 
ATOM     11  C   UNL     1      86.772  77.224  67.149  1.00  0.00     0.012 C 
ATOM     12  C   UNL     1      86.099  78.594  69.165  1.00  0.00     0.012 C 
ENDBRANCH   6  10
TORSDOF 2
ENDMDL
MODEL 8
REMARK VINA RESULT:    -4.660     12.718     13.747
REMARK INTER + INTRA:          -5.411
REMARK INTER:                  -5.198
REMARK INTRA:                  -0.213
REMARK UNBOUND:                -0.206
REMARK SMILES CC(C)c1ccc(C(=O)[O-])cc1
REMARK SMILES IDX 7 1 6 2 11 3 5 4 12 5 4 6 8 7 9 8 10 9 2 10 1 11 3 12
REMARK H PARENT
REMARK Flexibility Score: inf
ROOT
ATOM      1  C   UNL     1      92.110  84.256  76.974  1.00  0.00    -0.003 A 
ATOM      2  C   UNL     1      93.038  85.014  76.241  1.00  0.00     0.010 A 
ATOM      3  C   UNL     1      92.568  83.478  78.052  1.00  0.00     0.010 A 
ATOM      4  C   UNL     1      94.394  84.994  76.575  1.00  0.00     0.004 A 
ATOM      5  C   UNL     1      93.925  83.458  78.387  1.00  0.00     0.004 A 
ATOM      6  C   UNL     1      94.854  84.216  77.653  1.00  0.00    -0.045 A 
ENDROOT
BRANCH   1   7
ATOM      7  C   UNL     1      90.675  84.281  76.617  1.00  0.00     0.071 C 
ATOM      8  O   UNL     1      89.840  83.600  77.270  1.00  0.00    -0.545 OA
ATOM      9  O   UNL     1      90.227  85.056  75.553  1.00  0.00    -0.545 OA
ENDBRANCH   1   7
BRANCH   6  10
ATOM     10  C   UNL     1      96.323  84.184  78.027  1.00  0.00     0.013 C 
ATOM     11  C   UNL     1      96.677  82.889  78.768  1.00  0.00     0.012 C 
ATOM     12  C   UNL     1      96.711  85.416  78.853  1.00  0.00     0.012 C 
ENDBRANCH   6  10
TORSDOF 2
ENDMDL
MODEL 9
REMARK VINA RESULT:    -4.623     15.392     16.588
REMARK INTER + INTRA:          -5.370
REMARK INTER:                  -5.162
REMARK INTRA:                  -0.208
REMARK UNBOUND:                -0.206
REMARK SMILES CC(C)c1ccc(C(=O)[O-])cc1
REMARK SMILES IDX 7 1 6 2 11 3 5 4 12 5 4 6 8 7 9 8 10 9 2 10 1 11 3 12
REMARK H PARENT
REMARK Flexibility Score: inf
ROOT
ATOM      1  C   UNL     1      95.993  83.489  78.799  1.00  0.00    -0.003 A 
ATOM      2  C   UNL     1      96.216  82.141  79.123  1.00  0.00     0.010 A 
ATOM      3  C   UNL     1      96.950  84.447  79.179  1.00  0.00     0.010 A 
ATOM      4  C   UNL     1      97.368  81.757  79.814  1.00  0.00     0.004 A 
ATOM      5  C   UNL     1      98.104  84.063  79.868  1.00  0.00     0.004 A 
ATOM      6  C   UNL     1      98.326  82.714  80.194  1.00  0.00    -0.045 A 
ENDROOT
BRANCH   1   7
ATOM      7  C   UNL     1      94.772  83.891  78.068  1.00  0.00     0.071 C 
ATOM      8  O   UNL     1      93.641  83.471  78.429  1.00  0.00    -0.545 OA
ATOM      9  O   UNL     1      94.856  84.739  76.969  1.00  0.00    -0.545 OA
ENDBRANCH   1   7
BRANCH   6  10
ATOM     10  C   UNL     1      99.582  82.312  80.944  1.00  0.00     0.013 C 
ATOM     11  C   UNL     1      99.329  82.259  82.455  1.00  0.00     0.012 C 
ATOM     12  C   UNL     1     100.750  83.249  80.611  1.00  0.00     0.012 C 
ENDBRANCH   6  10
TORSDOF 2
ENDMDL
