MODEL 1
REMARK VINA RESULT:     5.984      0.000      0.000
REMARK INTER + INTRA:          10.773
REMARK INTER:                  11.232
REMARK INTRA:                  -0.459
REMARK UNBOUND:                -0.459
REMARK SMILES O=C([O-])CCCCCCCCCCCCCCC(=O)[O-]
REMARK SMILES IDX 10 1 9 2 8 3 7 4 6 5 5 6 4 7 2 8 1 9 3 10 11 11 12 12 13 13
REMARK SMILES IDX 14 14 15 15 16 16 17 17 18 18 19 19 20 20
REMARK H PARENT
REMARK Flexibility Score: inf
ROOT
ATOM      1  C   UNL     1      12.404  -0.661 -17.335  1.00  0.00     0.000 C 
ENDROOT
BRANCH   1   2
ATOM      2  C   UNL     1      11.921  -1.532 -16.165  1.00  0.00     0.000 C 
BRANCH   2   3
ATOM      3  C   UNL     1      10.756  -2.460 -16.552  1.00  0.00     0.000 C 
BRANCH   3   4
ATOM      4  C   UNL     1      11.111  -3.962 -16.471  1.00  0.00     0.000 C 
BRANCH   4   5
ATOM      5  C   UNL     1      11.402  -4.569 -17.857  1.00  0.00     0.000 C 
BRANCH   5   6
ATOM      6  C   UNL     1      12.204  -5.878 -17.768  1.00  0.00     0.006 C 
BRANCH   6   7
ATOM      7  C   UNL     1      13.024  -6.157 -19.035  1.00  0.00     0.053 C 
BRANCH   7   8
ATOM      8  C   UNL     1      14.428  -6.520 -18.671  1.00  0.00     0.041 C 
ATOM      9  O   UNL     1      15.386  -6.155 -19.402  1.00  0.00    -0.550 OA
ATOM     10  O   UNL     1      14.675  -7.312 -17.556  1.00  0.00    -0.550 OA
ENDBRANCH   7   8
ENDBRANCH   6   7
ENDBRANCH   5   6
ENDBRANCH   4   5
ENDBRANCH   3   4
ENDBRANCH   2   3
ENDBRANCH   1   2
BRANCH   1  11
ATOM     11  C   UNL     1      13.910  -0.348 -17.267  1.00  0.00     0.000 C 
BRANCH  11  12
ATOM     12  C   UNL     1      14.394   0.605 -18.380  1.00  0.00     0.000 C 
BRANCH  12  13
ATOM     13  C   UNL     1      13.786   2.013 -18.249  1.00  0.00     0.000 C 
BRANCH  13  14
ATOM     14  C   UNL     1      13.344   2.334 -16.812  1.00  0.00     0.000 C 
BRANCH  14  15
ATOM     15  C   UNL     1      11.818   2.492 -16.682  1.00  0.00     0.000 C 
BRANCH  15  16
ATOM     16  C   UNL     1      11.359   2.615 -15.221  1.00  0.00     0.006 C 
BRANCH  16  17
ATOM     17  C   UNL     1      10.817   1.295 -14.659  1.00  0.00     0.053 C 
BRANCH  17  18
ATOM     18  C   UNL     1      10.028   1.542 -13.412  1.00  0.00     0.041 C 
ATOM     19  O   UNL     1       9.317   0.624 -12.919  1.00  0.00    -0.550 OA
ATOM     20  O   UNL     1      10.093   2.780 -12.781  1.00  0.00    -0.550 OA
ENDBRANCH  17  18
ENDBRANCH  16  17
ENDBRANCH  15  16
ENDBRANCH  14  15
ENDBRANCH  13  14
ENDBRANCH  12  13
ENDBRANCH  11  12
ENDBRANCH   1  11
TORSDOF 15
ENDMDL
MODEL 2
REMARK VINA RESULT:     5.989      0.188      8.227
REMARK INTER + INTRA:          10.781
REMARK INTER:                  11.036
REMARK INTRA:                  -0.254
REMARK UNBOUND:                -0.459
REMARK SMILES O=C([O-])CCCCCCCCCCCCCCC(=O)[O-]
REMARK SMILES IDX 10 1 9 2 8 3 7 4 6 5 5 6 4 7 2 8 1 9 3 10 11 11 12 12 13 13
REMARK SMILES IDX 14 14 15 15 16 16 17 17 18 18 19 19 20 20
REMARK H PARENT
REMARK Flexibility Score: inf
ROOT
ATOM      1  C   UNL     1      14.103  -0.236 -17.410  1.00  0.00     0.000 C 
ENDROOT
BRANCH   1   2
ATOM      2  C   UNL     1      14.505   0.831 -18.440  1.00  0.00     0.000 C 
BRANCH   2   3
ATOM      3  C   UNL     1      13.787   2.174 -18.220  1.00  0.00     0.000 C 
BRANCH   3   4
ATOM      4  C   UNL     1      13.312   2.387 -16.765  1.00  0.00     0.000 C 
BRANCH   4   5
ATOM      5  C   UNL     1      11.776   2.390 -16.647  1.00  0.00     0.000 C 
BRANCH   5   6
ATOM      6  C   UNL     1      11.298   2.522 -15.191  1.00  0.00     0.006 C 
BRANCH   6   7
ATOM      7  C   UNL     1      10.848   1.182 -14.593  1.00  0.00     0.053 C 
BRANCH   7   8
ATOM      8  C   UNL     1      10.039   1.415 -13.357  1.00  0.00     0.041 C 
ATOM      9  O   UNL     1       9.273   0.514 -12.922  1.00  0.00    -0.550 OA
ATOM     10  O   UNL     1      10.085   2.648 -12.717  1.00  0.00    -0.550 OA
ENDBRANCH   7   8
ENDBRANCH   6   7
ENDBRANCH   5   6
ENDBRANCH   4   5
ENDBRANCH   3   4
ENDBRANCH   2   3
ENDBRANCH   1   2
BRANCH   1  11
ATOM     11  C   UNL     1      12.594  -0.544 -17.425  1.00  0.00     0.000 C 
BRANCH  11  12
ATOM     12  C   UNL     1      12.143  -1.480 -16.284  1.00  0.00     0.000 C 
BRANCH  12  13
ATOM     13  C   UNL     1      10.899  -2.303 -16.662  1.00  0.00     0.000 C 
BRANCH  13  14
ATOM     14  C   UNL     1      11.082  -3.806 -16.398  1.00  0.00     0.000 C 
BRANCH  14  15
ATOM     15  C   UNL     1      11.207  -4.626 -17.695  1.00  0.00     0.000 C 
BRANCH  15  16
ATOM     16  C   UNL     1      12.240  -5.758 -17.581  1.00  0.00     0.006 C 
BRANCH  16  17
ATOM     17  C   UNL     1      12.972  -6.025 -18.903  1.00  0.00     0.053 C 
BRANCH  17  18
ATOM     18  C   UNL     1      14.353  -6.537 -18.643  1.00  0.00     0.041 C 
ATOM     19  O   UNL     1      14.553  -7.391 -17.738  1.00  0.00    -0.550 OA
ATOM     20  O   UNL     1      15.419  -6.084 -19.415  1.00  0.00    -0.550 OA
ENDBRANCH  17  18
ENDBRANCH  16  17
ENDBRANCH  15  16
ENDBRANCH  14  15
ENDBRANCH  13  14
ENDBRANCH  12  13
ENDBRANCH  11  12
ENDBRANCH   1  11
TORSDOF 15
ENDMDL
MODEL 3
REMARK VINA RESULT:     6.369      2.389      3.887
REMARK INTER + INTRA:          11.495
REMARK INTER:                  12.362
REMARK INTRA:                  -0.867
REMARK UNBOUND:                -0.459
REMARK SMILES O=C([O-])CCCCCCCCCCCCCCC(=O)[O-]
REMARK SMILES IDX 10 1 9 2 8 3 7 4 6 5 5 6 4 7 2 8 1 9 3 10 11 11 12 12 13 13
REMARK SMILES IDX 14 14 15 15 16 16 17 17 18 18 19 19 20 20
REMARK H PARENT
REMARK Flexibility Score: inf
ROOT
ATOM      1  C   UNL     1      12.007  -0.682 -15.132  1.00  0.00     0.000 C 
ENDROOT
BRANCH   1   2
ATOM      2  C   UNL     1      11.875  -1.432 -16.466  1.00  0.00     0.000 C 
BRANCH   2   3
ATOM      3  C   UNL     1      10.669  -2.387 -16.498  1.00  0.00     0.000 C 
BRANCH   3   4
ATOM      4  C   UNL     1      11.060  -3.879 -16.397  1.00  0.00     0.000 C 
BRANCH   4   5
ATOM      5  C   UNL     1      11.404  -4.487 -17.770  1.00  0.00     0.000 C 
BRANCH   5   6
ATOM      6  C   UNL     1      12.176  -5.812 -17.650  1.00  0.00     0.006 C 
BRANCH   6   7
ATOM      7  C   UNL     1      12.903  -6.193 -18.946  1.00  0.00     0.053 C 
BRANCH   7   8
ATOM      8  C   UNL     1      14.325  -6.552 -18.653  1.00  0.00     0.041 C 
ATOM      9  O   UNL     1      15.263  -5.981 -19.270  1.00  0.00    -0.550 OA
ATOM     10  O   UNL     1      14.614  -7.560 -17.741  1.00  0.00    -0.550 OA
ENDBRANCH   7   8
ENDBRANCH   6   7
ENDBRANCH   5   6
ENDBRANCH   4   5
ENDBRANCH   3   4
ENDBRANCH   2   3
ENDBRANCH   1   2
BRANCH   1  11
ATOM     11  C   UNL     1      10.646  -0.360 -14.489  1.00  0.00     0.000 C 
BRANCH  11  12
ATOM     12  C   UNL     1      10.626   0.981 -13.724  1.00  0.00     0.000 C 
BRANCH  12  13
ATOM     13  C   UNL     1      10.323   2.174 -14.647  1.00  0.00     0.000 C 
BRANCH  13  14
ATOM     14  C   UNL     1      11.588   2.753 -15.299  1.00  0.00     0.000 C 
BRANCH  14  15
ATOM     15  C   UNL     1      11.872   2.146 -16.685  1.00  0.00     0.000 C 
BRANCH  15  16
ATOM     16  C   UNL     1      13.373   2.093 -17.011  1.00  0.00     0.006 C 
BRANCH  16  17
ATOM     17  C   UNL     1      13.664   1.386 -18.341  1.00  0.00     0.053 C 
BRANCH  17  18
ATOM     18  C   UNL     1      14.914   0.570 -18.237  1.00  0.00     0.041 C 
ATOM     19  O   UNL     1      15.309   0.156 -17.114  1.00  0.00    -0.550 OA
ATOM     20  O   UNL     1      15.632   0.250 -19.385  1.00  0.00    -0.550 OA
ENDBRANCH  17  18
ENDBRANCH  16  17
ENDBRANCH  15  16
ENDBRANCH  14  15
ENDBRANCH  13  14
ENDBRANCH  12  13
ENDBRANCH  11  12
ENDBRANCH   1  11
TORSDOF 15
ENDMDL
MODEL 4
REMARK VINA RESULT:     6.469      2.359      7.442
REMARK INTER + INTRA:          11.683
REMARK INTER:                  12.750
REMARK INTRA:                  -1.068
REMARK UNBOUND:                -0.459
REMARK SMILES O=C([O-])CCCCCCCCCCCCCCC(=O)[O-]
REMARK SMILES IDX 10 1 9 2 8 3 7 4 6 5 5 6 4 7 2 8 1 9 3 10 11 11 12 12 13 13
REMARK SMILES IDX 14 14 15 15 16 16 17 17 18 18 19 19 20 20
REMARK H PARENT
REMARK Flexibility Score: inf
ROOT
ATOM      1  C   UNL     1      10.694  -0.392 -14.481  1.00  0.00     0.000 C 
ENDROOT
BRANCH   1   2
ATOM      2  C   UNL     1      10.775   0.928 -13.699  1.00  0.00     0.000 C 
BRANCH   2   3
ATOM      3  C   UNL     1      10.304   2.140 -14.524  1.00  0.00     0.000 C 
BRANCH   3   4
ATOM      4  C   UNL     1      11.450   2.859 -15.271  1.00  0.00     0.000 C 
BRANCH   4   5
ATOM      5  C   UNL     1      11.743   2.223 -16.643  1.00  0.00     0.000 C 
BRANCH   5   6
ATOM      6  C   UNL     1      13.249   2.063 -16.908  1.00  0.00     0.006 C 
BRANCH   6   7
ATOM      7  C   UNL     1      13.545   1.386 -18.253  1.00  0.00     0.053 C 
BRANCH   7   8
ATOM      8  C   UNL     1      14.837   0.637 -18.180  1.00  0.00     0.041 C 
ATOM      9  O   UNL     1      15.462   0.347 -19.235  1.00  0.00    -0.550 OA
ATOM     10  O   UNL     1      15.325   0.208 -16.951  1.00  0.00    -0.550 OA
ENDBRANCH   7   8
ENDBRANCH   6   7
ENDBRANCH   5   6
ENDBRANCH   4   5
ENDBRANCH   3   4
ENDBRANCH   2   3
ENDBRANCH   1   2
BRANCH   1  11
ATOM     11  C   UNL     1      12.018  -0.760 -15.174  1.00  0.00     0.000 C 
BRANCH  11  12
ATOM     12  C   UNL     1      11.829  -1.465 -16.534  1.00  0.00     0.000 C 
BRANCH  12  13
ATOM     13  C   UNL     1      10.649  -2.452 -16.520  1.00  0.00     0.000 C 
BRANCH  13  14
ATOM     14  C   UNL     1      11.103  -3.917 -16.422  1.00  0.00     0.000 C 
BRANCH  14  15
ATOM     15  C   UNL     1      11.417  -4.535 -17.797  1.00  0.00     0.000 C 
BRANCH  15  16
ATOM     16  C   UNL     1      12.190  -5.858 -17.688  1.00  0.00     0.006 C 
BRANCH  16  17
ATOM     17  C   UNL     1      12.949  -6.206 -18.975  1.00  0.00     0.053 C 
BRANCH  17  18
ATOM     18  C   UNL     1      14.379  -6.521 -18.671  1.00  0.00     0.041 C 
ATOM     19  O   UNL     1      15.295  -6.114 -19.436  1.00  0.00    -0.550 OA
ATOM     20  O   UNL     1      14.704  -7.248 -17.530  1.00  0.00    -0.550 OA
ENDBRANCH  17  18
ENDBRANCH  16  17
ENDBRANCH  15  16
ENDBRANCH  14  15
ENDBRANCH  13  14
ENDBRANCH  12  13
ENDBRANCH  11  12
ENDBRANCH   1  11
TORSDOF 15
ENDMDL
MODEL 5
REMARK VINA RESULT:     7.517      6.650      9.174
REMARK INTER + INTRA:          13.650
REMARK INTER:                  14.155
REMARK INTRA:                  -0.505
REMARK UNBOUND:                -0.459
REMARK SMILES O=C([O-])CCCCCCCCCCCCCCC(=O)[O-]
REMARK SMILES IDX 10 1 9 2 8 3 7 4 6 5 5 6 4 7 2 8 1 9 3 10 11 11 12 12 13 13
REMARK SMILES IDX 14 14 15 15 16 16 17 17 18 18 19 19 20 20
REMARK H PARENT
REMARK Flexibility Score: inf
ROOT
ATOM      1  C   UNL     1       7.262   1.213 -13.911  1.00  0.00     0.000 C 
ENDROOT
BRANCH   1   2
ATOM      2  C   UNL     1       8.496   1.270 -12.998  1.00  0.00     0.000 C 
BRANCH   2   3
ATOM      3  C   UNL     1       9.774   0.762 -13.689  1.00  0.00     0.000 C 
BRANCH   3   4
ATOM      4  C   UNL     1      10.759   1.890 -14.069  1.00  0.00     0.000 C 
BRANCH   4   5
ATOM      5  C   UNL     1      10.874   2.075 -15.594  1.00  0.00     0.000 C 
BRANCH   5   6
ATOM      6  C   UNL     1      12.323   1.952 -16.094  1.00  0.00     0.006 C 
BRANCH   6   7
ATOM      7  C   UNL     1      12.514   0.787 -17.075  1.00  0.00     0.053 C 
BRANCH   7   8
ATOM      8  C   UNL     1      13.761   0.987 -17.876  1.00  0.00     0.041 C 
ATOM      9  O   UNL     1      14.839   0.446 -17.513  1.00  0.00    -0.550 OA
ATOM     10  O   UNL     1      13.747   1.818 -18.990  1.00  0.00    -0.550 OA
ENDBRANCH   7   8
ENDBRANCH   6   7
ENDBRANCH   5   6
ENDBRANCH   4   5
ENDBRANCH   3   4
ENDBRANCH   2   3
ENDBRANCH   1   2
BRANCH   1  11
ATOM     11  C   UNL     1       5.996   1.778 -13.242  1.00  0.00     0.000 C 
BRANCH  11  12
ATOM     12  C   UNL     1       4.723   1.629 -14.102  1.00  0.00     0.000 C 
BRANCH  12  13
ATOM     13  C   UNL     1       3.571   0.962 -13.330  1.00  0.00     0.000 C 
BRANCH  13  14
ATOM     14  C   UNL     1       2.539   0.304 -14.259  1.00  0.00     0.000 C 
BRANCH  14  15
ATOM     15  C   UNL     1       1.090   0.669 -13.890  1.00  0.00     0.000 C 
BRANCH  15  16
ATOM     16  C   UNL     1       0.131   0.566 -15.085  1.00  0.00     0.006 C 
BRANCH  16  17
ATOM     17  C   UNL     1       0.018  -0.864 -15.631  1.00  0.00     0.053 C 
BRANCH  17  18
ATOM     18  C   UNL     1       0.243  -0.879 -17.110  1.00  0.00     0.041 C 
ATOM     19  O   UNL     1       0.481   0.195 -17.726  1.00  0.00    -0.550 OA
ATOM     20  O   UNL     1       0.207  -2.083 -17.806  1.00  0.00    -0.550 OA
ENDBRANCH  17  18
ENDBRANCH  16  17
ENDBRANCH  15  16
ENDBRANCH  14  15
ENDBRANCH  13  14
ENDBRANCH  12  13
ENDBRANCH  11  12
ENDBRANCH   1  11
TORSDOF 15
ENDMDL
MODEL 6
REMARK VINA RESULT:     7.661      6.592      9.671
REMARK INTER + INTRA:          13.919
REMARK INTER:                  14.359
REMARK INTRA:                  -0.440
REMARK UNBOUND:                -0.459
REMARK SMILES O=C([O-])CCCCCCCCCCCCCCC(=O)[O-]
REMARK SMILES IDX 10 1 9 2 8 3 7 4 6 5 5 6 4 7 2 8 1 9 3 10 11 11 12 12 13 13
REMARK SMILES IDX 14 14 15 15 16 16 17 17 18 18 19 19 20 20
REMARK H PARENT
REMARK Flexibility Score: inf
ROOT
ATOM      1  C   UNL     1       6.119   1.406 -13.042  1.00  0.00     0.000 C 
ENDROOT
BRANCH   1   2
ATOM      2  C   UNL     1       4.873   1.643 -13.910  1.00  0.00     0.000 C 
BRANCH   2   3
ATOM      3  C   UNL     1       3.624   0.924 -13.372  1.00  0.00     0.000 C 
BRANCH   3   4
ATOM      4  C   UNL     1       2.688   0.399 -14.483  1.00  0.00     0.000 C 
BRANCH   4   5
ATOM      5  C   UNL     1       1.201   0.613 -14.145  1.00  0.00     0.000 C 
BRANCH   5   6
ATOM      6  C   UNL     1       0.263  -0.021 -15.186  1.00  0.00     0.006 C 
BRANCH   6   7
ATOM      7  C   UNL     1       1.011  -0.522 -16.429  1.00  0.00     0.053 C 
BRANCH   7   8
ATOM      8  C   UNL     1       0.292  -1.688 -17.028  1.00  0.00     0.041 C 
ATOM      9  O   UNL     1      -0.125  -2.622 -16.292  1.00  0.00    -0.550 OA
ATOM     10  O   UNL     1       0.131  -1.773 -18.406  1.00  0.00    -0.550 OA
ENDBRANCH   7   8
ENDBRANCH   6   7
ENDBRANCH   5   6
ENDBRANCH   4   5
ENDBRANCH   3   4
ENDBRANCH   2   3
ENDBRANCH   1   2
BRANCH   1  11
ATOM     11  C   UNL     1       7.422   1.370 -13.861  1.00  0.00     0.000 C 
BRANCH  11  12
ATOM     12  C   UNL     1       8.666   0.996 -13.028  1.00  0.00     0.000 C 
BRANCH  12  13
ATOM     13  C   UNL     1       9.894   1.845 -13.399  1.00  0.00     0.000 C 
BRANCH  13  14
ATOM     14  C   UNL     1      10.736   1.212 -14.517  1.00  0.00     0.000 C 
BRANCH  14  15
ATOM     15  C   UNL     1      11.173   2.233 -15.583  1.00  0.00     0.000 C 
BRANCH  15  16
ATOM     16  C   UNL     1      12.576   1.944 -16.140  1.00  0.00     0.006 C 
BRANCH  16  17
ATOM     17  C   UNL     1      12.569   0.850 -17.216  1.00  0.00     0.053 C 
BRANCH  17  18
ATOM     18  C   UNL     1      13.773   0.975 -18.096  1.00  0.00     0.041 C 
ATOM     19  O   UNL     1      13.741   1.720 -19.113  1.00  0.00    -0.550 OA
ATOM     20  O   UNL     1      14.938   0.283 -17.782  1.00  0.00    -0.550 OA
ENDBRANCH  17  18
ENDBRANCH  16  17
ENDBRANCH  15  16
ENDBRANCH  14  15
ENDBRANCH  13  14
ENDBRANCH  12  13
ENDBRANCH  11  12
ENDBRANCH   1  11
TORSDOF 15
ENDMDL
