MODEL 1
REMARK VINA RESULT:    -5.932      0.000      0.000
REMARK INTER + INTRA:          -6.935
REMARK INTER:                  -6.973
REMARK INTRA:                   0.038
REMARK UNBOUND:                 0.038
REMARK SMILES O=c1c(O)c(-c2ccc(O)cc2)oc2cc(O)cc(O)c12
REMARK SMILES IDX 5 1 3 2 2 3 1 4 21 5 19 6 18 7 16 8 15 9 14 10 13 11 6 12
REMARK SMILES IDX 7 13 8 14 9 15 12 16 11 17 10 18 4 20 20 22 17 24
REMARK H PARENT 10 19 4 21 20 23 17 25
REMARK Flexibility Score: inf
ROOT
ATOM      1  C   UNL     1      38.803  11.564  26.735  1.00  0.00     0.180 A 
ATOM      2  C   UNL     1      38.194  10.325  27.010  1.00  0.00     0.208 A 
ATOM      3  C   UNL     1      37.017  10.303  27.776  1.00  0.00     0.238 A 
ATOM      4  O   UNL     1      36.469   9.198  28.039  1.00  0.00    -0.285 OA
ATOM      5  C   UNL     1      36.461  11.515  28.233  1.00  0.00     0.111 A 
ATOM      6  C   UNL     1      35.276  11.580  29.007  1.00  0.00     0.134 A 
ATOM      7  C   UNL     1      34.782  12.827  29.417  1.00  0.00     0.093 A 
ATOM      8  C   UNL     1      35.444  14.006  29.069  1.00  0.00     0.123 A 
ATOM      9  C   UNL     1      36.615  13.949  28.306  1.00  0.00     0.094 A 
ATOM     10  C   UNL     1      37.125  12.715  27.889  1.00  0.00     0.146 A 
ATOM     11  O   UNL     1      38.242  12.688  27.170  1.00  0.00    -0.452 OA
ENDROOT
BRANCH   1  12
ATOM     12  C   UNL     1      40.055  11.669  25.951  1.00  0.00     0.021 A 
ATOM     13  C   UNL     1      41.167  10.853  26.232  1.00  0.00     0.016 A 
ATOM     14  C   UNL     1      42.346  10.986  25.493  1.00  0.00     0.047 A 
ATOM     15  C   UNL     1      42.435  11.944  24.474  1.00  0.00     0.115 A 
ATOM     16  C   UNL     1      40.160  12.640  24.942  1.00  0.00     0.016 A 
ATOM     17  C   UNL     1      41.341  12.771  24.204  1.00  0.00     0.047 A 
BRANCH  15  18
ATOM     18  O   UNL     1      43.605  12.085  23.732  1.00  0.00    -0.508 OA
ATOM     19  H   UNL     1      43.587  12.401  22.770  1.00  0.00     0.293 HD
ENDBRANCH  15  18
ENDBRANCH   1  12
BRANCH   2  20
ATOM     20  O   UNL     1      38.738   9.142  26.503  1.00  0.00    -0.502 OA
ATOM     21  H   UNL     1      38.210   8.279  26.455  1.00  0.00     0.293 HD
ENDBRANCH   2  20
BRANCH   6  22
ATOM     22  O   UNL     1      34.591  10.420  29.369  1.00  0.00    -0.507 OA
ATOM     23  H   UNL     1      35.062   9.638  29.810  1.00  0.00     0.293 HD
ENDBRANCH   6  22
BRANCH   8  24
ATOM     24  O   UNL     1      34.930  15.232  29.488  1.00  0.00    -0.508 OA
ATOM     25  H   UNL     1      34.129  15.287  30.104  1.00  0.00     0.293 HD
ENDBRANCH   8  24
TORSDOF 5
ENDMDL
MODEL 2
REMARK VINA RESULT:    -5.812      8.081      9.628
REMARK INTER + INTRA:          -6.793
REMARK INTER:                  -6.577
REMARK INTRA:                  -0.216
REMARK UNBOUND:                 0.038
REMARK SMILES O=c1c(O)c(-c2ccc(O)cc2)oc2cc(O)cc(O)c12
REMARK SMILES IDX 5 1 3 2 2 3 1 4 21 5 19 6 18 7 16 8 15 9 14 10 13 11 6 12
REMARK SMILES IDX 7 13 8 14 9 15 12 16 11 17 10 18 4 20 20 22 17 24
REMARK H PARENT 10 19 4 21 20 23 17 25
REMARK Flexibility Score: inf
ROOT
ATOM      1  C   UNL     1      45.121  14.102  22.919  1.00  0.00     0.180 A 
ATOM      2  C   UNL     1      45.162  15.226  22.070  1.00  0.00     0.208 A 
ATOM      3  C   UNL     1      45.373  16.494  22.634  1.00  0.00     0.238 A 
ATOM      4  O   UNL     1      45.400  17.509  21.885  1.00  0.00    -0.285 OA
ATOM      5  C   UNL     1      45.559  16.616  24.025  1.00  0.00     0.111 A 
ATOM      6  C   UNL     1      45.781  17.856  24.672  1.00  0.00     0.134 A 
ATOM      7  C   UNL     1      45.967  17.893  26.061  1.00  0.00     0.093 A 
ATOM      8  C   UNL     1      45.937  16.718  26.816  1.00  0.00     0.123 A 
ATOM      9  C   UNL     1      45.717  15.490  26.184  1.00  0.00     0.094 A 
ATOM     10  C   UNL     1      45.528  15.433  24.800  1.00  0.00     0.146 A 
ATOM     11  O   UNL     1      45.316  14.254  24.225  1.00  0.00    -0.452 OA
ENDROOT
BRANCH   1  12
ATOM     12  C   UNL     1      44.884  12.734  22.403  1.00  0.00     0.021 A 
ATOM     13  C   UNL     1      43.664  12.068  22.624  1.00  0.00     0.016 A 
ATOM     14  C   UNL     1      43.473  10.768  22.148  1.00  0.00     0.047 A 
ATOM     15  C   UNL     1      44.500  10.112  21.458  1.00  0.00     0.115 A 
ATOM     16  C   UNL     1      45.916  12.061  21.729  1.00  0.00     0.016 A 
ATOM     17  C   UNL     1      45.721  10.761  21.253  1.00  0.00     0.047 A 
BRANCH  15  18
ATOM     18  O   UNL     1      44.320   8.817  20.979  1.00  0.00    -0.508 OA
ATOM     19  H   UNL     1      43.419   8.495  20.646  1.00  0.00     0.293 HD
ENDBRANCH  15  18
ENDBRANCH   1  12
BRANCH   2  20
ATOM     20  O   UNL     1      45.024  15.072  20.689  1.00  0.00    -0.502 OA
ATOM     21  H   UNL     1      45.743  15.361  20.036  1.00  0.00     0.293 HD
ENDBRANCH   2  20
BRANCH   6  22
ATOM     22  O   UNL     1      45.819  19.047  23.946  1.00  0.00    -0.507 OA
ATOM     23  H   UNL     1      45.036  19.349  23.377  1.00  0.00     0.293 HD
ENDBRANCH   6  22
BRANCH   8  24
ATOM     24  O   UNL     1      46.125  16.782  28.195  1.00  0.00    -0.508 OA
ATOM     25  H   UNL     1      46.994  16.490  28.625  1.00  0.00     0.293 HD
ENDBRANCH   8  24
TORSDOF 5
ENDMDL
MODEL 3
REMARK VINA RESULT:    -5.746      4.480      8.592
REMARK INTER + INTRA:          -6.716
REMARK INTER:                  -6.426
REMARK INTRA:                  -0.290
REMARK UNBOUND:                 0.038
REMARK SMILES O=c1c(O)c(-c2ccc(O)cc2)oc2cc(O)cc(O)c12
REMARK SMILES IDX 5 1 3 2 2 3 1 4 21 5 19 6 18 7 16 8 15 9 14 10 13 11 6 12
REMARK SMILES IDX 7 13 8 14 9 15 12 16 11 17 10 18 4 20 20 22 17 24
REMARK H PARENT 10 19 4 21 20 23 17 25
REMARK Flexibility Score: inf
ROOT
ATOM      1  C   UNL     1      43.252  11.759  25.090  1.00  0.00     0.180 A 
ATOM      2  C   UNL     1      43.861  10.838  25.964  1.00  0.00     0.208 A 
ATOM      3  C   UNL     1      44.609   9.781  25.422  1.00  0.00     0.238 A 
ATOM      4  O   UNL     1      45.150   8.943  26.195  1.00  0.00    -0.285 OA
ATOM      5  C   UNL     1      44.753   9.674  24.024  1.00  0.00     0.111 A 
ATOM      6  C   UNL     1      45.493   8.641  23.398  1.00  0.00     0.134 A 
ATOM      7  C   UNL     1      45.596   8.610  22.000  1.00  0.00     0.093 A 
ATOM      8  C   UNL     1      44.978   9.587  21.217  1.00  0.00     0.123 A 
ATOM      9  C   UNL     1      44.244  10.609  21.829  1.00  0.00     0.094 A 
ATOM     10  C   UNL     1      44.129  10.657  23.221  1.00  0.00     0.146 A 
ATOM     11  O   UNL     1      43.422  11.635  23.777  1.00  0.00    -0.452 OA
ENDROOT
BRANCH   1  12
ATOM     12  C   UNL     1      42.432  12.889  25.583  1.00  0.00     0.021 A 
ATOM     13  C   UNL     1      43.003  14.146  25.856  1.00  0.00     0.016 A 
ATOM     14  C   UNL     1      42.213  15.190  26.344  1.00  0.00     0.047 A 
ATOM     15  C   UNL     1      40.846  14.990  26.578  1.00  0.00     0.115 A 
ATOM     16  C   UNL     1      41.065  12.691  25.842  1.00  0.00     0.016 A 
ATOM     17  C   UNL     1      40.277  13.738  26.328  1.00  0.00     0.047 A 
BRANCH  15  18
ATOM     18  O   UNL     1      40.050  16.024  27.063  1.00  0.00    -0.508 OA
ATOM     19  H   UNL     1      39.287  16.406  26.517  1.00  0.00     0.293 HD
ENDBRANCH  15  18
ENDBRANCH   1  12
BRANCH   2  20
ATOM     20  O   UNL     1      43.744  10.995  27.348  1.00  0.00    -0.502 OA
ATOM     21  H   UNL     1      43.688  10.205  27.980  1.00  0.00     0.293 HD
ENDBRANCH   2  20
BRANCH   6  22
ATOM     22  O   UNL     1      46.124   7.652  24.153  1.00  0.00    -0.507 OA
ATOM     23  H   UNL     1      45.804   7.405  25.083  1.00  0.00     0.293 HD
ENDBRANCH   6  22
BRANCH   8  24
ATOM     24  O   UNL     1      45.097   9.533  19.830  1.00  0.00    -0.508 OA
ATOM     25  H   UNL     1      44.763   8.736  19.301  1.00  0.00     0.293 HD
ENDBRANCH   8  24
TORSDOF 5
ENDMDL
MODEL 4
REMARK VINA RESULT:    -5.725      3.197      5.629
REMARK INTER + INTRA:          -6.691
REMARK INTER:                  -6.442
REMARK INTRA:                  -0.248
REMARK UNBOUND:                 0.038
REMARK SMILES O=c1c(O)c(-c2ccc(O)cc2)oc2cc(O)cc(O)c12
REMARK SMILES IDX 5 1 3 2 2 3 1 4 21 5 19 6 18 7 16 8 15 9 14 10 13 11 6 12
REMARK SMILES IDX 7 13 8 14 9 15 12 16 11 17 10 18 4 20 20 22 17 24
REMARK H PARENT 10 19 4 21 20 23 17 25
REMARK Flexibility Score: inf
ROOT
ATOM      1  C   UNL     1      41.664  14.529  24.480  1.00  0.00     0.180 A 
ATOM      2  C   UNL     1      41.170  15.405  25.466  1.00  0.00     0.208 A 
ATOM      3  C   UNL     1      40.381  14.883  26.504  1.00  0.00     0.238 A 
ATOM      4  O   UNL     1      39.924  15.660  27.386  1.00  0.00    -0.285 OA
ATOM      5  C   UNL     1      40.117  13.499  26.549  1.00  0.00     0.111 A 
ATOM      6  C   UNL     1      39.335  12.893  27.563  1.00  0.00     0.134 A 
ATOM      7  C   UNL     1      39.125  11.507  27.543  1.00  0.00     0.093 A 
ATOM      8  C   UNL     1      39.682  10.715  26.535  1.00  0.00     0.123 A 
ATOM      9  C   UNL     1      40.454  11.308  25.531  1.00  0.00     0.094 A 
ATOM     10  C   UNL     1      40.674  12.689  25.533  1.00  0.00     0.146 A 
ATOM     11  O   UNL     1      41.408  13.227  24.565  1.00  0.00    -0.452 OA
ENDROOT
BRANCH   1  12
ATOM     12  C   UNL     1      42.487  15.005  23.345  1.00  0.00     0.021 A 
ATOM     13  C   UNL     1      43.888  14.872  23.348  1.00  0.00     0.016 A 
ATOM     14  C   UNL     1      44.646  15.351  22.275  1.00  0.00     0.047 A 
ATOM     15  C   UNL     1      44.016  15.980  21.193  1.00  0.00     0.115 A 
ATOM     16  C   UNL     1      41.866  15.655  22.266  1.00  0.00     0.016 A 
ATOM     17  C   UNL     1      42.626  16.132  21.193  1.00  0.00     0.047 A 
BRANCH  15  18
ATOM     18  O   UNL     1      44.761  16.460  20.119  1.00  0.00    -0.508 OA
ATOM     19  H   UNL     1      44.529  16.218  19.163  1.00  0.00     0.293 HD
ENDBRANCH  15  18
ENDBRANCH   1  12
BRANCH   2  20
ATOM     20  O   UNL     1      41.488  16.765  25.425  1.00  0.00    -0.502 OA
ATOM     21  H   UNL     1      41.136  17.425  26.109  1.00  0.00     0.293 HD
ENDBRANCH   2  20
BRANCH   6  22
ATOM     22  O   UNL     1      38.767  13.656  28.584  1.00  0.00    -0.507 OA
ATOM     23  H   UNL     1      38.175  13.240  29.294  1.00  0.00     0.293 HD
ENDBRANCH   6  22
BRANCH   8  24
ATOM     24  O   UNL     1      39.459   9.340  26.540  1.00  0.00    -0.508 OA
ATOM     25  H   UNL     1      39.956   8.725  27.174  1.00  0.00     0.293 HD
ENDBRANCH   8  24
TORSDOF 5
ENDMDL
MODEL 5
REMARK VINA RESULT:    -5.715      1.674      3.407
REMARK INTER + INTRA:          -6.679
REMARK INTER:                  -6.442
REMARK INTRA:                  -0.237
REMARK UNBOUND:                 0.038
REMARK SMILES O=c1c(O)c(-c2ccc(O)cc2)oc2cc(O)cc(O)c12
REMARK SMILES IDX 5 1 3 2 2 3 1 4 21 5 19 6 18 7 16 8 15 9 14 10 13 11 6 12
REMARK SMILES IDX 7 13 8 14 9 15 12 16 11 17 10 18 4 20 20 22 17 24
REMARK H PARENT 10 19 4 21 20 23 17 25
REMARK Flexibility Score: inf
ROOT
ATOM      1  C   UNL     1      39.810  12.104  25.998  1.00  0.00     0.180 A 
ATOM      2  C   UNL     1      39.551  13.092  26.967  1.00  0.00     0.208 A 
ATOM      3  C   UNL     1      38.479  12.907  27.855  1.00  0.00     0.238 A 
ATOM      4  O   UNL     1      38.230  13.791  28.720  1.00  0.00    -0.285 OA
ATOM      5  C   UNL     1      37.702  11.734  27.773  1.00  0.00     0.111 A 
ATOM      6  C   UNL     1      36.607  11.469  28.632  1.00  0.00     0.134 A 
ATOM      7  C   UNL     1      35.888  10.273  28.493  1.00  0.00     0.093 A 
ATOM      8  C   UNL     1      36.240   9.339  27.516  1.00  0.00     0.123 A 
ATOM      9  C   UNL     1      37.319   9.595  26.664  1.00  0.00     0.094 A 
ATOM     10  C   UNL     1      38.047  10.782  26.786  1.00  0.00     0.146 A 
ATOM     11  O   UNL     1      39.065  11.003  25.961  1.00  0.00    -0.452 OA
ENDROOT
BRANCH   1  12
ATOM     12  C   UNL     1      40.909  12.235  25.015  1.00  0.00     0.021 A 
ATOM     13  C   UNL     1      40.821  13.126  23.930  1.00  0.00     0.016 A 
ATOM     14  C   UNL     1      41.861  13.215  23.001  1.00  0.00     0.047 A 
ATOM     15  C   UNL     1      42.997  12.406  23.136  1.00  0.00     0.115 A 
ATOM     16  C   UNL     1      42.042  11.412  25.130  1.00  0.00     0.016 A 
ATOM     17  C   UNL     1      43.083  11.504  24.200  1.00  0.00     0.047 A 
BRANCH  15  18
ATOM     18  O   UNL     1      44.040  12.487  22.216  1.00  0.00    -0.508 OA
ATOM     19  H   UNL     1      44.844  11.872  22.271  1.00  0.00     0.293 HD
ENDBRANCH  15  18
ENDBRANCH   1  12
BRANCH   2  20
ATOM     20  O   UNL     1      40.367  14.222  27.059  1.00  0.00    -0.502 OA
ATOM     21  H   UNL     1      40.190  14.967  27.722  1.00  0.00     0.293 HD
ENDBRANCH   2  20
BRANCH   6  22
ATOM     22  O   UNL     1      36.232  12.381  29.619  1.00  0.00    -0.507 OA
ATOM     23  H   UNL     1      35.692  13.211  29.400  1.00  0.00     0.293 HD
ENDBRANCH   6  22
BRANCH   8  24
ATOM     24  O   UNL     1      35.509   8.158  27.400  1.00  0.00    -0.508 OA
ATOM     25  H   UNL     1      34.681   8.103  26.820  1.00  0.00     0.293 HD
ENDBRANCH   8  24
TORSDOF 5
ENDMDL
MODEL 6
REMARK VINA RESULT:    -5.683      2.701      4.067
REMARK INTER + INTRA:          -6.641
REMARK INTER:                  -6.444
REMARK INTRA:                  -0.197
REMARK UNBOUND:                 0.038
REMARK SMILES O=c1c(O)c(-c2ccc(O)cc2)oc2cc(O)cc(O)c12
REMARK SMILES IDX 5 1 3 2 2 3 1 4 21 5 19 6 18 7 16 8 15 9 14 10 13 11 6 12
REMARK SMILES IDX 7 13 8 14 9 15 12 16 11 17 10 18 4 20 20 22 17 24
REMARK H PARENT 10 19 4 21 20 23 17 25
REMARK Flexibility Score: inf
ROOT
ATOM      1  C   UNL     1      38.017  12.519  28.314  1.00  0.00     0.180 A 
ATOM      2  C   UNL     1      38.451  11.506  27.437  1.00  0.00     0.208 A 
ATOM      3  C   UNL     1      37.634  10.381  27.244  1.00  0.00     0.238 A 
ATOM      4  O   UNL     1      38.018   9.462  26.469  1.00  0.00    -0.285 OA
ATOM      5  C   UNL     1      36.396  10.296  27.911  1.00  0.00     0.111 A 
ATOM      6  C   UNL     1      35.513   9.197  27.768  1.00  0.00     0.134 A 
ATOM      7  C   UNL     1      34.293   9.192  28.460  1.00  0.00     0.093 A 
ATOM      8  C   UNL     1      33.938  10.259  29.288  1.00  0.00     0.123 A 
ATOM      9  C   UNL     1      34.806  11.346  29.435  1.00  0.00     0.094 A 
ATOM     10  C   UNL     1      36.027  11.370  28.754  1.00  0.00     0.146 A 
ATOM     11  O   UNL     1      36.835  12.412  28.914  1.00  0.00    -0.452 OA
ENDROOT
BRANCH   1  12
ATOM     12  C   UNL     1      38.829  13.728  28.585  1.00  0.00     0.021 A 
ATOM     13  C   UNL     1      40.038  13.654  29.301  1.00  0.00     0.016 A 
ATOM     14  C   UNL     1      40.775  14.811  29.565  1.00  0.00     0.047 A 
ATOM     15  C   UNL     1      40.309  16.059  29.128  1.00  0.00     0.115 A 
ATOM     16  C   UNL     1      38.359  14.984  28.169  1.00  0.00     0.016 A 
ATOM     17  C   UNL     1      39.099  16.141  28.433  1.00  0.00     0.047 A 
BRANCH  15  18
ATOM     18  O   UNL     1      41.036  17.218  29.385  1.00  0.00    -0.508 OA
ATOM     19  H   UNL     1      41.562  17.686  28.656  1.00  0.00     0.293 HD
ENDBRANCH  15  18
ENDBRANCH   1  12
BRANCH   2  20
ATOM     20  O   UNL     1      39.660  11.638  26.750  1.00  0.00    -0.502 OA
ATOM     21  H   UNL     1      39.980  12.526  26.380  1.00  0.00     0.293 HD
ENDBRANCH   2  20
BRANCH   6  22
ATOM     22  O   UNL     1      35.838   8.117  26.947  1.00  0.00    -0.507 OA
ATOM     23  H   UNL     1      36.746   8.040  26.503  1.00  0.00     0.293 HD
ENDBRANCH   6  22
BRANCH   8  24
ATOM     24  O   UNL     1      32.719  10.229  29.963  1.00  0.00    -0.508 OA
ATOM     25  H   UNL     1      32.621  10.612  30.895  1.00  0.00     0.293 HD
ENDBRANCH   8  24
TORSDOF 5
ENDMDL
MODEL 7
REMARK VINA RESULT:    -5.615      8.051      9.344
REMARK INTER + INTRA:          -6.561
REMARK INTER:                  -6.350
REMARK INTRA:                  -0.211
REMARK UNBOUND:                 0.038
REMARK SMILES O=c1c(O)c(-c2ccc(O)cc2)oc2cc(O)cc(O)c12
REMARK SMILES IDX 5 1 3 2 2 3 1 4 21 5 19 6 18 7 16 8 15 9 14 10 13 11 6 12
REMARK SMILES IDX 7 13 8 14 9 15 12 16 11 17 10 18 4 20 20 22 17 24
REMARK H PARENT 10 19 4 21 20 23 17 25
REMARK Flexibility Score: inf
ROOT
ATOM      1  C   UNL     1      45.091  12.016  23.147  1.00  0.00     0.180 A 
ATOM      2  C   UNL     1      45.244  12.198  24.536  1.00  0.00     0.208 A 
ATOM      3  C   UNL     1      45.532  13.482  25.023  1.00  0.00     0.238 A 
ATOM      4  O   UNL     1      45.683  13.655  26.264  1.00  0.00    -0.285 OA
ATOM      5  C   UNL     1      45.642  14.561  24.123  1.00  0.00     0.111 A 
ATOM      6  C   UNL     1      45.927  15.887  24.534  1.00  0.00     0.134 A 
ATOM      7  C   UNL     1      46.010  16.908  23.577  1.00  0.00     0.093 A 
ATOM      8  C   UNL     1      45.815  16.633  22.221  1.00  0.00     0.123 A 
ATOM      9  C   UNL     1      45.535  15.326  21.809  1.00  0.00     0.094 A 
ATOM     10  C   UNL     1      45.448  14.294  22.748  1.00  0.00     0.146 A 
ATOM     11  O   UNL     1      45.186  13.060  22.330  1.00  0.00    -0.452 OA
ENDROOT
BRANCH   1  12
ATOM     12  C   UNL     1      44.805  10.690  22.554  1.00  0.00     0.021 A 
ATOM     13  C   UNL     1      45.775   9.671  22.532  1.00  0.00     0.016 A 
ATOM     14  C   UNL     1      45.490   8.435  21.945  1.00  0.00     0.047 A 
ATOM     15  C   UNL     1      44.237   8.205  21.360  1.00  0.00     0.115 A 
ATOM     16  C   UNL     1      43.559  10.458  21.946  1.00  0.00     0.016 A 
ATOM     17  C   UNL     1      43.276   9.220  21.361  1.00  0.00     0.047 A 
BRANCH  15  18
ATOM     18  O   UNL     1      43.942   6.978  20.773  1.00  0.00    -0.508 OA
ATOM     19  H   UNL     1      44.046   6.108  21.282  1.00  0.00     0.293 HD
ENDBRANCH  15  18
ENDBRANCH   1  12
BRANCH   2  20
ATOM     20  O   UNL     1      45.081  11.121  25.410  1.00  0.00    -0.502 OA
ATOM     21  H   UNL     1      44.245  10.998  25.970  1.00  0.00     0.293 HD
ENDBRANCH   2  20
BRANCH   6  22
ATOM     22  O   UNL     1      46.125  16.194  25.880  1.00  0.00    -0.507 OA
ATOM     23  H   UNL     1      46.080  15.482  26.602  1.00  0.00     0.293 HD
ENDBRANCH   6  22
BRANCH   8  24
ATOM     24  O   UNL     1      45.903  17.667  21.291  1.00  0.00    -0.508 OA
ATOM     25  H   UNL     1      46.712  17.772  20.692  1.00  0.00     0.293 HD
ENDBRANCH   8  24
TORSDOF 5
ENDMDL
MODEL 8
REMARK VINA RESULT:    -5.601      1.368      3.171
REMARK INTER + INTRA:          -6.545
REMARK INTER:                  -6.416
REMARK INTRA:                  -0.129
REMARK UNBOUND:                 0.038
REMARK SMILES O=c1c(O)c(-c2ccc(O)cc2)oc2cc(O)cc(O)c12
REMARK SMILES IDX 5 1 3 2 2 3 1 4 21 5 19 6 18 7 16 8 15 9 14 10 13 11 6 12
REMARK SMILES IDX 7 13 8 14 9 15 12 16 11 17 10 18 4 20 20 22 17 24
REMARK H PARENT 10 19 4 21 20 23 17 25
REMARK Flexibility Score: inf
ROOT
ATOM      1  C   UNL     1      38.613  12.341  27.463  1.00  0.00     0.180 A 
ATOM      2  C   UNL     1      38.396  13.692  27.793  1.00  0.00     0.208 A 
ATOM      3  C   UNL     1      37.197  14.051  28.430  1.00  0.00     0.238 A 
ATOM      4  O   UNL     1      36.986  15.260  28.720  1.00  0.00    -0.285 OA
ATOM      5  C   UNL     1      36.250  13.055  28.742  1.00  0.00     0.111 A 
ATOM      6  C   UNL     1      35.019  13.332  29.386  1.00  0.00     0.134 A 
ATOM      7  C   UNL     1      34.133  12.283  29.672  1.00  0.00     0.093 A 
ATOM      8  C   UNL     1      34.451  10.967  29.329  1.00  0.00     0.123 A 
ATOM      9  C   UNL     1      35.664  10.687  28.691  1.00  0.00     0.094 A 
ATOM     10  C   UNL     1      36.561  11.719  28.397  1.00  0.00     0.146 A 
ATOM     11  O   UNL     1      37.704  11.427  27.787  1.00  0.00    -0.452 OA
ENDROOT
BRANCH   1  12
ATOM     12  C   UNL     1      39.843  11.886  26.774  1.00  0.00     0.021 A 
ATOM     13  C   UNL     1      40.180  12.354  25.490  1.00  0.00     0.016 A 
ATOM     14  C   UNL     1      41.334  11.893  24.850  1.00  0.00     0.047 A 
ATOM     15  C   UNL     1      42.158  10.949  25.477  1.00  0.00     0.115 A 
ATOM     16  C   UNL     1      40.664  10.925  27.386  1.00  0.00     0.016 A 
ATOM     17  C   UNL     1      41.818  10.466  26.744  1.00  0.00     0.047 A 
BRANCH  15  18
ATOM     18  O   UNL     1      43.311  10.484  24.849  1.00  0.00    -0.508 OA
ATOM     19  H   UNL     1      43.795   9.656  25.176  1.00  0.00     0.293 HD
ENDBRANCH  15  18
ENDBRANCH   1  12
BRANCH   2  20
ATOM     20  O   UNL     1      39.373  14.652  27.517  1.00  0.00    -0.502 OA
ATOM     21  H   UNL     1      40.255  14.417  27.078  1.00  0.00     0.293 HD
ENDBRANCH   2  20
BRANCH   6  22
ATOM     22  O   UNL     1      34.673  14.635  29.743  1.00  0.00    -0.507 OA
ATOM     23  H   UNL     1      33.924  15.135  29.277  1.00  0.00     0.293 HD
ENDBRANCH   6  22
BRANCH   8  24
ATOM     24  O   UNL     1      33.553   9.944  29.624  1.00  0.00    -0.508 OA
ATOM     25  H   UNL     1      33.808   8.969  29.522  1.00  0.00     0.293 HD
ENDBRANCH   8  24
TORSDOF 5
ENDMDL
MODEL 9
REMARK VINA RESULT:    -5.503      6.760      9.362
REMARK INTER + INTRA:          -6.430
REMARK INTER:                  -6.140
REMARK INTRA:                  -0.290
REMARK UNBOUND:                 0.038
REMARK SMILES O=c1c(O)c(-c2ccc(O)cc2)oc2cc(O)cc(O)c12
REMARK SMILES IDX 5 1 3 2 2 3 1 4 21 5 19 6 18 7 16 8 15 9 14 10 13 11 6 12
REMARK SMILES IDX 7 13 8 14 9 15 12 16 11 17 10 18 4 20 20 22 17 24
REMARK H PARENT 10 19 4 21 20 23 17 25
REMARK Flexibility Score: inf
ROOT
ATOM      1  C   UNL     1      44.915  12.963  23.733  1.00  0.00     0.180 A 
ATOM      2  C   UNL     1      45.061  13.167  22.347  1.00  0.00     0.208 A 
ATOM      3  C   UNL     1      45.301  14.467  21.875  1.00  0.00     0.238 A 
ATOM      4  O   UNL     1      45.422  14.664  20.634  1.00  0.00    -0.285 OA
ATOM      5  C   UNL     1      45.410  15.532  22.791  1.00  0.00     0.111 A 
ATOM      6  C   UNL     1      45.654  16.871  22.398  1.00  0.00     0.134 A 
ATOM      7  C   UNL     1      45.759  17.874  23.372  1.00  0.00     0.093 A 
ATOM      8  C   UNL     1      45.626  17.567  24.728  1.00  0.00     0.123 A 
ATOM      9  C   UNL     1      45.384  16.248  25.124  1.00  0.00     0.094 A 
ATOM     10  C   UNL     1      45.275  15.234  24.167  1.00  0.00     0.146 A 
ATOM     11  O   UNL     1      45.040  13.989  24.569  1.00  0.00    -0.452 OA
ENDROOT
BRANCH   1  12
ATOM     12  C   UNL     1      44.642  11.626  24.307  1.00  0.00     0.021 A 
ATOM     13  C   UNL     1      45.687  10.757  24.671  1.00  0.00     0.016 A 
ATOM     14  C   UNL     1      45.405   9.489  25.189  1.00  0.00     0.047 A 
ATOM     15  C   UNL     1      44.077   9.069  25.338  1.00  0.00     0.115 A 
ATOM     16  C   UNL     1      43.314  11.188  24.440  1.00  0.00     0.016 A 
ATOM     17  C   UNL     1      43.034   9.920  24.959  1.00  0.00     0.047 A 
BRANCH  15  18
ATOM     18  O   UNL     1      43.784   7.809  25.853  1.00  0.00    -0.508 OA
ATOM     19  H   UNL     1      44.409   7.023  25.719  1.00  0.00     0.293 HD
ENDBRANCH  15  18
ENDBRANCH   1  12
BRANCH   2  20
ATOM     20  O   UNL     1      44.998  12.087  21.464  1.00  0.00    -0.502 OA
ATOM     21  H   UNL     1      45.828  11.629  21.106  1.00  0.00     0.293 HD
ENDBRANCH   2  20
BRANCH   6  22
ATOM     22  O   UNL     1      45.793  17.209  21.051  1.00  0.00    -0.507 OA
ATOM     23  H   UNL     1      46.408  17.957  20.750  1.00  0.00     0.293 HD
ENDBRANCH   6  22
BRANCH   8  24
ATOM     24  O   UNL     1      45.735  18.583  25.676  1.00  0.00    -0.508 OA
ATOM     25  H   UNL     1      46.221  18.438  26.553  1.00  0.00     0.293 HD
ENDBRANCH   8  24
TORSDOF 5
ENDMDL
