MODEL 1
REMARK VINA RESULT:    -3.999      0.000      0.000
REMARK INTER + INTRA:         -13.230
REMARK INTER:                 -10.077
REMARK INTRA:                  -3.153
REMARK UNBOUND:                -3.153
REMARK SMILES CCCCCCCCCCCCCCCCCCCCCCCCCCCC(=O)[O-]
REMARK SMILES IDX 15 1 16 2 17 3 18 4 19 5 20 6 21 7 22 8 23 9 24 10 25 11
REMARK SMILES IDX 26 12 27 13 28 14 29 15 30 16 14 17 13 18 12 19 11 20 10 21
REMARK SMILES IDX 9 22 8 23 7 24 6 25 5 26 4 27 3 28 2 29 1 30
REMARK H PARENT
REMARK Flexibility Score: inf
ROOT
ATOM      1  C   UNL     1      -9.144 -12.822  -2.341  1.00  0.00     0.000 C 
ENDROOT
BRANCH   1   2
ATOM      2  C   UNL     1     -10.223 -13.815  -1.878  1.00  0.00     0.000 C 
BRANCH   2   3
ATOM      3  C   UNL     1     -11.620 -13.175  -1.805  1.00  0.00     0.000 C 
BRANCH   3   4
ATOM      4  C   UNL     1     -12.000 -12.741  -0.379  1.00  0.00     0.000 C 
BRANCH   4   5
ATOM      5  C   UNL     1     -13.198 -11.764  -0.358  1.00  0.00     0.000 C 
BRANCH   5   6
ATOM      6  C   UNL     1     -14.563 -12.473  -0.322  1.00  0.00     0.000 C 
BRANCH   6   7
ATOM      7  C   UNL     1     -14.669 -13.586   0.736  1.00  0.00     0.000 C 
BRANCH   7   8
ATOM      8  C   UNL     1     -14.857 -13.053   2.175  1.00  0.00     0.000 C 
BRANCH   8   9
ATOM      9  C   UNL     1     -13.731 -13.497   3.125  1.00  0.00     0.000 C 
BRANCH   9  10
ATOM     10  C   UNL     1     -12.669 -12.403   3.333  1.00  0.00     0.000 C 
BRANCH  10  11
ATOM     11  C   UNL     1     -13.268 -10.989   3.331  1.00  0.00     0.000 C 
BRANCH  11  12
ATOM     12  C   UNL     1     -12.457 -10.048   4.235  1.00  0.00     0.006 C 
BRANCH  12  13
ATOM     13  C   UNL     1     -13.168  -9.759   5.564  1.00  0.00     0.053 C 
BRANCH  13  14
ATOM     14  C   UNL     1     -12.239  -9.890   6.733  1.00  0.00     0.041 C 
ATOM     15  O   UNL     1     -11.332 -10.762   6.724  1.00  0.00    -0.550 OA
ATOM     16  O   UNL     1     -12.395  -9.067   7.841  1.00  0.00    -0.550 OA
ENDBRANCH  13  14
ENDBRANCH  12  13
ENDBRANCH  11  12
ENDBRANCH  10  11
ENDBRANCH   9  10
ENDBRANCH   8   9
ENDBRANCH   7   8
ENDBRANCH   6   7
ENDBRANCH   5   6
ENDBRANCH   4   5
ENDBRANCH   3   4
ENDBRANCH   2   3
ENDBRANCH   1   2
BRANCH   1  17
ATOM     17  C   UNL     1      -8.167 -13.446  -3.360  1.00  0.00     0.000 C 
BRANCH  17  18
ATOM     18  C   UNL     1      -6.834 -12.685  -3.492  1.00  0.00     0.000 C 
BRANCH  18  19
ATOM     19  C   UNL     1      -5.699 -13.469  -4.181  1.00  0.00     0.000 C 
BRANCH  19  20
ATOM     20  C   UNL     1      -5.271 -12.921  -5.556  1.00  0.00     0.000 C 
BRANCH  20  21
ATOM     21  C   UNL     1      -6.189 -11.828  -6.136  1.00  0.00     0.000 C 
BRANCH  21  22
ATOM     22  C   UNL     1      -7.037 -12.295  -7.341  1.00  0.00    -0.000 C 
BRANCH  22  23
ATOM     23  C   UNL     1      -7.798 -13.613  -7.110  1.00  0.00    -0.000 C 
BRANCH  23  24
ATOM     24  C   UNL     1      -9.265 -13.390  -6.709  1.00  0.00    -0.000 C 
BRANCH  24  25
ATOM     25  C   UNL     1      -9.910 -12.296  -7.573  1.00  0.00    -0.000 C 
BRANCH  25  26
ATOM     26  C   UNL     1     -11.292 -11.857  -7.057  1.00  0.00    -0.000 C 
BRANCH  26  27
ATOM     27  C   UNL     1     -11.625 -12.315  -5.625  1.00  0.00    -0.000 C 
BRANCH  27  28
ATOM     28  C   UNL     1     -12.958 -13.075  -5.535  1.00  0.00    -0.000 C 
BRANCH  28  29
ATOM     29  C   UNL     1     -14.124 -12.167  -5.117  1.00  0.00    -0.003 C 
ATOM     30  C   UNL     1     -13.773 -11.259  -3.939  1.00  0.00     0.004 C 
ENDBRANCH  28  29
ENDBRANCH  27  28
ENDBRANCH  26  27
ENDBRANCH  25  26
ENDBRANCH  24  25
ENDBRANCH  23  24
ENDBRANCH  22  23
ENDBRANCH  21  22
ENDBRANCH  20  21
ENDBRANCH  19  20
ENDBRANCH  18  19
ENDBRANCH  17  18
ENDBRANCH   1  17
TORSDOF 26
ENDMDL
MODEL 2
REMARK VINA RESULT:    -3.921      1.136      3.811
REMARK INTER + INTRA:         -13.033
REMARK INTER:                 -10.170
REMARK INTRA:                  -2.863
REMARK UNBOUND:                -3.153
REMARK SMILES CCCCCCCCCCCCCCCCCCCCCCCCCCCC(=O)[O-]
REMARK SMILES IDX 15 1 16 2 17 3 18 4 19 5 20 6 21 7 22 8 23 9 24 10 25 11
REMARK SMILES IDX 26 12 27 13 28 14 29 15 30 16 14 17 13 18 12 19 11 20 10 21
REMARK SMILES IDX 9 22 8 23 7 24 6 25 5 26 4 27 3 28 2 29 1 30
REMARK H PARENT
REMARK Flexibility Score: inf
ROOT
ATOM      1  C   UNL     1     -12.776 -11.875  -6.702  1.00  0.00     0.000 C 
ENDROOT
BRANCH   1   2
ATOM      2  C   UNL     1     -12.297 -12.027  -5.249  1.00  0.00     0.000 C 
BRANCH   2   3
ATOM      3  C   UNL     1     -12.830 -13.308  -4.584  1.00  0.00     0.000 C 
BRANCH   3   4
ATOM      4  C   UNL     1     -13.810 -13.016  -3.436  1.00  0.00     0.000 C 
BRANCH   4   5
ATOM      5  C   UNL     1     -13.581 -11.625  -2.803  1.00  0.00     0.000 C 
BRANCH   5   6
ATOM      6  C   UNL     1     -13.844 -11.592  -1.287  1.00  0.00     0.000 C 
BRANCH   6   7
ATOM      7  C   UNL     1     -12.629 -11.988  -0.428  1.00  0.00     0.000 C 
BRANCH   7   8
ATOM      8  C   UNL     1     -13.011 -12.694   0.893  1.00  0.00     0.000 C 
BRANCH   8   9
ATOM      9  C   UNL     1     -14.413 -12.305   1.392  1.00  0.00     0.000 C 
BRANCH   9  10
ATOM     10  C   UNL     1     -14.381 -11.616   2.767  1.00  0.00     0.000 C 
BRANCH  10  11
ATOM     11  C   UNL     1     -12.952 -11.303   3.237  1.00  0.00     0.000 C 
BRANCH  11  12
ATOM     12  C   UNL     1     -12.939 -10.093   4.184  1.00  0.00     0.006 C 
BRANCH  12  13
ATOM     13  C   UNL     1     -11.634  -9.993   4.985  1.00  0.00     0.053 C 
BRANCH  13  14
ATOM     14  C   UNL     1     -11.874 -10.118   6.459  1.00  0.00     0.041 C 
ATOM     15  O   UNL     1     -11.327 -11.045   7.112  1.00  0.00    -0.550 OA
ATOM     16  O   UNL     1     -12.722  -9.227   7.104  1.00  0.00    -0.550 OA
ENDBRANCH  13  14
ENDBRANCH  12  13
ENDBRANCH  11  12
ENDBRANCH  10  11
ENDBRANCH   9  10
ENDBRANCH   8   9
ENDBRANCH   7   8
ENDBRANCH   6   7
ENDBRANCH   5   6
ENDBRANCH   4   5
ENDBRANCH   3   4
ENDBRANCH   2   3
ENDBRANCH   1   2
BRANCH   1  17
ATOM     17  C   UNL     1     -11.776 -12.468  -7.719  1.00  0.00     0.000 C 
BRANCH  17  18
ATOM     18  C   UNL     1     -10.320 -12.498  -7.216  1.00  0.00     0.000 C 
BRANCH  18  19
ATOM     19  C   UNL     1      -9.313 -11.716  -8.081  1.00  0.00     0.000 C 
BRANCH  19  20
ATOM     20  C   UNL     1      -7.833 -12.056  -7.824  1.00  0.00     0.000 C 
BRANCH  20  21
ATOM     21  C   UNL     1      -7.461 -13.538  -8.019  1.00  0.00     0.000 C 
BRANCH  21  22
ATOM     22  C   UNL     1      -5.955 -13.779  -8.272  1.00  0.00    -0.000 C 
BRANCH  22  23
ATOM     23  C   UNL     1      -5.023 -12.798  -7.538  1.00  0.00    -0.000 C 
BRANCH  23  24
ATOM     24  C   UNL     1      -4.151 -13.487  -6.476  1.00  0.00    -0.000 C 
BRANCH  24  25
ATOM     25  C   UNL     1      -4.908 -13.619  -5.146  1.00  0.00    -0.000 C 
BRANCH  25  26
ATOM     26  C   UNL     1      -5.808 -12.408  -4.841  1.00  0.00    -0.000 C 
BRANCH  26  27
ATOM     27  C   UNL     1      -6.794 -12.611  -3.677  1.00  0.00    -0.000 C 
BRANCH  27  28
ATOM     28  C   UNL     1      -7.715 -13.825  -3.878  1.00  0.00    -0.000 C 
BRANCH  28  29
ATOM     29  C   UNL     1      -9.203 -13.460  -3.754  1.00  0.00    -0.003 C 
ATOM     30  C   UNL     1      -9.619 -13.159  -2.315  1.00  0.00     0.004 C 
ENDBRANCH  28  29
ENDBRANCH  27  28
ENDBRANCH  26  27
ENDBRANCH  25  26
ENDBRANCH  24  25
ENDBRANCH  23  24
ENDBRANCH  22  23
ENDBRANCH  21  22
ENDBRANCH  20  21
ENDBRANCH  19  20
ENDBRANCH  18  19
ENDBRANCH  17  18
ENDBRANCH   1  17
TORSDOF 26
ENDMDL
MODEL 3
REMARK VINA RESULT:    -3.694      3.613     11.008
REMARK INTER + INTRA:         -12.461
REMARK INTER:                  -9.938
REMARK INTRA:                  -2.522
REMARK UNBOUND:                -3.153
REMARK SMILES CCCCCCCCCCCCCCCCCCCCCCCCCCCC(=O)[O-]
REMARK SMILES IDX 15 1 16 2 17 3 18 4 19 5 20 6 21 7 22 8 23 9 24 10 25 11
REMARK SMILES IDX 26 12 27 13 28 14 29 15 30 16 14 17 13 18 12 19 11 20 10 21
REMARK SMILES IDX 9 22 8 23 7 24 6 25 5 26 4 27 3 28 2 29 1 30
REMARK H PARENT
REMARK Flexibility Score: inf
ROOT
ATOM      1  C   UNL     1      -8.746 -12.618  -2.387  1.00  0.00     0.000 C 
ENDROOT
BRANCH   1   2
ATOM      2  C   UNL     1      -8.109 -13.472  -3.497  1.00  0.00     0.000 C 
BRANCH   2   3
ATOM      3  C   UNL     1      -6.726 -12.947  -3.921  1.00  0.00     0.000 C 
BRANCH   3   4
ATOM      4  C   UNL     1      -5.713 -14.078  -4.168  1.00  0.00     0.000 C 
BRANCH   4   5
ATOM      5  C   UNL     1      -4.751 -13.764  -5.336  1.00  0.00     0.000 C 
BRANCH   5   6
ATOM      6  C   UNL     1      -5.106 -12.470  -6.090  1.00  0.00     0.000 C 
BRANCH   6   7
ATOM      7  C   UNL     1      -5.127 -12.618  -7.622  1.00  0.00     0.000 C 
BRANCH   7   8
ATOM      8  C   UNL     1      -6.296 -13.484  -8.142  1.00  0.00     0.000 C 
BRANCH   8   9
ATOM      9  C   UNL     1      -7.345 -12.665  -8.916  1.00  0.00     0.000 C 
BRANCH   9  10
ATOM     10  C   UNL     1      -8.305 -11.906  -7.984  1.00  0.00     0.000 C 
BRANCH  10  11
ATOM     11  C   UNL     1      -8.922 -12.811  -6.906  1.00  0.00     0.000 C 
BRANCH  11  12
ATOM     12  C   UNL     1     -10.274 -13.374  -7.370  1.00  0.00     0.006 C 
BRANCH  12  13
ATOM     13  C   UNL     1     -11.347 -13.289  -6.276  1.00  0.00     0.053 C 
BRANCH  13  14
ATOM     14  C   UNL     1     -12.058 -11.970  -6.294  1.00  0.00     0.041 C 
ATOM     15  O   UNL     1     -12.778 -11.627  -5.320  1.00  0.00    -0.550 OA
ATOM     16  O   UNL     1     -11.945 -11.134  -7.397  1.00  0.00    -0.550 OA
ENDBRANCH  13  14
ENDBRANCH  12  13
ENDBRANCH  11  12
ENDBRANCH  10  11
ENDBRANCH   9  10
ENDBRANCH   8   9
ENDBRANCH   7   8
ENDBRANCH   6   7
ENDBRANCH   5   6
ENDBRANCH   4   5
ENDBRANCH   3   4
ENDBRANCH   2   3
ENDBRANCH   1   2
BRANCH   1  17
ATOM     17  C   UNL     1      -9.966 -13.309  -1.739  1.00  0.00     0.000 C 
BRANCH  17  18
ATOM     18  C   UNL     1     -11.269 -13.162  -2.547  1.00  0.00     0.000 C 
BRANCH  18  19
ATOM     19  C   UNL     1     -12.504 -12.744  -1.727  1.00  0.00     0.000 C 
BRANCH  19  20
ATOM     20  C   UNL     1     -12.259 -12.590  -0.214  1.00  0.00     0.000 C 
BRANCH  20  21
ATOM     21  C   UNL     1     -13.199 -11.601   0.501  1.00  0.00     0.000 C 
BRANCH  21  22
ATOM     22  C   UNL     1     -13.460 -11.945   1.986  1.00  0.00    -0.000 C 
BRANCH  22  23
ATOM     23  C   UNL     1     -14.571 -11.108   2.645  1.00  0.00    -0.000 C 
BRANCH  23  24
ATOM     24  C   UNL     1     -14.295 -10.816   4.129  1.00  0.00    -0.000 C 
BRANCH  24  25
ATOM     25  C   UNL     1     -12.938 -10.120   4.309  1.00  0.00    -0.000 C 
BRANCH  25  26
ATOM     26  C   UNL     1     -12.163 -10.618   5.542  1.00  0.00    -0.000 C 
BRANCH  26  27
ATOM     27  C   UNL     1     -11.751  -9.517   6.536  1.00  0.00    -0.000 C 
BRANCH  27  28
ATOM     28  C   UNL     1     -12.542  -9.575   7.853  1.00  0.00    -0.000 C 
BRANCH  28  29
ATOM     29  C   UNL     1     -13.900  -8.862   7.753  1.00  0.00    -0.003 C 
ATOM     30  C   UNL     1     -15.072  -9.836   7.636  1.00  0.00     0.004 C 
ENDBRANCH  28  29
ENDBRANCH  27  28
ENDBRANCH  26  27
ENDBRANCH  25  26
ENDBRANCH  24  25
ENDBRANCH  23  24
ENDBRANCH  22  23
ENDBRANCH  21  22
ENDBRANCH  20  21
ENDBRANCH  19  20
ENDBRANCH  18  19
ENDBRANCH  17  18
ENDBRANCH   1  17
TORSDOF 26
ENDMDL
MODEL 4
REMARK VINA RESULT:    -3.686      1.191      3.814
REMARK INTER + INTRA:         -12.442
REMARK INTER:                 -10.255
REMARK INTRA:                  -2.187
REMARK UNBOUND:                -3.153
REMARK SMILES CCCCCCCCCCCCCCCCCCCCCCCCCCCC(=O)[O-]
REMARK SMILES IDX 15 1 16 2 17 3 18 4 19 5 20 6 21 7 22 8 23 9 24 10 25 11
REMARK SMILES IDX 26 12 27 13 28 14 29 15 30 16 14 17 13 18 12 19 11 20 10 21
REMARK SMILES IDX 9 22 8 23 7 24 6 25 5 26 4 27 3 28 2 29 1 30
REMARK H PARENT
REMARK Flexibility Score: inf
ROOT
ATOM      1  C   UNL     1     -13.135 -12.640  -3.811  1.00  0.00     0.000 C 
ENDROOT
BRANCH   1   2
ATOM      2  C   UNL     1     -13.744 -11.499  -2.977  1.00  0.00     0.000 C 
BRANCH   2   3
ATOM      3  C   UNL     1     -14.190 -11.964  -1.581  1.00  0.00     0.000 C 
BRANCH   3   4
ATOM      4  C   UNL     1     -13.221 -11.523  -0.471  1.00  0.00     0.000 C 
BRANCH   4   5
ATOM      5  C   UNL     1     -12.847 -12.682   0.481  1.00  0.00     0.000 C 
BRANCH   5   6
ATOM      6  C   UNL     1     -13.955 -13.022   1.494  1.00  0.00     0.000 C 
BRANCH   6   7
ATOM      7  C   UNL     1     -13.445 -13.276   2.925  1.00  0.00     0.000 C 
BRANCH   7   8
ATOM      8  C   UNL     1     -12.677 -12.078   3.528  1.00  0.00     0.000 C 
BRANCH   8   9
ATOM      9  C   UNL     1     -13.442 -10.750   3.387  1.00  0.00     0.000 C 
BRANCH   9  10
ATOM     10  C   UNL     1     -13.124  -9.763   4.523  1.00  0.00     0.000 C 
BRANCH  10  11
ATOM     11  C   UNL     1     -11.772 -10.050   5.196  1.00  0.00     0.000 C 
BRANCH  11  12
ATOM     12  C   UNL     1     -11.752  -9.521   6.638  1.00  0.00     0.006 C 
BRANCH  12  13
ATOM     13  C   UNL     1     -12.346 -10.524   7.636  1.00  0.00     0.053 C 
BRANCH  13  14
ATOM     14  C   UNL     1     -11.723 -10.395   8.992  1.00  0.00     0.041 C 
ATOM     15  O   UNL     1     -10.569 -10.851   9.204  1.00  0.00    -0.550 OA
ATOM     16  O   UNL     1     -12.428  -9.796  10.028  1.00  0.00    -0.550 OA
ENDBRANCH  13  14
ENDBRANCH  12  13
ENDBRANCH  11  12
ENDBRANCH  10  11
ENDBRANCH   9  10
ENDBRANCH   8   9
ENDBRANCH   7   8
ENDBRANCH   6   7
ENDBRANCH   5   6
ENDBRANCH   4   5
ENDBRANCH   3   4
ENDBRANCH   2   3
ENDBRANCH   1   2
BRANCH   1  17
ATOM     17  C   UNL     1     -13.283 -12.404  -5.330  1.00  0.00     0.000 C 
BRANCH  17  18
ATOM     18  C   UNL     1     -11.994 -11.908  -6.012  1.00  0.00     0.000 C 
BRANCH  18  19
ATOM     19  C   UNL     1     -11.118 -13.012  -6.637  1.00  0.00     0.000 C 
BRANCH  19  20
ATOM     20  C   UNL     1     -10.089 -12.518  -7.671  1.00  0.00     0.000 C 
BRANCH  20  21
ATOM     21  C   UNL     1      -8.616 -12.646  -7.237  1.00  0.00     0.000 C 
BRANCH  21  22
ATOM     22  C   UNL     1      -7.605 -12.143  -8.293  1.00  0.00    -0.000 C 
BRANCH  22  23
ATOM     23  C   UNL     1      -6.141 -12.516  -7.998  1.00  0.00    -0.000 C 
BRANCH  23  24
ATOM     24  C   UNL     1      -5.962 -13.189  -6.628  1.00  0.00    -0.000 C 
BRANCH  24  25
ATOM     25  C   UNL     1      -5.724 -12.142  -5.529  1.00  0.00    -0.000 C 
BRANCH  25  26
ATOM     26  C   UNL     1      -6.262 -12.577  -4.154  1.00  0.00    -0.000 C 
BRANCH  26  27
ATOM     27  C   UNL     1      -7.041 -13.905  -4.155  1.00  0.00    -0.000 C 
BRANCH  27  28
ATOM     28  C   UNL     1      -8.521 -13.730  -3.778  1.00  0.00    -0.000 C 
BRANCH  28  29
ATOM     29  C   UNL     1      -8.709 -12.854  -2.529  1.00  0.00    -0.003 C 
ATOM     30  C   UNL     1     -10.050 -13.092  -1.836  1.00  0.00     0.004 C 
ENDBRANCH  28  29
ENDBRANCH  27  28
ENDBRANCH  26  27
ENDBRANCH  25  26
ENDBRANCH  24  25
ENDBRANCH  23  24
ENDBRANCH  22  23
ENDBRANCH  21  22
ENDBRANCH  20  21
ENDBRANCH  19  20
ENDBRANCH  18  19
ENDBRANCH  17  18
ENDBRANCH   1  17
TORSDOF 26
ENDMDL
MODEL 5
REMARK VINA RESULT:    -3.671      4.221     10.622
REMARK INTER + INTRA:         -12.404
REMARK INTER:                  -9.779
REMARK INTRA:                  -2.625
REMARK UNBOUND:                -3.153
REMARK SMILES CCCCCCCCCCCCCCCCCCCCCCCCCCCC(=O)[O-]
REMARK SMILES IDX 15 1 16 2 17 3 18 4 19 5 20 6 21 7 22 8 23 9 24 10 25 11
REMARK SMILES IDX 26 12 27 13 28 14 29 15 30 16 14 17 13 18 12 19 11 20 10 21
REMARK SMILES IDX 9 22 8 23 7 24 6 25 5 26 4 27 3 28 2 29 1 30
REMARK H PARENT
REMARK Flexibility Score: inf
ROOT
ATOM      1  C   UNL     1     -11.490 -13.370  -3.829  1.00  0.00     0.000 C 
ENDROOT
BRANCH   1   2
ATOM      2  C   UNL     1      -9.957 -13.501  -3.839  1.00  0.00     0.000 C 
BRANCH   2   3
ATOM      3  C   UNL     1      -9.318 -13.024  -2.524  1.00  0.00     0.000 C 
BRANCH   3   4
ATOM      4  C   UNL     1      -7.875 -12.527  -2.712  1.00  0.00     0.000 C 
BRANCH   4   5
ATOM      5  C   UNL     1      -7.159 -13.223  -3.892  1.00  0.00     0.000 C 
BRANCH   5   6
ATOM      6  C   UNL     1      -6.077 -12.350  -4.552  1.00  0.00     0.000 C 
BRANCH   6   7
ATOM      7  C   UNL     1      -6.066 -12.415  -6.091  1.00  0.00     0.000 C 
BRANCH   7   8
ATOM      8  C   UNL     1      -6.719 -13.695  -6.659  1.00  0.00     0.000 C 
BRANCH   8   9
ATOM      9  C   UNL     1      -7.720 -13.401  -7.789  1.00  0.00     0.000 C 
BRANCH   9  10
ATOM     10  C   UNL     1      -8.910 -12.548  -7.316  1.00  0.00     0.000 C 
BRANCH  10  11
ATOM     11  C   UNL     1      -9.255 -11.418  -8.299  1.00  0.00     0.000 C 
BRANCH  11  12
ATOM     12  C   UNL     1     -10.619 -11.665  -8.962  1.00  0.00     0.006 C 
BRANCH  12  13
ATOM     13  C   UNL     1     -11.739 -10.835  -8.320  1.00  0.00     0.053 C 
BRANCH  13  14
ATOM     14  C   UNL     1     -13.039 -11.580  -8.293  1.00  0.00     0.041 C 
ATOM     15  O   UNL     1     -13.052 -12.833  -8.410  1.00  0.00    -0.550 OA
ATOM     16  O   UNL     1     -14.236 -10.886  -8.166  1.00  0.00    -0.550 OA
ENDBRANCH  13  14
ENDBRANCH  12  13
ENDBRANCH  11  12
ENDBRANCH  10  11
ENDBRANCH   9  10
ENDBRANCH   8   9
ENDBRANCH   7   8
ENDBRANCH   6   7
ENDBRANCH   5   6
ENDBRANCH   4   5
ENDBRANCH   3   4
ENDBRANCH   2   3
ENDBRANCH   1   2
BRANCH   1  17
ATOM     17  C   UNL     1     -11.991 -12.246  -4.762  1.00  0.00     0.000 C 
BRANCH  17  18
ATOM     18  C   UNL     1     -13.517 -12.036  -4.722  1.00  0.00     0.000 C 
BRANCH  18  19
ATOM     19  C   UNL     1     -14.014 -11.054  -3.644  1.00  0.00     0.000 C 
BRANCH  19  20
ATOM     20  C   UNL     1     -14.430 -11.707  -2.312  1.00  0.00     0.000 C 
BRANCH  20  21
ATOM     21  C   UNL     1     -13.459 -11.472  -1.139  1.00  0.00     0.000 C 
BRANCH  21  22
ATOM     22  C   UNL     1     -12.957 -12.772  -0.470  1.00  0.00    -0.000 C 
BRANCH  22  23
ATOM     23  C   UNL     1     -13.239 -12.858   1.040  1.00  0.00    -0.000 C 
BRANCH  23  24
ATOM     24  C   UNL     1     -13.252 -11.481   1.723  1.00  0.00    -0.000 C 
BRANCH  24  25
ATOM     25  C   UNL     1     -13.179 -11.626   3.251  1.00  0.00    -0.000 C 
BRANCH  25  26
ATOM     26  C   UNL     1     -13.214 -10.274   3.987  1.00  0.00    -0.000 C 
BRANCH  26  27
ATOM     27  C   UNL     1     -11.976  -9.976   4.853  1.00  0.00    -0.000 C 
BRANCH  27  28
ATOM     28  C   UNL     1     -11.835 -10.936   6.045  1.00  0.00    -0.000 C 
BRANCH  28  29
ATOM     29  C   UNL     1     -11.816 -10.198   7.393  1.00  0.00    -0.003 C 
ATOM     30  C   UNL     1     -12.961  -9.195   7.534  1.00  0.00     0.004 C 
ENDBRANCH  28  29
ENDBRANCH  27  28
ENDBRANCH  26  27
ENDBRANCH  25  26
ENDBRANCH  24  25
ENDBRANCH  23  24
ENDBRANCH  22  23
ENDBRANCH  21  22
ENDBRANCH  20  21
ENDBRANCH  19  20
ENDBRANCH  18  19
ENDBRANCH  17  18
ENDBRANCH   1  17
TORSDOF 26
ENDMDL
MODEL 6
REMARK VINA RESULT:    -3.608      1.428      2.385
REMARK INTER + INTRA:         -12.245
REMARK INTER:                  -9.618
REMARK INTRA:                  -2.627
REMARK UNBOUND:                -3.153
REMARK SMILES CCCCCCCCCCCCCCCCCCCCCCCCCCCC(=O)[O-]
REMARK SMILES IDX 15 1 16 2 17 3 18 4 19 5 20 6 21 7 22 8 23 9 24 10 25 11
REMARK SMILES IDX 26 12 27 13 28 14 29 15 30 16 14 17 13 18 12 19 11 20 10 21
REMARK SMILES IDX 9 22 8 23 7 24 6 25 5 26 4 27 3 28 2 29 1 30
REMARK H PARENT
REMARK Flexibility Score: inf
ROOT
ATOM      1  C   UNL     1      -9.147 -13.007  -2.806  1.00  0.00     0.000 C 
ENDROOT
BRANCH   1   2
ATOM      2  C   UNL     1     -10.516 -13.629  -3.129  1.00  0.00     0.000 C 
BRANCH   2   3
ATOM      3  C   UNL     1     -10.963 -13.350  -4.574  1.00  0.00     0.000 C 
BRANCH   3   4
ATOM      4  C   UNL     1     -11.961 -12.184  -4.671  1.00  0.00     0.000 C 
BRANCH   4   5
ATOM      5  C   UNL     1     -13.368 -12.566  -4.159  1.00  0.00     0.000 C 
BRANCH   5   6
ATOM      6  C   UNL     1     -13.726 -11.912  -2.812  1.00  0.00     0.000 C 
BRANCH   6   7
ATOM      7  C   UNL     1     -13.734 -12.887  -1.620  1.00  0.00     0.000 C 
BRANCH   7   8
ATOM      8  C   UNL     1     -12.704 -12.531  -0.525  1.00  0.00     0.000 C 
BRANCH   8   9
ATOM      9  C   UNL     1     -13.255 -11.531   0.507  1.00  0.00     0.000 C 
BRANCH   9  10
ATOM     10  C   UNL     1     -14.005 -12.224   1.658  1.00  0.00     0.000 C 
BRANCH  10  11
ATOM     11  C   UNL     1     -14.540 -11.229   2.699  1.00  0.00     0.000 C 
BRANCH  11  12
ATOM     12  C   UNL     1     -13.399 -10.675   3.566  1.00  0.00     0.006 C 
BRANCH  12  13
ATOM     13  C   UNL     1     -12.577 -11.788   4.230  1.00  0.00     0.053 C 
BRANCH  13  14
ATOM     14  C   UNL     1     -11.430 -11.238   5.022  1.00  0.00     0.041 C 
ATOM     15  O   UNL     1     -10.864 -11.951   5.892  1.00  0.00    -0.550 OA
ATOM     16  O   UNL     1     -11.007  -9.931   4.818  1.00  0.00    -0.550 OA
ENDBRANCH  13  14
ENDBRANCH  12  13
ENDBRANCH  11  12
ENDBRANCH  10  11
ENDBRANCH   9  10
ENDBRANCH   8   9
ENDBRANCH   7   8
ENDBRANCH   6   7
ENDBRANCH   5   6
ENDBRANCH   4   5
ENDBRANCH   3   4
ENDBRANCH   2   3
ENDBRANCH   1   2
BRANCH   1  17
ATOM     17  C   UNL     1      -8.001 -13.649  -3.619  1.00  0.00     0.000 C 
BRANCH  17  18
ATOM     18  C   UNL     1      -6.746 -12.764  -3.735  1.00  0.00     0.000 C 
BRANCH  18  19
ATOM     19  C   UNL     1      -5.518 -13.449  -4.364  1.00  0.00     0.000 C 
BRANCH  19  20
ATOM     20  C   UNL     1      -5.264 -13.101  -5.843  1.00  0.00     0.000 C 
BRANCH  20  21
ATOM     21  C   UNL     1      -6.185 -12.010  -6.422  1.00  0.00     0.000 C 
BRANCH  21  22
ATOM     22  C   UNL     1      -7.411 -12.564  -7.184  1.00  0.00    -0.000 C 
BRANCH  22  23
ATOM     23  C   UNL     1      -7.693 -11.865  -8.527  1.00  0.00    -0.000 C 
BRANCH  23  24
ATOM     24  C   UNL     1      -9.058 -12.246  -9.121  1.00  0.00    -0.000 C 
BRANCH  24  25
ATOM     25  C   UNL     1     -10.103 -12.444  -8.013  1.00  0.00    -0.000 C 
BRANCH  25  26
ATOM     26  C   UNL     1     -11.203 -11.367  -8.023  1.00  0.00    -0.000 C 
BRANCH  26  27
ATOM     27  C   UNL     1     -12.492 -11.764  -8.765  1.00  0.00    -0.000 C 
BRANCH  27  28
ATOM     28  C   UNL     1     -13.206 -12.964  -8.123  1.00  0.00    -0.000 C 
BRANCH  28  29
ATOM     29  C   UNL     1     -14.600 -12.601  -7.589  1.00  0.00    -0.003 C 
ATOM     30  C   UNL     1     -14.964 -11.137  -7.833  1.00  0.00     0.004 C 
ENDBRANCH  28  29
ENDBRANCH  27  28
ENDBRANCH  26  27
ENDBRANCH  25  26
ENDBRANCH  24  25
ENDBRANCH  23  24
ENDBRANCH  22  23
ENDBRANCH  21  22
ENDBRANCH  20  21
ENDBRANCH  19  20
ENDBRANCH  18  19
ENDBRANCH  17  18
ENDBRANCH   1  17
TORSDOF 26
ENDMDL
MODEL 7
REMARK VINA RESULT:    -3.562      1.572      4.226
REMARK INTER + INTRA:         -12.128
REMARK INTER:                  -9.717
REMARK INTRA:                  -2.411
REMARK UNBOUND:                -3.153
REMARK SMILES CCCCCCCCCCCCCCCCCCCCCCCCCCCC(=O)[O-]
REMARK SMILES IDX 15 1 16 2 17 3 18 4 19 5 20 6 21 7 22 8 23 9 24 10 25 11
REMARK SMILES IDX 26 12 27 13 28 14 29 15 30 16 14 17 13 18 12 19 11 20 10 21
REMARK SMILES IDX 9 22 8 23 7 24 6 25 5 26 4 27 3 28 2 29 1 30
REMARK H PARENT
REMARK Flexibility Score: inf
ROOT
ATOM      1  C   UNL     1     -13.999 -11.234  -2.822  1.00  0.00     0.000 C 
ENDROOT
BRANCH   1   2
ATOM      2  C   UNL     1     -13.328 -12.294  -1.933  1.00  0.00     0.000 C 
BRANCH   2   3
ATOM      3  C   UNL     1     -14.212 -13.537  -1.730  1.00  0.00     0.000 C 
BRANCH   3   4
ATOM      4  C   UNL     1     -14.307 -13.963  -0.255  1.00  0.00     0.000 C 
BRANCH   4   5
ATOM      5  C   UNL     1     -14.607 -12.773   0.685  1.00  0.00     0.000 C 
BRANCH   5   6
ATOM      6  C   UNL     1     -13.625 -12.664   1.865  1.00  0.00     0.000 C 
BRANCH   6   7
ATOM      7  C   UNL     1     -13.353 -11.221   2.327  1.00  0.00     0.000 C 
BRANCH   7   8
ATOM      8  C   UNL     1     -14.221 -10.784   3.529  1.00  0.00     0.000 C 
BRANCH   8   9
ATOM      9  C   UNL     1     -13.562  -9.673   4.366  1.00  0.00     0.000 C 
BRANCH   9  10
ATOM     10  C   UNL     1     -14.088  -9.634   5.811  1.00  0.00     0.000 C 
BRANCH  10  11
ATOM     11  C   UNL     1     -12.976  -9.844   6.851  1.00  0.00     0.000 C 
BRANCH  11  12
ATOM     12  C   UNL     1     -11.847 -10.715   6.279  1.00  0.00     0.006 C 
BRANCH  12  13
ATOM     13  C   UNL     1     -12.037 -12.203   6.604  1.00  0.00     0.053 C 
BRANCH  13  14
ATOM     14  C   UNL     1     -11.116 -13.071   5.802  1.00  0.00     0.041 C 
ATOM     15  O   UNL     1     -10.213 -13.734   6.376  1.00  0.00    -0.550 OA
ATOM     16  O   UNL     1     -11.238 -13.124   4.420  1.00  0.00    -0.550 OA
ENDBRANCH  13  14
ENDBRANCH  12  13
ENDBRANCH  11  12
ENDBRANCH  10  11
ENDBRANCH   9  10
ENDBRANCH   8   9
ENDBRANCH   7   8
ENDBRANCH   6   7
ENDBRANCH   5   6
ENDBRANCH   4   5
ENDBRANCH   3   4
ENDBRANCH   2   3
ENDBRANCH   1   2
BRANCH   1  17
ATOM     17  C   UNL     1     -13.709 -11.453  -4.323  1.00  0.00     0.000 C 
BRANCH  17  18
ATOM     18  C   UNL     1     -12.363 -12.148  -4.603  1.00  0.00     0.000 C 
BRANCH  18  19
ATOM     19  C   UNL     1     -12.193 -12.690  -6.036  1.00  0.00     0.000 C 
BRANCH  19  20
ATOM     20  C   UNL     1     -10.904 -12.243  -6.752  1.00  0.00     0.000 C 
BRANCH  20  21
ATOM     21  C   UNL     1      -9.752 -13.265  -6.718  1.00  0.00     0.000 C 
BRANCH  21  22
ATOM     22  C   UNL     1      -8.723 -13.088  -7.857  1.00  0.00    -0.000 C 
BRANCH  22  23
ATOM     23  C   UNL     1      -7.570 -12.123  -7.527  1.00  0.00    -0.000 C 
BRANCH  23  24
ATOM     24  C   UNL     1      -6.415 -12.809  -6.780  1.00  0.00    -0.000 C 
BRANCH  24  25
ATOM     25  C   UNL     1      -5.843 -11.889  -5.691  1.00  0.00    -0.000 C 
BRANCH  25  26
ATOM     26  C   UNL     1      -6.240 -12.319  -4.268  1.00  0.00    -0.000 C 
BRANCH  26  27
ATOM     27  C   UNL     1      -6.729 -13.774  -4.144  1.00  0.00    -0.000 C 
BRANCH  27  28
ATOM     28  C   UNL     1      -8.212 -13.875  -3.753  1.00  0.00    -0.000 C 
BRANCH  28  29
ATOM     29  C   UNL     1      -8.594 -12.887  -2.640  1.00  0.00    -0.003 C 
ATOM     30  C   UNL     1      -9.915 -13.246  -1.959  1.00  0.00     0.004 C 
ENDBRANCH  28  29
ENDBRANCH  27  28
ENDBRANCH  26  27
ENDBRANCH  25  26
ENDBRANCH  24  25
ENDBRANCH  23  24
ENDBRANCH  22  23
ENDBRANCH  21  22
ENDBRANCH  20  21
ENDBRANCH  19  20
ENDBRANCH  18  19
ENDBRANCH  17  18
ENDBRANCH   1  17
TORSDOF 26
ENDMDL
MODEL 8
REMARK VINA RESULT:    -3.558      1.246      3.969
REMARK INTER + INTRA:         -12.118
REMARK INTER:                  -9.321
REMARK INTRA:                  -2.797
REMARK UNBOUND:                -3.153
REMARK SMILES CCCCCCCCCCCCCCCCCCCCCCCCCCCC(=O)[O-]
REMARK SMILES IDX 15 1 16 2 17 3 18 4 19 5 20 6 21 7 22 8 23 9 24 10 25 11
REMARK SMILES IDX 26 12 27 13 28 14 29 15 30 16 14 17 13 18 12 19 11 20 10 21
REMARK SMILES IDX 9 22 8 23 7 24 6 25 5 26 4 27 3 28 2 29 1 30
REMARK H PARENT
REMARK Flexibility Score: inf
ROOT
ATOM      1  C   UNL     1      -9.760 -12.997  -2.416  1.00  0.00     0.000 C 
ENDROOT
BRANCH   1   2
ATOM      2  C   UNL     1     -10.618 -13.312  -1.179  1.00  0.00     0.000 C 
BRANCH   2   3
ATOM      3  C   UNL     1     -12.093 -13.563  -1.535  1.00  0.00     0.000 C 
BRANCH   3   4
ATOM      4  C   UNL     1     -12.921 -12.267  -1.578  1.00  0.00     0.000 C 
BRANCH   4   5
ATOM      5  C   UNL     1     -14.160 -12.327  -0.656  1.00  0.00     0.000 C 
BRANCH   5   6
ATOM      6  C   UNL     1     -14.226 -13.606   0.197  1.00  0.00     0.000 C 
BRANCH   6   7
ATOM      7  C   UNL     1     -14.225 -13.352   1.716  1.00  0.00     0.000 C 
BRANCH   7   8
ATOM      8  C   UNL     1     -12.836 -12.975   2.277  1.00  0.00     0.000 C 
BRANCH   8   9
ATOM      9  C   UNL     1     -12.919 -12.233   3.622  1.00  0.00     0.000 C 
BRANCH   9  10
ATOM     10  C   UNL     1     -13.842 -11.004   3.562  1.00  0.00     0.000 C 
BRANCH  10  11
ATOM     11  C   UNL     1     -13.229  -9.769   4.241  1.00  0.00     0.000 C 
BRANCH  11  12
ATOM     12  C   UNL     1     -11.832 -10.085   4.797  1.00  0.00     0.006 C 
BRANCH  12  13
ATOM     13  C   UNL     1     -11.727  -9.804   6.302  1.00  0.00     0.053 C 
BRANCH  13  14
ATOM     14  C   UNL     1     -12.216 -10.960   7.121  1.00  0.00     0.041 C 
ATOM     15  O   UNL     1     -11.408 -11.840   7.518  1.00  0.00    -0.550 OA
ATOM     16  O   UNL     1     -13.568 -11.079   7.420  1.00  0.00    -0.550 OA
ENDBRANCH  13  14
ENDBRANCH  12  13
ENDBRANCH  11  12
ENDBRANCH  10  11
ENDBRANCH   9  10
ENDBRANCH   8   9
ENDBRANCH   7   8
ENDBRANCH   6   7
ENDBRANCH   5   6
ENDBRANCH   4   5
ENDBRANCH   3   4
ENDBRANCH   2   3
ENDBRANCH   1   2
BRANCH   1  17
ATOM     17  C   UNL     1      -9.981 -14.010  -3.560  1.00  0.00     0.000 C 
BRANCH  17  18
ATOM     18  C   UNL     1     -10.243 -13.356  -4.930  1.00  0.00     0.000 C 
BRANCH  18  19
ATOM     19  C   UNL     1     -11.553 -12.550  -5.030  1.00  0.00     0.000 C 
BRANCH  19  20
ATOM     20  C   UNL     1     -12.507 -12.996  -6.154  1.00  0.00     0.000 C 
BRANCH  20  21
ATOM     21  C   UNL     1     -12.028 -12.674  -7.582  1.00  0.00     0.000 C 
BRANCH  21  22
ATOM     22  C   UNL     1     -11.606 -11.201  -7.785  1.00  0.00    -0.000 C 
BRANCH  22  23
ATOM     23  C   UNL     1     -10.253 -11.020  -8.496  1.00  0.00    -0.000 C 
BRANCH  23  24
ATOM     24  C   UNL     1      -9.342 -12.251  -8.365  1.00  0.00    -0.000 C 
BRANCH  24  25
ATOM     25  C   UNL     1      -7.950 -11.851  -7.853  1.00  0.00    -0.000 C 
BRANCH  25  26
ATOM     26  C   UNL     1      -7.233 -12.988  -7.102  1.00  0.00    -0.000 C 
BRANCH  26  27
ATOM     27  C   UNL     1      -5.706 -13.029  -7.293  1.00  0.00    -0.000 C 
BRANCH  27  28
ATOM     28  C   UNL     1      -4.934 -12.843  -5.978  1.00  0.00    -0.000 C 
BRANCH  28  29
ATOM     29  C   UNL     1      -5.602 -13.565  -4.797  1.00  0.00    -0.003 C 
ATOM     30  C   UNL     1      -6.407 -12.620  -3.906  1.00  0.00     0.004 C 
ENDBRANCH  28  29
ENDBRANCH  27  28
ENDBRANCH  26  27
ENDBRANCH  25  26
ENDBRANCH  24  25
ENDBRANCH  23  24
ENDBRANCH  22  23
ENDBRANCH  21  22
ENDBRANCH  20  21
ENDBRANCH  19  20
ENDBRANCH  18  19
ENDBRANCH  17  18
ENDBRANCH   1  17
TORSDOF 26
ENDMDL
MODEL 9
REMARK VINA RESULT:    -2.366      2.934     10.337
REMARK INTER + INTRA:          -9.115
REMARK INTER:                  -6.720
REMARK INTRA:                  -2.395
REMARK UNBOUND:                -3.153
REMARK SMILES CCCCCCCCCCCCCCCCCCCCCCCCCCCC(=O)[O-]
REMARK SMILES IDX 15 1 16 2 17 3 18 4 19 5 20 6 21 7 22 8 23 9 24 10 25 11
REMARK SMILES IDX 26 12 27 13 28 14 29 15 30 16 14 17 13 18 12 19 11 20 10 21
REMARK SMILES IDX 9 22 8 23 7 24 6 25 5 26 4 27 3 28 2 29 1 30
REMARK H PARENT
REMARK Flexibility Score: inf
ROOT
ATOM      1  C   UNL     1      -9.038 -12.939  -2.481  1.00  0.00     0.000 C 
ENDROOT
BRANCH   1   2
ATOM      2  C   UNL     1      -8.063 -13.566  -3.493  1.00  0.00     0.000 C 
BRANCH   2   3
ATOM      3  C   UNL     1      -6.798 -12.714  -3.697  1.00  0.00     0.000 C 
BRANCH   3   4
ATOM      4  C   UNL     1      -5.632 -13.519  -4.294  1.00  0.00     0.000 C 
BRANCH   4   5
ATOM      5  C   UNL     1      -5.154 -12.949  -5.649  1.00  0.00     0.000 C 
BRANCH   5   6
ATOM      6  C   UNL     1      -6.091 -11.871  -6.223  1.00  0.00     0.000 C 
BRANCH   6   7
ATOM      7  C   UNL     1      -6.850 -12.305  -7.491  1.00  0.00     0.000 C 
BRANCH   7   8
ATOM      8  C   UNL     1      -7.975 -13.328  -7.216  1.00  0.00     0.000 C 
BRANCH   8   9
ATOM      9  C   UNL     1      -9.381 -12.720  -7.360  1.00  0.00     0.000 C 
BRANCH   9  10
ATOM     10  C   UNL     1     -10.306 -13.090  -6.188  1.00  0.00     0.000 C 
BRANCH  10  11
ATOM     11  C   UNL     1     -11.576 -12.226  -6.142  1.00  0.00     0.000 C 
BRANCH  11  12
ATOM     12  C   UNL     1     -12.271 -12.345  -4.777  1.00  0.00     0.006 C 
BRANCH  12  13
ATOM     13  C   UNL     1     -13.634 -11.639  -4.753  1.00  0.00     0.053 C 
BRANCH  13  14
ATOM     14  C   UNL     1     -14.300 -11.758  -3.416  1.00  0.00     0.041 C 
ATOM     15  O   UNL     1     -14.288 -12.856  -2.800  1.00  0.00    -0.550 OA
ATOM     16  O   UNL     1     -14.956 -10.665  -2.865  1.00  0.00    -0.550 OA
ENDBRANCH  13  14
ENDBRANCH  12  13
ENDBRANCH  11  12
ENDBRANCH  10  11
ENDBRANCH   9  10
ENDBRANCH   8   9
ENDBRANCH   7   8
ENDBRANCH   6   7
ENDBRANCH   5   6
ENDBRANCH   4   5
ENDBRANCH   3   4
ENDBRANCH   2   3
ENDBRANCH   1   2
BRANCH   1  17
ATOM     17  C   UNL     1     -10.225 -13.869  -2.151  1.00  0.00     0.000 C 
BRANCH  17  18
ATOM     18  C   UNL     1     -11.265 -13.242  -1.204  1.00  0.00     0.000 C 
BRANCH  18  19
ATOM     19  C   UNL     1     -11.680 -14.125  -0.011  1.00  0.00     0.000 C 
BRANCH  19  20
ATOM     20  C   UNL     1     -12.657 -13.464   0.979  1.00  0.00     0.000 C 
BRANCH  20  21
ATOM     21  C   UNL     1     -12.871 -11.952   0.772  1.00  0.00     0.000 C 
BRANCH  21  22
ATOM     22  C   UNL     1     -13.825 -11.306   1.803  1.00  0.00    -0.000 C 
BRANCH  22  23
ATOM     23  C   UNL     1     -13.646 -11.821   3.242  1.00  0.00    -0.000 C 
BRANCH  23  24
ATOM     24  C   UNL     1     -12.783 -10.886   4.105  1.00  0.00    -0.000 C 
BRANCH  24  25
ATOM     25  C   UNL     1     -13.649  -9.823   4.798  1.00  0.00    -0.000 C 
BRANCH  25  26
ATOM     26  C   UNL     1     -13.942 -10.151   6.273  1.00  0.00    -0.000 C 
BRANCH  26  27
ATOM     27  C   UNL     1     -13.867  -8.949   7.232  1.00  0.00    -0.000 C 
BRANCH  27  28
ATOM     28  C   UNL     1     -12.595  -8.950   8.095  1.00  0.00    -0.000 C 
BRANCH  28  29
ATOM     29  C   UNL     1     -11.796 -10.256   7.960  1.00  0.00    -0.003 C 
ATOM     30  C   UNL     1     -11.443 -10.875   9.312  1.00  0.00     0.004 C 
ENDBRANCH  28  29
ENDBRANCH  27  28
ENDBRANCH  26  27
ENDBRANCH  25  26
ENDBRANCH  24  25
ENDBRANCH  23  24
ENDBRANCH  22  23
ENDBRANCH  21  22
ENDBRANCH  20  21
ENDBRANCH  19  20
ENDBRANCH  18  19
ENDBRANCH  17  18
ENDBRANCH   1  17
TORSDOF 26
ENDMDL
